MODEL 1
REMARK VINA RESULT: -8.859927390      0.000      0.000
REMARK  12 active torsions:
REMARK  status: ('A' for Active; 'I' for Inactive)
REMARK    1  A    between atoms: C2_2  and  N1_3 
REMARK    2  A    between atoms: C3_6  and  C4_7 
REMARK    3  A    between atoms: C4_7  and  C5_8 
REMARK    4  A    between atoms: C4_7  and  N2_12 
REMARK    5  A    between atoms: C5_8  and  C6_9 
REMARK       I    between atoms: N2_12  and  C9_14 
REMARK    6  A    between atoms: C9_14  and  C10_16 
REMARK    7  A    between atoms: C10_16  and  N3_17 
REMARK    8  A    between atoms: C14_21  and  C15_22 
REMARK    9  A    between atoms: C15_22  and  C16_23 
REMARK   10  A    between atoms: C17_24  and  C18_25 
REMARK   11  A    between atoms: C18_25  and  C19_26 
REMARK   12  A    between atoms: C18_25  and  N4_28 
REMARK       I    between atoms: N4_28  and  C20_30 
ROOT
HETATM    1  N3  UNL     1      20.021  42.459  69.926  1.00  0.00    -0.384 N 
HETATM    2  C11 UNL     1      20.399  41.249  69.363  1.00  0.00     0.058 C 
HETATM    3  C12 UNL     1      20.658  41.230  67.887  1.00  0.00     0.044 C 
HETATM    4  C13 UNL     1      19.710  42.124  67.111  1.00  0.00     0.011 C 
HETATM    5  C14 UNL     1      19.897  43.508  67.697  1.00  0.00     0.007 C 
HETATM    6  C22 UNL     1      19.476  43.478  69.113  1.00  0.00     0.127 C 
ENDROOT
BRANCH   1   7
HETATM    7  C10 UNL     1      19.511  42.493  71.246  1.00  0.00     0.224 C 
BRANCH   7   8
HETATM    8  C9  UNL     1      18.054  42.757  71.276  1.00  0.00     0.235 C 
HETATM    9  N2  UNL     1      17.530  43.590  72.281  1.00  0.00    -0.352 N 
ATOM     10  H2  UNL     1      18.143  44.011  72.980  1.00  0.00     0.163 HD
HETATM   11  O1  UNL     1      17.253  42.265  70.434  1.00  0.00    -0.272 OA
BRANCH   9  12
HETATM   12  C4  UNL     1      16.071  43.847  72.305  1.00  0.00     0.109 C 
BRANCH  12  13
HETATM   13  C3  UNL     1      15.890  45.231  71.836  1.00  0.00     0.022 C 
HETATM   14  C2  UNL     1      15.675  45.623  70.473  1.00  0.00    -0.004 C 
HETATM   15  C1  UNL     1      14.911  46.928  70.168  1.00  0.00     0.067 C 
BRANCH  14  16
HETATM   16  N1  UNL     1      16.096  45.087  69.407  1.00  0.00    -0.403 N 
ATOM     17  H12 UNL     1      15.691  44.327  68.861  1.00  0.00     0.156 HD
ATOM     18  H11 UNL     1      17.003  45.471  69.140  1.00  0.00     0.156 HD
ENDBRANCH  14  16
ENDBRANCH  12  13
BRANCH  12  19
HETATM   19  C5  UNL     1      15.540  43.425  73.607  1.00  0.00     0.033 C 
BRANCH  19  20
HETATM   20  C6  UNL     1      14.945  44.295  74.608  1.00  0.00    -0.021 C 
HETATM   21  C7  UNL     1      13.450  44.444  74.601  1.00  0.00     0.009 C 
HETATM   22  C8  UNL     1      15.273  43.718  76.006  1.00  0.00     0.009 C 
ENDBRANCH  19  20
ENDBRANCH  12  19
ENDBRANCH   9  12
ENDBRANCH   7   8
ENDBRANCH   1   7
BRANCH   5  23
HETATM   23  C15 UNL     1      19.084  44.541  66.947  1.00  0.00     0.033 C 
BRANCH  23  24
HETATM   24  C16 UNL     1      18.115  43.820  66.087  1.00  0.00    -0.028 C 
HETATM   25  C17 UNL     1      16.811  43.995  66.246  1.00  0.00     0.001 C 
BRANCH  25  26
HETATM   26  C18 UNL     1      15.822  43.267  65.377  1.00  0.00     0.168 C 
BRANCH  26  27
HETATM   27  C19 UNL     1      16.515  42.085  64.759  1.00  0.00     0.260 C 
HETATM   28  O2  UNL     1      16.348  40.961  65.239  1.00  0.00    -0.304 OA
ENDBRANCH  26  27
BRANCH  26  29
HETATM   29  N4  UNL     1      14.684  42.848  66.151  1.00  0.00    -0.347 N 
HETATM   30  C20 UNL     1      13.411  42.762  65.550  1.00  0.00     0.214 C 
HETATM   31  C21 UNL     1      12.246  42.324  66.372  1.00  0.00     0.117 C 
HETATM   32  O3  UNL     1      13.272  43.057  64.325  1.00  0.00    -0.274 OA
ATOM     33  H4  UNL     1      14.798  42.611  67.136  1.00  0.00     0.163 HD
ENDBRANCH  26  29
ENDBRANCH  25  26
ENDBRANCH  23  24
ENDBRANCH   5  23
TORSDOF 12
ENDMDL
MODEL 2
REMARK VINA RESULT: -8.763295840      1.871      5.481
REMARK  12 active torsions:
REMARK  status: ('A' for Active; 'I' for Inactive)
REMARK    1  A    between atoms: C2_2  and  N1_3 
REMARK    2  A    between atoms: C3_6  and  C4_7 
REMARK    3  A    between atoms: C4_7  and  C5_8 
REMARK    4  A    between atoms: C4_7  and  N2_12 
REMARK    5  A    between atoms: C5_8  and  C6_9 
REMARK       I    between atoms: N2_12  and  C9_14 
REMARK    6  A    between atoms: C9_14  and  C10_16 
REMARK    7  A    between atoms: C10_16  and  N3_17 
REMARK    8  A    between atoms: C14_21  and  C15_22 
REMARK    9  A    between atoms: C15_22  and  C16_23 
REMARK   10  A    between atoms: C17_24  and  C18_25 
REMARK   11  A    between atoms: C18_25  and  C19_26 
REMARK   12  A    between atoms: C18_25  and  N4_28 
REMARK       I    between atoms: N4_28  and  C20_30 
ROOT
HETATM    1  N3  UNL     1      17.086  44.470  71.515  1.00  0.00    -0.384 N 
HETATM    2  C11 UNL     1      16.099  45.406  71.783  1.00  0.00     0.058 C 
HETATM    3  C12 UNL     1      15.392  46.013  70.609  1.00  0.00     0.044 C 
HETATM    4  C13 UNL     1      16.311  46.248  69.426  1.00  0.00     0.011 C 
HETATM    5  C14 UNL     1      16.889  44.889  69.093  1.00  0.00     0.007 C 
HETATM    6  C22 UNL     1      17.697  44.430  70.242  1.00  0.00     0.127 C 
ENDROOT
BRANCH   1   7
HETATM    7  C10 UNL     1      17.964  44.057  72.546  1.00  0.00     0.224 C 
BRANCH   7   8
HETATM    8  C9  UNL     1      18.908  43.011  72.092  1.00  0.00     0.235 C 
HETATM    9  N2  UNL     1      20.024  43.384  71.320  1.00  0.00    -0.352 N 
ATOM     10  H2  UNL     1      20.184  44.362  71.077  1.00  0.00     0.163 HD
HETATM   11  O1  UNL     1      18.758  41.789  72.367  1.00  0.00    -0.272 OA
BRANCH   9  12
HETATM   12  C4  UNL     1      20.962  42.330  70.867  1.00  0.00     0.109 C 
BRANCH  12  13
HETATM   13  C3  UNL     1      22.152  42.443  71.728  1.00  0.00     0.022 C 
HETATM   14  C2  UNL     1      22.507  41.530  72.775  1.00  0.00    -0.004 C 
HETATM   15  C1  UNL     1      23.988  41.368  73.175  1.00  0.00     0.067 C 
BRANCH  14  16
HETATM   16  N1  UNL     1      21.758  40.842  73.530  1.00  0.00    -0.403 N 
ATOM     17  H12 UNL     1      21.167  40.043  73.303  1.00  0.00     0.156 HD
ATOM     18  H11 UNL     1      21.738  41.231  74.473  1.00  0.00     0.156 HD
ENDBRANCH  14  16
ENDBRANCH  12  13
BRANCH  12  19
HETATM   19  C5  UNL     1      21.087  42.408  69.406  1.00  0.00     0.033 C 
BRANCH  19  20
HETATM   20  C6  UNL     1      20.430  41.536  68.447  1.00  0.00    -0.021 C 
HETATM   21  C7  UNL     1      20.364  41.996  67.018  1.00  0.00     0.009 C 
HETATM   22  C8  UNL     1      21.212  40.201  68.392  1.00  0.00     0.009 C 
ENDBRANCH  19  20
ENDBRANCH  12  19
ENDBRANCH   9  12
ENDBRANCH   7   8
ENDBRANCH   1   7
BRANCH   5  23
HETATM   23  C15 UNL     1      17.756  44.945  67.854  1.00  0.00     0.033 C 
BRANCH  23  24
HETATM   24  C16 UNL     1      17.189  44.000  66.860  1.00  0.00    -0.028 C 
HETATM   25  C17 UNL     1      15.906  44.052  66.534  1.00  0.00     0.001 C 
BRANCH  25  26
HETATM   26  C18 UNL     1      15.324  43.098  65.528  1.00  0.00     0.168 C 
BRANCH  26  27
HETATM   27  C19 UNL     1      16.417  42.175  65.064  1.00  0.00     0.260 C 
HETATM   28  O2  UNL     1      16.350  40.971  65.329  1.00  0.00    -0.304 OA
ENDBRANCH  26  27
BRANCH  26  29
HETATM   29  N4  UNL     1      14.237  42.355  66.107  1.00  0.00    -0.347 N 
HETATM   30  C20 UNL     1      12.924  42.521  65.616  1.00  0.00     0.214 C 
HETATM   31  C21 UNL     1      11.813  41.739  66.232  1.00  0.00     0.117 C 
HETATM   32  O3  UNL     1      12.706  43.327  64.663  1.00  0.00    -0.274 OA
ATOM     33  H4  UNL     1      14.415  41.707  66.874  1.00  0.00     0.163 HD
ENDBRANCH  26  29
ENDBRANCH  25  26
ENDBRANCH  23  24
ENDBRANCH   5  23
TORSDOF 12
ENDMDL
MODEL 3
REMARK VINA RESULT: -8.744306154      1.024      2.724
REMARK  12 active torsions:
REMARK  status: ('A' for Active; 'I' for Inactive)
REMARK    1  A    between atoms: C2_2  and  N1_3 
REMARK    2  A    between atoms: C3_6  and  C4_7 
REMARK    3  A    between atoms: C4_7  and  C5_8 
REMARK    4  A    between atoms: C4_7  and  N2_12 
REMARK    5  A    between atoms: C5_8  and  C6_9 
REMARK       I    between atoms: N2_12  and  C9_14 
REMARK    6  A    between atoms: C9_14  and  C10_16 
REMARK    7  A    between atoms: C10_16  and  N3_17 
REMARK    8  A    between atoms: C14_21  and  C15_22 
REMARK    9  A    between atoms: C15_22  and  C16_23 
REMARK   10  A    between atoms: C17_24  and  C18_25 
REMARK   11  A    between atoms: C18_25  and  C19_26 
REMARK   12  A    between atoms: C18_25  and  N4_28 
REMARK       I    between atoms: N4_28  and  C20_30 
ROOT
HETATM    1  N3  UNL     1      19.487  42.046  69.735  1.00  0.00    -0.384 N 
HETATM    2  C11 UNL     1      20.255  41.093  69.084  1.00  0.00     0.058 C 
HETATM    3  C12 UNL     1      20.860  41.480  67.769  1.00  0.00     0.044 C 
HETATM    4  C13 UNL     1      19.949  42.364  66.940  1.00  0.00     0.011 C 
HETATM    5  C14 UNL     1      19.669  43.573  67.807  1.00  0.00     0.007 C 
HETATM    6  C22 UNL     1      18.937  43.127  69.011  1.00  0.00     0.127 C 
ENDROOT
BRANCH   1   7
HETATM    7  C10 UNL     1      18.681  41.669  70.836  1.00  0.00     0.224 C 
BRANCH   7   8
HETATM    8  C9  UNL     1      18.223  42.839  71.620  1.00  0.00     0.235 C 
HETATM    9  N2  UNL     1      16.878  43.241  71.529  1.00  0.00    -0.352 N 
ATOM     10  H2  UNL     1      16.223  42.735  70.932  1.00  0.00     0.163 HD
HETATM   11  O1  UNL     1      18.991  43.498  72.375  1.00  0.00    -0.272 OA
BRANCH   9  12
HETATM   12  C4  UNL     1      16.430  44.415  72.315  1.00  0.00     0.109 C 
BRANCH  12  13
HETATM   13  C3  UNL     1      15.232  43.980  73.055  1.00  0.00     0.022 C 
HETATM   14  C2  UNL     1      15.108  43.944  74.483  1.00  0.00    -0.004 C 
HETATM   15  C1  UNL     1      13.713  44.079  75.129  1.00  0.00     0.067 C 
BRANCH  14  16
HETATM   16  N1  UNL     1      15.993  43.732  75.362  1.00  0.00    -0.403 N 
ATOM     17  H12 UNL     1      15.911  43.265  76.265  1.00  0.00     0.156 HD
ATOM     18  H11 UNL     1      16.877  44.169  75.100  1.00  0.00     0.156 HD
ENDBRANCH  14  16
ENDBRANCH  12  13
BRANCH  12  19
HETATM   19  C5  UNL     1      16.376  45.583  71.428  1.00  0.00     0.033 C 
BRANCH  19  20
HETATM   20  C6  UNL     1      15.418  45.796  70.356  1.00  0.00    -0.021 C 
HETATM   21  C7  UNL     1      14.290  46.755  70.609  1.00  0.00     0.009 C 
HETATM   22  C8  UNL     1      16.173  46.393  69.144  1.00  0.00     0.009 C 
ENDBRANCH  19  20
ENDBRANCH  12  19
ENDBRANCH   9  12
ENDBRANCH   7   8
ENDBRANCH   1   7
BRANCH   5  23
HETATM   23  C15 UNL     1      18.848  44.607  67.068  1.00  0.00     0.033 C 
BRANCH  23  24
HETATM   24  C16 UNL     1      17.921  43.887  66.160  1.00  0.00    -0.028 C 
HETATM   25  C17 UNL     1      16.611  43.947  66.348  1.00  0.00     0.001 C 
BRANCH  25  26
HETATM   26  C18 UNL     1      15.665  43.220  65.431  1.00  0.00     0.168 C 
BRANCH  26  27
HETATM   27  C19 UNL     1      16.404  42.072  64.802  1.00  0.00     0.260 C 
HETATM   28  O2  UNL     1      16.404  40.970  65.357  1.00  0.00    -0.304 OA
ENDBRANCH  26  27
BRANCH  26  29
HETATM   29  N4  UNL     1      14.516  42.752  66.160  1.00  0.00    -0.347 N 
HETATM   30  C20 UNL     1      13.248  42.724  65.542  1.00  0.00     0.214 C 
HETATM   31  C21 UNL     1      12.072  42.234  66.318  1.00  0.00     0.117 C 
HETATM   32  O3  UNL     1      13.124  43.112  64.342  1.00  0.00    -0.274 OA
ATOM     33  H4  UNL     1      14.619  42.440  67.125  1.00  0.00     0.163 HD
ENDBRANCH  26  29
ENDBRANCH  25  26
ENDBRANCH  23  24
ENDBRANCH   5  23
TORSDOF 12
ENDMDL
MODEL 4
REMARK VINA RESULT: -8.721624044      1.891      5.684
REMARK  12 active torsions:
REMARK  status: ('A' for Active; 'I' for Inactive)
REMARK    1  A    between atoms: C2_2  and  N1_3 
REMARK    2  A    between atoms: C3_6  and  C4_7 
REMARK    3  A    between atoms: C4_7  and  C5_8 
REMARK    4  A    between atoms: C4_7  and  N2_12 
REMARK    5  A    between atoms: C5_8  and  C6_9 
REMARK       I    between atoms: N2_12  and  C9_14 
REMARK    6  A    between atoms: C9_14  and  C10_16 
REMARK    7  A    between atoms: C10_16  and  N3_17 
REMARK    8  A    between atoms: C14_21  and  C15_22 
REMARK    9  A    between atoms: C15_22  and  C16_23 
REMARK   10  A    between atoms: C17_24  and  C18_25 
REMARK   11  A    between atoms: C18_25  and  C19_26 
REMARK   12  A    between atoms: C18_25  and  N4_28 
REMARK       I    between atoms: N4_28  and  C20_30 
ROOT
HETATM    1  N3  UNL     1      17.420  44.201  70.950  1.00  0.00    -0.384 N 
HETATM    2  C11 UNL     1      16.486  45.125  71.397  1.00  0.00     0.058 C 
HETATM    3  C12 UNL     1      15.624  45.784  70.363  1.00  0.00     0.044 C 
HETATM    4  C13 UNL     1      16.367  46.072  69.073  1.00  0.00     0.011 C 
HETATM    5  C14 UNL     1      16.883  44.729  68.601  1.00  0.00     0.007 C 
HETATM    6  C22 UNL     1      17.843  44.218  69.602  1.00  0.00     0.127 C 
ENDROOT
BRANCH   1   7
HETATM    7  C10 UNL     1      18.432  43.743  71.827  1.00  0.00     0.224 C 
BRANCH   7   8
HETATM    8  C9  UNL     1      19.050  42.482  71.356  1.00  0.00     0.235 C 
HETATM    9  N2  UNL     1      20.309  42.528  70.730  1.00  0.00    -0.352 N 
ATOM     10  H2  UNL     1      20.794  43.417  70.602  1.00  0.00     0.163 HD
HETATM   11  O1  UNL     1      18.495  41.357  71.492  1.00  0.00    -0.272 OA
BRANCH   9  12
HETATM   12  C4  UNL     1      20.919  41.262  70.260  1.00  0.00     0.109 C 
BRANCH  12  13
HETATM   13  C3  UNL     1      22.310  41.271  70.745  1.00  0.00     0.022 C 
HETATM   14  C2  UNL     1      23.452  40.839  69.993  1.00  0.00    -0.004 C 
HETATM   15  C1  UNL     1      24.840  41.435  70.307  1.00  0.00     0.067 C 
BRANCH  14  16
HETATM   16  N1  UNL     1      23.538  39.938  69.108  1.00  0.00    -0.403 N 
ATOM     17  H12 UNL     1      24.035  39.950  68.218  1.00  0.00     0.156 HD
ATOM     18  H11 UNL     1      22.955  39.136  69.348  1.00  0.00     0.156 HD
ENDBRANCH  14  16
ENDBRANCH  12  13
BRANCH  12  19
HETATM   19  C5  UNL     1      20.627  41.101  68.831  1.00  0.00     0.033 C 
BRANCH  19  20
HETATM   20  C6  UNL     1      20.640  42.160  67.834  1.00  0.00    -0.021 C 
HETATM   21  C7  UNL     1      21.813  42.221  66.897  1.00  0.00     0.009 C 
HETATM   22  C8  UNL     1      19.412  41.970  66.911  1.00  0.00     0.009 C 
ENDBRANCH  19  20
ENDBRANCH  12  19
ENDBRANCH   9  12
ENDBRANCH   7   8
ENDBRANCH   1   7
BRANCH   5  23
HETATM   23  C15 UNL     1      17.565  44.840  67.255  1.00  0.00     0.033 C 
BRANCH  23  24
HETATM   24  C16 UNL     1      16.627  44.326  66.227  1.00  0.00    -0.028 C 
HETATM   25  C17 UNL     1      15.746  43.383  66.528  1.00  0.00     0.001 C 
BRANCH  25  26
HETATM   26  C18 UNL     1      14.791  42.857  65.492  1.00  0.00     0.168 C 
BRANCH  26  27
HETATM   27  C19 UNL     1      15.505  41.815  64.676  1.00  0.00     0.260 C 
HETATM   28  O2  UNL     1      16.275  41.028  65.233  1.00  0.00    -0.304 OA
ENDBRANCH  26  27
BRANCH  26  29
HETATM   29  N4  UNL     1      13.620  42.305  66.118  1.00  0.00    -0.347 N 
HETATM   30  C20 UNL     1      12.336  42.634  65.636  1.00  0.00     0.214 C 
HETATM   31  C21 UNL     1      11.137  42.048  66.302  1.00  0.00     0.117 C 
HETATM   32  O3  UNL     1      12.217  43.419  64.649  1.00  0.00    -0.274 OA
ATOM     33  H4  UNL     1      13.719  41.673  66.913  1.00  0.00     0.163 HD
ENDBRANCH  26  29
ENDBRANCH  25  26
ENDBRANCH  23  24
ENDBRANCH   5  23
TORSDOF 12
ENDMDL
MODEL 5
REMARK VINA RESULT: -8.704659794      2.000      5.596
REMARK  12 active torsions:
REMARK  status: ('A' for Active; 'I' for Inactive)
REMARK    1  A    between atoms: C2_2  and  N1_3 
REMARK    2  A    between atoms: C3_6  and  C4_7 
REMARK    3  A    between atoms: C4_7  and  C5_8 
REMARK    4  A    between atoms: C4_7  and  N2_12 
REMARK    5  A    between atoms: C5_8  and  C6_9 
REMARK       I    between atoms: N2_12  and  C9_14 
REMARK    6  A    between atoms: C9_14  and  C10_16 
REMARK    7  A    between atoms: C10_16  and  N3_17 
REMARK    8  A    between atoms: C14_21  and  C15_22 
REMARK    9  A    between atoms: C15_22  and  C16_23 
REMARK   10  A    between atoms: C17_24  and  C18_25 
REMARK   11  A    between atoms: C18_25  and  C19_26 
REMARK   12  A    between atoms: C18_25  and  N4_28 
REMARK       I    between atoms: N4_28  and  C20_30 
ROOT
HETATM    1  N3  UNL     1      17.578  44.322  72.229  1.00  0.00    -0.384 N 
HETATM    2  C11 UNL     1      16.512  44.915  72.889  1.00  0.00     0.058 C 
HETATM    3  C12 UNL     1      15.368  45.396  72.050  1.00  0.00     0.044 C 
HETATM    4  C13 UNL     1      15.815  45.983  70.725  1.00  0.00     0.011 C 
HETATM    5  C14 UNL     1      16.588  44.877  70.039  1.00  0.00     0.007 C 
HETATM    6  C22 UNL     1      17.782  44.566  70.852  1.00  0.00     0.127 C 
ENDROOT
BRANCH   1   7
HETATM    7  C10 UNL     1      18.791  44.087  72.920  1.00  0.00     0.224 C 
BRANCH   7   8
HETATM    8  C9  UNL     1      19.586  43.001  72.300  1.00  0.00     0.235 C 
HETATM    9  N2  UNL     1      20.543  43.325  71.322  1.00  0.00    -0.352 N 
ATOM     10  H2  UNL     1      20.692  44.295  71.041  1.00  0.00     0.163 HD
HETATM   11  O1  UNL     1      19.443  41.787  72.613  1.00  0.00    -0.272 OA
BRANCH   9  12
HETATM   12  C4  UNL     1      21.331  42.232  70.706  1.00  0.00     0.109 C 
BRANCH  12  13
HETATM   13  C3  UNL     1      22.661  42.279  71.338  1.00  0.00     0.022 C 
HETATM   14  C2  UNL     1      23.085  41.460  72.436  1.00  0.00    -0.004 C 
HETATM   15  C1  UNL     1      24.584  41.138  72.612  1.00  0.00     0.067 C 
BRANCH  14  16
HETATM   16  N1  UNL     1      22.408  40.984  73.394  1.00  0.00    -0.403 N 
ATOM     17  H12 UNL     1      22.620  40.965  74.391  1.00  0.00     0.156 HD
ATOM     18  H11 UNL     1      21.571  40.513  73.047  1.00  0.00     0.156 HD
ENDBRANCH  14  16
ENDBRANCH  12  13
BRANCH  12  19
HETATM   19  C5  UNL     1      21.195  42.318  69.247  1.00  0.00     0.033 C 
BRANCH  19  20
HETATM   20  C6  UNL     1      20.103  42.955  68.529  1.00  0.00    -0.021 C 
HETATM   21  C7  UNL     1      20.405  44.224  67.783  1.00  0.00     0.009 C 
HETATM   22  C8  UNL     1      19.602  41.973  67.442  1.00  0.00     0.009 C 
ENDBRANCH  19  20
ENDBRANCH  12  19
ENDBRANCH   9  12
ENDBRANCH   7   8
ENDBRANCH   1   7
BRANCH   5  23
HETATM   23  C15 UNL     1      17.015  45.281  68.645  1.00  0.00     0.033 C 
BRANCH  23  24
HETATM   24  C16 UNL     1      16.154  44.558  67.678  1.00  0.00    -0.028 C 
HETATM   25  C17 UNL     1      16.663  44.067  66.557  1.00  0.00     0.001 C 
BRANCH  25  26
HETATM   26  C18 UNL     1      15.796  43.331  65.572  1.00  0.00     0.168 C 
BRANCH  26  27
HETATM   27  C19 UNL     1      16.617  42.240  64.942  1.00  0.00     0.260 C 
HETATM   28  O2  UNL     1      16.545  41.091  65.384  1.00  0.00    -0.304 OA
ENDBRANCH  26  27
BRANCH  26  29
HETATM   29  N4  UNL     1      14.637  42.788  66.227  1.00  0.00    -0.347 N 
HETATM   30  C20 UNL     1      13.383  42.809  65.582  1.00  0.00     0.214 C 
HETATM   31  C21 UNL     1      12.195  42.238  66.282  1.00  0.00     0.117 C 
HETATM   32  O3  UNL     1      13.280  43.310  64.423  1.00  0.00    -0.274 OA
ATOM     33  H4  UNL     1      14.723  42.385  67.160  1.00  0.00     0.163 HD
ENDBRANCH  26  29
ENDBRANCH  25  26
ENDBRANCH  23  24
ENDBRANCH   5  23
TORSDOF 12
ENDMDL
