MODEL 1
REMARK VINA RESULT: -6.484952602      0.000      0.000
REMARK  3 active torsions:
REMARK  status: ('A' for Active; 'I' for Inactive)
REMARK    1  A    between atoms: N2_3  and  C2_5 
REMARK    2  A    between atoms: C2_5  and  C4_13 
REMARK    3  A    between atoms: N3_6  and  N4_8 
REMARK       I    between atoms: N4_8  and  C3_10 
ROOT
HETATM    1  N1  UNL     1      25.934  49.137  -2.390  1.00  0.00    -0.172 NA
HETATM    2  C1  UNL     1      27.062  48.969  -2.133  1.00  0.00     0.183 C 
HETATM    3  N2  UNL     1      28.418  48.784  -1.836  1.00  0.00    -0.274 N 
ATOM      4  H2  UNL     1      29.101  49.511  -2.045  1.00  0.00     0.180 HD
ENDROOT
BRANCH   3   5
HETATM    5  C2  UNL     1      28.817  47.571  -1.242  1.00  0.00     0.195 C 
HETATM    6  N3  UNL     1      29.586  46.764  -1.853  1.00  0.00    -0.277 N 
ATOM      7  H3  UNL     1      29.869  45.888  -1.414  1.00  0.00     0.189 HD
BRANCH   6   8
HETATM    8  N4  UNL     1      30.038  47.091  -3.130  1.00  0.00    -0.252 N 
HETATM    9  C3  UNL     1      29.325  46.644  -4.276  1.00  0.00     0.347 C 
HETATM   10  N5  UNL     1      29.743  46.950  -5.589  1.00  0.00    -0.038 NA
HETATM   11  O1  UNL     1      28.279  45.948  -4.146  1.00  0.00    -0.249 OA
ATOM     12  H4  UNL     1      30.882  47.653  -3.243  1.00  0.00     0.191 HD
ENDBRANCH   6   8
BRANCH   5  13
HETATM   13  C4  UNL     1      28.344  47.240   0.082  1.00  0.00     0.300 C 
HETATM   14  N6  UNL     1      28.063  45.887   0.423  1.00  0.00    -0.054 NA
HETATM   15  O2  UNL     1      28.158  48.106   0.986  1.00  0.00    -0.268 OA
ENDBRANCH   5  13
ENDBRANCH   3   5
TORSDOF 3
ENDMDL
MODEL 2
REMARK VINA RESULT: -6.406655893      1.598      1.635
REMARK  3 active torsions:
REMARK  status: ('A' for Active; 'I' for Inactive)
REMARK    1  A    between atoms: N2_3  and  C2_5 
REMARK    2  A    between atoms: C2_5  and  C4_13 
REMARK    3  A    between atoms: N3_6  and  N4_8 
REMARK       I    between atoms: N4_8  and  C3_10 
ROOT
HETATM    1  N1  UNL     1      26.025  49.613  -2.081  1.00  0.00    -0.172 NA
HETATM    2  C1  UNL     1      26.306  48.479  -2.082  1.00  0.00     0.183 C 
HETATM    3  N2  UNL     1      26.622  47.114  -2.087  1.00  0.00    -0.274 N 
ATOM      4  H2  UNL     1      25.955  46.426  -2.434  1.00  0.00     0.180 HD
ENDROOT
BRANCH   3   5
HETATM    5  C2  UNL     1      27.882  46.715  -1.602  1.00  0.00     0.195 C 
HETATM    6  N3  UNL     1      28.768  46.248  -2.386  1.00  0.00    -0.277 N 
ATOM      7  H3  UNL     1      29.678  45.962  -2.025  1.00  0.00     0.189 HD
BRANCH   6   8
HETATM    8  N4  UNL     1      28.481  46.134  -3.745  1.00  0.00    -0.252 N 
HETATM    9  C3  UNL     1      29.508  46.319  -4.710  1.00  0.00     0.347 C 
HETATM   10  N5  UNL     1      29.266  46.214  -6.097  1.00  0.00    -0.038 NA
HETATM   11  O1  UNL     1      30.687  46.588  -4.344  1.00  0.00    -0.249 OA
ATOM     12  H4  UNL     1      27.531  45.917  -4.048  1.00  0.00     0.191 HD
ENDBRANCH   6   8
BRANCH   5  13
HETATM   13  C4  UNL     1      28.172  46.837  -0.192  1.00  0.00     0.300 C 
HETATM   14  N6  UNL     1      28.546  48.097   0.354  1.00  0.00    -0.054 NA
HETATM   15  O2  UNL     1      28.112  45.861   0.612  1.00  0.00    -0.268 OA
ENDBRANCH   5  13
ENDBRANCH   3   5
TORSDOF 3
ENDMDL
MODEL 3
REMARK VINA RESULT: -6.374256671      1.582      1.788
REMARK  3 active torsions:
REMARK  status: ('A' for Active; 'I' for Inactive)
REMARK    1  A    between atoms: N2_3  and  C2_5 
REMARK    2  A    between atoms: C2_5  and  C4_13 
REMARK    3  A    between atoms: N3_6  and  N4_8 
REMARK       I    between atoms: N4_8  and  C3_10 
ROOT
HETATM    1  N1  UNL     1      25.894  49.544  -2.156  1.00  0.00    -0.172 NA
HETATM    2  C1  UNL     1      26.922  49.148  -2.545  1.00  0.00     0.183 C 
HETATM    3  N2  UNL     1      28.150  48.678  -3.029  1.00  0.00    -0.274 N 
ATOM      4  H2  UNL     1      28.493  48.966  -3.945  1.00  0.00     0.180 HD
ENDROOT
BRANCH   3   5
HETATM    5  C2  UNL     1      28.899  47.800  -2.223  1.00  0.00     0.195 C 
HETATM    6  N3  UNL     1      29.157  46.616  -2.609  1.00  0.00    -0.277 N 
ATOM      7  H3  UNL     1      29.701  45.987  -2.017  1.00  0.00     0.189 HD
BRANCH   6   8
HETATM    8  N4  UNL     1      28.687  46.187  -3.849  1.00  0.00    -0.252 N 
HETATM    9  C3  UNL     1      29.558  46.161  -4.972  1.00  0.00     0.347 C 
HETATM   10  N5  UNL     1      29.129  45.736  -6.248  1.00  0.00    -0.038 NA
HETATM   11  O1  UNL     1      30.762  46.525  -4.855  1.00  0.00    -0.249 OA
ATOM     12  H4  UNL     1      27.716  45.892  -3.951  1.00  0.00     0.191 HD
ENDBRANCH   6   8
BRANCH   5  13
HETATM   13  C4  UNL     1      29.382  48.252  -0.940  1.00  0.00     0.300 C 
HETATM   14  N6  UNL     1      30.662  48.868  -0.833  1.00  0.00    -0.054 NA
HETATM   15  O2  UNL     1      28.718  48.129   0.131  1.00  0.00    -0.268 OA
ENDBRANCH   5  13
ENDBRANCH   3   5
TORSDOF 3
ENDMDL
MODEL 4
REMARK VINA RESULT: -6.359007407      1.852      3.111
REMARK  3 active torsions:
REMARK  status: ('A' for Active; 'I' for Inactive)
REMARK    1  A    between atoms: N2_3  and  C2_5 
REMARK    2  A    between atoms: C2_5  and  C4_13 
REMARK    3  A    between atoms: N3_6  and  N4_8 
REMARK       I    between atoms: N4_8  and  C3_10 
ROOT
HETATM    1  N1  UNL     1      28.587  45.870   0.379  1.00  0.00    -0.172 NA
HETATM    2  C1  UNL     1      27.946  46.033  -0.585  1.00  0.00     0.183 C 
HETATM    3  N2  UNL     1      27.171  46.209  -1.738  1.00  0.00    -0.274 N 
ATOM      4  H2  UNL     1      26.433  45.546  -1.976  1.00  0.00     0.180 HD
ENDROOT
BRANCH   3   5
HETATM    5  C2  UNL     1      27.433  47.321  -2.561  1.00  0.00     0.195 C 
HETATM    6  N3  UNL     1      28.094  47.197  -3.640  1.00  0.00    -0.277 N 
ATOM      7  H3  UNL     1      28.278  48.009  -4.230  1.00  0.00     0.189 HD
BRANCH   6   8
HETATM    8  N4  UNL     1      28.564  45.937  -4.007  1.00  0.00    -0.252 N 
HETATM    9  C3  UNL     1      29.349  45.783  -5.182  1.00  0.00     0.347 C 
HETATM   10  N5  UNL     1      29.848  44.528  -5.595  1.00  0.00    -0.038 NA
HETATM   11  O1  UNL     1      29.627  46.784  -5.901  1.00  0.00    -0.249 OA
ATOM     12  H4  UNL     1      28.344  45.124  -3.432  1.00  0.00     0.191 HD
ENDBRANCH   6   8
BRANCH   5  13
HETATM   13  C4  UNL     1      26.942  48.623  -2.173  1.00  0.00     0.300 C 
HETATM   14  N6  UNL     1      26.620  49.591  -3.166  1.00  0.00    -0.054 NA
HETATM   15  O2  UNL     1      26.776  48.967  -0.966  1.00  0.00    -0.268 OA
ENDBRANCH   5  13
ENDBRANCH   3   5
TORSDOF 3
ENDMDL
MODEL 5
REMARK VINA RESULT: -6.347687286      2.299      2.429
REMARK  3 active torsions:
REMARK  status: ('A' for Active; 'I' for Inactive)
REMARK    1  A    between atoms: N2_3  and  C2_5 
REMARK    2  A    between atoms: C2_5  and  C4_13 
REMARK    3  A    between atoms: N3_6  and  N4_8 
REMARK       I    between atoms: N4_8  and  C3_10 
ROOT
HETATM    1  N1  UNL     1      25.770  49.459  -2.425  1.00  0.00    -0.172 NA
HETATM    2  C1  UNL     1      26.699  49.291  -1.736  1.00  0.00     0.183 C 
HETATM    3  N2  UNL     1      27.814  49.110  -0.909  1.00  0.00    -0.274 N 
ATOM      4  H2  UNL     1      28.162  49.874  -0.329  1.00  0.00     0.180 HD
ENDROOT
BRANCH   3   5
HETATM    5  C2  UNL     1      28.444  47.851  -0.895  1.00  0.00     0.195 C 
HETATM    6  N3  UNL     1      29.666  47.726  -1.226  1.00  0.00    -0.277 N 
ATOM      7  H3  UNL     1      30.113  46.809  -1.212  1.00  0.00     0.189 HD
BRANCH   6   8
HETATM    8  N4  UNL     1      30.386  48.857  -1.606  1.00  0.00    -0.252 N 
HETATM    9  C3  UNL     1      31.502  48.733  -2.477  1.00  0.00     0.347 C 
HETATM   10  N5  UNL     1      32.263  49.848  -2.891  1.00  0.00    -0.038 NA
HETATM   11  O1  UNL     1      31.850  47.599  -2.912  1.00  0.00    -0.249 OA
ATOM     12  H4  UNL     1      30.111  49.776  -1.259  1.00  0.00     0.191 HD
ENDBRANCH   6   8
BRANCH   5  13
HETATM   13  C4  UNL     1      27.691  46.685  -0.499  1.00  0.00     0.300 C 
HETATM   14  N6  UNL     1      28.231  45.773   0.451  1.00  0.00    -0.054 NA
HETATM   15  O2  UNL     1      26.543  46.413  -0.961  1.00  0.00    -0.268 OA
ENDBRANCH   5  13
ENDBRANCH   3   5
TORSDOF 3
ENDMDL
