MODEL 1
REMARK VINA RESULT: -5.964052984      0.000      0.000
REMARK  4 active torsions:
REMARK  status: ('A' for Active; 'I' for Inactive)
REMARK    1  A    between atoms: N3_4  and  C2_6 
REMARK    2  A    between atoms: C2_6  and  N4_8 
REMARK    3  A    between atoms: N4_8  and  C3_10 
REMARK    4  A    between atoms: N5_11  and  O1_13 
ROOT
HETATM    1  C2  UNL     1      27.881  46.803  -3.232  1.00  0.00     0.178 C 
HETATM    2  S1  UNL     1      28.838  46.291  -4.447  1.00  0.00    -0.040 SA
ENDROOT
BRANCH   1   3
HETATM    3  N3  UNL     1      27.881  46.057  -2.030  1.00  0.00    -0.310 N 
HETATM    4  C1  UNL     1      28.535  46.360  -0.982  1.00  0.00     0.203 C 
HETATM    5  N1  UNL     1      29.365  47.487  -0.849  1.00  0.00    -0.066 NA
HETATM    6  N2  UNL     1      28.406  45.476   0.144  1.00  0.00    -0.066 NA
ATOM      7  H3  UNL     1      27.312  45.211  -2.001  1.00  0.00     0.170 HD
ENDBRANCH   1   3
BRANCH   1   8
HETATM    8  N4  UNL     1      27.106  47.969  -3.453  1.00  0.00    -0.328 N 
ATOM      9  H4  UNL     1      27.040  48.337  -4.402  1.00  0.00     0.169 HD
BRANCH   8  10
HETATM   10  C3  UNL     1      26.419  48.644  -2.416  1.00  0.00     0.206 C 
HETATM   11  N5  UNL     1      26.989  49.477  -1.614  1.00  0.00    -0.265 N 
ATOM     12  H5  UNL     1      27.985  49.660  -1.731  1.00  0.00     0.194 HD
BRANCH  11  13
HETATM   13  O1  UNL     1      26.322  50.123  -0.617  1.00  0.00    -0.289 OA
ATOM     14  H1  UNL     1      26.007  51.015  -0.699  1.00  0.00     0.244 HD
ENDBRANCH  11  13
ENDBRANCH   8  10
ENDBRANCH   1   8
TORSDOF 4
ENDMDL
MODEL 2
REMARK VINA RESULT: -5.709621700      2.818      3.594
REMARK  4 active torsions:
REMARK  status: ('A' for Active; 'I' for Inactive)
REMARK    1  A    between atoms: N3_4  and  C2_6 
REMARK    2  A    between atoms: C2_6  and  N4_8 
REMARK    3  A    between atoms: N4_8  and  C3_10 
REMARK    4  A    between atoms: N5_11  and  O1_13 
ROOT
HETATM    1  C2  UNL     1      27.207  48.568  -1.740  1.00  0.00     0.178 C 
HETATM    2  S1  UNL     1      26.444  49.634  -2.707  1.00  0.00    -0.040 SA
ENDROOT
BRANCH   1   3
HETATM    3  N3  UNL     1      28.462  48.941  -1.204  1.00  0.00    -0.310 N 
HETATM    4  C1  UNL     1      29.582  48.454  -1.560  1.00  0.00     0.203 C 
HETATM    5  N1  UNL     1      29.753  47.465  -2.546  1.00  0.00    -0.066 NA
HETATM    6  N2  UNL     1      30.752  48.961  -0.899  1.00  0.00    -0.066 NA
ATOM      7  H3  UNL     1      28.470  49.655  -0.476  1.00  0.00     0.170 HD
ENDBRANCH   1   3
BRANCH   1   8
HETATM    8  N4  UNL     1      26.565  47.329  -1.492  1.00  0.00    -0.328 N 
ATOM      9  H4  UNL     1      25.709  47.113  -2.002  1.00  0.00     0.169 HD
BRANCH   8  10
HETATM   10  C3  UNL     1      27.059  46.378  -0.568  1.00  0.00     0.206 C 
HETATM   11  N5  UNL     1      27.935  45.483  -0.873  1.00  0.00    -0.265 N 
ATOM     12  H5  UNL     1      28.292  45.458  -1.828  1.00  0.00     0.194 HD
BRANCH  11  13
HETATM   13  O1  UNL     1      28.407  44.569   0.021  1.00  0.00    -0.289 OA
ATOM     14  H1  UNL     1      29.332  44.385   0.134  1.00  0.00     0.244 HD
ENDBRANCH  11  13
ENDBRANCH   8  10
ENDBRANCH   1   8
TORSDOF 4
ENDMDL
MODEL 3
REMARK VINA RESULT: -5.673269698      2.739      3.787
REMARK  4 active torsions:
REMARK  status: ('A' for Active; 'I' for Inactive)
REMARK    1  A    between atoms: N3_4  and  C2_6 
REMARK    2  A    between atoms: C2_6  and  N4_8 
REMARK    3  A    between atoms: N4_8  and  C3_10 
REMARK    4  A    between atoms: N5_11  and  O1_13 
ROOT
HETATM    1  C2  UNL     1      27.453  48.672  -2.087  1.00  0.00     0.178 C 
HETATM    2  S1  UNL     1      26.085  49.263  -2.744  1.00  0.00    -0.040 SA
ENDROOT
BRANCH   1   3
HETATM    3  N3  UNL     1      28.585  48.537  -2.924  1.00  0.00    -0.310 N 
HETATM    4  C1  UNL     1      28.828  47.536  -3.669  1.00  0.00     0.203 C 
HETATM    5  N1  UNL     1      28.007  46.400  -3.783  1.00  0.00    -0.066 NA
HETATM    6  N2  UNL     1      30.033  47.582  -4.450  1.00  0.00    -0.066 NA
ATOM      7  H3  UNL     1      29.260  49.303  -2.929  1.00  0.00     0.170 HD
ENDBRANCH   1   3
BRANCH   1   8
HETATM    8  N4  UNL     1      27.427  48.328  -0.712  1.00  0.00    -0.328 N 
ATOM      9  H4  UNL     1      26.983  48.973  -0.057  1.00  0.00     0.169 HD
BRANCH   8  10
HETATM   10  C3  UNL     1      27.987  47.130  -0.207  1.00  0.00     0.206 C 
HETATM   11  N5  UNL     1      27.655  45.960  -0.632  1.00  0.00    -0.265 N 
ATOM     12  H5  UNL     1      26.954  45.891  -1.370  1.00  0.00     0.194 HD
BRANCH  11  13
HETATM   13  O1  UNL     1      28.198  44.810  -0.142  1.00  0.00    -0.289 OA
ATOM     14  H1  UNL     1      27.750  43.973  -0.171  1.00  0.00     0.244 HD
ENDBRANCH  11  13
ENDBRANCH   8  10
ENDBRANCH   1   8
TORSDOF 4
ENDMDL
MODEL 4
REMARK VINA RESULT: -5.623164391      1.448      1.448
REMARK  4 active torsions:
REMARK  status: ('A' for Active; 'I' for Inactive)
REMARK    1  A    between atoms: N3_4  and  C2_6 
REMARK    2  A    between atoms: C2_6  and  N4_8 
REMARK    3  A    between atoms: N4_8  and  C3_10 
REMARK    4  A    between atoms: N5_11  and  O1_13 
ROOT
HETATM    1  C2  UNL     1      29.456  47.589  -2.583  1.00  0.00     0.178 C 
HETATM    2  S1  UNL     1      31.057  47.776  -2.824  1.00  0.00    -0.040 SA
ENDROOT
BRANCH   1   3
HETATM    3  N3  UNL     1      29.033  46.563  -1.707  1.00  0.00    -0.310 N 
HETATM    4  C1  UNL     1      28.828  46.705  -0.460  1.00  0.00     0.203 C 
HETATM    5  N1  UNL     1      28.989  47.908   0.250  1.00  0.00    -0.066 NA
HETATM    6  N2  UNL     1      28.399  45.542   0.266  1.00  0.00    -0.066 NA
ATOM      7  H3  UNL     1      28.881  45.636  -2.106  1.00  0.00     0.170 HD
ENDBRANCH   1   3
BRANCH   1   8
HETATM    8  N4  UNL     1      28.582  48.470  -3.268  1.00  0.00    -0.328 N 
ATOM      9  H4  UNL     1      28.869  48.833  -4.178  1.00  0.00     0.169 HD
BRANCH   8  10
HETATM   10  C3  UNL     1      27.328  48.869  -2.748  1.00  0.00     0.206 C 
HETATM   11  N5  UNL     1      27.199  49.596  -1.692  1.00  0.00    -0.265 N 
ATOM     12  H5  UNL     1      28.041  49.901  -1.205  1.00  0.00     0.194 HD
BRANCH  11  13
HETATM   13  O1  UNL     1      25.988  49.976  -1.195  1.00  0.00    -0.289 OA
ATOM     14  H1  UNL     1      25.864  50.766  -0.682  1.00  0.00     0.244 HD
ENDBRANCH  11  13
ENDBRANCH   8  10
ENDBRANCH   1   8
TORSDOF 4
ENDMDL
MODEL 5
REMARK VINA RESULT: -5.500689859      2.969      3.967
REMARK  4 active torsions:
REMARK  status: ('A' for Active; 'I' for Inactive)
REMARK    1  A    between atoms: N3_4  and  C2_6 
REMARK    2  A    between atoms: C2_6  and  N4_8 
REMARK    3  A    between atoms: N4_8  and  C3_10 
REMARK    4  A    between atoms: N5_11  and  O1_13 
ROOT
HETATM    1  C2  UNL     1      27.607  48.327  -2.949  1.00  0.00     0.178 C 
HETATM    2  S1  UNL     1      26.295  49.282  -2.815  1.00  0.00    -0.040 SA
ENDROOT
BRANCH   1   3
HETATM    3  N3  UNL     1      28.805  48.910  -3.425  1.00  0.00    -0.310 N 
HETATM    4  C1  UNL     1      29.686  48.308  -4.117  1.00  0.00     0.203 C 
HETATM    5  N1  UNL     1      29.610  46.963  -4.523  1.00  0.00    -0.066 NA
HETATM    6  N2  UNL     1      30.839  49.070  -4.509  1.00  0.00    -0.066 NA
ATOM      7  H3  UNL     1      28.976  49.889  -3.194  1.00  0.00     0.170 HD
ENDBRANCH   1   3
BRANCH   1   8
HETATM    8  N4  UNL     1      27.470  46.965  -2.580  1.00  0.00    -0.328 N 
ATOM      9  H4  UNL     1      27.370  46.268  -3.318  1.00  0.00     0.169 HD
BRANCH   8  10
HETATM   10  C3  UNL     1      27.464  46.529  -1.233  1.00  0.00     0.206 C 
HETATM   11  N5  UNL     1      28.080  45.472  -0.829  1.00  0.00    -0.265 N 
ATOM     12  H5  UNL     1      28.597  44.919  -1.513  1.00  0.00     0.194 HD
BRANCH  11  13
HETATM   13  O1  UNL     1      28.071  45.057   0.469  1.00  0.00    -0.289 OA
ATOM     14  H1  UNL     1      28.142  44.144   0.721  1.00  0.00     0.244 HD
ENDBRANCH  11  13
ENDBRANCH   8  10
ENDBRANCH   1   8
TORSDOF 4
ENDMDL
