MODEL 1
REMARK VINA RESULT: -6.682232192      0.000      0.000
REMARK  3 active torsions:
REMARK  status: ('A' for Active; 'I' for Inactive)
REMARK    1  A    between atoms: C4_9  and  N4_10 
REMARK    2  A    between atoms: N4_10  and  N5_12 
REMARK    3  A    between atoms: N5_12  and  O1_14 
ROOT
HETATM    1  N1  UNL     1      32.808  30.365  11.024  1.00  0.00    -0.062 NA
HETATM    2  C1  UNL     1      33.231  29.407  12.006  1.00  0.00     0.208 A 
HETATM    3  N2  UNL     1      33.022  28.147  11.871  1.00  0.00    -0.314 N 
ATOM      4  H2  UNL     1      32.538  27.819  11.036  1.00  0.00     0.170 HD
HETATM    5  C2  UNL     1      33.442  27.182  12.847  1.00  0.00     0.138 A 
HETATM    6  N3  UNL     1      33.350  25.826  12.935  1.00  0.00    -0.348 N 
ATOM      7  H3  UNL     1      32.910  25.234  12.230  1.00  0.00     0.167 HD
HETATM    8  C3  UNL     1      33.901  25.370  14.047  1.00  0.00     0.123 A 
HETATM    9  C4  UNL     1      34.385  26.463  14.739  1.00  0.00     0.097 A 
HETATM   10  C5  UNL     1      34.097  27.602  13.984  1.00  0.00     0.122 A 
HETATM   11  N6  UNL     1      34.336  28.988  14.150  1.00  0.00    -0.293 N 
ATOM     12  H6  UNL     1      34.818  29.328  14.982  1.00  0.00     0.187 HD
HETATM   13  N7  UNL     1      33.908  29.888  13.169  1.00  0.00    -0.273 N 
ATOM     14  H7  UNL     1      34.079  30.888  13.283  1.00  0.00     0.189 HD
ENDROOT
BRANCH   9  15
HETATM   15  N4  UNL     1      35.065  26.503  15.987  1.00  0.00    -0.278 N 
ATOM     16  H4  UNL     1      35.966  26.978  16.049  1.00  0.00     0.189 HD
BRANCH  15  17
HETATM   17  N5  UNL     1      34.520  25.896  17.145  1.00  0.00    -0.210 N 
ATOM     18  H5  UNL     1      33.551  26.049  17.426  1.00  0.00     0.215 HD
BRANCH  17  19
HETATM   19  O1  UNL     1      35.295  25.159  17.809  1.00  0.00    -0.274 OA
ATOM     20  H1  UNL     1      34.929  24.345  18.132  1.00  0.00     0.246 HD
ENDBRANCH  17  19
ENDBRANCH  15  17
ENDBRANCH   9  15
TORSDOF 3
ENDMDL
MODEL 2
REMARK VINA RESULT: -4.925771922      2.672      5.162
REMARK  3 active torsions:
REMARK  status: ('A' for Active; 'I' for Inactive)
REMARK    1  A    between atoms: C4_9  and  N4_10 
REMARK    2  A    between atoms: N4_10  and  N5_12 
REMARK    3  A    between atoms: N5_12  and  O1_14 
ROOT
HETATM    1  N1  UNL     1      34.902  25.871  16.292  1.00  0.00    -0.062 NA
HETATM    2  C1  UNL     1      34.406  26.568  15.138  1.00  0.00     0.208 A 
HETATM    3  N2  UNL     1      33.852  27.723  15.219  1.00  0.00    -0.314 N 
ATOM      4  H2  UNL     1      33.761  28.159  16.136  1.00  0.00     0.170 HD
HETATM    5  C2  UNL     1      33.353  28.426  14.071  1.00  0.00     0.138 A 
HETATM    6  N3  UNL     1      32.747  29.632  13.891  1.00  0.00    -0.348 N 
ATOM      7  H3  UNL     1      32.533  30.284  14.647  1.00  0.00     0.167 HD
HETATM    8  C3  UNL     1      32.470  29.855  12.618  1.00  0.00     0.123 A 
HETATM    9  C4  UNL     1      32.907  28.754  11.908  1.00  0.00     0.097 A 
HETATM   10  C5  UNL     1      33.464  27.856  12.821  1.00  0.00     0.122 A 
HETATM   11  N6  UNL     1      34.072  26.582  12.713  1.00  0.00    -0.293 N 
ATOM     12  H6  UNL     1      34.166  26.136  11.801  1.00  0.00     0.187 HD
HETATM   13  N7  UNL     1      34.543  25.938  13.862  1.00  0.00    -0.273 N 
ATOM     14  H7  UNL     1      34.983  25.021  13.790  1.00  0.00     0.189 HD
ENDROOT
BRANCH   9  15
HETATM   15  N4  UNL     1      32.845  28.510  10.508  1.00  0.00    -0.278 N 
ATOM     16  H4  UNL     1      32.036  28.025  10.122  1.00  0.00     0.189 HD
BRANCH  15  17
HETATM   17  N5  UNL     1      33.884  28.927   9.640  1.00  0.00    -0.210 N 
ATOM     18  H5  UNL     1      33.691  29.288   8.705  1.00  0.00     0.215 HD
BRANCH  17  19
HETATM   19  O1  UNL     1      35.058  28.828  10.083  1.00  0.00    -0.274 OA
ATOM     20  H1  UNL     1      35.465  29.631  10.386  1.00  0.00     0.246 HD
ENDBRANCH  17  19
ENDBRANCH  15  17
ENDBRANCH   9  15
TORSDOF 3
ENDMDL
MODEL 3
REMARK VINA RESULT: -4.341918330      1.263      2.448
REMARK  3 active torsions:
REMARK  status: ('A' for Active; 'I' for Inactive)
REMARK    1  A    between atoms: C4_9  and  N4_10 
REMARK    2  A    between atoms: N4_10  and  N5_12 
REMARK    3  A    between atoms: N5_12  and  O1_14 
ROOT
HETATM    1  N1  UNL     1      32.336  30.195   9.410  1.00  0.00    -0.062 NA
HETATM    2  C1  UNL     1      32.802  29.483  10.567  1.00  0.00     0.208 A 
HETATM    3  N2  UNL     1      33.324  30.079  11.577  1.00  0.00    -0.314 N 
ATOM      4  H2  UNL     1      33.410  31.094  11.555  1.00  0.00     0.170 HD
HETATM    5  C2  UNL     1      33.792  29.374  12.736  1.00  0.00     0.138 A 
HETATM    6  N3  UNL     1      34.363  29.761  13.912  1.00  0.00    -0.348 N 
ATOM      7  H3  UNL     1      34.565  30.731  14.158  1.00  0.00     0.167 HD
HETATM    8  C3  UNL     1      34.621  28.727  14.693  1.00  0.00     0.123 A 
HETATM    9  C4  UNL     1      34.210  27.594  14.019  1.00  0.00     0.097 A 
HETATM   10  C5  UNL     1      33.687  28.001  12.789  1.00  0.00     0.122 A 
HETATM   11  N6  UNL     1      33.114  27.327  11.684  1.00  0.00    -0.293 N 
ATOM     12  H6  UNL     1      33.025  26.311  11.695  1.00  0.00     0.187 HD
HETATM   13  N7  UNL     1      32.672  28.059  10.577  1.00  0.00    -0.273 N 
ATOM     14  H7  UNL     1      32.257  27.579   9.779  1.00  0.00     0.189 HD
ENDROOT
BRANCH   9  15
HETATM   15  N4  UNL     1      34.266  26.236  14.434  1.00  0.00    -0.278 N 
ATOM     16  H4  UNL     1      33.898  25.510  13.820  1.00  0.00     0.189 HD
BRANCH  15  17
HETATM   17  N5  UNL     1      34.823  25.868  15.684  1.00  0.00    -0.210 N 
ATOM     18  H5  UNL     1      35.778  25.518  15.765  1.00  0.00     0.215 HD
BRANCH  17  19
HETATM   19  O1  UNL     1      34.076  25.997  16.690  1.00  0.00    -0.274 OA
ATOM     20  H1  UNL     1      33.820  26.884  16.914  1.00  0.00     0.246 HD
ENDBRANCH  17  19
ENDBRANCH  15  17
ENDBRANCH   9  15
TORSDOF 3
ENDMDL
MODEL 4
REMARK VINA RESULT: -3.910330720      1.628      1.773
REMARK  3 active torsions:
REMARK  status: ('A' for Active; 'I' for Inactive)
REMARK    1  A    between atoms: C4_9  and  N4_10 
REMARK    2  A    between atoms: N4_10  and  N5_12 
REMARK    3  A    between atoms: N5_12  and  O1_14 
ROOT
HETATM    1  N1  UNL     1      32.536  30.157   9.588  1.00  0.00    -0.062 NA
HETATM    2  C1  UNL     1      32.988  29.322  10.666  1.00  0.00     0.208 A 
HETATM    3  N2  UNL     1      32.196  28.886  11.576  1.00  0.00    -0.314 N 
ATOM      4  H2  UNL     1      31.210  29.142  11.531  1.00  0.00     0.170 HD
HETATM    5  C2  UNL     1      32.640  28.052  12.657  1.00  0.00     0.138 A 
HETATM    6  N3  UNL     1      32.016  27.467  13.717  1.00  0.00    -0.348 N 
ATOM      7  H3  UNL     1      31.019  27.556  13.916  1.00  0.00     0.167 HD
HETATM    8  C3  UNL     1      32.861  26.769  14.456  1.00  0.00     0.123 A 
HETATM    9  C4  UNL     1      34.106  26.887  13.872  1.00  0.00     0.097 A 
HETATM   10  C5  UNL     1      33.967  27.693  12.740  1.00  0.00     0.122 A 
HETATM   11  N6  UNL     1      34.856  28.165  11.745  1.00  0.00    -0.293 N 
ATOM     12  H6  UNL     1      35.845  27.916  11.782  1.00  0.00     0.187 HD
HETATM   13  N7  UNL     1      34.374  28.975  10.711  1.00  0.00    -0.273 N 
ATOM     14  H7  UNL     1      35.010  29.317   9.991  1.00  0.00     0.189 HD
ENDROOT
BRANCH   9  15
HETATM   15  N4  UNL     1      35.344  26.320  14.282  1.00  0.00    -0.278 N 
ATOM     16  H4  UNL     1      35.977  25.940  13.578  1.00  0.00     0.189 HD
BRANCH  15  17
HETATM   17  N5  UNL     1      35.717  26.269  15.648  1.00  0.00    -0.210 N 
ATOM     18  H5  UNL     1      36.645  26.555  15.962  1.00  0.00     0.215 HD
BRANCH  17  19
HETATM   19  O1  UNL     1      34.843  25.853  16.452  1.00  0.00    -0.274 OA
ATOM     20  H1  UNL     1      33.938  25.952  16.181  1.00  0.00     0.246 HD
ENDBRANCH  17  19
ENDBRANCH  15  17
ENDBRANCH   9  15
TORSDOF 3
ENDMDL
MODEL 5
REMARK VINA RESULT: -3.731816583      3.081      5.090
REMARK  3 active torsions:
REMARK  status: ('A' for Active; 'I' for Inactive)
REMARK    1  A    between atoms: C4_9  and  N4_10 
REMARK    2  A    between atoms: N4_10  and  N5_12 
REMARK    3  A    between atoms: N5_12  and  O1_14 
ROOT
HETATM    1  N1  UNL     1      35.014  25.626  17.256  1.00  0.00    -0.062 NA
HETATM    2  C1  UNL     1      34.697  26.156  15.960  1.00  0.00     0.208 A 
HETATM    3  N2  UNL     1      33.505  26.501  15.632  1.00  0.00    -0.314 N 
ATOM      4  H2  UNL     1      32.758  26.394  16.318  1.00  0.00     0.170 HD
HETATM    5  C2  UNL     1      33.179  27.032  14.339  1.00  0.00     0.138 A 
HETATM    6  N3  UNL     1      32.026  27.469  13.759  1.00  0.00    -0.348 N 
ATOM      7  H3  UNL     1      31.117  27.476  14.225  1.00  0.00     0.167 HD
HETATM    8  C3  UNL     1      32.228  27.883  12.520  1.00  0.00     0.123 A 
HETATM    9  C4  UNL     1      33.572  27.719  12.251  1.00  0.00     0.097 A 
HETATM   10  C5  UNL     1      34.170  27.185  13.394  1.00  0.00     0.122 A 
HETATM   11  N6  UNL     1      35.491  26.809  13.738  1.00  0.00    -0.293 N 
ATOM     12  H6  UNL     1      36.245  26.910  13.059  1.00  0.00     0.187 HD
HETATM   13  N7  UNL     1      35.758  26.297  15.012  1.00  0.00    -0.273 N 
ATOM     14  H7  UNL     1      36.708  26.026  15.266  1.00  0.00     0.189 HD
ENDROOT
BRANCH   9  15
HETATM   15  N4  UNL     1      34.289  28.020  11.061  1.00  0.00    -0.278 N 
ATOM     16  H4  UNL     1      34.924  27.325  10.671  1.00  0.00     0.189 HD
BRANCH  15  17
HETATM   17  N5  UNL     1      34.140  29.267  10.405  1.00  0.00    -0.210 N 
ATOM     18  H5  UNL     1      34.888  29.961  10.392  1.00  0.00     0.215 HD
BRANCH  17  19
HETATM   19  O1  UNL     1      33.034  29.474   9.839  1.00  0.00    -0.274 OA
ATOM     20  H1  UNL     1      32.956  30.283   9.348  1.00  0.00     0.246 HD
ENDBRANCH  17  19
ENDBRANCH  15  17
ENDBRANCH   9  15
TORSDOF 3
ENDMDL
