MODEL 1
REMARK VINA RESULT: -5.811532690      0.000      0.000
REMARK  3 active torsions:
REMARK  status: ('A' for Active; 'I' for Inactive)
REMARK    1  A    between atoms: N2_4  and  C1_6 
REMARK    2  A    between atoms: N4_11  and  N5_12 
REMARK    3  A    between atoms: C6_19  and  N7_20 
ROOT
HETATM    1  C1  UNL     1      33.203  28.371  11.699  1.00  0.00     0.093 A 
HETATM    2  C2  UNL     1      33.155  27.122  12.285  1.00  0.00     0.068 A 
HETATM    3  C3  UNL     1      33.627  27.009  13.587  1.00  0.00     0.080 A 
HETATM    4  N3  UNL     1      33.749  26.026  14.471  1.00  0.00    -0.278 N 
ATOM      5  H3  UNL     1      33.468  25.063  14.291  1.00  0.00     0.189 HD
HETATM    6  N4  UNL     1      34.276  26.437  15.614  1.00  0.00    -0.212 N 
HETATM    7  C4  UNL     1      34.512  27.749  15.480  1.00  0.00     0.167 A 
HETATM    8  C5  UNL     1      34.119  28.152  14.221  1.00  0.00     0.081 A 
HETATM    9  N6  UNL     1      34.139  29.348  13.591  1.00  0.00    -0.338 N 
ATOM     10  H6  UNL     1      34.505  30.162  14.085  1.00  0.00     0.167 HD
HETATM   11  C6  UNL     1      33.691  29.494  12.332  1.00  0.00     0.128 A 
ENDROOT
BRANCH   1  12
HETATM   12  N2  UNL     1      32.726  28.506  10.370  1.00  0.00    -0.304 N 
HETATM   13  N1  UNL     1      32.709  29.563   9.710  1.00  0.00    -0.345 N 
ATOM     14  H12 UNL     1      33.073  30.392  10.181  1.00  0.00     0.176 HD
ATOM     15  H11 UNL     1      32.366  29.660   8.755  1.00  0.00     0.176 HD
ATOM     16  H2  UNL     1      32.365  27.666   9.916  1.00  0.00     0.186 HD
ENDBRANCH   1  12
BRANCH  11  17
HETATM   17  N7  UNL     1      33.721  30.652  11.746  1.00  0.00    -0.384 N 
ATOM     18  H72 UNL     1      34.559  31.232  11.777  1.00  0.00     0.157 HD
ATOM     19  H71 UNL     1      32.915  31.019  11.239  1.00  0.00     0.157 HD
ENDBRANCH  11  17
BRANCH   6  20
HETATM   20  N5  UNL     1      34.516  25.601  16.723  1.00  0.00    -0.324 N 
ATOM     21  H52 UNL     1      34.532  24.582  16.767  1.00  0.00     0.178 HD
ATOM     22  H51 UNL     1      34.714  25.939  17.665  1.00  0.00     0.178 HD
ENDBRANCH   6  20
TORSDOF 3
ENDMDL
MODEL 2
REMARK VINA RESULT: -5.595914207      1.249      5.032
REMARK  3 active torsions:
REMARK  status: ('A' for Active; 'I' for Inactive)
REMARK    1  A    between atoms: N2_4  and  C1_6 
REMARK    2  A    between atoms: N4_11  and  N5_12 
REMARK    3  A    between atoms: C6_19  and  N7_20 
ROOT
HETATM    1  C1  UNL     1      34.466  26.735  14.643  1.00  0.00     0.093 A 
HETATM    2  C2  UNL     1      34.614  28.104  14.556  1.00  0.00     0.068 A 
HETATM    3  C3  UNL     1      34.030  28.742  13.469  1.00  0.00     0.080 A 
HETATM    4  N3  UNL     1      33.944  29.995  13.036  1.00  0.00    -0.278 N 
ATOM      5  H3  UNL     1      34.361  30.791  13.518  1.00  0.00     0.189 HD
HETATM    6  N4  UNL     1      33.257  30.094  11.909  1.00  0.00    -0.212 N 
HETATM    7  C4  UNL     1      32.871  28.853  11.583  1.00  0.00     0.167 A 
HETATM    8  C5  UNL     1      33.334  27.971  12.536  1.00  0.00     0.081 A 
HETATM    9  N6  UNL     1      33.225  26.631  12.678  1.00  0.00    -0.338 N 
ATOM     10  H6  UNL     1      32.708  26.099  11.977  1.00  0.00     0.167 HD
HETATM   11  C6  UNL     1      33.777  25.981  13.716  1.00  0.00     0.128 A 
ENDROOT
BRANCH   1  12
HETATM   12  N2  UNL     1      35.055  26.065  15.746  1.00  0.00    -0.304 N 
HETATM   13  N1  UNL     1      34.559  25.974  16.886  1.00  0.00    -0.345 N 
ATOM     14  H12 UNL     1      33.654  26.423  17.020  1.00  0.00     0.176 HD
ATOM     15  H11 UNL     1      34.983  25.492  17.679  1.00  0.00     0.176 HD
ATOM     16  H2  UNL     1      35.961  25.622  15.593  1.00  0.00     0.186 HD
ENDBRANCH   1  12
BRANCH  11  17
HETATM   17  N7  UNL     1      33.660  24.693  13.833  1.00  0.00    -0.384 N 
ATOM     18  H72 UNL     1      34.459  24.117  14.098  1.00  0.00     0.157 HD
ATOM     19  H71 UNL     1      32.773  24.216  13.666  1.00  0.00     0.157 HD
ENDBRANCH  11  17
BRANCH   6  20
HETATM   20  N5  UNL     1      33.013  31.306  11.232  1.00  0.00    -0.324 N 
ATOM     21  H52 UNL     1      32.378  31.491  10.456  1.00  0.00     0.178 HD
ATOM     22  H51 UNL     1      33.471  32.190  11.454  1.00  0.00     0.178 HD
ENDBRANCH   6  20
TORSDOF 3
ENDMDL
MODEL 3
REMARK VINA RESULT: -4.710423587      1.030      2.042
REMARK  3 active torsions:
REMARK  status: ('A' for Active; 'I' for Inactive)
REMARK    1  A    between atoms: N2_4  and  C1_6 
REMARK    2  A    between atoms: N4_11  and  N5_12 
REMARK    3  A    between atoms: C6_19  and  N7_20 
ROOT
HETATM    1  C1  UNL     1      33.847  29.181  12.215  1.00  0.00     0.093 A 
HETATM    2  C2  UNL     1      34.354  29.181  13.499  1.00  0.00     0.068 A 
HETATM    3  C3  UNL     1      34.247  28.003  14.227  1.00  0.00     0.080 A 
HETATM    4  N3  UNL     1      34.596  27.604  15.445  1.00  0.00    -0.278 N 
ATOM      5  H3  UNL     1      35.065  28.202  16.125  1.00  0.00     0.189 HD
HETATM    6  N4  UNL     1      34.265  26.344  15.677  1.00  0.00    -0.212 N 
HETATM    7  C4  UNL     1      33.674  25.889  14.565  1.00  0.00     0.167 A 
HETATM    8  C5  UNL     1      33.641  26.898  13.626  1.00  0.00     0.081 A 
HETATM    9  N6  UNL     1      33.164  26.962  12.363  1.00  0.00    -0.338 N 
ATOM     10  H6  UNL     1      32.727  26.135  11.955  1.00  0.00     0.167 HD
HETATM   11  C6  UNL     1      33.249  28.085  11.630  1.00  0.00     0.128 A 
ENDROOT
BRANCH   1  12
HETATM   12  N2  UNL     1      33.946  30.375  11.456  1.00  0.00    -0.304 N 
HETATM   13  N1  UNL     1      33.150  31.333  11.505  1.00  0.00    -0.345 N 
ATOM     14  H12 UNL     1      32.367  31.234  12.151  1.00  0.00     0.176 HD
ATOM     15  H11 UNL     1      33.222  32.192  10.959  1.00  0.00     0.176 HD
ATOM     16  H2  UNL     1      34.736  30.457  10.815  1.00  0.00     0.186 HD
ENDBRANCH   1  12
BRANCH  11  17
HETATM   17  N7  UNL     1      32.784  28.125  10.418  1.00  0.00    -0.384 N 
ATOM     18  H72 UNL     1      31.918  27.645  10.175  1.00  0.00     0.157 HD
ATOM     19  H71 UNL     1      33.264  28.633   9.674  1.00  0.00     0.157 HD
ENDBRANCH  11  17
BRANCH   6  20
HETATM   20  N5  UNL     1      34.518  25.667  16.889  1.00  0.00    -0.324 N 
ATOM     21  H52 UNL     1      35.407  25.513  17.364  1.00  0.00     0.178 HD
ATOM     22  H51 UNL     1      33.797  25.230  17.463  1.00  0.00     0.178 HD
ENDBRANCH   6  20
TORSDOF 3
ENDMDL
MODEL 4
REMARK VINA RESULT: -4.539171702      1.289      1.324
REMARK  3 active torsions:
REMARK  status: ('A' for Active; 'I' for Inactive)
REMARK    1  A    between atoms: N2_4  and  C1_6 
REMARK    2  A    between atoms: N4_11  and  N5_12 
REMARK    3  A    between atoms: C6_19  and  N7_20 
ROOT
HETATM    1  C1  UNL     1      33.843  27.965  12.097  1.00  0.00     0.093 A 
HETATM    2  C2  UNL     1      34.657  27.003  12.659  1.00  0.00     0.068 A 
HETATM    3  C3  UNL     1      34.565  26.812  14.033  1.00  0.00     0.080 A 
HETATM    4  N3  UNL     1      35.149  26.019  14.923  1.00  0.00    -0.278 N 
ATOM      5  H3  UNL     1      35.859  25.326  14.686  1.00  0.00     0.189 HD
HETATM    6  N4  UNL     1      34.705  26.226  16.152  1.00  0.00    -0.212 N 
HETATM    7  C4  UNL     1      33.788  27.199  16.072  1.00  0.00     0.167 A 
HETATM    8  C5  UNL     1      33.666  27.597  14.758  1.00  0.00     0.081 A 
HETATM    9  N6  UNL     1      32.896  28.525  14.147  1.00  0.00    -0.338 N 
ATOM     10  H6  UNL     1      32.250  29.081  14.707  1.00  0.00     0.167 HD
HETATM   11  C6  UNL     1      32.959  28.736  12.820  1.00  0.00     0.128 A 
ENDROOT
BRANCH   1  12
HETATM   12  N2  UNL     1      33.923  28.174  10.696  1.00  0.00    -0.304 N 
HETATM   13  N1  UNL     1      34.602  29.055  10.132  1.00  0.00    -0.345 N 
ATOM     14  H12 UNL     1      35.139  29.668  10.745  1.00  0.00     0.176 HD
ATOM     15  H11 UNL     1      34.659  29.205   9.125  1.00  0.00     0.176 HD
ATOM     16  H2  UNL     1      33.378  27.551  10.099  1.00  0.00     0.186 HD
ENDBRANCH   1  12
BRANCH  11  17
HETATM   17  N7  UNL     1      32.210  29.633  12.254  1.00  0.00    -0.384 N 
ATOM     18  H72 UNL     1      32.335  29.872  11.270  1.00  0.00     0.157 HD
ATOM     19  H71 UNL     1      31.478  30.126  12.767  1.00  0.00     0.157 HD
ENDBRANCH  11  17
BRANCH   6  20
HETATM   20  N5  UNL     1      35.155  25.522  17.288  1.00  0.00    -0.324 N 
ATOM     21  H52 UNL     1      34.882  25.637  18.264  1.00  0.00     0.178 HD
ATOM     22  H51 UNL     1      35.844  24.771  17.262  1.00  0.00     0.178 HD
ENDBRANCH   6  20
TORSDOF 3
ENDMDL
MODEL 5
REMARK VINA RESULT: -4.131089861      1.275      1.375
REMARK  3 active torsions:
REMARK  status: ('A' for Active; 'I' for Inactive)
REMARK    1  A    between atoms: N2_4  and  C1_6 
REMARK    2  A    between atoms: N4_11  and  N5_12 
REMARK    3  A    between atoms: C6_19  and  N7_20 
ROOT
HETATM    1  C1  UNL     1      33.020  28.753  11.811  1.00  0.00     0.093 A 
HETATM    2  C2  UNL     1      32.441  28.334  12.992  1.00  0.00     0.068 A 
HETATM    3  C3  UNL     1      33.227  27.582  13.857  1.00  0.00     0.080 A 
HETATM    4  N3  UNL     1      33.055  27.011  15.043  1.00  0.00    -0.278 N 
ATOM      5  H3  UNL     1      32.183  27.052  15.571  1.00  0.00     0.189 HD
HETATM    6  N4  UNL     1      34.142  26.384  15.464  1.00  0.00    -0.212 N 
HETATM    7  C4  UNL     1      35.073  26.548  14.516  1.00  0.00     0.167 A 
HETATM    8  C5  UNL     1      34.542  27.296  13.486  1.00  0.00     0.081 A 
HETATM    9  N6  UNL     1      35.051  27.736  12.313  1.00  0.00    -0.338 N 
ATOM     10  H6  UNL     1      36.016  27.508  12.075  1.00  0.00     0.167 HD
HETATM   11  C6  UNL     1      34.319  28.465  11.453  1.00  0.00     0.128 A 
ENDROOT
BRANCH   1  12
HETATM   12  N2  UNL     1      32.233  29.522  10.916  1.00  0.00    -0.304 N 
HETATM   13  N1  UNL     1      32.474  29.695   9.705  1.00  0.00    -0.345 N 
ATOM     14  H12 UNL     1      33.311  29.237   9.344  1.00  0.00     0.176 HD
ATOM     15  H11 UNL     1      31.908  30.247   9.061  1.00  0.00     0.176 HD
ATOM     16  H2  UNL     1      31.399  29.973  11.295  1.00  0.00     0.186 HD
ENDBRANCH   1  12
BRANCH  11  17
HETATM   17  N7  UNL     1      34.828  28.878  10.332  1.00  0.00    -0.384 N 
ATOM     18  H72 UNL     1      34.801  28.290   9.498  1.00  0.00     0.157 HD
ATOM     19  H71 UNL     1      35.267  29.795  10.245  1.00  0.00     0.157 HD
ENDBRANCH  11  17
BRANCH   6  20
HETATM   20  N5  UNL     1      34.235  25.694  16.690  1.00  0.00    -0.324 N 
ATOM     21  H52 UNL     1      34.448  24.711  16.859  1.00  0.00     0.178 HD
ATOM     22  H51 UNL     1      34.094  26.125  17.604  1.00  0.00     0.178 HD
ENDBRANCH   6  20
TORSDOF 3
ENDMDL
