MODEL 1
REMARK VINA RESULT: -6.562130854      0.000      0.000
REMARK  2 active torsions:
REMARK  status: ('A' for Active; 'I' for Inactive)
REMARK    1  A    between atoms: N1_1  and  N2_4 
REMARK    2  A    between atoms: N2_4  and  C1_6 
ROOT
HETATM    1  C1  UNL     1      28.253  46.538  -4.463  1.00  0.00     0.156 C 
HETATM    2  C2  UNL     1      28.070  47.103  -3.293  1.00  0.00     0.140 A 
HETATM    3  N3  UNL     1      28.931  46.824  -2.189  1.00  0.00    -0.281 N 
ATOM      4  H3  UNL     1      29.700  46.169  -2.326  1.00  0.00     0.188 HD
HETATM    5  N4  UNL     1      28.768  47.406  -0.929  1.00  0.00    -0.260 N 
ATOM      6  H4  UNL     1      29.412  47.173  -0.173  1.00  0.00     0.190 HD
HETATM    7  C3  UNL     1      27.726  48.306  -0.703  1.00  0.00     0.328 A 
HETATM    8  O1  UNL     1      27.523  48.868   0.420  1.00  0.00    -0.261 OA
HETATM    9  C4  UNL     1      26.808  48.641  -1.773  1.00  0.00     0.316 A 
HETATM   10  O2  UNL     1      25.841  49.460  -1.607  1.00  0.00    -0.262 OA
HETATM   11  N5  UNL     1      27.007  48.029  -3.039  1.00  0.00    -0.303 N 
ATOM     12  H5  UNL     1      26.367  48.258  -3.799  1.00  0.00     0.171 HD
ENDROOT
BRANCH   1  13
HETATM   13  N2  UNL     1      29.324  45.637  -4.633  1.00  0.00    -0.315 N 
ATOM     14  H2  UNL     1      30.114  45.679  -3.988  1.00  0.00     0.185 HD
BRANCH  13  15
HETATM   15  N1  UNL     1      29.335  44.676  -5.670  1.00  0.00    -0.345 N 
ATOM     16  H12 UNL     1      28.592  43.979  -5.684  1.00  0.00     0.176 HD
ATOM     17  H11 UNL     1      30.058  44.669  -6.390  1.00  0.00     0.176 HD
ENDBRANCH  13  15
ENDBRANCH   1  13
TORSDOF 2
ENDMDL
MODEL 2
REMARK VINA RESULT: -6.160945683      1.452      1.996
REMARK  2 active torsions:
REMARK  status: ('A' for Active; 'I' for Inactive)
REMARK    1  A    between atoms: N1_1  and  N2_4 
REMARK    2  A    between atoms: N2_4  and  C1_6 
ROOT
HETATM    1  C1  UNL     1      28.399  46.021  -4.189  1.00  0.00     0.156 C 
HETATM    2  C2  UNL     1      28.195  46.659  -3.061  1.00  0.00     0.140 A 
HETATM    3  N3  UNL     1      28.206  48.085  -2.999  1.00  0.00    -0.281 N 
ATOM      4  H3  UNL     1      28.378  48.607  -3.858  1.00  0.00     0.188 HD
HETATM    5  N4  UNL     1      27.993  48.798  -1.816  1.00  0.00    -0.260 N 
ATOM      6  H4  UNL     1      28.010  49.818  -1.826  1.00  0.00     0.190 HD
HETATM    7  C3  UNL     1      27.756  48.118  -0.621  1.00  0.00     0.328 A 
HETATM    8  O1  UNL     1      27.556  48.709   0.487  1.00  0.00    -0.261 OA
HETATM    9  C4  UNL     1      27.729  46.669  -0.601  1.00  0.00     0.316 A 
HETATM   10  O2  UNL     1      27.516  46.009   0.472  1.00  0.00    -0.262 OA
HETATM   11  N5  UNL     1      27.950  45.981  -1.823  1.00  0.00    -0.303 N 
ATOM     12  H5  UNL     1      27.933  44.962  -1.819  1.00  0.00     0.171 HD
ENDROOT
BRANCH   1  13
HETATM   13  N2  UNL     1      28.633  46.762  -5.366  1.00  0.00    -0.315 N 
ATOM     14  H2  UNL     1      28.499  47.774  -5.350  1.00  0.00     0.185 HD
BRANCH  13  15
HETATM   15  N1  UNL     1      29.048  46.144  -6.567  1.00  0.00    -0.345 N 
ATOM     16  H12 UNL     1      30.009  45.809  -6.627  1.00  0.00     0.176 HD
ATOM     17  H11 UNL     1      28.416  46.029  -7.361  1.00  0.00     0.176 HD
ENDBRANCH  13  15
ENDBRANCH   1  13
TORSDOF 2
ENDMDL
MODEL 3
REMARK VINA RESULT: -6.072881839      2.095      2.365
REMARK  2 active torsions:
REMARK  status: ('A' for Active; 'I' for Inactive)
REMARK    1  A    between atoms: N1_1  and  N2_4 
REMARK    2  A    between atoms: N2_4  and  C1_6 
ROOT
HETATM    1  C1  UNL     1      29.624  46.832  -4.989  1.00  0.00     0.156 C 
HETATM    2  C2  UNL     1      29.457  46.951  -3.694  1.00  0.00     0.140 A 
HETATM    3  N3  UNL     1      28.529  46.130  -2.985  1.00  0.00    -0.281 N 
ATOM      4  H3  UNL     1      27.992  45.440  -3.509  1.00  0.00     0.188 HD
HETATM    5  N4  UNL     1      28.324  46.228  -1.605  1.00  0.00    -0.260 N 
ATOM      6  H4  UNL     1      27.650  45.616  -1.146  1.00  0.00     0.190 HD
HETATM    7  C3  UNL     1      29.040  47.161  -0.855  1.00  0.00     0.328 A 
HETATM    8  O1  UNL     1      28.899  47.300   0.401  1.00  0.00    -0.261 OA
HETATM    9  C4  UNL     1      30.001  48.033  -1.502  1.00  0.00     0.316 A 
HETATM   10  O2  UNL     1      30.677  48.900  -0.851  1.00  0.00    -0.262 OA
HETATM   11  N5  UNL     1      30.181  47.902  -2.904  1.00  0.00    -0.303 N 
ATOM     12  H5  UNL     1      30.854  48.510  -3.369  1.00  0.00     0.171 HD
ENDROOT
BRANCH   1  13
HETATM   13  N2  UNL     1      28.872  45.870  -5.695  1.00  0.00    -0.315 N 
ATOM     14  H2  UNL     1      27.978  46.144  -6.105  1.00  0.00     0.185 HD
BRANCH  13  15
HETATM   15  N1  UNL     1      29.320  44.539  -5.852  1.00  0.00    -0.345 N 
ATOM     16  H12 UNL     1      28.642  43.837  -6.147  1.00  0.00     0.176 HD
ATOM     17  H11 UNL     1      30.290  44.273  -5.678  1.00  0.00     0.176 HD
ENDBRANCH  13  15
ENDBRANCH   1  13
TORSDOF 2
ENDMDL
MODEL 4
REMARK VINA RESULT: -6.072581987      1.870      2.226
REMARK  2 active torsions:
REMARK  status: ('A' for Active; 'I' for Inactive)
REMARK    1  A    between atoms: N1_1  and  N2_4 
REMARK    2  A    between atoms: N2_4  and  C1_6 
ROOT
HETATM    1  C1  UNL     1      29.709  48.038  -4.505  1.00  0.00     0.156 C 
HETATM    2  C2  UNL     1      29.071  47.599  -3.446  1.00  0.00     0.140 A 
HETATM    3  N3  UNL     1      28.495  46.293  -3.413  1.00  0.00    -0.281 N 
ATOM      4  H3  UNL     1      28.587  45.700  -4.237  1.00  0.00     0.188 HD
HETATM    5  N4  UNL     1      27.809  45.791  -2.304  1.00  0.00    -0.260 N 
ATOM      6  H4  UNL     1      27.416  44.850  -2.331  1.00  0.00     0.190 HD
HETATM    7  C3  UNL     1      27.661  46.574  -1.159  1.00  0.00     0.328 A 
HETATM    8  O1  UNL     1      27.048  46.176  -0.118  1.00  0.00    -0.261 OA
HETATM    9  C4  UNL     1      28.217  47.911  -1.113  1.00  0.00     0.316 A 
HETATM   10  O2  UNL     1      28.103  48.660  -0.085  1.00  0.00    -0.262 OA
HETATM   11  N5  UNL     1      28.907  48.385  -2.260  1.00  0.00    -0.303 N 
ATOM     12  H5  UNL     1      29.302  49.325  -2.239  1.00  0.00     0.171 HD
ENDROOT
BRANCH   1  13
HETATM   13  N2  UNL     1      29.828  47.201  -5.634  1.00  0.00    -0.315 N 
ATOM     14  H2  UNL     1      29.585  46.214  -5.547  1.00  0.00     0.185 HD
BRANCH  13  15
HETATM   15  N1  UNL     1      30.274  47.691  -6.883  1.00  0.00    -0.345 N 
ATOM     16  H12 UNL     1      29.997  47.183  -7.723  1.00  0.00     0.176 HD
ATOM     17  H11 UNL     1      30.855  48.526  -6.958  1.00  0.00     0.176 HD
ENDBRANCH  13  15
ENDBRANCH   1  13
TORSDOF 2
ENDMDL
MODEL 5
REMARK VINA RESULT: -6.061131755      3.135      4.430
REMARK  2 active torsions:
REMARK  status: ('A' for Active; 'I' for Inactive)
REMARK    1  A    between atoms: N1_1  and  N2_4 
REMARK    2  A    between atoms: N2_4  and  C1_6 
ROOT
HETATM    1  C1  UNL     1      27.406  47.625  -1.703  1.00  0.00     0.156 C 
HETATM    2  C2  UNL     1      28.178  47.451  -2.748  1.00  0.00     0.140 A 
HETATM    3  N3  UNL     1      28.362  46.161  -3.331  1.00  0.00    -0.281 N 
ATOM      4  H3  UNL     1      27.876  45.366  -2.916  1.00  0.00     0.188 HD
HETATM    5  N4  UNL     1      29.176  45.936  -4.445  1.00  0.00    -0.260 N 
ATOM      6  H4  UNL     1      29.272  44.994  -4.824  1.00  0.00     0.190 HD
HETATM    7  C3  UNL     1      29.858  46.999  -5.040  1.00  0.00     0.328 A 
HETATM    8  O1  UNL     1      30.614  46.860  -6.053  1.00  0.00    -0.261 OA
HETATM    9  C4  UNL     1      29.724  48.340  -4.506  1.00  0.00     0.316 A 
HETATM   10  O2  UNL     1      30.331  49.339  -5.021  1.00  0.00    -0.262 OA
HETATM   11  N5  UNL     1      28.888  48.526  -3.374  1.00  0.00    -0.303 N 
ATOM     12  H5  UNL     1      28.787  49.466  -2.991  1.00  0.00     0.171 HD
ENDROOT
BRANCH   1  13
HETATM   13  N2  UNL     1      26.741  46.513  -1.144  1.00  0.00    -0.315 N 
ATOM     14  H2  UNL     1      25.855  46.211  -1.549  1.00  0.00     0.185 HD
BRANCH  13  15
HETATM   15  N1  UNL     1      27.268  45.806  -0.040  1.00  0.00    -0.345 N 
ATOM     16  H12 UNL     1      27.527  46.339   0.791  1.00  0.00     0.176 HD
ATOM     17  H11 UNL     1      27.392  44.793  -0.057  1.00  0.00     0.176 HD
ENDBRANCH  13  15
ENDBRANCH   1  13
TORSDOF 2
ENDMDL
