MODEL 1
REMARK VINA RESULT: -4.739285779      0.000      0.000
REMARK  5 active torsions:
REMARK  status: ('A' for Active; 'I' for Inactive)
REMARK    1  A    between atoms: N1_3  and  N2_5 
REMARK    2  A    between atoms: N2_5  and  C3_7 
REMARK    3  A    between atoms: C7_17  and  C8_18 
REMARK    4  A    between atoms: C8_18  and  N5_19 
REMARK    5  A    between atoms: C8_18  and  N6_23 
ROOT
HETATM    1  C3  UNL     1       6.674  10.150 124.570  1.00  0.00     0.134 C 
HETATM    2  N3  UNL     1       7.498   9.220 125.131  1.00  0.00    -0.303 N 
ATOM      3  H3  UNL     1       8.226   8.842 124.525  1.00  0.00     0.171 HD
HETATM    4  C4  UNL     1       7.463   8.740 126.387  1.00  0.00     0.315 C 
HETATM    5  O1  UNL     1       8.424   8.001 126.701  1.00  0.00    -0.262 OA
HETATM    6  C5  UNL     1       6.511   8.951 127.387  1.00  0.00     0.313 C 
HETATM    7  O2  UNL     1       6.800   8.378 128.490  1.00  0.00    -0.262 OA
HETATM    8  N4  UNL     1       5.367   9.648 127.360  1.00  0.00    -0.328 N 
ATOM      9  H4  UNL     1       4.807   9.654 128.213  1.00  0.00     0.168 HD
HETATM   10  C6  UNL     1       4.883  10.352 126.294  1.00  0.00     0.106 C 
HETATM   11  C7  UNL     1       5.477  10.612 125.074  1.00  0.00     0.060 C 
ENDROOT
BRANCH  11  12
HETATM   12  C8  UNL     1       4.713  11.519 124.177  1.00  0.00     0.416 C 
BRANCH  12  13
HETATM   13  N5  UNL     1       3.605  10.856 123.553  1.00  0.00    -0.046 N 
ATOM     14  H53 UNL     1       2.845  10.702 124.216  1.00  0.00     0.277 HD
ATOM     15  H52 UNL     1       3.126  11.474 122.898  1.00  0.00     0.277 HD
ATOM     16  H51 UNL     1       3.882   9.984 123.102  1.00  0.00     0.277 HD
ENDBRANCH  12  13
BRANCH  12  17
HETATM   17  N6  UNL     1       4.292  12.649 125.002  1.00  0.00    -0.046 N 
ATOM     18  H63 UNL     1       3.317  12.594 125.297  1.00  0.00     0.277 HD
ATOM     19  H62 UNL     1       4.705  12.646 125.935  1.00  0.00     0.277 HD
ATOM     20  H61 UNL     1       4.507  13.489 124.465  1.00  0.00     0.277 HD
ENDBRANCH  12  17
ENDBRANCH  11  12
BRANCH   1  21
HETATM   21  N2  UNL     1       7.045  10.651 123.460  1.00  0.00    -0.285 N 
ATOM     22  H2  UNL     1       6.427  11.340 123.029  1.00  0.00     0.188 HD
BRANCH  21  23
HETATM   23  N1  UNL     1       8.208  10.343 122.794  1.00  0.00    -0.315 N 
HETATM   24  C2  UNL     1       8.258   9.731 121.660  1.00  0.00     0.075 C 
HETATM   25  C1  UNL     1       9.624   9.488 121.098  1.00  0.00     0.056 C 
ATOM     26  H1  UNL     1       9.090  10.616 123.226  1.00  0.00     0.185 HD
ENDBRANCH  21  23
ENDBRANCH   1  21
TORSDOF 5
ENDMDL
MODEL 2
REMARK VINA RESULT: -4.447527768      2.340      4.542
REMARK  5 active torsions:
REMARK  status: ('A' for Active; 'I' for Inactive)
REMARK    1  A    between atoms: N1_3  and  N2_5 
REMARK    2  A    between atoms: N2_5  and  C3_7 
REMARK    3  A    between atoms: C7_17  and  C8_18 
REMARK    4  A    between atoms: C8_18  and  N5_19 
REMARK    5  A    between atoms: C8_18  and  N6_23 
ROOT
HETATM    1  C3  UNL     1       6.716   9.717 125.230  1.00  0.00     0.134 C 
HETATM    2  N3  UNL     1       5.582   9.708 125.986  1.00  0.00    -0.303 N 
ATOM      3  H3  UNL     1       5.571   9.058 126.772  1.00  0.00     0.171 HD
HETATM    4  C4  UNL     1       4.474  10.453 125.817  1.00  0.00     0.315 C 
HETATM    5  O1  UNL     1       3.628  10.364 126.736  1.00  0.00    -0.262 OA
HETATM    6  C5  UNL     1       4.138  11.310 124.766  1.00  0.00     0.313 C 
HETATM    7  O2  UNL     1       3.021  11.903 124.936  1.00  0.00    -0.262 OA
HETATM    8  N4  UNL     1       4.797  11.593 123.635  1.00  0.00    -0.328 N 
ATOM      9  H4  UNL     1       4.351  12.244 122.989  1.00  0.00     0.168 HD
HETATM   10  C6  UNL     1       6.013  11.088 123.269  1.00  0.00     0.106 C 
HETATM   11  C7  UNL     1       6.883  10.293 123.989  1.00  0.00     0.060 C 
ENDROOT
BRANCH  11  12
HETATM   12  C8  UNL     1       8.187  10.020 123.328  1.00  0.00     0.416 C 
BRANCH  12  13
HETATM   13  N5  UNL     1       8.023   9.470 122.013  1.00  0.00    -0.046 N 
ATOM     14  H53 UNL     1       7.675   8.512 122.055  1.00  0.00     0.277 HD
ATOM     15  H52 UNL     1       7.240   9.906 121.526  1.00  0.00     0.277 HD
ATOM     16  H51 UNL     1       8.880   9.527 121.462  1.00  0.00     0.277 HD
ENDBRANCH  12  13
BRANCH  12  17
HETATM   17  N6  UNL     1       8.910  11.290 123.313  1.00  0.00    -0.046 N 
ATOM     18  H63 UNL     1       9.436  11.447 122.453  1.00  0.00     0.277 HD
ATOM     19  H62 UNL     1       8.300  12.104 123.237  1.00  0.00     0.277 HD
ATOM     20  H61 UNL     1       9.492  11.295 124.151  1.00  0.00     0.277 HD
ENDBRANCH  12  17
ENDBRANCH  11  12
BRANCH   1  21
HETATM   21  N2  UNL     1       7.736   9.132 125.717  1.00  0.00    -0.285 N 
ATOM     22  H2  UNL     1       8.649   9.398 125.347  1.00  0.00     0.188 HD
BRANCH  21  23
HETATM   23  N1  UNL     1       7.710   8.170 126.701  1.00  0.00    -0.315 N 
HETATM   24  C2  UNL     1       8.666   7.960 127.540  1.00  0.00     0.075 C 
HETATM   25  C1  UNL     1       8.446   6.865 128.536  1.00  0.00     0.056 C 
ATOM     26  H1  UNL     1       6.879   7.584 126.771  1.00  0.00     0.185 HD
ENDBRANCH  21  23
ENDBRANCH   1  21
TORSDOF 5
ENDMDL
MODEL 3
REMARK VINA RESULT: -4.401360004      3.683      5.572
REMARK  5 active torsions:
REMARK  status: ('A' for Active; 'I' for Inactive)
REMARK    1  A    between atoms: N1_3  and  N2_5 
REMARK    2  A    between atoms: N2_5  and  C3_7 
REMARK    3  A    between atoms: C7_17  and  C8_18 
REMARK    4  A    between atoms: C8_18  and  N5_19 
REMARK    5  A    between atoms: C8_18  and  N6_23 
ROOT
HETATM    1  C3  UNL     1       9.221  11.402 123.382  1.00  0.00     0.134 C 
HETATM    2  N3  UNL     1      10.256  11.702 122.547  1.00  0.00    -0.303 N 
ATOM      3  H3  UNL     1      10.803  12.528 122.787  1.00  0.00     0.171 HD
HETATM    4  C4  UNL     1      10.641  11.037 121.442  1.00  0.00     0.315 C 
HETATM    5  O1  UNL     1      11.715  11.430 120.932  1.00  0.00    -0.262 OA
HETATM    6  C5  UNL     1      10.014   9.973 120.788  1.00  0.00     0.313 C 
HETATM    7  O2  UNL     1      10.669   9.542 119.782  1.00  0.00    -0.262 OA
HETATM    8  N4  UNL     1       8.855   9.356 121.053  1.00  0.00    -0.328 N 
ATOM      9  H4  UNL     1       8.576   8.603 120.425  1.00  0.00     0.168 HD
HETATM   10  C6  UNL     1       8.014   9.643 122.091  1.00  0.00     0.106 C 
HETATM   11  C7  UNL     1       8.192  10.517 123.146  1.00  0.00     0.060 C 
ENDROOT
BRANCH  11  12
HETATM   12  C8  UNL     1       7.116  10.499 124.173  1.00  0.00     0.416 C 
BRANCH  12  13
HETATM   13  N5  UNL     1       5.830  10.805 123.615  1.00  0.00    -0.046 N 
ATOM     14  H53 UNL     1       5.080  10.391 124.168  1.00  0.00     0.277 HD
ATOM     15  H52 UNL     1       5.599  11.790 123.740  1.00  0.00     0.277 HD
ATOM     16  H51 UNL     1       5.761  10.530 122.635  1.00  0.00     0.277 HD
ENDBRANCH  12  13
BRANCH  12  17
HETATM   17  N6  UNL     1       7.156   9.172 124.782  1.00  0.00    -0.046 N 
ATOM     18  H63 UNL     1       6.298   8.637 124.648  1.00  0.00     0.277 HD
ATOM     19  H62 UNL     1       7.783   8.524 124.303  1.00  0.00     0.277 HD
ATOM     20  H61 UNL     1       7.395   9.316 125.763  1.00  0.00     0.277 HD
ENDBRANCH  12  17
ENDBRANCH  11  12
BRANCH   1  21
HETATM   21  N2  UNL     1       9.198  12.001 124.505  1.00  0.00    -0.285 N 
ATOM     22  H2  UNL     1       9.207  11.422 125.344  1.00  0.00     0.188 HD
BRANCH  21  23
HETATM   23  N1  UNL     1       9.161  13.365 124.681  1.00  0.00    -0.315 N 
HETATM   24  C2  UNL     1       8.166  14.116 124.353  1.00  0.00     0.075 C 
HETATM   25  C1  UNL     1       8.321  15.579 124.626  1.00  0.00     0.056 C 
ATOM     26  H1  UNL     1       9.977  13.813 125.099  1.00  0.00     0.185 HD
ENDBRANCH  21  23
ENDBRANCH   1  21
TORSDOF 5
ENDMDL
MODEL 4
REMARK VINA RESULT: -4.309564025      3.677      5.512
REMARK  5 active torsions:
REMARK  status: ('A' for Active; 'I' for Inactive)
REMARK    1  A    between atoms: N1_3  and  N2_5 
REMARK    2  A    between atoms: N2_5  and  C3_7 
REMARK    3  A    between atoms: C7_17  and  C8_18 
REMARK    4  A    between atoms: C8_18  and  N5_19 
REMARK    5  A    between atoms: C8_18  and  N6_23 
ROOT
HETATM    1  C3  UNL     1       9.233  11.384 123.425  1.00  0.00     0.134 C 
HETATM    2  N3  UNL     1      10.276  11.688 122.601  1.00  0.00    -0.303 N 
ATOM      3  H3  UNL     1      10.841  12.493 122.871  1.00  0.00     0.171 HD
HETATM    4  C4  UNL     1      10.648  11.053 121.475  1.00  0.00     0.315 C 
HETATM    5  O1  UNL     1      11.732  11.438 120.981  1.00  0.00    -0.262 OA
HETATM    6  C5  UNL     1       9.999  10.027 120.785  1.00  0.00     0.313 C 
HETATM    7  O2  UNL     1      10.647   9.615 119.765  1.00  0.00    -0.262 OA
HETATM    8  N4  UNL     1       8.826   9.427 121.027  1.00  0.00    -0.328 N 
ATOM      9  H4  UNL     1       8.532   8.702 120.373  1.00  0.00     0.168 HD
HETATM   10  C6  UNL     1       7.989   9.698 122.072  1.00  0.00     0.106 C 
HETATM   11  C7  UNL     1       8.184  10.531 123.157  1.00  0.00     0.060 C 
ENDROOT
BRANCH  11  12
HETATM   12  C8  UNL     1       7.106  10.502 124.181  1.00  0.00     0.416 C 
BRANCH  12  13
HETATM   13  N5  UNL     1       5.819  10.795 123.620  1.00  0.00    -0.046 N 
ATOM     14  H53 UNL     1       5.117  10.918 124.349  1.00  0.00     0.277 HD
ATOM     15  H52 UNL     1       5.797  11.731 123.215  1.00  0.00     0.277 HD
ATOM     16  H51 UNL     1       5.526  10.092 122.941  1.00  0.00     0.277 HD
ENDBRANCH  12  13
BRANCH  12  17
HETATM   17  N6  UNL     1       7.158   9.176 124.791  1.00  0.00    -0.046 N 
ATOM     18  H63 UNL     1       7.687   8.498 124.242  1.00  0.00     0.277 HD
ATOM     19  H62 UNL     1       7.737   9.137 125.630  1.00  0.00     0.277 HD
ATOM     20  H61 UNL     1       6.189   8.899 124.953  1.00  0.00     0.277 HD
ENDBRANCH  12  17
ENDBRANCH  11  12
BRANCH   1  21
HETATM   21  N2  UNL     1       9.220  11.945 124.567  1.00  0.00    -0.285 N 
ATOM     22  H2  UNL     1       8.432  12.558 124.778  1.00  0.00     0.188 HD
BRANCH  21  23
HETATM   23  N1  UNL     1      10.180  11.795 125.541  1.00  0.00    -0.315 N 
HETATM   24  C2  UNL     1      10.446  10.684 126.138  1.00  0.00     0.075 C 
HETATM   25  C1  UNL     1      11.528  10.729 127.171  1.00  0.00     0.056 C 
ATOM     26  H1  UNL     1      10.719  12.619 125.809  1.00  0.00     0.185 HD
ENDBRANCH  21  23
ENDBRANCH   1  21
TORSDOF 5
ENDMDL
MODEL 5
REMARK VINA RESULT: -4.288415223      6.597      9.830
REMARK  5 active torsions:
REMARK  status: ('A' for Active; 'I' for Inactive)
REMARK    1  A    between atoms: N1_3  and  N2_5 
REMARK    2  A    between atoms: N2_5  and  C3_7 
REMARK    3  A    between atoms: C7_17  and  C8_18 
REMARK    4  A    between atoms: C8_18  and  N5_19 
REMARK    5  A    between atoms: C8_18  and  N6_23 
ROOT
HETATM    1  C3  UNL     1      11.466  10.855 118.610  1.00  0.00     0.134 C 
HETATM    2  N3  UNL     1      10.904  10.131 117.600  1.00  0.00    -0.303 N 
ATOM      3  H3  UNL     1      10.516   9.224 117.860  1.00  0.00     0.171 HD
HETATM    4  C4  UNL     1      10.801  10.470 116.302  1.00  0.00     0.315 C 
HETATM    5  O1  UNL     1      10.108   9.696 115.603  1.00  0.00    -0.262 OA
HETATM    6  C5  UNL     1      11.356  11.561 115.628  1.00  0.00     0.313 C 
HETATM    7  O2  UNL     1      11.028  11.613 114.396  1.00  0.00    -0.262 OA
HETATM    8  N4  UNL     1      12.162  12.534 116.072  1.00  0.00    -0.328 N 
ATOM      9  H4  UNL     1      12.466  13.231 115.392  1.00  0.00     0.168 HD
HETATM   10  C6  UNL     1      12.614  12.678 117.353  1.00  0.00     0.106 C 
HETATM   11  C7  UNL     1      12.275  11.964 118.486  1.00  0.00     0.060 C 
ENDROOT
BRANCH  11  12
HETATM   12  C8  UNL     1      12.870  12.464 119.754  1.00  0.00     0.416 C 
BRANCH  12  13
HETATM   13  N5  UNL     1      14.264  12.144 119.861  1.00  0.00    -0.046 N 
ATOM     14  H53 UNL     1      14.578  11.590 119.063  1.00  0.00     0.277 HD
ATOM     15  H52 UNL     1      14.844  12.971 119.722  1.00  0.00     0.277 HD
ATOM     16  H51 UNL     1      14.486  11.680 120.742  1.00  0.00     0.277 HD
ENDBRANCH  12  13
BRANCH  12  17
HETATM   17  N6  UNL     1      12.628  13.905 119.777  1.00  0.00    -0.046 N 
ATOM     18  H63 UNL     1      13.453  14.452 120.024  1.00  0.00     0.277 HD
ATOM     19  H62 UNL     1      12.485  14.308 118.850  1.00  0.00     0.277 HD
ATOM     20  H61 UNL     1      11.840  14.051 120.409  1.00  0.00     0.277 HD
ENDBRANCH  12  17
ENDBRANCH  11  12
BRANCH   1  21
HETATM   21  N2  UNL     1      11.221  10.469 119.797  1.00  0.00    -0.285 N 
ATOM     22  H2  UNL     1      11.991  10.495 120.465  1.00  0.00     0.188 HD
BRANCH  21  23
HETATM   23  N1  UNL     1      10.004  10.022 120.256  1.00  0.00    -0.315 N 
HETATM   24  C2  UNL     1       9.574  10.184 121.461  1.00  0.00     0.075 C 
HETATM   25  C1  UNL     1       8.220   9.622 121.764  1.00  0.00     0.056 C 
ATOM     26  H1  UNL     1       9.400   9.527 119.600  1.00  0.00     0.185 HD
ENDBRANCH  21  23
ENDBRANCH   1  21
TORSDOF 5
ENDMDL
