MODEL 1
REMARK VINA RESULT: -4.682525310      0.000      0.000
REMARK  3 active torsions:
REMARK  status: ('A' for Active; 'I' for Inactive)
REMARK    1  A    between atoms: C2_7  and  N3_8 
REMARK    2  A    between atoms: N3_8  and  N4_10 
REMARK    3  A    between atoms: C3_12  and  C4_13 
ROOT
HETATM    1  N3  UNL     1       0.406 -17.341   5.172  1.00  0.00    -0.131 N 
ATOM      2  H3  UNL     1       0.370 -16.338   5.360  1.00  0.00     0.205 HD
ENDROOT
BRANCH   1   3
HETATM    3  C2  UNL     1       1.555 -17.915   5.007  1.00  0.00     0.715 A 
HETATM    4  N2  UNL     1       2.139 -18.187   3.813  1.00  0.00    -0.127 N 
HETATM    5  N1  UNL     1       3.317 -18.782   4.027  1.00  0.00    -0.237 N 
ATOM      6  H2  UNL     1       1.742 -17.972   2.899  1.00  0.00     0.206 HD
HETATM    7  C1  UNL     1       3.503 -18.899   5.355  1.00  0.00     0.353 A 
ATOM      8  H1  UNL     1       3.966 -19.095   3.305  1.00  0.00     0.192 HD
HETATM    9  O1  UNL     1       4.487 -19.403   5.965  1.00  0.00    -0.245 OA
HETATM   10  N9  UNL     1       2.425 -18.368   5.929  1.00  0.00    -0.137 N 
ATOM     11  H9  UNL     1       2.277 -18.311   6.936  1.00  0.00     0.189 HD
ENDBRANCH   1   3
BRANCH   1  12
HETATM   12  N4  UNL     1      -0.766 -18.055   5.100  1.00  0.00    -0.294 N 
HETATM   13  C3  UNL     1      -1.940 -17.610   5.368  1.00  0.00     0.158 C 
ATOM     14  H4  UNL     1      -0.696 -19.029   4.806  1.00  0.00     0.186 HD
BRANCH  13  15
HETATM   15  C4  UNL     1      -2.101 -16.226   5.790  1.00  0.00     0.148 A 
HETATM   16  N5  UNL     1      -2.606 -15.802   6.977  1.00  0.00    -0.269 N 
HETATM   17  N6  UNL     1      -2.607 -14.480   7.026  1.00  0.00    -0.007 NA
ATOM     18  H5  UNL     1      -2.938 -16.413   7.723  1.00  0.00     0.185 HD
HETATM   19  N7  UNL     1      -2.106 -14.043   5.882  1.00  0.00    -0.007 NA
HETATM   20  N8  UNL     1      -1.797 -15.098   5.129  1.00  0.00    -0.269 N 
ATOM     21  H8  UNL     1      -1.392 -15.055   4.194  1.00  0.00     0.185 HD
ENDBRANCH  13  15
ENDBRANCH   1  12
TORSDOF 3
ENDMDL
MODEL 2
REMARK VINA RESULT: -4.610809388      2.269      2.604
REMARK  3 active torsions:
REMARK  status: ('A' for Active; 'I' for Inactive)
REMARK    1  A    between atoms: C2_7  and  N3_8 
REMARK    2  A    between atoms: N3_8  and  N4_10 
REMARK    3  A    between atoms: C3_12  and  C4_13 
ROOT
HETATM    1  N3  UNL     1       0.086 -17.476   5.131  1.00  0.00    -0.131 N 
ATOM      2  H3  UNL     1       0.531 -16.989   5.910  1.00  0.00     0.205 HD
ENDROOT
BRANCH   1   3
HETATM    3  C2  UNL     1       0.647 -17.453   3.963  1.00  0.00     0.715 A 
HETATM    4  N2  UNL     1       1.849 -17.996   3.652  1.00  0.00    -0.127 N 
HETATM    5  N1  UNL     1       2.106 -17.780   2.358  1.00  0.00    -0.237 N 
ATOM      6  H2  UNL     1       2.460 -18.490   4.302  1.00  0.00     0.206 HD
HETATM    7  C1  UNL     1       1.076 -17.098   1.825  1.00  0.00     0.353 A 
ATOM      8  H1  UNL     1       2.943 -18.081   1.858  1.00  0.00     0.192 HD
HETATM    9  O1  UNL     1       0.932 -16.702   0.634  1.00  0.00    -0.245 OA
HETATM   10  N9  UNL     1       0.204 -16.911   2.814  1.00  0.00    -0.137 N 
ATOM     11  H9  UNL     1      -0.685 -16.421   2.713  1.00  0.00     0.189 HD
ENDBRANCH   1   3
BRANCH   1  12
HETATM   12  N4  UNL     1      -1.096 -18.145   5.341  1.00  0.00    -0.294 N 
HETATM   13  C3  UNL     1      -2.207 -17.618   5.710  1.00  0.00     0.158 C 
ATOM     14  H4  UNL     1      -1.090 -19.153   5.191  1.00  0.00     0.186 HD
BRANCH  13  15
HETATM   15  C4  UNL     1      -2.276 -16.181   5.938  1.00  0.00     0.148 A 
HETATM   16  N5  UNL     1      -2.764 -15.566   7.046  1.00  0.00    -0.269 N 
HETATM   17  N6  UNL     1      -2.673 -14.252   6.916  1.00  0.00    -0.007 NA
ATOM     18  H5  UNL     1      -3.145 -16.047   7.861  1.00  0.00     0.185 HD
HETATM   19  N7  UNL     1      -2.129 -14.010   5.734  1.00  0.00    -0.007 NA
HETATM   20  N8  UNL     1      -1.886 -15.176   5.137  1.00  0.00    -0.269 N 
ATOM     21  H8  UNL     1      -1.469 -15.289   4.213  1.00  0.00     0.185 HD
ENDBRANCH  13  15
ENDBRANCH   1  12
TORSDOF 3
ENDMDL
MODEL 3
REMARK VINA RESULT: -4.599735347      0.921      1.209
REMARK  3 active torsions:
REMARK  status: ('A' for Active; 'I' for Inactive)
REMARK    1  A    between atoms: C2_7  and  N3_8 
REMARK    2  A    between atoms: N3_8  and  N4_10 
REMARK    3  A    between atoms: C3_12  and  C4_13 
ROOT
HETATM    1  N3  UNL     1       0.365 -17.271   5.128  1.00  0.00    -0.131 N 
ATOM      2  H3  UNL     1       0.315 -16.264   5.287  1.00  0.00     0.205 HD
ENDROOT
BRANCH   1   3
HETATM    3  C2  UNL     1       1.520 -17.827   4.937  1.00  0.00     0.715 A 
HETATM    4  N2  UNL     1       2.521 -17.904   5.848  1.00  0.00    -0.127 N 
HETATM    5  N1  UNL     1       3.560 -18.547   5.303  1.00  0.00    -0.237 N 
ATOM      6  H2  UNL     1       2.487 -17.532   6.796  1.00  0.00     0.206 HD
HETATM    7  C1  UNL     1       3.239 -18.888   4.042  1.00  0.00     0.353 A 
ATOM      8  H1  UNL     1       4.447 -18.744   5.767  1.00  0.00     0.192 HD
HETATM    9  O1  UNL     1       3.945 -19.505   3.195  1.00  0.00    -0.245 OA
HETATM   10  N9  UNL     1       2.000 -18.444   3.841  1.00  0.00    -0.137 N 
ATOM     11  H9  UNL     1       1.482 -18.556   2.970  1.00  0.00     0.189 HD
ENDBRANCH   1   3
BRANCH   1  12
HETATM   12  N4  UNL     1      -0.793 -18.010   5.120  1.00  0.00    -0.294 N 
HETATM   13  C3  UNL     1      -1.962 -17.586   5.436  1.00  0.00     0.158 C 
ATOM     14  H4  UNL     1      -0.717 -18.986   4.835  1.00  0.00     0.186 HD
BRANCH  13  15
HETATM   15  C4  UNL     1      -2.133 -16.199   5.849  1.00  0.00     0.148 A 
HETATM   16  N5  UNL     1      -2.645 -15.769   7.030  1.00  0.00    -0.269 N 
HETATM   17  N6  UNL     1      -2.653 -14.447   7.070  1.00  0.00    -0.007 NA
ATOM     18  H5  UNL     1      -2.977 -16.378   7.779  1.00  0.00     0.185 HD
HETATM   19  N7  UNL     1      -2.149 -14.015   5.925  1.00  0.00    -0.007 NA
HETATM   20  N8  UNL     1      -1.831 -15.074   5.181  1.00  0.00    -0.269 N 
ATOM     21  H8  UNL     1      -1.422 -15.035   4.248  1.00  0.00     0.185 HD
ENDBRANCH  13  15
ENDBRANCH   1  12
TORSDOF 3
ENDMDL
MODEL 4
REMARK VINA RESULT: -4.555298618      3.486      6.179
REMARK  3 active torsions:
REMARK  status: ('A' for Active; 'I' for Inactive)
REMARK    1  A    between atoms: C2_7  and  N3_8 
REMARK    2  A    between atoms: N3_8  and  N4_10 
REMARK    3  A    between atoms: C3_12  and  C4_13 
ROOT
HETATM    1  N3  UNL     1      -1.619 -15.270   6.066  1.00  0.00    -0.131 N 
ATOM      2  H3  UNL     1      -0.743 -15.090   6.558  1.00  0.00     0.205 HD
ENDROOT
BRANCH   1   3
HETATM    3  C2  UNL     1      -2.700 -15.477   6.750  1.00  0.00     0.715 A 
HETATM    4  N2  UNL     1      -3.247 -16.688   7.018  1.00  0.00    -0.127 N 
HETATM    5  N1  UNL     1      -4.355 -16.517   7.747  1.00  0.00    -0.237 N 
ATOM      6  H2  UNL     1      -2.873 -17.586   6.713  1.00  0.00     0.206 HD
HETATM    7  C1  UNL     1      -4.532 -15.199   7.953  1.00  0.00     0.353 A 
ATOM      8  H1  UNL     1      -4.965 -17.260   8.088  1.00  0.00     0.192 HD
HETATM    9  O1  UNL     1      -5.458 -14.625   8.592  1.00  0.00    -0.245 OA
HETATM   10  N9  UNL     1      -3.519 -14.588   7.342  1.00  0.00    -0.137 N 
ATOM     11  H9  UNL     1      -3.381 -13.577   7.324  1.00  0.00     0.189 HD
ENDBRANCH   1   3
BRANCH   1  12
HETATM   12  N4  UNL     1      -1.628 -15.290   4.692  1.00  0.00    -0.294 N 
HETATM   13  C3  UNL     1      -0.893 -16.028   3.942  1.00  0.00     0.158 C 
ATOM     14  H4  UNL     1      -2.280 -14.660   4.225  1.00  0.00     0.186 HD
BRANCH  13  15
HETATM   15  C4  UNL     1       0.055 -16.948   4.553  1.00  0.00     0.148 A 
HETATM   16  N5  UNL     1      -0.167 -18.257   4.840  1.00  0.00    -0.269 N 
HETATM   17  N6  UNL     1       0.911 -18.793   5.389  1.00  0.00    -0.007 NA
ATOM     18  H5  UNL     1      -1.038 -18.755   4.659  1.00  0.00     0.185 HD
HETATM   19  N7  UNL     1       1.831 -17.843   5.460  1.00  0.00    -0.007 NA
HETATM   20  N8  UNL     1       1.317 -16.723   4.953  1.00  0.00    -0.269 N 
ATOM     21  H8  UNL     1       1.806 -15.831   4.881  1.00  0.00     0.185 HD
ENDBRANCH  13  15
ENDBRANCH   1  12
TORSDOF 3
ENDMDL
MODEL 5
REMARK VINA RESULT: -4.540959821      3.565      5.402
REMARK  3 active torsions:
REMARK  status: ('A' for Active; 'I' for Inactive)
REMARK    1  A    between atoms: C2_7  and  N3_8 
REMARK    2  A    between atoms: N3_8  and  N4_10 
REMARK    3  A    between atoms: C3_12  and  C4_13 
ROOT
HETATM    1  N3  UNL     1       3.873 -17.779   7.612  1.00  0.00    -0.131 N 
ATOM      2  H3  UNL     1       2.858 -17.697   7.676  1.00  0.00     0.205 HD
ENDROOT
BRANCH   1   3
HETATM    3  C2  UNL     1       4.612 -17.257   8.540  1.00  0.00     0.715 A 
HETATM    4  N2  UNL     1       5.126 -16.003   8.528  1.00  0.00    -0.127 N 
HETATM    5  N1  UNL     1       5.836 -15.809   9.646  1.00  0.00    -0.237 N 
ATOM      6  H2  UNL     1       4.994 -15.316   7.786  1.00  0.00     0.206 HD
HETATM    7  C1  UNL     1       5.785 -16.933  10.385  1.00  0.00     0.353 A 
ATOM      8  H1  UNL     1       6.332 -14.954   9.896  1.00  0.00     0.192 HD
HETATM    9  O1  UNL     1       6.322 -17.157  11.505  1.00  0.00    -0.245 OA
HETATM   10  N9  UNL     1       5.039 -17.796   9.697  1.00  0.00    -0.137 N 
ATOM     11  H9  UNL     1       4.819 -18.743  10.006  1.00  0.00     0.189 HD
ENDBRANCH   1   3
BRANCH   1  12
HETATM   12  N4  UNL     1       4.430 -18.442   6.545  1.00  0.00    -0.294 N 
HETATM   13  C3  UNL     1       3.809 -18.838   5.494  1.00  0.00     0.158 C 
ATOM     14  H4  UNL     1       5.429 -18.638   6.593  1.00  0.00     0.186 HD
BRANCH  13  15
HETATM   15  C4  UNL     1       2.380 -18.584   5.370  1.00  0.00     0.148 A 
HETATM   16  N5  UNL     1       1.394 -19.517   5.384  1.00  0.00    -0.269 N 
HETATM   17  N6  UNL     1       0.213 -18.936   5.249  1.00  0.00    -0.007 NA
ATOM     18  H5  UNL     1       1.541 -20.522   5.486  1.00  0.00     0.185 HD
HETATM   19  N7  UNL     1       0.425 -17.634   5.146  1.00  0.00    -0.007 NA
HETATM   20  N8  UNL     1       1.737 -17.415   5.220  1.00  0.00    -0.269 N 
ATOM     21  H8  UNL     1       2.185 -16.500   5.169  1.00  0.00     0.185 HD
ENDBRANCH  13  15
ENDBRANCH   1  12
TORSDOF 3
ENDMDL
