MODEL 1
REMARK VINA RESULT: -6.932672900      0.000      0.000
REMARK  8 active torsions:
REMARK  status: ('A' for Active; 'I' for Inactive)
REMARK       I    between atoms: C1_2  and  N2_4 
REMARK    1  A    between atoms: N2_4  and  C2_6 
REMARK    2  A    between atoms: C2_6  and  C3_7 
REMARK    3  A    between atoms: C2_6  and  C9_20 
REMARK       I    between atoms: C3_7  and  N3_9 
REMARK    4  A    between atoms: N3_9  and  C4_11 
REMARK    5  A    between atoms: C4_11  and  C5_12 
REMARK    6  A    between atoms: N4_16  and  N5_17 
REMARK    7  A    between atoms: C9_20  and  N6_21 
REMARK    8  A    between atoms: C9_20  and  O3_25 
ROOT
HETATM    1  C2  UNL     1      -3.032  -2.675  20.179  1.00  0.00     0.233 C 
ENDROOT
BRANCH   1   2
HETATM    2  N2  UNL     1      -3.710  -1.383  20.346  1.00  0.00    -0.328 N 
HETATM    3  C1  UNL     1      -3.012  -0.163  20.494  1.00  0.00     0.329 C 
HETATM    4  N1  UNL     1      -3.676   1.075  20.654  1.00  0.00    -0.040 NA
HETATM    5  O1  UNL     1      -1.756  -0.192  20.482  1.00  0.00    -0.251 OA
ATOM      6  H2  UNL     1      -4.730  -1.366  20.356  1.00  0.00     0.164 HD
ENDBRANCH   1   2
BRANCH   1   7
HETATM    7  C3  UNL     1      -2.347  -2.751  18.884  1.00  0.00     0.245 C 
HETATM    8  O2  UNL     1      -2.888  -2.098  17.926  1.00  0.00    -0.271 OA
HETATM    9  N3  UNL     1      -1.169  -3.460  18.588  1.00  0.00    -0.353 N 
ATOM     10  H3  UNL     1      -0.706  -3.992  19.325  1.00  0.00     0.162 HD
BRANCH   9  11
HETATM   11  C4  UNL     1      -0.610  -3.450  17.279  1.00  0.00     0.181 C 
BRANCH  11  12
HETATM   12  C5  UNL     1       0.652  -2.663  17.229  1.00  0.00     0.050 A 
HETATM   13  C6  UNL     1       1.901  -3.165  16.935  1.00  0.00     0.030 A 
HETATM   14  C7  UNL     1       2.813  -2.133  16.990  1.00  0.00     0.021 A 
HETATM   15  C8  UNL     1       2.127  -0.998  17.316  1.00  0.00     0.116 A 
HETATM   16  N4  UNL     1       0.840  -1.340  17.453  1.00  0.00    -0.277 N 
BRANCH  16  17
HETATM   17  N5  UNL     1      -0.195  -0.469  17.784  1.00  0.00    -0.339 N 
ATOM     18  H52 UNL     1      -1.063  -0.357  17.260  1.00  0.00     0.177 HD
ATOM     19  H51 UNL     1      -0.170   0.146  18.597  1.00  0.00     0.177 HD
ENDBRANCH  16  17
ENDBRANCH  11  12
ENDBRANCH   9  11
ENDBRANCH   1   7
BRANCH   1  20
HETATM   20  C9  UNL     1      -4.049  -3.778  20.396  1.00  0.00     0.348 C 
BRANCH  20  21
HETATM   21  N6  UNL     1      -4.310  -4.562  19.213  1.00  0.00    -0.051 N 
ATOM     22  H63 UNL     1      -5.231  -4.995  19.263  1.00  0.00     0.277 HD
ATOM     23  H62 UNL     1      -4.450  -3.957  18.403  1.00  0.00     0.277 HD
ATOM     24  H61 UNL     1      -3.592  -5.260  19.021  1.00  0.00     0.277 HD
ENDBRANCH  20  21
BRANCH  20  25
HETATM   25  O3  UNL     1      -3.478  -4.688  21.322  1.00  0.00    -0.368 OA
ATOM     26  H3  UNL     1      -3.677  -5.562  21.007  1.00  0.00     0.212 HD
ENDBRANCH  20  25
ENDBRANCH   1  20
TORSDOF 8
ENDMDL
MODEL 2
REMARK VINA RESULT: -6.743337982      2.775      5.677
REMARK  8 active torsions:
REMARK  status: ('A' for Active; 'I' for Inactive)
REMARK       I    between atoms: C1_2  and  N2_4 
REMARK    1  A    between atoms: N2_4  and  C2_6 
REMARK    2  A    between atoms: C2_6  and  C3_7 
REMARK    3  A    between atoms: C2_6  and  C9_20 
REMARK       I    between atoms: C3_7  and  N3_9 
REMARK    4  A    between atoms: N3_9  and  C4_11 
REMARK    5  A    between atoms: C4_11  and  C5_12 
REMARK    6  A    between atoms: N4_16  and  N5_17 
REMARK    7  A    between atoms: C9_20  and  N6_21 
REMARK    8  A    between atoms: C9_20  and  O3_25 
ROOT
HETATM    1  C2  UNL     1       0.925  -1.374  16.489  1.00  0.00     0.233 C 
ENDROOT
BRANCH   1   2
HETATM    2  N2  UNL     1       0.605  -0.113  17.171  1.00  0.00    -0.328 N 
HETATM    3  C1  UNL     1       0.497   1.122  16.491  1.00  0.00     0.329 C 
HETATM    4  N1  UNL     1       0.188   2.329  17.159  1.00  0.00    -0.040 NA
HETATM    5  O1  UNL     1       0.685   1.133  15.248  1.00  0.00    -0.251 OA
ATOM      6  H2  UNL     1       0.454  -0.129  18.180  1.00  0.00     0.164 HD
ENDBRANCH   1   2
BRANCH   1   7
HETATM    7  C3  UNL     1      -0.109  -2.386  16.731  1.00  0.00     0.245 C 
HETATM    8  O2  UNL     1      -0.702  -2.839  15.692  1.00  0.00    -0.271 OA
HETATM    9  N3  UNL     1      -0.513  -2.906  17.974  1.00  0.00    -0.353 N 
ATOM     10  H3  UNL     1      -0.063  -2.572  18.826  1.00  0.00     0.162 HD
BRANCH   9  11
HETATM   11  C4  UNL     1      -1.538  -3.889  18.065  1.00  0.00     0.181 C 
BRANCH  11  12
HETATM   12  C5  UNL     1      -2.675  -3.418  18.902  1.00  0.00     0.050 A 
HETATM   13  C6  UNL     1      -2.910  -2.114  19.277  1.00  0.00     0.030 A 
HETATM   14  C7  UNL     1      -4.053  -2.078  20.047  1.00  0.00     0.021 A 
HETATM   15  C8  UNL     1      -4.520  -3.357  20.145  1.00  0.00     0.116 A 
HETATM   16  N4  UNL     1      -3.681  -4.138  19.453  1.00  0.00    -0.277 N 
BRANCH  16  17
HETATM   17  N5  UNL     1      -3.803  -5.518  19.303  1.00  0.00    -0.339 N 
ATOM     18  H52 UNL     1      -3.165  -6.112  18.773  1.00  0.00     0.177 HD
ATOM     19  H51 UNL     1      -4.558  -6.061  19.721  1.00  0.00     0.177 HD
ENDBRANCH  16  17
ENDBRANCH  11  12
ENDBRANCH   9  11
ENDBRANCH   1   7
BRANCH   1  20
HETATM   20  C9  UNL     1       2.314  -1.807  16.918  1.00  0.00     0.348 C 
BRANCH  20  21
HETATM   21  N6  UNL     1       2.665  -1.380  18.250  1.00  0.00    -0.051 N 
ATOM     22  H63 UNL     1       2.026  -0.655  18.576  1.00  0.00     0.277 HD
ATOM     23  H62 UNL     1       2.454  -2.110  18.931  1.00  0.00     0.277 HD
ATOM     24  H61 UNL     1       3.633  -1.074  18.338  1.00  0.00     0.277 HD
ENDBRANCH  20  21
BRANCH  20  25
HETATM   25  O3  UNL     1       2.302  -3.224  16.977  1.00  0.00    -0.368 OA
ATOM     26  H3  UNL     1       3.184  -3.515  16.779  1.00  0.00     0.212 HD
ENDBRANCH  20  25
ENDBRANCH   1  20
TORSDOF 8
ENDMDL
MODEL 3
REMARK VINA RESULT: -6.716211167      2.462      5.369
REMARK  8 active torsions:
REMARK  status: ('A' for Active; 'I' for Inactive)
REMARK       I    between atoms: C1_2  and  N2_4 
REMARK    1  A    between atoms: N2_4  and  C2_6 
REMARK    2  A    between atoms: C2_6  and  C3_7 
REMARK    3  A    between atoms: C2_6  and  C9_20 
REMARK       I    between atoms: C3_7  and  N3_9 
REMARK    4  A    between atoms: N3_9  and  C4_11 
REMARK    5  A    between atoms: C4_11  and  C5_12 
REMARK    6  A    between atoms: N4_16  and  N5_17 
REMARK    7  A    between atoms: C9_20  and  N6_21 
REMARK    8  A    between atoms: C9_20  and  O3_25 
ROOT
HETATM    1  C2  UNL     1      -2.219  -0.539  18.847  1.00  0.00     0.233 C 
ENDROOT
BRANCH   1   2
HETATM    2  N2  UNL     1      -1.688  -0.172  20.166  1.00  0.00    -0.328 N 
HETATM    3  C1  UNL     1      -2.376   0.680  21.060  1.00  0.00     0.329 C 
HETATM    4  N1  UNL     1      -1.854   1.026  22.328  1.00  0.00    -0.040 NA
HETATM    5  O1  UNL     1      -3.490   1.140  20.704  1.00  0.00    -0.251 OA
ATOM      6  H2  UNL     1      -0.783  -0.548  20.449  1.00  0.00     0.164 HD
ENDBRANCH   1   2
BRANCH   1   7
HETATM    7  C3  UNL     1      -3.474  -1.290  18.970  1.00  0.00     0.245 C 
HETATM    8  O2  UNL     1      -4.406  -0.957  18.159  1.00  0.00    -0.271 OA
HETATM    9  N3  UNL     1      -3.757  -2.328  19.876  1.00  0.00    -0.353 N 
ATOM     10  H3  UNL     1      -3.038  -2.624  20.537  1.00  0.00     0.162 HD
BRANCH   9  11
HETATM   11  C4  UNL     1      -5.025  -2.972  19.888  1.00  0.00     0.181 C 
BRANCH  11  12
HETATM   12  C5  UNL     1      -4.906  -4.409  20.261  1.00  0.00     0.050 A 
HETATM   13  C6  UNL     1      -5.554  -5.024  21.309  1.00  0.00     0.030 A 
HETATM   14  C7  UNL     1      -5.188  -6.352  21.332  1.00  0.00     0.021 A 
HETATM   15  C8  UNL     1      -4.316  -6.554  20.300  1.00  0.00     0.116 A 
HETATM   16  N4  UNL     1      -4.165  -5.380  19.676  1.00  0.00    -0.277 N 
BRANCH  16  17
HETATM   17  N5  UNL     1      -3.354  -5.156  18.565  1.00  0.00    -0.339 N 
ATOM     18  H52 UNL     1      -3.688  -4.930  17.628  1.00  0.00     0.177 HD
ATOM     19  H51 UNL     1      -2.336  -5.203  18.598  1.00  0.00     0.177 HD
ENDBRANCH  16  17
ENDBRANCH  11  12
ENDBRANCH   9  11
ENDBRANCH   1   7
BRANCH   1  20
HETATM   20  C9  UNL     1      -1.137  -1.282  18.088  1.00  0.00     0.348 C 
BRANCH  20  21
HETATM   21  N6  UNL     1       0.041  -1.548  18.878  1.00  0.00    -0.051 N 
ATOM     22  H63 UNL     1       0.779  -1.951  18.301  1.00  0.00     0.277 HD
ATOM     23  H62 UNL     1       0.496  -0.677  19.152  1.00  0.00     0.277 HD
ATOM     24  H61 UNL     1      -0.140  -2.133  19.694  1.00  0.00     0.277 HD
ENDBRANCH  20  21
BRANCH  20  25
HETATM   25  O3  UNL     1      -1.662  -2.560  17.769  1.00  0.00    -0.368 OA
ATOM     26  H3  UNL     1      -2.011  -2.502  16.887  1.00  0.00     0.212 HD
ENDBRANCH  20  25
ENDBRANCH   1  20
TORSDOF 8
ENDMDL
MODEL 4
REMARK VINA RESULT: -6.665984660      0.997      1.148
REMARK  8 active torsions:
REMARK  status: ('A' for Active; 'I' for Inactive)
REMARK       I    between atoms: C1_2  and  N2_4 
REMARK    1  A    between atoms: N2_4  and  C2_6 
REMARK    2  A    between atoms: C2_6  and  C3_7 
REMARK    3  A    between atoms: C2_6  and  C9_20 
REMARK       I    between atoms: C3_7  and  N3_9 
REMARK    4  A    between atoms: N3_9  and  C4_11 
REMARK    5  A    between atoms: C4_11  and  C5_12 
REMARK    6  A    between atoms: N4_16  and  N5_17 
REMARK    7  A    between atoms: C9_20  and  N6_21 
REMARK    8  A    between atoms: C9_20  and  O3_25 
ROOT
HETATM    1  C2  UNL     1      -2.657  -2.868  19.609  1.00  0.00     0.233 C 
ENDROOT
BRANCH   1   2
HETATM    2  N2  UNL     1      -3.402  -1.609  19.475  1.00  0.00    -0.328 N 
HETATM    3  C1  UNL     1      -2.905  -0.370  19.939  1.00  0.00     0.329 C 
HETATM    4  N1  UNL     1      -3.631   0.836  19.804  1.00  0.00    -0.040 NA
HETATM    5  O1  UNL     1      -1.776  -0.352  20.491  1.00  0.00    -0.251 OA
ATOM      6  H2  UNL     1      -4.318  -1.630  19.026  1.00  0.00     0.164 HD
ENDBRANCH   1   2
BRANCH   1   7
HETATM    7  C3  UNL     1      -1.635  -2.994  18.564  1.00  0.00     0.245 C 
HETATM    8  O2  UNL     1      -1.971  -2.582  17.400  1.00  0.00    -0.271 OA
HETATM    9  N3  UNL     1      -0.337  -3.516  18.706  1.00  0.00    -0.353 N 
ATOM     10  H3  UNL     1      -0.030  -3.853  19.619  1.00  0.00     0.162 HD
BRANCH   9  11
HETATM   11  C4  UNL     1       0.557  -3.582  17.601  1.00  0.00     0.181 C 
BRANCH  11  12
HETATM   12  C5  UNL     1       1.248  -2.281  17.377  1.00  0.00     0.050 A 
HETATM   13  C6  UNL     1       2.343  -1.823  18.075  1.00  0.00     0.030 A 
HETATM   14  C7  UNL     1       2.690  -0.584  17.582  1.00  0.00     0.021 A 
HETATM   15  C8  UNL     1       1.810  -0.280  16.583  1.00  0.00     0.116 A 
HETATM   16  N4  UNL     1       0.960  -1.309  16.480  1.00  0.00    -0.277 N 
BRANCH  16  17
HETATM   17  N5  UNL     1      -0.095  -1.395  15.574  1.00  0.00    -0.339 N 
ATOM     18  H52 UNL     1      -0.744  -2.178  15.497  1.00  0.00     0.177 HD
ATOM     19  H51 UNL     1      -0.311  -0.664  14.897  1.00  0.00     0.177 HD
ENDBRANCH  16  17
ENDBRANCH  11  12
ENDBRANCH   9  11
ENDBRANCH   1   7
BRANCH   1  20
HETATM   20  C9  UNL     1      -3.654  -4.011  19.627  1.00  0.00     0.348 C 
BRANCH  20  21
HETATM   21  N6  UNL     1      -3.335  -5.068  18.698  1.00  0.00    -0.051 N 
ATOM     22  H63 UNL     1      -4.124  -5.257  18.081  1.00  0.00     0.277 HD
ATOM     23  H62 UNL     1      -2.653  -4.749  18.009  1.00  0.00     0.277 HD
ATOM     24  H61 UNL     1      -3.017  -5.925  19.151  1.00  0.00     0.277 HD
ENDBRANCH  20  21
BRANCH  20  25
HETATM   25  O3  UNL     1      -3.570  -4.610  20.910  1.00  0.00    -0.368 OA
ATOM     26  H3  UNL     1      -3.659  -5.547  20.782  1.00  0.00     0.212 HD
ENDBRANCH  20  25
ENDBRANCH   1  20
TORSDOF 8
ENDMDL
MODEL 5
REMARK VINA RESULT: -6.651671273      1.428      1.769
REMARK  8 active torsions:
REMARK  status: ('A' for Active; 'I' for Inactive)
REMARK       I    between atoms: C1_2  and  N2_4 
REMARK    1  A    between atoms: N2_4  and  C2_6 
REMARK    2  A    between atoms: C2_6  and  C3_7 
REMARK    3  A    between atoms: C2_6  and  C9_20 
REMARK       I    between atoms: C3_7  and  N3_9 
REMARK    4  A    between atoms: N3_9  and  C4_11 
REMARK    5  A    between atoms: C4_11  and  C5_12 
REMARK    6  A    between atoms: N4_16  and  N5_17 
REMARK    7  A    between atoms: C9_20  and  N6_21 
REMARK    8  A    between atoms: C9_20  and  O3_25 
ROOT
HETATM    1  C2  UNL     1      -2.757  -2.656  19.639  1.00  0.00     0.233 C 
ENDROOT
BRANCH   1   2
HETATM    2  N2  UNL     1      -3.492  -1.390  19.750  1.00  0.00    -0.328 N 
HETATM    3  C1  UNL     1      -2.897  -0.194  20.214  1.00  0.00     0.329 C 
HETATM    4  N1  UNL     1      -3.616   1.019  20.316  1.00  0.00    -0.040 NA
HETATM    5  O1  UNL     1      -1.685  -0.224  20.544  1.00  0.00    -0.251 OA
ATOM      6  H2  UNL     1      -4.476  -1.372  19.480  1.00  0.00     0.164 HD
ENDBRANCH   1   2
BRANCH   1   7
HETATM    7  C3  UNL     1      -1.942  -2.692  18.419  1.00  0.00     0.245 C 
HETATM    8  O2  UNL     1      -1.645  -3.857  17.980  1.00  0.00    -0.271 OA
HETATM    9  N3  UNL     1      -1.458  -1.592  17.689  1.00  0.00    -0.353 N 
ATOM     10  H3  UNL     1      -1.675  -0.647  18.006  1.00  0.00     0.162 HD
BRANCH   9  11
HETATM   11  C4  UNL     1      -0.671  -1.772  16.517  1.00  0.00     0.181 C 
BRANCH  11  12
HETATM   12  C5  UNL     1       0.785  -1.714  16.821  1.00  0.00     0.050 A 
HETATM   13  C6  UNL     1       1.508  -0.570  17.077  1.00  0.00     0.030 A 
HETATM   14  C7  UNL     1       2.819  -0.923  17.311  1.00  0.00     0.021 A 
HETATM   15  C8  UNL     1       2.903  -2.281  17.199  1.00  0.00     0.116 A 
HETATM   16  N4  UNL     1       1.676  -2.730  16.907  1.00  0.00    -0.277 N 
BRANCH  16  17
HETATM   17  N5  UNL     1       1.332  -4.066  16.711  1.00  0.00    -0.339 N 
ATOM     18  H52 UNL     1       1.758  -4.690  16.025  1.00  0.00     0.177 HD
ATOM     19  H51 UNL     1       0.608  -4.541  17.248  1.00  0.00     0.177 HD
ENDBRANCH  16  17
ENDBRANCH  11  12
ENDBRANCH   9  11
ENDBRANCH   1   7
BRANCH   1  20
HETATM   20  C9  UNL     1      -3.753  -3.795  19.740  1.00  0.00     0.348 C 
BRANCH  20  21
HETATM   21  N6  UNL     1      -3.695  -4.502  20.996  1.00  0.00    -0.051 N 
ATOM     22  H63 UNL     1      -4.611  -4.876  21.243  1.00  0.00     0.277 HD
ATOM     23  H62 UNL     1      -3.176  -5.375  20.896  1.00  0.00     0.277 HD
ATOM     24  H61 UNL     1      -3.315  -3.943  21.760  1.00  0.00     0.277 HD
ENDBRANCH  20  21
BRANCH  20  25
HETATM   25  O3  UNL     1      -5.046  -3.214  19.705  1.00  0.00    -0.368 OA
ATOM     26  H3  UNL     1      -5.592  -3.721  20.294  1.00  0.00     0.212 HD
ENDBRANCH  20  25
ENDBRANCH   1  20
TORSDOF 8
ENDMDL
