MODEL 1
REMARK VINA RESULT: -5.496659160      0.000      0.000
REMARK  3 active torsions:
REMARK  status: ('A' for Active; 'I' for Inactive)
REMARK    1  A    between atoms: C2_2  and  C4_4 
REMARK    2  A    between atoms: C4_4  and  C5_5 
REMARK    3  A    between atoms: C8_8  and  O1_10 
ROOT
HETATM    1  C5  UNL     1      31.487 -45.702 -11.192  1.00  0.00     0.161 C 
HETATM    2  C6  UNL     1      32.083 -46.380 -12.428  1.00  0.00     0.040 C 
HETATM    3  C7  UNL     1      30.875 -46.827 -13.253  1.00  0.00     0.073 C 
HETATM    4  C8  UNL     1      30.191 -45.528 -13.687  1.00  0.00     0.191 C 
HETATM    5  C9  UNL     1      30.803 -45.128 -15.030  1.00  0.00     0.082 C 
HETATM    6  O2  UNL     1      30.416 -44.517 -12.781  1.00  0.00    -0.201 OA
HETATM    7  O3  UNL     1      30.419 -44.885 -11.539  1.00  0.00    -0.233 OA
ENDROOT
BRANCH   1   8
HETATM    8  C4  UNL     1      32.609 -44.925 -10.550  1.00  0.00     0.039 C 
BRANCH   8   9
HETATM    9  C2  UNL     1      32.790 -45.275  -9.094  1.00  0.00    -0.020 C 
HETATM   10  C1  UNL     1      31.640 -46.041  -8.523  1.00  0.00     0.009 C 
HETATM   11  C3  UNL     1      34.041 -46.112  -8.934  1.00  0.00     0.009 C 
ENDBRANCH   8   9
ENDBRANCH   1   8
BRANCH   4  12
HETATM   12  O1  UNL     1      28.842 -45.828 -13.863  1.00  0.00    -0.363 OA
ATOM     13  H1  UNL     1      28.632 -45.613 -14.764  1.00  0.00     0.213 HD
ENDBRANCH   4  12
TORSDOF 3
ENDMDL
MODEL 2
REMARK VINA RESULT: -5.081637839      5.056      7.074
REMARK  3 active torsions:
REMARK  status: ('A' for Active; 'I' for Inactive)
REMARK    1  A    between atoms: C2_2  and  C4_4 
REMARK    2  A    between atoms: C4_4  and  C5_5 
REMARK    3  A    between atoms: C8_8  and  O1_10 
ROOT
HETATM    1  C5  UNL     1      30.863 -48.175  -5.114  1.00  0.00     0.161 C 
HETATM    2  C6  UNL     1      32.073 -48.355  -6.034  1.00  0.00     0.040 C 
HETATM    3  C7  UNL     1      31.628 -47.789  -7.385  1.00  0.00     0.073 C 
HETATM    4  C8  UNL     1      31.419 -46.294  -7.136  1.00  0.00     0.191 C 
HETATM    5  C9  UNL     1      32.751 -45.601  -7.426  1.00  0.00     0.082 C 
HETATM    6  O2  UNL     1      31.069 -46.047  -5.827  1.00  0.00    -0.201 OA
HETATM    7  O3  UNL     1      30.280 -46.927  -5.297  1.00  0.00    -0.233 OA
ENDROOT
BRANCH   1   8
HETATM    8  C4  UNL     1      31.369 -48.363  -3.705  1.00  0.00     0.039 C 
BRANCH   8   9
HETATM    9  C2  UNL     1      30.544 -49.358  -2.927  1.00  0.00    -0.020 C 
HETATM   10  C1  UNL     1      30.182 -50.573  -3.720  1.00  0.00     0.009 C 
HETATM   11  C3  UNL     1      31.321 -49.803  -1.707  1.00  0.00     0.009 C 
ENDBRANCH   8   9
ENDBRANCH   1   8
BRANCH   4  12
HETATM   12  O1  UNL     1      30.465 -45.867  -8.056  1.00  0.00    -0.363 OA
ATOM     13  H1  UNL     1      30.853 -45.144  -8.535  1.00  0.00     0.213 HD
ENDBRANCH   4  12
TORSDOF 3
ENDMDL
MODEL 3
REMARK VINA RESULT: -4.897795527      3.755      5.878
REMARK  3 active torsions:
REMARK  status: ('A' for Active; 'I' for Inactive)
REMARK    1  A    between atoms: C2_2  and  C4_4 
REMARK    2  A    between atoms: C4_4  and  C5_5 
REMARK    3  A    between atoms: C8_8  and  O1_10 
ROOT
HETATM    1  C5  UNL     1      32.659 -46.163  -7.839  1.00  0.00     0.161 C 
HETATM    2  C6  UNL     1      32.658 -47.506  -7.106  1.00  0.00     0.040 C 
HETATM    3  C7  UNL     1      32.075 -47.202  -5.725  1.00  0.00     0.073 C 
HETATM    4  C8  UNL     1      30.626 -46.788  -5.992  1.00  0.00     0.191 C 
HETATM    5  C9  UNL     1      29.779 -48.060  -5.931  1.00  0.00     0.082 C 
HETATM    6  O2  UNL     1      30.487 -46.225  -7.240  1.00  0.00    -0.201 OA
HETATM    7  O3  UNL     1      31.474 -45.474  -7.614  1.00  0.00    -0.233 OA
ENDROOT
BRANCH   1   8
HETATM    8  C4  UNL     1      32.864 -46.476  -9.300  1.00  0.00     0.039 C 
BRANCH   8   9
HETATM    9  C2  UNL     1      34.152 -45.901  -9.835  1.00  0.00    -0.020 C 
HETATM   10  C1  UNL     1      35.299 -46.858  -9.768  1.00  0.00     0.009 C 
HETATM   11  C3  UNL     1      33.956 -45.498 -11.280  1.00  0.00     0.009 C 
ENDBRANCH   8   9
ENDBRANCH   1   8
BRANCH   4  12
HETATM   12  O1  UNL     1      30.257 -45.936  -4.954  1.00  0.00    -0.363 OA
ATOM     13  H1  UNL     1      29.409 -45.575  -5.186  1.00  0.00     0.213 HD
ENDBRANCH   4  12
TORSDOF 3
ENDMDL
MODEL 4
REMARK VINA RESULT: -4.875930125      3.265      5.915
REMARK  3 active torsions:
REMARK  status: ('A' for Active; 'I' for Inactive)
REMARK    1  A    between atoms: C2_2  and  C4_4 
REMARK    2  A    between atoms: C4_4  and  C5_5 
REMARK    3  A    between atoms: C8_8  and  O1_10 
ROOT
HETATM    1  C5  UNL     1      32.522 -46.133  -7.909  1.00  0.00     0.161 C 
HETATM    2  C6  UNL     1      32.665 -47.420  -7.094  1.00  0.00     0.040 C 
HETATM    3  C7  UNL     1      32.106 -47.076  -5.712  1.00  0.00     0.073 C 
HETATM    4  C8  UNL     1      30.618 -46.806  -5.944  1.00  0.00     0.191 C 
HETATM    5  C9  UNL     1      29.889 -48.139  -5.769  1.00  0.00     0.082 C 
HETATM    6  O2  UNL     1      30.386 -46.341  -7.219  1.00  0.00    -0.201 OA
HETATM    7  O3  UNL     1      31.289 -45.534  -7.680  1.00  0.00    -0.233 OA
ENDROOT
BRANCH   1   8
HETATM    8  C4  UNL     1      32.701 -46.523  -9.355  1.00  0.00     0.039 C 
BRANCH   8   9
HETATM    9  C2  UNL     1      32.681 -45.330 -10.278  1.00  0.00    -0.020 C 
HETATM   10  C1  UNL     1      33.836 -45.298 -11.228  1.00  0.00     0.009 C 
HETATM   11  C3  UNL     1      31.403 -45.349 -11.089  1.00  0.00     0.009 C 
ENDBRANCH   8   9
ENDBRANCH   1   8
BRANCH   4  12
HETATM   12  O1  UNL     1      30.213 -45.921  -4.948  1.00  0.00    -0.363 OA
ATOM     13  H1  UNL     1      29.551 -46.372  -4.437  1.00  0.00     0.213 HD
ENDBRANCH   4  12
TORSDOF 3
ENDMDL
MODEL 5
REMARK VINA RESULT: -4.865811667      3.949      5.893
REMARK  3 active torsions:
REMARK  status: ('A' for Active; 'I' for Inactive)
REMARK    1  A    between atoms: C2_2  and  C4_4 
REMARK    2  A    between atoms: C4_4  and  C5_5 
REMARK    3  A    between atoms: C8_8  and  O1_10 
ROOT
HETATM    1  C5  UNL     1      33.382 -46.199  -6.913  1.00  0.00     0.161 C 
HETATM    2  C6  UNL     1      32.839 -47.616  -6.714  1.00  0.00     0.040 C 
HETATM    3  C7  UNL     1      31.865 -47.503  -5.540  1.00  0.00     0.073 C 
HETATM    4  C8  UNL     1      30.731 -46.611  -6.052  1.00  0.00     0.191 C 
HETATM    5  C9  UNL     1      29.682 -47.534  -6.672  1.00  0.00     0.082 C 
HETATM    6  O2  UNL     1      31.178 -45.739  -7.018  1.00  0.00    -0.201 OA
HETATM    7  O3  UNL     1      32.364 -45.258  -6.816  1.00  0.00    -0.233 OA
ENDROOT
BRANCH   1   8
HETATM    8  C4  UNL     1      34.040 -46.182  -8.271  1.00  0.00     0.039 C 
BRANCH   8   9
HETATM    9  C2  UNL     1      33.046 -46.362  -9.392  1.00  0.00    -0.020 C 
HETATM   10  C1  UNL     1      32.840 -45.123 -10.203  1.00  0.00     0.009 C 
HETATM   11  C3  UNL     1      33.532 -47.457 -10.317  1.00  0.00     0.009 C 
ENDBRANCH   8   9
ENDBRANCH   1   8
BRANCH   4  12
HETATM   12  O1  UNL     1      30.190 -45.976  -4.937  1.00  0.00    -0.363 OA
ATOM     13  H1  UNL     1      29.266 -45.847  -5.120  1.00  0.00     0.213 HD
ENDBRANCH   4  12
TORSDOF 3
ENDMDL
