MODEL 1
REMARK VINA RESULT: -7.106881851      0.000      0.000
REMARK  9 active torsions:
REMARK  status: ('A' for Active; 'I' for Inactive)
REMARK    1  A    between atoms: C2_2  and  O1_3 
REMARK    2  A    between atoms: O1_3  and  C3_4 
REMARK       I    between atoms: C3_4  and  N1_6 
REMARK    3  A    between atoms: N1_6  and  C4_8 
REMARK    4  A    between atoms: C4_8  and  O3_9 
REMARK    5  A    between atoms: C4_8  and  C5_13 
REMARK    6  A    between atoms: O3_9  and  N2_10 
REMARK    7  A    between atoms: C7_15  and  N3_16 
REMARK    8  A    between atoms: N3_16  and  C8_18 
REMARK    9  A    between atoms: C8_18  and  O4_20 
ROOT
HETATM    1  C5  UNL     1      30.280  46.838  -4.808  1.00  0.00     0.080 A 
HETATM    2  C6  UNL     1      31.092  46.574  -5.883  1.00  0.00     0.081 A 
HETATM    3  C7  UNL     1      30.632  45.367  -6.414  1.00  0.00     0.124 A 
HETATM    4  N4  UNL     1      29.592  44.946  -5.673  1.00  0.00    -0.285 N 
ATOM      5  H4  UNL     1      29.052  44.093  -5.819  1.00  0.00     0.188 HD
HETATM    6  N5  UNL     1      29.401  45.842  -4.719  1.00  0.00    -0.299 N 
ATOM      7  H5  UNL     1      28.674  45.779  -4.007  1.00  0.00     0.186 HD
ENDROOT
BRANCH   1   8
HETATM    8  C4  UNL     1      30.327  47.996  -3.887  1.00  0.00     0.306 C 
BRANCH   8   9
HETATM    9  N1  UNL     1      29.696  47.631  -2.645  1.00  0.00    -0.303 N 
HETATM   10  C3  UNL     1      30.190  48.075  -1.395  1.00  0.00     0.362 C 
HETATM   11  O2  UNL     1      31.221  48.821  -1.356  1.00  0.00    -0.238 OA
ATOM     12  H1  UNL     1      28.869  47.034  -2.666  1.00  0.00     0.167 HD
BRANCH  10  13
HETATM   13  O1  UNL     1      29.617  47.749  -0.188  1.00  0.00    -0.304 OA
BRANCH  13  14
HETATM   14  C2  UNL     1      28.236  47.664   0.031  1.00  0.00     0.176 C 
HETATM   15  C1  UNL     1      27.712  46.283  -0.289  1.00  0.00     0.034 C 
ENDBRANCH  13  14
ENDBRANCH  10  13
ENDBRANCH   8   9
BRANCH   8  16
HETATM   16  O3  UNL     1      29.741  49.131  -4.428  1.00  0.00    -0.255 OA
BRANCH  16  17
HETATM   17  N2  UNL     1      30.624  50.083  -4.753  1.00  0.00    -0.308 N 
ATOM     18  H22 UNL     1      31.596  49.873  -4.977  1.00  0.00     0.184 HD
ATOM     19  H21 UNL     1      30.226  51.023  -4.752  1.00  0.00     0.184 HD
ENDBRANCH  16  17
ENDBRANCH   8  16
ENDBRANCH   1   8
BRANCH   3  20
HETATM   20  N3  UNL     1      31.155  44.801  -7.437  1.00  0.00    -0.312 N 
ATOM     21  H3  UNL     1      31.223  43.785  -7.497  1.00  0.00     0.170 HD
BRANCH  20  22
HETATM   22  C8  UNL     1      31.640  45.627  -8.489  1.00  0.00     0.215 C 
HETATM   23  S1  UNL     1      30.583  46.598  -9.256  1.00  0.00    -0.033 SA
BRANCH  22  24
HETATM   24  O4  UNL     1      32.967  45.603  -8.844  1.00  0.00    -0.332 OA
HETATM   25  C9  UNL     1      33.731  46.780  -8.670  1.00  0.00     0.212 C 
ENDBRANCH  22  24
ENDBRANCH  20  22
ENDBRANCH   3  20
TORSDOF 9
ENDMDL
MODEL 2
REMARK VINA RESULT: -7.060949761      3.147      4.721
REMARK  9 active torsions:
REMARK  status: ('A' for Active; 'I' for Inactive)
REMARK    1  A    between atoms: C2_2  and  O1_3 
REMARK    2  A    between atoms: O1_3  and  C3_4 
REMARK       I    between atoms: C3_4  and  N1_6 
REMARK    3  A    between atoms: N1_6  and  C4_8 
REMARK    4  A    between atoms: C4_8  and  O3_9 
REMARK    5  A    between atoms: C4_8  and  C5_13 
REMARK    6  A    between atoms: O3_9  and  N2_10 
REMARK    7  A    between atoms: C7_15  and  N3_16 
REMARK    8  A    between atoms: N3_16  and  C8_18 
REMARK    9  A    between atoms: C8_18  and  O4_20 
ROOT
HETATM    1  C5  UNL     1      29.933  48.095  -5.290  1.00  0.00     0.080 A 
HETATM    2  C6  UNL     1      30.815  48.570  -6.229  1.00  0.00     0.081 A 
HETATM    3  C7  UNL     1      31.168  49.851  -5.796  1.00  0.00     0.124 A 
HETATM    4  N4  UNL     1      30.514  50.107  -4.649  1.00  0.00    -0.285 N 
ATOM      5  H4  UNL     1      30.572  50.964  -4.099  1.00  0.00     0.188 HD
HETATM    6  N5  UNL     1      29.782  49.042  -4.367  1.00  0.00    -0.299 N 
ATOM      7  H5  UNL     1      29.180  48.958  -3.549  1.00  0.00     0.186 HD
ENDROOT
BRANCH   1   8
HETATM    8  C4  UNL     1      29.248  46.781  -5.260  1.00  0.00     0.306 C 
BRANCH   8   9
HETATM    9  N1  UNL     1      29.376  46.219  -3.940  1.00  0.00    -0.303 N 
HETATM   10  C3  UNL     1      28.383  46.404  -2.948  1.00  0.00     0.362 C 
HETATM   11  O2  UNL     1      27.343  47.085  -3.220  1.00  0.00    -0.238 OA
ATOM     12  H1  UNL     1      30.206  45.670  -3.714  1.00  0.00     0.167 HD
BRANCH  10  13
HETATM   13  O1  UNL     1      28.468  45.884  -1.678  1.00  0.00    -0.304 OA
BRANCH  13  14
HETATM   14  C2  UNL     1      27.707  46.332  -0.591  1.00  0.00     0.176 C 
HETATM   15  C1  UNL     1      28.394  47.468   0.131  1.00  0.00     0.034 C 
ENDBRANCH  13  14
ENDBRANCH  10  13
ENDBRANCH   8   9
BRANCH   8  16
HETATM   16  O3  UNL     1      29.731  45.907  -6.223  1.00  0.00    -0.255 OA
BRANCH  16  17
HETATM   17  N2  UNL     1      30.049  44.702  -5.735  1.00  0.00    -0.308 N 
ATOM     18  H22 UNL     1      30.041  43.860  -6.310  1.00  0.00     0.184 HD
ATOM     19  H21 UNL     1      30.296  44.717  -4.745  1.00  0.00     0.184 HD
ENDBRANCH  16  17
ENDBRANCH   8  16
ENDBRANCH   1   8
BRANCH   3  20
HETATM   20  N3  UNL     1      31.983  50.609  -6.429  1.00  0.00    -0.312 N 
ATOM     21  H3  UNL     1      32.165  50.469  -7.423  1.00  0.00     0.170 HD
BRANCH  20  22
HETATM   22  C8  UNL     1      32.630  51.652  -5.709  1.00  0.00     0.215 C 
HETATM   23  S1  UNL     1      34.250  51.594  -5.558  1.00  0.00    -0.033 SA
BRANCH  22  24
HETATM   24  O4  UNL     1      31.903  52.679  -5.158  1.00  0.00    -0.332 OA
HETATM   25  C9  UNL     1      32.471  53.404  -4.084  1.00  0.00     0.212 C 
ENDBRANCH  22  24
ENDBRANCH  20  22
ENDBRANCH   3  20
TORSDOF 9
ENDMDL
MODEL 3
REMARK VINA RESULT: -7.026456813      1.623      1.844
REMARK  9 active torsions:
REMARK  status: ('A' for Active; 'I' for Inactive)
REMARK    1  A    between atoms: C2_2  and  O1_3 
REMARK    2  A    between atoms: O1_3  and  C3_4 
REMARK       I    between atoms: C3_4  and  N1_6 
REMARK    3  A    between atoms: N1_6  and  C4_8 
REMARK    4  A    between atoms: C4_8  and  O3_9 
REMARK    5  A    between atoms: C4_8  and  C5_13 
REMARK    6  A    between atoms: O3_9  and  N2_10 
REMARK    7  A    between atoms: C7_15  and  N3_16 
REMARK    8  A    between atoms: N3_16  and  C8_18 
REMARK    9  A    between atoms: C8_18  and  O4_20 
ROOT
HETATM    1  C5  UNL     1      30.383  46.415  -5.575  1.00  0.00     0.080 A 
HETATM    2  C6  UNL     1      30.588  46.854  -6.860  1.00  0.00     0.081 A 
HETATM    3  C7  UNL     1      30.714  45.698  -7.635  1.00  0.00     0.124 A 
HETATM    4  N4  UNL     1      30.585  44.630  -6.829  1.00  0.00    -0.285 N 
ATOM      5  H4  UNL     1      30.632  43.650  -7.112  1.00  0.00     0.188 HD
HETATM    6  N5  UNL     1      30.388  45.083  -5.602  1.00  0.00    -0.299 N 
ATOM      7  H5  UNL     1      30.257  44.491  -4.783  1.00  0.00     0.186 HD
ENDROOT
BRANCH   1   8
HETATM    8  C4  UNL     1      30.184  47.225  -4.351  1.00  0.00     0.306 C 
BRANCH   8   9
HETATM    9  N1  UNL     1      29.549  46.409  -3.349  1.00  0.00    -0.303 N 
HETATM   10  C3  UNL     1      29.589  46.744  -1.974  1.00  0.00     0.362 C 
HETATM   11  O2  UNL     1      30.201  47.796  -1.603  1.00  0.00    -0.238 OA
ATOM     12  H1  UNL     1      29.055  45.564  -3.638  1.00  0.00     0.167 HD
BRANCH  10  13
HETATM   13  O1  UNL     1      28.996  45.992  -0.988  1.00  0.00    -0.304 OA
BRANCH  13  14
HETATM   14  C2  UNL     1      27.778  46.315  -0.375  1.00  0.00     0.176 C 
HETATM   15  C1  UNL     1      26.818  46.945  -1.358  1.00  0.00     0.034 C 
ENDBRANCH  13  14
ENDBRANCH  10  13
ENDBRANCH   8   9
BRANCH   8  16
HETATM   16  O3  UNL     1      29.453  48.380  -4.590  1.00  0.00    -0.255 OA
BRANCH  16  17
HETATM   17  N2  UNL     1      30.141  49.503  -4.354  1.00  0.00    -0.308 N 
ATOM     18  H22 UNL     1      31.071  49.497  -3.937  1.00  0.00     0.184 HD
ATOM     19  H21 UNL     1      29.643  50.350  -4.631  1.00  0.00     0.184 HD
ENDBRANCH  16  17
ENDBRANCH   8  16
ENDBRANCH   1   8
BRANCH   3  20
HETATM   20  N3  UNL     1      30.918  45.716  -8.900  1.00  0.00    -0.312 N 
ATOM     21  H3  UNL     1      30.314  46.256  -9.520  1.00  0.00     0.170 HD
BRANCH  20  22
HETATM   22  C8  UNL     1      32.008  44.964  -9.417  1.00  0.00     0.215 C 
HETATM   23  S1  UNL     1      33.233  45.769 -10.123  1.00  0.00    -0.033 SA
BRANCH  22  24
HETATM   24  O4  UNL     1      32.023  43.594  -9.320  1.00  0.00    -0.332 OA
HETATM   25  C9  UNL     1      32.387  42.843 -10.462  1.00  0.00     0.212 C 
ENDBRANCH  22  24
ENDBRANCH  20  22
ENDBRANCH   3  20
TORSDOF 9
ENDMDL
MODEL 4
REMARK VINA RESULT: -6.970575008      2.970      4.253
REMARK  9 active torsions:
REMARK  status: ('A' for Active; 'I' for Inactive)
REMARK    1  A    between atoms: C2_2  and  O1_3 
REMARK    2  A    between atoms: O1_3  and  C3_4 
REMARK       I    between atoms: C3_4  and  N1_6 
REMARK    3  A    between atoms: N1_6  and  C4_8 
REMARK    4  A    between atoms: C4_8  and  O3_9 
REMARK    5  A    between atoms: C4_8  and  C5_13 
REMARK    6  A    between atoms: O3_9  and  N2_10 
REMARK    7  A    between atoms: C7_15  and  N3_16 
REMARK    8  A    between atoms: N3_16  and  C8_18 
REMARK    9  A    between atoms: C8_18  and  O4_20 
ROOT
HETATM    1  C5  UNL     1      29.899  48.126  -5.262  1.00  0.00     0.080 A 
HETATM    2  C6  UNL     1      30.743  48.495  -6.280  1.00  0.00     0.081 A 
HETATM    3  C7  UNL     1      31.210  49.766  -5.937  1.00  0.00     0.124 A 
HETATM    4  N4  UNL     1      30.657  50.120  -4.763  1.00  0.00    -0.285 N 
ATOM      5  H4  UNL     1      30.810  50.995  -4.262  1.00  0.00     0.188 HD
HETATM    6  N5  UNL     1      29.877  49.123  -4.380  1.00  0.00    -0.299 N 
ATOM      7  H5  UNL     1      29.329  49.118  -3.520  1.00  0.00     0.186 HD
ENDROOT
BRANCH   1   8
HETATM    8  C4  UNL     1      29.132  46.867  -5.119  1.00  0.00     0.306 C 
BRANCH   8   9
HETATM    9  N1  UNL     1      29.367  46.323  -3.806  1.00  0.00    -0.303 N 
HETATM   10  C3  UNL     1      28.380  46.359  -2.793  1.00  0.00     0.362 C 
HETATM   11  O2  UNL     1      27.247  46.885  -3.039  1.00  0.00    -0.238 OA
ATOM     12  H1  UNL     1      30.272  45.898  -3.601  1.00  0.00     0.167 HD
BRANCH  10  13
HETATM   13  O1  UNL     1      28.565  45.852  -1.529  1.00  0.00    -0.304 OA
BRANCH  13  14
HETATM   14  C2  UNL     1      27.850  46.269  -0.399  1.00  0.00     0.176 C 
HETATM   15  C1  UNL     1      28.361  47.594   0.116  1.00  0.00     0.034 C 
ENDBRANCH  13  14
ENDBRANCH  10  13
ENDBRANCH   8   9
BRANCH   8  16
HETATM   16  O3  UNL     1      29.442  45.940  -6.105  1.00  0.00    -0.255 OA
BRANCH  16  17
HETATM   17  N2  UNL     1      30.158  44.903  -5.654  1.00  0.00    -0.308 N 
ATOM     18  H22 UNL     1      29.781  44.224  -4.994  1.00  0.00     0.184 HD
ATOM     19  H21 UNL     1      31.104  44.867  -6.036  1.00  0.00     0.184 HD
ENDBRANCH  16  17
ENDBRANCH   8  16
ENDBRANCH   1   8
BRANCH   3  20
HETATM   20  N3  UNL     1      32.028  50.436  -6.660  1.00  0.00    -0.312 N 
ATOM     21  H3  UNL     1      31.734  50.830  -7.554  1.00  0.00     0.170 HD
BRANCH  20  22
HETATM   22  C8  UNL     1      33.356  50.616  -6.185  1.00  0.00     0.215 C 
HETATM   23  S1  UNL     1      34.478  51.170  -7.226  1.00  0.00    -0.033 SA
BRANCH  22  24
HETATM   24  O4  UNL     1      33.680  50.328  -4.882  1.00  0.00    -0.332 OA
HETATM   25  C9  UNL     1      34.048  51.395  -4.029  1.00  0.00     0.212 C 
ENDBRANCH  22  24
ENDBRANCH  20  22
ENDBRANCH   3  20
TORSDOF 9
ENDMDL
MODEL 5
REMARK VINA RESULT: -6.906100537      3.187      7.106
REMARK  9 active torsions:
REMARK  status: ('A' for Active; 'I' for Inactive)
REMARK    1  A    between atoms: C2_2  and  O1_3 
REMARK    2  A    between atoms: O1_3  and  C3_4 
REMARK       I    between atoms: C3_4  and  N1_6 
REMARK    3  A    between atoms: N1_6  and  C4_8 
REMARK    4  A    between atoms: C4_8  and  O3_9 
REMARK    5  A    between atoms: C4_8  and  C5_13 
REMARK    6  A    between atoms: O3_9  and  N2_10 
REMARK    7  A    between atoms: C7_15  and  N3_16 
REMARK    8  A    between atoms: N3_16  and  C8_18 
REMARK    9  A    between atoms: C8_18  and  O4_20 
ROOT
HETATM    1  C5  UNL     1      30.044  46.488  -4.770  1.00  0.00     0.080 A 
HETATM    2  C6  UNL     1      28.983  47.179  -4.239  1.00  0.00     0.081 A 
HETATM    3  C7  UNL     1      29.456  47.737  -3.050  1.00  0.00     0.124 A 
HETATM    4  N4  UNL     1      30.743  47.382  -2.896  1.00  0.00    -0.285 N 
ATOM      5  H4  UNL     1      31.353  47.640  -2.120  1.00  0.00     0.188 HD
HETATM    6  N5  UNL     1      31.073  46.636  -3.937  1.00  0.00    -0.299 N 
ATOM      7  H5  UNL     1      31.995  46.226  -4.084  1.00  0.00     0.186 HD
ENDROOT
BRANCH   1   8
HETATM    8  C4  UNL     1      30.092  45.709  -6.029  1.00  0.00     0.306 C 
BRANCH   8   9
HETATM    9  N1  UNL     1      29.883  46.602  -7.139  1.00  0.00    -0.303 N 
HETATM   10  C3  UNL     1      30.383  46.318  -8.432  1.00  0.00     0.362 C 
HETATM   11  O2  UNL     1      31.038  45.245  -8.631  1.00  0.00    -0.238 OA
ATOM     12  H1  UNL     1      29.358  47.464  -6.989  1.00  0.00     0.167 HD
BRANCH  10  13
HETATM   13  O1  UNL     1      30.204  47.144  -9.517  1.00  0.00    -0.304 OA
BRANCH  13  14
HETATM   14  C2  UNL     1      31.225  47.899 -10.110  1.00  0.00     0.176 C 
HETATM   15  C1  UNL     1      31.715  48.986  -9.182  1.00  0.00     0.034 C 
ENDBRANCH  13  14
ENDBRANCH  10  13
ENDBRANCH   8   9
BRANCH   8  16
HETATM   16  O3  UNL     1      29.175  44.668  -6.046  1.00  0.00    -0.255 OA
BRANCH  16  17
HETATM   17  N2  UNL     1      29.724  43.478  -6.317  1.00  0.00    -0.308 N 
ATOM     18  H22 UNL     1      30.700  43.267  -6.109  1.00  0.00     0.184 HD
ATOM     19  H21 UNL     1      29.074  42.819  -6.747  1.00  0.00     0.184 HD
ENDBRANCH  16  17
ENDBRANCH   8  16
ENDBRANCH   1   8
BRANCH   3  20
HETATM   20  N3  UNL     1      28.735  48.457  -2.273  1.00  0.00    -0.312 N 
ATOM     21  H3  UNL     1      28.983  49.427  -2.079  1.00  0.00     0.170 HD
BRANCH  20  22
HETATM   22  C8  UNL     1      27.580  47.869  -1.687  1.00  0.00     0.215 C 
HETATM   23  S1  UNL     1      27.787  46.621  -0.662  1.00  0.00    -0.033 SA
BRANCH  22  24
HETATM   24  O4  UNL     1      26.325  48.343  -1.981  1.00  0.00    -0.332 OA
HETATM   25  C9  UNL     1      26.216  49.521  -2.756  1.00  0.00     0.212 C 
ENDBRANCH  22  24
ENDBRANCH  20  22
ENDBRANCH   3  20
TORSDOF 9
ENDMDL
