MODEL 1
REMARK VINA RESULT: -4.803978704      0.000      0.000
REMARK  2 active torsions:
REMARK  status: ('A' for Active; 'I' for Inactive)
REMARK    1  A    between atoms: N1_1  and  S1_4 
REMARK    2  A    between atoms: S1_4  and  C1_7 
ROOT
HETATM    1  S1  UNL     1      43.422  30.962  33.492  1.00  0.00     0.279 S 
HETATM    2  O1  UNL     1      43.620  31.217  34.969  1.00  0.00    -0.199 OA
HETATM    3  O2  UNL     1      44.697  30.584  32.815  1.00  0.00    -0.199 OA
ENDROOT
BRANCH   1   4
HETATM    4  N1  UNL     1      42.287  29.702  33.326  1.00  0.00    -0.323 N 
ATOM      5  H12 UNL     1      41.620  29.412  34.041  1.00  0.00     0.169 HD
ATOM      6  H11 UNL     1      42.400  29.300  32.395  1.00  0.00     0.169 HD
ENDBRANCH   1   4
BRANCH   1   7
HETATM    7  C1  UNL     1      42.744  32.403  32.728  1.00  0.00     0.189 A 
HETATM    8  C2  UNL     1      42.333  33.568  33.369  1.00  0.00     0.053 A 
HETATM    9  C3  UNL     1      41.874  34.428  32.405  1.00  0.00     0.028 A 
HETATM   10  C4  UNL     1      42.019  33.759  31.208  1.00  0.00     0.143 A 
HETATM   11  O3  UNL     1      42.532  32.583  31.466  1.00  0.00    -0.310 OA
ENDBRANCH   1   7
TORSDOF 2
ENDMDL
MODEL 2
REMARK VINA RESULT: -4.673102354      7.431      8.179
REMARK  2 active torsions:
REMARK  status: ('A' for Active; 'I' for Inactive)
REMARK    1  A    between atoms: N1_1  and  S1_4 
REMARK    2  A    between atoms: S1_4  and  C1_7 
ROOT
HETATM    1  S1  UNL     1      41.869  36.883  39.886  1.00  0.00     0.279 S 
HETATM    2  O1  UNL     1      41.313  35.944  40.932  1.00  0.00    -0.199 OA
HETATM    3  O2  UNL     1      40.796  37.450  39.017  1.00  0.00    -0.199 OA
ENDROOT
BRANCH   1   4
HETATM    4  N1  UNL     1      42.680  38.145  40.694  1.00  0.00    -0.323 N 
ATOM      5  H12 UNL     1      42.306  38.678  41.479  1.00  0.00     0.169 HD
ATOM      6  H11 UNL     1      43.591  38.265  40.252  1.00  0.00     0.169 HD
ENDBRANCH   1   4
BRANCH   1   7
HETATM    7  C1  UNL     1      43.053  36.029  38.893  1.00  0.00     0.189 A 
HETATM    8  C2  UNL     1      43.077  35.960  37.504  1.00  0.00     0.053 A 
HETATM    9  C3  UNL     1      44.161  35.198  37.148  1.00  0.00     0.028 A 
HETATM   10  C4  UNL     1      44.762  34.828  38.333  1.00  0.00     0.143 A 
HETATM   11  O3  UNL     1      44.067  35.345  39.313  1.00  0.00    -0.310 OA
ENDBRANCH   1   7
TORSDOF 2
ENDMDL
MODEL 3
REMARK VINA RESULT: -4.641534811      7.297      8.030
REMARK  2 active torsions:
REMARK  status: ('A' for Active; 'I' for Inactive)
REMARK    1  A    between atoms: N1_1  and  S1_4 
REMARK    2  A    between atoms: S1_4  and  C1_7 
ROOT
HETATM    1  S1  UNL     1      41.839  36.899  39.819  1.00  0.00     0.279 S 
HETATM    2  O1  UNL     1      41.342  35.927  40.865  1.00  0.00    -0.199 OA
HETATM    3  O2  UNL     1      40.718  37.493  39.032  1.00  0.00    -0.199 OA
ENDROOT
BRANCH   1   4
HETATM    4  N1  UNL     1      42.698  38.134  40.617  1.00  0.00    -0.323 N 
ATOM      5  H12 UNL     1      42.559  38.417  41.587  1.00  0.00     0.169 HD
ATOM      6  H11 UNL     1      43.365  38.531  39.954  1.00  0.00     0.169 HD
ENDBRANCH   1   4
BRANCH   1   7
HETATM    7  C1  UNL     1      42.961  36.075  38.732  1.00  0.00     0.189 A 
HETATM    8  C2  UNL     1      44.080  35.335  39.099  1.00  0.00     0.053 A 
HETATM    9  C3  UNL     1      44.665  34.873  37.948  1.00  0.00     0.028 A 
HETATM   10  C4  UNL     1      43.882  35.348  36.916  1.00  0.00     0.143 A 
HETATM   11  O3  UNL     1      42.904  36.042  37.441  1.00  0.00    -0.310 OA
ENDBRANCH   1   7
TORSDOF 2
ENDMDL
MODEL 4
REMARK VINA RESULT: -4.275586406      2.677      3.790
REMARK  2 active torsions:
REMARK  status: ('A' for Active; 'I' for Inactive)
REMARK    1  A    between atoms: N1_1  and  S1_4 
REMARK    2  A    between atoms: S1_4  and  C1_7 
ROOT
HETATM    1  S1  UNL     1      42.031  33.911  32.002  1.00  0.00     0.279 S 
HETATM    2  O1  UNL     1      42.949  35.113  31.993  1.00  0.00    -0.199 OA
HETATM    3  O2  UNL     1      40.662  34.259  32.485  1.00  0.00    -0.199 OA
ENDROOT
BRANCH   1   4
HETATM    4  N1  UNL     1      41.943  33.307  30.412  1.00  0.00    -0.323 N 
ATOM      5  H12 UNL     1      42.343  32.424  30.095  1.00  0.00     0.169 HD
ATOM      6  H11 UNL     1      41.426  33.982  29.849  1.00  0.00     0.169 HD
ENDBRANCH   1   4
BRANCH   1   7
HETATM    7  C1  UNL     1      42.722  32.647  33.024  1.00  0.00     0.189 A 
HETATM    8  C2  UNL     1      43.486  32.831  34.172  1.00  0.00     0.053 A 
HETATM    9  C3  UNL     1      43.815  31.589  34.652  1.00  0.00     0.028 A 
HETATM   10  C4  UNL     1      43.241  30.688  33.779  1.00  0.00     0.143 A 
HETATM   11  O3  UNL     1      42.618  31.370  32.852  1.00  0.00    -0.310 OA
ENDBRANCH   1   7
TORSDOF 2
ENDMDL
MODEL 5
REMARK VINA RESULT: -4.239636899      7.382      7.927
REMARK  2 active torsions:
REMARK  status: ('A' for Active; 'I' for Inactive)
REMARK    1  A    between atoms: N1_1  and  S1_4 
REMARK    2  A    between atoms: S1_4  and  C1_7 
ROOT
HETATM    1  S1  UNL     1      42.814  36.277  38.309  1.00  0.00     0.279 S 
HETATM    2  O1  UNL     1      43.527  35.454  39.358  1.00  0.00    -0.199 OA
HETATM    3  O2  UNL     1      42.877  35.640  36.961  1.00  0.00    -0.199 OA
ENDROOT
BRANCH   1   4
HETATM    4  N1  UNL     1      41.188  36.443  38.790  1.00  0.00    -0.323 N 
ATOM      5  H12 UNL     1      40.591  35.685  39.121  1.00  0.00     0.169 HD
ATOM      6  H11 UNL     1      40.930  37.425  38.687  1.00  0.00     0.169 HD
ENDBRANCH   1   4
BRANCH   1   7
HETATM    7  C1  UNL     1      43.525  37.892  38.241  1.00  0.00     0.189 A 
HETATM    8  C2  UNL     1      44.392  38.458  39.170  1.00  0.00     0.053 A 
HETATM    9  C3  UNL     1      44.699  39.721  38.732  1.00  0.00     0.028 A 
HETATM   10  C4  UNL     1      44.008  39.883  37.549  1.00  0.00     0.143 A 
HETATM   11  O3  UNL     1      43.343  38.780  37.319  1.00  0.00    -0.310 OA
ENDBRANCH   1   7
TORSDOF 2
ENDMDL
