MODEL 1
REMARK VINA RESULT: -7.220169237      0.000      0.000
REMARK  4 active torsions:
REMARK  status: ('A' for Active; 'I' for Inactive)
REMARK    1  A    between atoms: N1_1  and  N2_4 
REMARK       I    between atoms: N2_4  and  C1_6 
REMARK    2  A    between atoms: C1_6  and  C2_8 
REMARK    3  A    between atoms: C3_9  and  C4_10 
REMARK       I    between atoms: N4_14  and  C6_15 
REMARK       I    between atoms: C6_15  and  N5_17 
REMARK    4  A    between atoms: N5_17  and  N6_19 
ROOT
HETATM    1  C2  UNL     1      29.732  47.204  -2.203  1.00  0.00     0.197 C 
HETATM    2  C3  UNL     1      28.381  47.537  -1.620  1.00  0.00     0.125 C 
HETATM    3  C5  UNL     1      27.856  46.794  -2.814  1.00  0.00     0.145 C 
HETATM    4  N4  UNL     1      29.157  46.770  -3.434  1.00  0.00    -0.318 N 
HETATM    5  C6  UNL     1      29.593  46.441  -4.736  1.00  0.00     0.337 C 
HETATM    6  O3  UNL     1      30.830  46.498  -5.055  1.00  0.00    -0.245 OA
HETATM    7  N5  UNL     1      28.698  46.030  -5.759  1.00  0.00    -0.258 N 
ATOM      8  H5  UNL     1      27.702  45.972  -5.546  1.00  0.00     0.191 HD
ENDROOT
BRANCH   1   9
HETATM    9  C1  UNL     1      30.571  48.425  -2.257  1.00  0.00     0.259 C 
HETATM   10  N2  UNL     1      30.653  49.145  -3.464  1.00  0.00    -0.275 N 
ATOM     11  H2  UNL     1      30.143  48.831  -4.289  1.00  0.00     0.189 HD
HETATM   12  O1  UNL     1      31.193  48.798  -1.234  1.00  0.00    -0.269 OA
BRANCH  10  13
HETATM   13  N1  UNL     1      31.452  50.307  -3.514  1.00  0.00    -0.343 N 
ATOM     14  H12 UNL     1      31.008  51.218  -3.635  1.00  0.00     0.176 HD
ATOM     15  H11 UNL     1      32.464  50.215  -3.427  1.00  0.00     0.176 HD
ENDBRANCH  10  13
ENDBRANCH   1   9
BRANCH   2  16
HETATM   16  C4  UNL     1      28.173  46.902  -0.318  1.00  0.00     0.239 C 
HETATM   17  N3  UNL     1      28.052  45.502  -0.135  1.00  0.00    -0.062 NA
HETATM   18  O2  UNL     1      28.090  47.606   0.729  1.00  0.00    -0.276 OA
ENDBRANCH   2  16
BRANCH   7  19
HETATM   19  N6  UNL     1      29.125  45.710  -7.020  1.00  0.00    -0.341 N 
ATOM     20  H62 UNL     1      30.108  45.869  -7.245  1.00  0.00     0.177 HD
ATOM     21  H61 UNL     1      28.498  45.325  -7.727  1.00  0.00     0.177 HD
ENDBRANCH   7  19
TORSDOF 4
ENDMDL
MODEL 2
REMARK VINA RESULT: -6.740724976      1.827      3.624
REMARK  4 active torsions:
REMARK  status: ('A' for Active; 'I' for Inactive)
REMARK    1  A    between atoms: N1_1  and  N2_4 
REMARK       I    between atoms: N2_4  and  C1_6 
REMARK    2  A    between atoms: C1_6  and  C2_8 
REMARK    3  A    between atoms: C3_9  and  C4_10 
REMARK       I    between atoms: N4_14  and  C6_15 
REMARK       I    between atoms: C6_15  and  N5_17 
REMARK    4  A    between atoms: N5_17  and  N6_19 
ROOT
HETATM    1  C2  UNL     1      28.961  47.549  -2.792  1.00  0.00     0.197 C 
HETATM    2  C3  UNL     1      29.345  47.017  -1.433  1.00  0.00     0.125 C 
HETATM    3  C5  UNL     1      30.426  48.056  -1.503  1.00  0.00     0.145 C 
HETATM    4  N4  UNL     1      30.168  48.301  -2.900  1.00  0.00    -0.318 N 
HETATM    5  C6  UNL     1      30.878  49.008  -3.896  1.00  0.00     0.337 C 
HETATM    6  O3  UNL     1      30.436  49.087  -5.094  1.00  0.00    -0.245 OA
HETATM    7  N5  UNL     1      32.107  49.667  -3.634  1.00  0.00    -0.258 N 
ATOM      8  H5  UNL     1      32.494  49.629  -2.691  1.00  0.00     0.191 HD
ENDROOT
BRANCH   1   9
HETATM    9  C1  UNL     1      28.794  46.425  -3.742  1.00  0.00     0.259 C 
HETATM   10  N2  UNL     1      29.880  46.050  -4.555  1.00  0.00    -0.275 N 
ATOM     11  H2  UNL     1      30.769  46.544  -4.491  1.00  0.00     0.189 HD
HETATM   12  O1  UNL     1      27.694  45.826  -3.810  1.00  0.00    -0.269 OA
BRANCH  10  13
HETATM   13  N1  UNL     1      29.718  44.979  -5.460  1.00  0.00    -0.343 N 
ATOM     14  H12 UNL     1      29.192  45.123  -6.322  1.00  0.00     0.176 HD
ATOM     15  H11 UNL     1      30.133  44.074  -5.234  1.00  0.00     0.176 HD
ENDBRANCH  10  13
ENDBRANCH   1   9
BRANCH   2  16
HETATM   16  C4  UNL     1      28.293  47.241  -0.438  1.00  0.00     0.239 C 
HETATM   17  N3  UNL     1      27.783  48.521  -0.107  1.00  0.00    -0.062 NA
HETATM   18  O2  UNL     1      27.784  46.264   0.182  1.00  0.00    -0.276 OA
ENDBRANCH   2  16
BRANCH   7  19
HETATM   19  N6  UNL     1      32.791  50.352  -4.602  1.00  0.00    -0.341 N 
ATOM     20  H62 UNL     1      32.698  50.034  -5.567  1.00  0.00     0.177 HD
ATOM     21  H61 UNL     1      33.380  51.157  -4.388  1.00  0.00     0.177 HD
ENDBRANCH   7  19
TORSDOF 4
ENDMDL
MODEL 3
REMARK VINA RESULT: -6.593472578      1.861      3.803
REMARK  4 active torsions:
REMARK  status: ('A' for Active; 'I' for Inactive)
REMARK    1  A    between atoms: N1_1  and  N2_4 
REMARK       I    between atoms: N2_4  and  C1_6 
REMARK    2  A    between atoms: C1_6  and  C2_8 
REMARK    3  A    between atoms: C3_9  and  C4_10 
REMARK       I    between atoms: N4_14  and  C6_15 
REMARK       I    between atoms: C6_15  and  N5_17 
REMARK    4  A    between atoms: N5_17  and  N6_19 
ROOT
HETATM    1  C2  UNL     1      29.675  47.373  -3.830  1.00  0.00     0.197 C 
HETATM    2  C3  UNL     1      30.938  47.424  -3.006  1.00  0.00     0.125 C 
HETATM    3  C5  UNL     1      31.615  47.105  -4.308  1.00  0.00     0.145 C 
HETATM    4  N4  UNL     1      30.358  46.800  -4.944  1.00  0.00    -0.318 N 
HETATM    5  C6  UNL     1      30.030  46.183  -6.171  1.00  0.00     0.337 C 
HETATM    6  O3  UNL     1      28.811  46.020  -6.525  1.00  0.00    -0.245 OA
HETATM    7  N5  UNL     1      31.016  45.711  -7.075  1.00  0.00    -0.258 N 
ATOM      8  H5  UNL     1      32.000  45.821  -6.830  1.00  0.00     0.191 HD
ENDROOT
BRANCH   1   9
HETATM    9  C1  UNL     1      28.670  46.516  -3.157  1.00  0.00     0.259 C 
HETATM   10  N2  UNL     1      29.006  45.898  -1.937  1.00  0.00    -0.275 N 
ATOM     11  H2  UNL     1      29.927  46.038  -1.522  1.00  0.00     0.189 HD
HETATM   12  O1  UNL     1      27.543  46.353  -3.679  1.00  0.00    -0.269 OA
BRANCH  10  13
HETATM   13  N1  UNL     1      28.048  45.083  -1.298  1.00  0.00    -0.343 N 
ATOM     14  H12 UNL     1      27.059  45.203  -1.515  1.00  0.00     0.176 HD
ATOM     15  H11 UNL     1      28.365  44.383  -0.626  1.00  0.00     0.176 HD
ENDBRANCH  10  13
ENDBRANCH   1   9
BRANCH   2  16
HETATM   16  C4  UNL     1      31.182  48.760  -2.458  1.00  0.00     0.239 C 
HETATM   17  N3  UNL     1      31.830  49.797  -3.172  1.00  0.00    -0.062 NA
HETATM   18  O2  UNL     1      30.809  49.045  -1.284  1.00  0.00    -0.276 OA
ENDBRANCH   2  16
BRANCH   7  19
HETATM   19  N6  UNL     1      30.693  45.114  -8.265  1.00  0.00    -0.341 N 
ATOM     20  H62 UNL     1      29.706  44.948  -8.462  1.00  0.00     0.177 HD
ATOM     21  H61 UNL     1      31.401  44.836  -8.945  1.00  0.00     0.177 HD
ENDBRANCH   7  19
TORSDOF 4
ENDMDL
MODEL 4
REMARK VINA RESULT: -6.563553342      2.006      5.145
REMARK  4 active torsions:
REMARK  status: ('A' for Active; 'I' for Inactive)
REMARK    1  A    between atoms: N1_1  and  N2_4 
REMARK       I    between atoms: N2_4  and  C1_6 
REMARK    2  A    between atoms: C1_6  and  C2_8 
REMARK    3  A    between atoms: C3_9  and  C4_10 
REMARK       I    between atoms: N4_14  and  C6_15 
REMARK       I    between atoms: C6_15  and  N5_17 
REMARK    4  A    between atoms: N5_17  and  N6_19 
ROOT
HETATM    1  C2  UNL     1      29.649  46.397  -4.363  1.00  0.00     0.197 C 
HETATM    2  C3  UNL     1      29.178  46.439  -5.796  1.00  0.00     0.125 C 
HETATM    3  C5  UNL     1      30.044  47.662  -5.882  1.00  0.00     0.145 C 
HETATM    4  N4  UNL     1      30.211  47.706  -4.451  1.00  0.00    -0.318 N 
HETATM    5  C6  UNL     1      30.728  48.686  -3.576  1.00  0.00     0.337 C 
HETATM    6  O3  UNL     1      30.773  48.489  -2.312  1.00  0.00    -0.245 OA
HETATM    7  N5  UNL     1      31.224  49.934  -4.036  1.00  0.00    -0.258 N 
ATOM      8  H5  UNL     1      31.206  50.131  -5.036  1.00  0.00     0.191 HD
ENDROOT
BRANCH   1   9
HETATM    9  C1  UNL     1      28.488  46.235  -3.456  1.00  0.00     0.259 C 
HETATM   10  N2  UNL     1      28.714  45.865  -2.117  1.00  0.00    -0.275 N 
ATOM     11  H2  UNL     1      29.662  45.711  -1.775  1.00  0.00     0.189 HD
HETATM   12  O1  UNL     1      27.328  46.427  -3.891  1.00  0.00    -0.269 OA
BRANCH  10  13
HETATM   13  N1  UNL     1      27.607  45.710  -1.255  1.00  0.00    -0.343 N 
ATOM     14  H12 UNL     1      27.281  46.507  -0.707  1.00  0.00     0.176 HD
ATOM     15  H11 UNL     1      27.150  44.800  -1.196  1.00  0.00     0.176 HD
ENDBRANCH  10  13
ENDBRANCH   1   9
BRANCH   2  16
HETATM   16  C4  UNL     1      29.628  45.271  -6.556  1.00  0.00     0.239 C 
HETATM   17  N3  UNL     1      29.353  45.075  -7.932  1.00  0.00    -0.062 NA
HETATM   18  O2  UNL     1      30.302  44.363  -5.991  1.00  0.00    -0.276 OA
ENDBRANCH   2  16
BRANCH   7  19
HETATM   19  N6  UNL     1      31.726  50.881  -3.183  1.00  0.00    -0.341 N 
ATOM     20  H62 UNL     1      32.556  50.642  -2.640  1.00  0.00     0.177 HD
ATOM     21  H61 UNL     1      31.300  51.802  -3.080  1.00  0.00     0.177 HD
ENDBRANCH   7  19
TORSDOF 4
ENDMDL
MODEL 5
REMARK VINA RESULT: -6.503552651      1.953      4.832
REMARK  4 active torsions:
REMARK  status: ('A' for Active; 'I' for Inactive)
REMARK    1  A    between atoms: N1_1  and  N2_4 
REMARK       I    between atoms: N2_4  and  C1_6 
REMARK    2  A    between atoms: C1_6  and  C2_8 
REMARK    3  A    between atoms: C3_9  and  C4_10 
REMARK       I    between atoms: N4_14  and  C6_15 
REMARK       I    between atoms: C6_15  and  N5_17 
REMARK    4  A    between atoms: N5_17  and  N6_19 
ROOT
HETATM    1  C2  UNL     1      29.784  47.563  -5.430  1.00  0.00     0.197 C 
HETATM    2  C3  UNL     1      30.402  46.441  -6.227  1.00  0.00     0.125 C 
HETATM    3  C5  UNL     1      29.546  45.562  -5.362  1.00  0.00     0.145 C 
HETATM    4  N4  UNL     1      29.230  46.656  -4.478  1.00  0.00    -0.318 N 
HETATM    5  C6  UNL     1      28.621  46.714  -3.205  1.00  0.00     0.337 C 
HETATM    6  O3  UNL     1      28.445  47.831  -2.606  1.00  0.00    -0.245 OA
HETATM    7  N5  UNL     1      28.173  45.556  -2.520  1.00  0.00    -0.258 N 
ATOM      8  H5  UNL     1      28.295  44.644  -2.963  1.00  0.00     0.191 HD
ENDROOT
BRANCH   1   9
HETATM    9  C1  UNL     1      30.844  48.474  -4.939  1.00  0.00     0.259 C 
HETATM   10  N2  UNL     1      30.476  49.621  -4.212  1.00  0.00    -0.275 N 
ATOM     11  H2  UNL     1      29.494  49.823  -4.026  1.00  0.00     0.189 HD
HETATM   12  O1  UNL     1      32.047  48.213  -5.176  1.00  0.00    -0.269 OA
BRANCH  10  13
HETATM   13  N1  UNL     1      31.487  50.488  -3.745  1.00  0.00    -0.343 N 
ATOM     14  H12 UNL     1      31.278  51.477  -3.604  1.00  0.00     0.176 HD
ATOM     15  H11 UNL     1      32.415  50.108  -3.555  1.00  0.00     0.176 HD
ENDBRANCH  10  13
ENDBRANCH   1   9
BRANCH   2  16
HETATM   16  C4  UNL     1      30.038  46.508  -7.644  1.00  0.00     0.239 C 
HETATM   17  N3  UNL     1      29.312  45.496  -8.319  1.00  0.00    -0.062 NA
HETATM   18  O2  UNL     1      30.370  47.509  -8.341  1.00  0.00    -0.276 OA
ENDBRANCH   2  16
BRANCH   7  19
HETATM   19  N6  UNL     1      27.581  45.617  -1.286  1.00  0.00    -0.341 N 
ATOM     20  H62 UNL     1      27.144  44.769  -0.925  1.00  0.00     0.177 HD
ATOM     21  H61 UNL     1      27.567  46.472  -0.730  1.00  0.00     0.177 HD
ENDBRANCH   7  19
TORSDOF 4
ENDMDL
