MODEL 1
REMARK VINA RESULT: -8.554836322      0.000      0.000
REMARK  8 active torsions:
REMARK  status: ('A' for Active; 'I' for Inactive)
REMARK    1  A    between atoms: N1_1  and  N2_4 
REMARK    2  A    between atoms: N2_4  and  C1_5 
REMARK    3  A    between atoms: C1_5  and  C2_6 
REMARK    4  A    between atoms: C1_5  and  C17_25 
REMARK    5  A    between atoms: C2_6  and  C3_7 
REMARK       I    between atoms: C3_7  and  N3_9 
REMARK    6  A    between atoms: N3_9  and  C4_11 
REMARK    7  A    between atoms: C7_14  and  C8_15 
REMARK    8  A    between atoms: C8_15  and  C9_17 
ROOT
HETATM    1  C4  UNL     1      -1.235   7.701  13.244  1.00  0.00     0.034 A 
HETATM    2  C5  UNL     1      -0.223   7.267  14.124  1.00  0.00     0.030 A 
HETATM    3  C6  UNL     1      -0.612   6.453  15.155  1.00  0.00     0.018 A 
HETATM    4  C7  UNL     1      -1.917   6.053  15.358  1.00  0.00     0.015 A 
HETATM    5  C15 UNL     1      -2.904   6.475  14.501  1.00  0.00     0.018 A 
HETATM    6  C16 UNL     1      -2.527   7.306  13.446  1.00  0.00     0.030 A 
ENDROOT
BRANCH   1   7
HETATM    7  N3  UNL     1      -0.845   8.547  12.211  1.00  0.00    -0.327 N 
HETATM    8  C3  UNL     1      -0.414   8.092  10.938  1.00  0.00     0.224 C 
HETATM    9  O1  UNL     1      -0.342   6.894  10.651  1.00  0.00    -0.273 OA
ATOM     10  H3  UNL     1      -0.870   9.554  12.378  1.00  0.00     0.169 HD
BRANCH   8  11
HETATM   11  C2  UNL     1      -0.030   9.078   9.890  1.00  0.00     0.135 C 
BRANCH  11  12
HETATM   12  C1  UNL     1      -1.134   9.400   8.899  1.00  0.00     0.196 C 
BRANCH  12  13
HETATM   13  N2  UNL     1      -2.252   9.928   9.720  1.00  0.00    -0.134 NA
BRANCH  13  14
HETATM   14  N1  UNL     1      -2.659  11.168   9.282  1.00  0.00    -0.348 N 
ATOM     15  H12 UNL     1      -2.115  11.742   8.638  1.00  0.00     0.172 HD
ATOM     16  H11 UNL     1      -3.560  11.429   9.683  1.00  0.00     0.172 HD
ENDBRANCH  13  14
ENDBRANCH  12  13
BRANCH  12  17
HETATM   17  C17 UNL     1      -0.712  10.564   8.089  1.00  0.00     0.252 C 
HETATM   18  N4  UNL     1       0.224  11.517   8.529  1.00  0.00    -0.061 NA
HETATM   19  O3  UNL     1      -1.199  10.729   6.940  1.00  0.00    -0.275 OA
ENDBRANCH  12  17
ENDBRANCH  11  12
ENDBRANCH   8  11
ENDBRANCH   1   7
BRANCH   4  20
HETATM   20  C8  UNL     1      -2.295   5.158  16.445  1.00  0.00     0.192 C 
HETATM   21  O2  UNL     1      -2.873   5.715  17.442  1.00  0.00    -0.287 OA
BRANCH  20  22
HETATM   22  C9  UNL     1      -2.067   3.727  16.468  1.00  0.00     0.015 A 
HETATM   23  C10 UNL     1      -2.475   2.889  15.453  1.00  0.00     0.015 A 
HETATM   24  C11 UNL     1      -2.222   1.531  15.470  1.00  0.00     0.001 A 
HETATM   25  C12 UNL     1      -1.540   0.979  16.523  1.00  0.00     0.000 A 
HETATM   26  C13 UNL     1      -1.120   1.781  17.546  1.00  0.00     0.001 A 
HETATM   27  C14 UNL     1      -1.386   3.134  17.507  1.00  0.00     0.015 A 
ENDBRANCH  20  22
ENDBRANCH   4  20
TORSDOF 8
ENDMDL
MODEL 2
REMARK VINA RESULT: -8.501447351      1.024      1.147
REMARK  8 active torsions:
REMARK  status: ('A' for Active; 'I' for Inactive)
REMARK    1  A    between atoms: N1_1  and  N2_4 
REMARK    2  A    between atoms: N2_4  and  C1_5 
REMARK    3  A    between atoms: C1_5  and  C2_6 
REMARK    4  A    between atoms: C1_5  and  C17_25 
REMARK    5  A    between atoms: C2_6  and  C3_7 
REMARK       I    between atoms: C3_7  and  N3_9 
REMARK    6  A    between atoms: N3_9  and  C4_11 
REMARK    7  A    between atoms: C7_14  and  C8_15 
REMARK    8  A    between atoms: C8_15  and  C9_17 
ROOT
HETATM    1  C4  UNL     1      -1.242   7.858  13.146  1.00  0.00     0.034 A 
HETATM    2  C5  UNL     1      -0.222   7.358  13.981  1.00  0.00     0.030 A 
HETATM    3  C6  UNL     1      -0.616   6.564  15.025  1.00  0.00     0.018 A 
HETATM    4  C7  UNL     1      -1.935   6.245  15.283  1.00  0.00     0.015 A 
HETATM    5  C15 UNL     1      -2.929   6.733  14.472  1.00  0.00     0.018 A 
HETATM    6  C16 UNL     1      -2.547   7.544  13.403  1.00  0.00     0.030 A 
ENDROOT
BRANCH   1   7
HETATM    7  N3  UNL     1      -0.845   8.684  12.099  1.00  0.00    -0.327 N 
HETATM    8  C3  UNL     1      -0.555   8.216  10.792  1.00  0.00     0.224 C 
HETATM    9  O1  UNL     1      -0.625   7.023  10.482  1.00  0.00    -0.273 OA
ATOM     10  H3  UNL     1      -0.757   9.684  12.283  1.00  0.00     0.169 HD
BRANCH   8  11
HETATM   11  C2  UNL     1      -0.151   9.182   9.733  1.00  0.00     0.135 C 
BRANCH  11  12
HETATM   12  C1  UNL     1      -0.893  10.506   9.776  1.00  0.00     0.196 C 
BRANCH  12  13
HETATM   13  N2  UNL     1       0.145  11.542   9.545  1.00  0.00    -0.134 NA
BRANCH  13  14
HETATM   14  N1  UNL     1      -0.382  12.657   8.935  1.00  0.00    -0.348 N 
ATOM     15  H12 UNL     1      -1.382  12.848   8.881  1.00  0.00     0.172 HD
ATOM     16  H11 UNL     1       0.351  13.254   8.551  1.00  0.00     0.172 HD
ENDBRANCH  13  14
ENDBRANCH  12  13
BRANCH  12  17
HETATM   17  C17 UNL     1      -1.756  10.599   8.578  1.00  0.00     0.252 C 
HETATM   18  N4  UNL     1      -1.276  10.458   7.263  1.00  0.00    -0.061 NA
HETATM   19  O3  UNL     1      -2.989  10.811   8.716  1.00  0.00    -0.275 OA
ENDBRANCH  12  17
ENDBRANCH  11  12
ENDBRANCH   8  11
ENDBRANCH   1   7
BRANCH   4  20
HETATM   20  C8  UNL     1      -2.321   5.370  16.384  1.00  0.00     0.192 C 
HETATM   21  O2  UNL     1      -2.872   5.950  17.383  1.00  0.00    -0.287 OA
BRANCH  20  22
HETATM   22  C9  UNL     1      -2.127   3.934  16.418  1.00  0.00     0.015 A 
HETATM   23  C10 UNL     1      -2.497   3.105  15.380  1.00  0.00     0.015 A 
HETATM   24  C11 UNL     1      -2.277   1.743  15.409  1.00  0.00     0.001 A 
HETATM   25  C12 UNL     1      -1.668   1.174  16.498  1.00  0.00     0.000 A 
HETATM   26  C13 UNL     1      -1.287   1.966  17.544  1.00  0.00     0.001 A 
HETATM   27  C14 UNL     1      -1.519   3.325  17.492  1.00  0.00     0.015 A 
ENDBRANCH  20  22
ENDBRANCH   4  20
TORSDOF 8
ENDMDL
MODEL 3
REMARK VINA RESULT: -8.291709528      1.492      1.752
REMARK  8 active torsions:
REMARK  status: ('A' for Active; 'I' for Inactive)
REMARK    1  A    between atoms: N1_1  and  N2_4 
REMARK    2  A    between atoms: N2_4  and  C1_5 
REMARK    3  A    between atoms: C1_5  and  C2_6 
REMARK    4  A    between atoms: C1_5  and  C17_25 
REMARK    5  A    between atoms: C2_6  and  C3_7 
REMARK       I    between atoms: C3_7  and  N3_9 
REMARK    6  A    between atoms: N3_9  and  C4_11 
REMARK    7  A    between atoms: C7_14  and  C8_15 
REMARK    8  A    between atoms: C8_15  and  C9_17 
ROOT
HETATM    1  C4  UNL     1      -1.474   7.749  13.486  1.00  0.00     0.034 A 
HETATM    2  C5  UNL     1      -0.272   7.400  14.134  1.00  0.00     0.030 A 
HETATM    3  C6  UNL     1      -0.309   6.300  14.950  1.00  0.00     0.018 A 
HETATM    4  C7  UNL     1      -1.445   5.543  15.155  1.00  0.00     0.015 A 
HETATM    5  C15 UNL     1      -2.617   5.882  14.526  1.00  0.00     0.018 A 
HETATM    6  C16 UNL     1      -2.599   7.000  13.692  1.00  0.00     0.030 A 
ENDROOT
BRANCH   1   7
HETATM    7  N3  UNL     1      -1.444   8.879  12.677  1.00  0.00    -0.327 N 
HETATM    8  C3  UNL     1      -1.264   8.838  11.270  1.00  0.00     0.224 C 
HETATM    9  O1  UNL     1      -1.107   7.781  10.651  1.00  0.00    -0.273 OA
ATOM     10  H3  UNL     1      -1.558   9.791  13.120  1.00  0.00     0.169 HD
BRANCH   8  11
HETATM   11  C2  UNL     1      -1.260  10.104  10.486  1.00  0.00     0.135 C 
BRANCH  11  12
HETATM   12  C1  UNL     1      -1.716   9.950   9.046  1.00  0.00     0.196 C 
BRANCH  12  13
HETATM   13  N2  UNL     1      -2.965  10.747   8.946  1.00  0.00    -0.134 NA
BRANCH  13  14
HETATM   14  N1  UNL     1      -4.073   9.938   8.835  1.00  0.00    -0.348 N 
ATOM     15  H12 UNL     1      -4.444   9.386   9.608  1.00  0.00     0.172 HD
ATOM     16  H11 UNL     1      -4.463   9.965   7.893  1.00  0.00     0.172 HD
ENDBRANCH  13  14
ENDBRANCH  12  13
BRANCH  12  17
HETATM   17  C17 UNL     1      -0.766  10.674   8.173  1.00  0.00     0.252 C 
HETATM   18  N4  UNL     1       0.407  11.290   8.647  1.00  0.00    -0.061 NA
HETATM   19  O3  UNL     1      -0.994  10.752   6.938  1.00  0.00    -0.275 OA
ENDBRANCH  12  17
ENDBRANCH  11  12
ENDBRANCH   8  11
ENDBRANCH   1   7
BRANCH   4  20
HETATM   20  C8  UNL     1      -1.444   4.357  16.004  1.00  0.00     0.192 C 
HETATM   21  O2  UNL     1      -2.415   4.272  16.834  1.00  0.00    -0.287 OA
BRANCH  20  22
HETATM   22  C9  UNL     1      -0.449   3.304  15.969  1.00  0.00     0.015 A 
HETATM   23  C10 UNL     1      -0.097   2.571  17.082  1.00  0.00     0.015 A 
HETATM   24  C11 UNL     1       0.828   1.547  17.029  1.00  0.00     0.001 A 
HETATM   25  C12 UNL     1       1.427   1.232  15.837  1.00  0.00     0.000 A 
HETATM   26  C13 UNL     1       1.102   1.938  14.713  1.00  0.00     0.001 A 
HETATM   27  C14 UNL     1       0.175   2.957  14.792  1.00  0.00     0.015 A 
ENDBRANCH  20  22
ENDBRANCH   4  20
TORSDOF 8
ENDMDL
MODEL 4
REMARK VINA RESULT: -8.249608486      1.714      1.764
REMARK  8 active torsions:
REMARK  status: ('A' for Active; 'I' for Inactive)
REMARK    1  A    between atoms: N1_1  and  N2_4 
REMARK    2  A    between atoms: N2_4  and  C1_5 
REMARK    3  A    between atoms: C1_5  and  C2_6 
REMARK    4  A    between atoms: C1_5  and  C17_25 
REMARK    5  A    between atoms: C2_6  and  C3_7 
REMARK       I    between atoms: C3_7  and  N3_9 
REMARK    6  A    between atoms: N3_9  and  C4_11 
REMARK    7  A    between atoms: C7_14  and  C8_15 
REMARK    8  A    between atoms: C8_15  and  C9_17 
ROOT
HETATM    1  C4  UNL     1      -1.441   7.756  13.529  1.00  0.00     0.034 A 
HETATM    2  C5  UNL     1      -0.234   7.376  14.151  1.00  0.00     0.030 A 
HETATM    3  C6  UNL     1      -0.267   6.241  14.917  1.00  0.00     0.018 A 
HETATM    4  C7  UNL     1      -1.403   5.478  15.097  1.00  0.00     0.015 A 
HETATM    5  C15 UNL     1      -2.579   5.846  14.492  1.00  0.00     0.018 A 
HETATM    6  C16 UNL     1      -2.566   7.000  13.709  1.00  0.00     0.030 A 
ENDROOT
BRANCH   1   7
HETATM    7  N3  UNL     1      -1.414   8.921  12.770  1.00  0.00    -0.327 N 
HETATM    8  C3  UNL     1      -1.399   8.939  11.352  1.00  0.00     0.224 C 
HETATM    9  O1  UNL     1      -1.398   7.907  10.674  1.00  0.00    -0.273 OA
ATOM     10  H3  UNL     1      -1.405   9.815  13.262  1.00  0.00     0.169 HD
BRANCH   8  11
HETATM   11  C2  UNL     1      -1.385  10.240  10.628  1.00  0.00     0.135 C 
BRANCH  11  12
HETATM   12  C1  UNL     1      -0.862  10.160   9.205  1.00  0.00     0.196 C 
BRANCH  12  13
HETATM   13  N2  UNL     1      -2.032  10.463   8.342  1.00  0.00    -0.134 NA
BRANCH  13  14
HETATM   14  N1  UNL     1      -2.877   9.382   8.239  1.00  0.00    -0.348 N 
ATOM     15  H12 UNL     1      -2.992   8.687   8.977  1.00  0.00     0.172 HD
ATOM     16  H11 UNL     1      -3.362   9.371   7.342  1.00  0.00     0.172 HD
ENDBRANCH  13  14
ENDBRANCH  12  13
BRANCH  12  17
HETATM   17  C17 UNL     1       0.050  11.302   8.975  1.00  0.00     0.252 C 
HETATM   18  N4  UNL     1       0.706  11.992  10.012  1.00  0.00    -0.061 NA
HETATM   19  O3  UNL     1       0.271  11.693   7.800  1.00  0.00    -0.275 OA
ENDBRANCH  12  17
ENDBRANCH  11  12
ENDBRANCH   8  11
ENDBRANCH   1   7
BRANCH   4  20
HETATM   20  C8  UNL     1      -1.399   4.255  15.892  1.00  0.00     0.192 C 
HETATM   21  O2  UNL     1      -2.384   4.117  16.697  1.00  0.00    -0.287 OA
BRANCH  20  22
HETATM   22  C9  UNL     1      -0.385   3.222  15.831  1.00  0.00     0.015 A 
HETATM   23  C10 UNL     1       0.390   3.000  14.713  1.00  0.00     0.015 A 
HETATM   24  C11 UNL     1       1.377   2.034  14.678  1.00  0.00     0.001 A 
HETATM   25  C12 UNL     1       1.611   1.260  15.784  1.00  0.00     0.000 A 
HETATM   26  C13 UNL     1       0.862   1.453  16.911  1.00  0.00     0.001 A 
HETATM   27  C14 UNL     1      -0.118   2.423  16.920  1.00  0.00     0.015 A 
ENDBRANCH  20  22
ENDBRANCH   4  20
TORSDOF 8
ENDMDL
MODEL 5
REMARK VINA RESULT: -8.202524105      1.673      2.149
REMARK  8 active torsions:
REMARK  status: ('A' for Active; 'I' for Inactive)
REMARK    1  A    between atoms: N1_1  and  N2_4 
REMARK    2  A    between atoms: N2_4  and  C1_5 
REMARK    3  A    between atoms: C1_5  and  C2_6 
REMARK    4  A    between atoms: C1_5  and  C17_25 
REMARK    5  A    between atoms: C2_6  and  C3_7 
REMARK       I    between atoms: C3_7  and  N3_9 
REMARK    6  A    between atoms: N3_9  and  C4_11 
REMARK    7  A    between atoms: C7_14  and  C8_15 
REMARK    8  A    between atoms: C8_15  and  C9_17 
ROOT
HETATM    1  C4  UNL     1      -1.373   7.766  13.573  1.00  0.00     0.034 A 
HETATM    2  C5  UNL     1      -2.567   7.021  13.655  1.00  0.00     0.030 A 
HETATM    3  C6  UNL     1      -2.532   5.885  14.421  1.00  0.00     0.018 A 
HETATM    4  C7  UNL     1      -1.406   5.456  15.094  1.00  0.00     0.015 A 
HETATM    5  C15 UNL     1      -0.242   6.180  15.014  1.00  0.00     0.018 A 
HETATM    6  C16 UNL     1      -0.258   7.339  14.239  1.00  0.00     0.030 A 
ENDROOT
BRANCH   1   7
HETATM    7  N3  UNL     1      -1.400   8.906  12.777  1.00  0.00    -0.327 N 
HETATM    8  C3  UNL     1      -1.360   8.880  11.359  1.00  0.00     0.224 C 
HETATM    9  O1  UNL     1      -1.287   7.829  10.716  1.00  0.00    -0.273 OA
ATOM     10  H3  UNL     1      -1.452   9.814  13.240  1.00  0.00     0.169 HD
BRANCH   8  11
HETATM   11  C2  UNL     1      -1.410  10.156  10.593  1.00  0.00     0.135 C 
BRANCH  11  12
HETATM   12  C1  UNL     1      -0.797  10.078   9.206  1.00  0.00     0.196 C 
BRANCH  12  13
HETATM   13  N2  UNL     1      -1.933  10.268   8.268  1.00  0.00    -0.134 NA
BRANCH  13  14
HETATM   14  N1  UNL     1      -2.825   9.222   8.338  1.00  0.00    -0.348 N 
ATOM     15  H12 UNL     1      -3.822   9.346   8.511  1.00  0.00     0.172 HD
ATOM     16  H11 UNL     1      -2.361   8.325   8.196  1.00  0.00     0.172 HD
ENDBRANCH  13  14
ENDBRANCH  12  13
BRANCH  12  17
HETATM   17  C17 UNL     1       0.039  11.280   8.994  1.00  0.00     0.252 C 
HETATM   18  N4  UNL     1       0.710  11.951  10.033  1.00  0.00    -0.061 NA
HETATM   19  O3  UNL     1       0.177  11.743   7.831  1.00  0.00    -0.275 OA
ENDBRANCH  12  17
ENDBRANCH  11  12
ENDBRANCH   8  11
ENDBRANCH   1   7
BRANCH   4  20
HETATM   20  C8  UNL     1      -1.409   4.260  15.928  1.00  0.00     0.192 C 
HETATM   21  O2  UNL     1      -2.402   4.147  16.728  1.00  0.00    -0.287 OA
BRANCH  20  22
HETATM   22  C9  UNL     1      -0.395   3.225  15.910  1.00  0.00     0.015 A 
HETATM   23  C10 UNL     1      -0.073   2.475  17.020  1.00  0.00     0.015 A 
HETATM   24  C11 UNL     1       0.872   1.468  16.983  1.00  0.00     0.001 A 
HETATM   25  C12 UNL     1       1.523   1.189  15.809  1.00  0.00     0.000 A 
HETATM   26  C13 UNL     1       1.229   1.914  14.688  1.00  0.00     0.001 A 
HETATM   27  C14 UNL     1       0.282   2.914  14.752  1.00  0.00     0.015 A 
ENDBRANCH  20  22
ENDBRANCH   4  20
TORSDOF 8
ENDMDL
