MODEL 1
REMARK VINA RESULT: -7.618341675      0.000      0.000
REMARK  3 active torsions:
REMARK  status: ('A' for Active; 'I' for Inactive)
REMARK    1  A    between atoms: C1_2  and  O1_3 
REMARK    2  A    between atoms: C1_2  and  N2_5 
REMARK    3  A    between atoms: C5_13  and  C6_14 
ROOT
HETATM    1  N2  UNL     1       6.286 -15.038   1.825  1.00  0.00    -0.269 N 
HETATM    2  C2  UNL     1       6.002 -14.998   0.471  1.00  0.00     0.193 A 
HETATM    3  N3  UNL     1       5.862 -13.742   0.062  1.00  0.00    -0.336 N 
ATOM      4  H3  UNL     1       5.650 -13.440  -0.890  1.00  0.00     0.168 HD
HETATM    5  C3  UNL     1       6.048 -12.936   1.125  1.00  0.00     0.138 A 
HETATM    6  N4  UNL     1       6.017 -11.595   1.263  1.00  0.00    -0.349 N 
ATOM      7  H4  UNL     1       5.821 -11.011   0.451  1.00  0.00     0.167 HD
HETATM    8  C4  UNL     1       6.242 -11.012   2.462  1.00  0.00     0.109 A 
HETATM    9  C5  UNL     1       6.502 -11.787   3.549  1.00  0.00     0.079 A 
HETATM   10  C7  UNL     1       6.546 -13.181   3.466  1.00  0.00     0.218 A 
HETATM   11  O2  UNL     1       6.788 -13.862   4.483  1.00  0.00    -0.285 OA
HETATM   12  C8  UNL     1       6.316 -13.758   2.238  1.00  0.00     0.138 A 
ENDROOT
BRANCH   9  13
HETATM   13  C6  UNL     1       6.743 -11.154   4.837  1.00  0.00     0.152 A 
HETATM   14  N5  UNL     1       5.898 -10.411   5.566  1.00  0.00    -0.268 N 
HETATM   15  N6  UNL     1       6.534 -10.041   6.663  1.00  0.00    -0.227 N 
ATOM     16  H5  UNL     1       4.937 -10.175   5.318  1.00  0.00     0.190 HD
HETATM   17  N7  UNL     1       7.751 -10.526   6.650  1.00  0.00    -0.227 N 
ATOM     18  H6  UNL     1       6.137  -9.465   7.406  1.00  0.00     0.210 HD
HETATM   19  N8  UNL     1       7.895 -11.209   5.541  1.00  0.00    -0.268 N 
ATOM     20  H7  UNL     1       8.459 -10.395   7.372  1.00  0.00     0.210 HD
ATOM     21  H8  UNL     1       8.740 -11.702   5.255  1.00  0.00     0.190 HD
ENDBRANCH   9  13
BRANCH   1  22
HETATM   22  C1  UNL     1       6.486 -16.237   2.532  1.00  0.00     0.237 C 
HETATM   23  N1  UNL     1       5.690 -17.376   2.656  1.00  0.00    -0.056 NA
BRANCH  22  24
HETATM   24  O1  UNL     1       7.599 -16.340   3.201  1.00  0.00    -0.334 OA
ATOM     25  H1  UNL     1       7.579 -15.840   4.008  1.00  0.00     0.220 HD
ENDBRANCH  22  24
ENDBRANCH   1  22
TORSDOF 3
ENDMDL
MODEL 2
REMARK VINA RESULT: -7.534185486      2.070      5.033
REMARK  3 active torsions:
REMARK  status: ('A' for Active; 'I' for Inactive)
REMARK    1  A    between atoms: C1_2  and  O1_3 
REMARK    2  A    between atoms: C1_2  and  N2_5 
REMARK    3  A    between atoms: C5_13  and  C6_14 
ROOT
HETATM    1  N2  UNL     1       5.114 -11.576   2.627  1.00  0.00    -0.269 N 
HETATM    2  C2  UNL     1       4.133 -11.151   1.748  1.00  0.00     0.193 A 
HETATM    3  N3  UNL     1       3.898 -12.081   0.828  1.00  0.00    -0.336 N 
ATOM      4  H3  UNL     1       3.221 -12.015   0.067  1.00  0.00     0.168 HD
HETATM    5  C3  UNL     1       4.709 -13.126   1.079  1.00  0.00     0.138 A 
HETATM    6  N4  UNL     1       4.876 -14.313   0.461  1.00  0.00    -0.349 N 
ATOM      7  H4  UNL     1       4.316 -14.534  -0.361  1.00  0.00     0.167 HD
HETATM    8  C4  UNL     1       5.775 -15.216   0.915  1.00  0.00     0.109 A 
HETATM    9  C5  UNL     1       6.526 -14.924   2.011  1.00  0.00     0.079 A 
HETATM   10  C7  UNL     1       6.397 -13.711   2.691  1.00  0.00     0.218 A 
HETATM   11  O2  UNL     1       7.102 -13.476   3.694  1.00  0.00    -0.285 OA
HETATM   12  C8  UNL     1       5.477 -12.804   2.216  1.00  0.00     0.138 A 
ENDROOT
BRANCH   9  13
HETATM   13  C6  UNL     1       7.492 -15.899   2.495  1.00  0.00     0.152 A 
HETATM   14  N5  UNL     1       7.498 -16.548   3.667  1.00  0.00    -0.268 N 
HETATM   15  N6  UNL     1       8.559 -17.336   3.684  1.00  0.00    -0.227 N 
ATOM     16  H5  UNL     1       6.809 -16.452   4.412  1.00  0.00     0.190 HD
HETATM   17  N7  UNL     1       9.221 -17.204   2.561  1.00  0.00    -0.227 N 
ATOM     18  H6  UNL     1       8.822 -17.951   4.454  1.00  0.00     0.210 HD
HETATM   19  N8  UNL     1       8.582 -16.331   1.823  1.00  0.00    -0.268 N 
ATOM     20  H7  UNL     1      10.079 -17.694   2.307  1.00  0.00     0.210 HD
ATOM     21  H8  UNL     1       8.863 -16.025   0.892  1.00  0.00     0.190 HD
ENDBRANCH   9  13
BRANCH   1  22
HETATM   22  C1  UNL     1       5.568 -10.795   3.705  1.00  0.00     0.237 C 
HETATM   23  N1  UNL     1       5.561 -11.032   5.079  1.00  0.00    -0.056 NA
BRANCH  22  24
HETATM   24  O1  UNL     1       6.095  -9.641   3.407  1.00  0.00    -0.334 OA
ATOM     25  H1  UNL     1       6.123  -9.057   4.156  1.00  0.00     0.220 HD
ENDBRANCH  22  24
ENDBRANCH   1  22
TORSDOF 3
ENDMDL
MODEL 3
REMARK VINA RESULT: -7.523801018      1.036      1.342
REMARK  3 active torsions:
REMARK  status: ('A' for Active; 'I' for Inactive)
REMARK    1  A    between atoms: C1_2  and  O1_3 
REMARK    2  A    between atoms: C1_2  and  N2_5 
REMARK    3  A    between atoms: C5_13  and  C6_14 
ROOT
HETATM    1  N2  UNL     1       5.954 -15.820   1.554  1.00  0.00    -0.269 N 
HETATM    2  C2  UNL     1       5.545 -15.843   0.232  1.00  0.00     0.193 A 
HETATM    3  N3  UNL     1       5.390 -14.606  -0.229  1.00  0.00    -0.336 N 
ATOM      4  H3  UNL     1       5.096 -14.348  -1.172  1.00  0.00     0.168 HD
HETATM    5  C3  UNL     1       5.690 -13.752   0.768  1.00  0.00     0.138 A 
HETATM    6  N4  UNL     1       5.698 -12.405   0.838  1.00  0.00    -0.349 N 
ATOM      7  H4  UNL     1       5.437 -11.859   0.018  1.00  0.00     0.167 HD
HETATM    8  C4  UNL     1       6.045 -11.767   1.979  1.00  0.00     0.109 A 
HETATM    9  C5  UNL     1       6.391 -12.492   3.076  1.00  0.00     0.079 A 
HETATM   10  C7  UNL     1       6.401 -13.889   3.064  1.00  0.00     0.218 A 
HETATM   11  O2  UNL     1       6.725 -14.523   4.088  1.00  0.00    -0.285 OA
HETATM   12  C8  UNL     1       6.046 -14.523   1.894  1.00  0.00     0.138 A 
ENDROOT
BRANCH   9  13
HETATM   13  C6  UNL     1       6.764 -11.800   4.301  1.00  0.00     0.152 A 
HETATM   14  N5  UNL     1       7.881 -11.943   5.026  1.00  0.00    -0.268 N 
HETATM   15  N6  UNL     1       7.800 -11.119   6.056  1.00  0.00    -0.227 N 
ATOM     16  H5  UNL     1       8.656 -12.574   4.821  1.00  0.00     0.190 HD
HETATM   17  N7  UNL     1       6.667 -10.462   6.003  1.00  0.00    -0.227 N 
ATOM     18  H6  UNL     1       8.509 -11.011   6.781  1.00  0.00     0.210 HD
HETATM   19  N8  UNL     1       6.022 -10.866   4.936  1.00  0.00    -0.268 N 
ATOM     20  H7  UNL     1       6.346  -9.762   6.671  1.00  0.00     0.210 HD
ATOM     21  H8  UNL     1       5.109 -10.529   4.634  1.00  0.00     0.190 HD
ENDBRANCH   9  13
BRANCH   1  22
HETATM   22  C1  UNL     1       6.197 -16.986   2.301  1.00  0.00     0.237 C 
HETATM   23  N1  UNL     1       7.018 -18.085   2.051  1.00  0.00    -0.056 NA
BRANCH  22  24
HETATM   24  O1  UNL     1       5.561 -17.096   3.433  1.00  0.00    -0.334 OA
ATOM     25  H1  UNL     1       4.662 -16.795   3.369  1.00  0.00     0.220 HD
ENDBRANCH  22  24
ENDBRANCH   1  22
TORSDOF 3
ENDMDL
MODEL 4
REMARK VINA RESULT: -7.271915651      1.358      5.364
REMARK  3 active torsions:
REMARK  status: ('A' for Active; 'I' for Inactive)
REMARK    1  A    between atoms: C1_2  and  O1_3 
REMARK    2  A    between atoms: C1_2  and  N2_5 
REMARK    3  A    between atoms: C5_13  and  C6_14 
ROOT
HETATM    1  N2  UNL     1       5.894 -12.118   3.195  1.00  0.00    -0.269 N 
HETATM    2  C2  UNL     1       5.481 -11.165   2.280  1.00  0.00     0.193 A 
HETATM    3  N3  UNL     1       5.219 -11.730   1.105  1.00  0.00    -0.336 N 
ATOM      4  H3  UNL     1       4.899 -11.247   0.265  1.00  0.00     0.168 HD
HETATM    5  C3  UNL     1       5.452 -13.051   1.221  1.00  0.00     0.138 A 
HETATM    6  N4  UNL     1       5.347 -14.071   0.344  1.00  0.00    -0.349 N 
ATOM      7  H4  UNL     1       5.039 -13.882  -0.610  1.00  0.00     0.167 HD
HETATM    8  C4  UNL     1       5.644 -15.338   0.708  1.00  0.00     0.109 A 
HETATM    9  C5  UNL     1       6.058 -15.593   1.979  1.00  0.00     0.079 A 
HETATM   10  C7  UNL     1       6.186 -14.578   2.930  1.00  0.00     0.218 A 
HETATM   11  O2  UNL     1       6.568 -14.847   4.087  1.00  0.00    -0.285 OA
HETATM   12  C8  UNL     1       5.878 -13.293   2.542  1.00  0.00     0.138 A 
ENDROOT
BRANCH   9  13
HETATM   13  C6  UNL     1       6.377 -16.960   2.365  1.00  0.00     0.152 A 
HETATM   14  N5  UNL     1       7.348 -17.383   3.186  1.00  0.00    -0.268 N 
HETATM   15  N6  UNL     1       7.273 -18.700   3.250  1.00  0.00    -0.227 N 
ATOM     16  H5  UNL     1       8.024 -16.794   3.672  1.00  0.00     0.190 HD
HETATM   17  N7  UNL     1       6.286 -19.121   2.498  1.00  0.00    -0.227 N 
ATOM     18  H6  UNL     1       7.889 -19.298   3.801  1.00  0.00     0.210 HD
HETATM   19  N8  UNL     1       5.728 -18.070   1.950  1.00  0.00    -0.268 N 
ATOM     20  H7  UNL     1       6.003 -20.091   2.363  1.00  0.00     0.210 HD
ATOM     21  H8  UNL     1       4.932 -18.087   1.314  1.00  0.00     0.190 HD
ENDBRANCH   9  13
BRANCH   1  22
HETATM   22  C1  UNL     1       6.239 -11.807   4.522  1.00  0.00     0.237 C 
HETATM   23  N1  UNL     1       5.534 -11.142   5.524  1.00  0.00    -0.056 NA
BRANCH  22  24
HETATM   24  O1  UNL     1       7.418 -12.192   4.923  1.00  0.00    -0.334 OA
ATOM     25  H1  UNL     1       7.898 -11.492   5.348  1.00  0.00     0.220 HD
ENDBRANCH  22  24
ENDBRANCH   1  22
TORSDOF 3
ENDMDL
MODEL 5
REMARK VINA RESULT: -7.140334467      3.078      4.269
REMARK  3 active torsions:
REMARK  status: ('A' for Active; 'I' for Inactive)
REMARK    1  A    between atoms: C1_2  and  O1_3 
REMARK    2  A    between atoms: C1_2  and  N2_5 
REMARK    3  A    between atoms: C5_13  and  C6_14 
ROOT
HETATM    1  N2  UNL     1       5.871 -17.725   1.272  1.00  0.00    -0.269 N 
HETATM    2  C2  UNL     1       6.559 -18.602   2.093  1.00  0.00     0.193 A 
HETATM    3  N3  UNL     1       7.064 -17.959   3.141  1.00  0.00    -0.336 N 
ATOM      4  H3  UNL     1       7.613 -18.375   3.893  1.00  0.00     0.168 HD
HETATM    5  C3  UNL     1       6.724 -16.660   3.033  1.00  0.00     0.138 A 
HETATM    6  N4  UNL     1       6.976 -15.589   3.812  1.00  0.00    -0.349 N 
ATOM      7  H4  UNL     1       7.524 -15.705   4.664  1.00  0.00     0.167 HD
HETATM    8  C4  UNL     1       6.514 -14.361   3.482  1.00  0.00     0.109 A 
HETATM    9  C5  UNL     1       5.784 -14.201   2.345  1.00  0.00     0.079 A 
HETATM   10  C7  UNL     1       5.493 -15.273   1.499  1.00  0.00     0.218 A 
HETATM   11  O2  UNL     1       4.820 -15.090   0.464  1.00  0.00    -0.285 OA
HETATM   12  C8  UNL     1       5.970 -16.516   1.851  1.00  0.00     0.138 A 
ENDROOT
BRANCH   9  13
HETATM   13  C6  UNL     1       5.290 -12.878   1.995  1.00  0.00     0.152 A 
HETATM   14  N5  UNL     1       4.307 -12.179   2.579  1.00  0.00    -0.268 N 
HETATM   15  N6  UNL     1       4.195 -11.030   1.937  1.00  0.00    -0.227 N 
ATOM     16  H5  UNL     1       3.746 -12.479   3.376  1.00  0.00     0.190 HD
HETATM   17  N7  UNL     1       5.076 -10.982   0.967  1.00  0.00    -0.227 N 
ATOM     18  H6  UNL     1       3.526 -10.293   2.161  1.00  0.00     0.210 HD
HETATM   19  N8  UNL     1       5.753 -12.103   0.989  1.00  0.00    -0.268 N 
ATOM     20  H7  UNL     1       5.209 -10.211   0.313  1.00  0.00     0.210 HD
ATOM     21  H8  UNL     1       6.508 -12.351   0.350  1.00  0.00     0.190 HD
ENDBRANCH   9  13
BRANCH   1  22
HETATM   22  C1  UNL     1       5.231 -18.128   0.087  1.00  0.00     0.237 C 
HETATM   23  N1  UNL     1       5.744 -18.546  -1.141  1.00  0.00    -0.056 NA
BRANCH  22  24
HETATM   24  O1  UNL     1       3.927 -18.124   0.098  1.00  0.00    -0.334 OA
ATOM     25  H1  UNL     1       3.577 -17.438   0.653  1.00  0.00     0.220 HD
ENDBRANCH  22  24
ENDBRANCH   1  22
TORSDOF 3
ENDMDL
