MODEL 1
REMARK VINA RESULT: -7.162204069      0.000      0.000
REMARK  4 active torsions:
REMARK  status: ('A' for Active; 'I' for Inactive)
REMARK    1  A    between atoms: N1_1  and  C1_4 
REMARK    2  A    between atoms: C2_7  and  N3_8 
REMARK    3  A    between atoms: C6_12  and  N4_13 
REMARK    4  A    between atoms: C8_20  and  N6_21 
ROOT
HETATM    1  C1  UNL     1       6.459 -17.645   3.158  1.00  0.00     0.705 A 
HETATM    2  N2  UNL     1       5.769 -16.494   3.059  1.00  0.00    -0.021 N 
ATOM      3  H2  UNL     1       4.788 -16.456   3.336  1.00  0.00     0.203 HD
HETATM    4  C2  UNL     1       6.382 -15.398   2.593  1.00  0.00     0.720 A 
HETATM    5  N5  UNL     1       7.671 -15.485   2.240  1.00  0.00    -0.021 N 
ATOM      6  H5  UNL     1       8.140 -14.652   1.886  1.00  0.00     0.203 HD
HETATM    7  C8  UNL     1       8.374 -16.633   2.334  1.00  0.00     0.705 A 
HETATM    8  N7  UNL     1       7.773 -17.735   2.799  1.00  0.00    -0.022 N 
ATOM      9  H7  UNL     1       8.281 -18.615   2.881  1.00  0.00     0.203 HD
ENDROOT
BRANCH   4  10
HETATM   10  N3  UNL     1       5.708 -14.156   2.466  1.00  0.00    -0.119 N 
HETATM   11  C3  UNL     1       4.732 -13.997   1.536  1.00  0.00     0.119 A 
HETATM   12  C4  UNL     1       4.063 -12.801   1.393  1.00  0.00     0.021 A 
HETATM   13  C5  UNL     1       4.380 -11.711   2.211  1.00  0.00     0.043 A 
HETATM   14  C6  UNL     1       5.377 -11.877   3.159  1.00  0.00     0.171 A 
HETATM   15  C7  UNL     1       6.008 -13.100   3.252  1.00  0.00     0.299 A 
HETATM   16  O3  UNL     1       6.931 -13.299   4.110  1.00  0.00    -0.264 OA
BRANCH  14  17
HETATM   17  N4  UNL     1       5.744 -10.808   4.022  1.00  0.00    -0.110 N 
HETATM   18  O1  UNL     1       5.541 -10.808   5.252  1.00  0.00    -0.532 OA
HETATM   19  O2  UNL     1       6.361  -9.702   3.495  1.00  0.00    -0.532 OA
ENDBRANCH  14  17
ENDBRANCH   4  10
BRANCH   1  20
HETATM   20  N1  UNL     1       5.935 -18.741   3.598  1.00  0.00    -0.234 N 
ATOM     21  H12 UNL     1       4.935 -18.841   3.427  1.00  0.00     0.174 HD
ATOM     22  H11 UNL     1       6.476 -19.458   4.080  1.00  0.00     0.174 HD
ENDBRANCH   1  20
BRANCH   7  23
HETATM   23  N6  UNL     1       9.633 -16.673   1.977  1.00  0.00    -0.234 N 
ATOM     24  H62 UNL     1       9.883 -16.750   0.991  1.00  0.00     0.174 HD
ATOM     25  H61 UNL     1      10.373 -16.628   2.678  1.00  0.00     0.174 HD
ENDBRANCH   7  23
TORSDOF 4
ENDMDL
MODEL 2
REMARK VINA RESULT: -7.068895013      0.112      1.866
REMARK  4 active torsions:
REMARK  status: ('A' for Active; 'I' for Inactive)
REMARK    1  A    between atoms: N1_1  and  C1_4 
REMARK    2  A    between atoms: C2_7  and  N3_8 
REMARK    3  A    between atoms: C6_12  and  N4_13 
REMARK    4  A    between atoms: C8_20  and  N6_21 
ROOT
HETATM    1  C1  UNL     1       8.376 -16.593   2.236  1.00  0.00     0.705 A 
HETATM    2  N2  UNL     1       7.746 -15.408   2.142  1.00  0.00    -0.021 N 
ATOM      3  H2  UNL     1       8.248 -14.583   1.812  1.00  0.00     0.203 HD
HETATM    4  C2  UNL     1       6.455 -15.320   2.488  1.00  0.00     0.720 A 
HETATM    5  N5  UNL     1       5.830 -16.424   2.917  1.00  0.00    -0.021 N 
ATOM      6  H5  UNL     1       4.846 -16.359   3.179  1.00  0.00     0.203 HD
HETATM    7  C8  UNL     1       6.449 -17.618   3.015  1.00  0.00     0.705 A 
HETATM    8  N7  UNL     1       7.739 -17.719   2.673  1.00  0.00    -0.022 N 
ATOM      9  H7  UNL     1       8.231 -18.610   2.736  1.00  0.00     0.203 HD
ENDROOT
BRANCH   4  10
HETATM   10  N3  UNL     1       5.738 -14.099   2.411  1.00  0.00    -0.119 N 
HETATM   11  C3  UNL     1       4.728 -13.951   1.516  1.00  0.00     0.119 A 
HETATM   12  C4  UNL     1       4.016 -12.775   1.421  1.00  0.00     0.021 A 
HETATM   13  C5  UNL     1       4.322 -11.694   2.256  1.00  0.00     0.043 A 
HETATM   14  C6  UNL     1       5.354 -11.848   3.169  1.00  0.00     0.171 A 
HETATM   15  C7  UNL     1       6.027 -13.051   3.213  1.00  0.00     0.299 A 
HETATM   16  O3  UNL     1       6.983 -13.240   4.037  1.00  0.00    -0.264 OA
BRANCH  14  17
HETATM   17  N4  UNL     1       5.713 -10.788   4.045  1.00  0.00    -0.110 N 
HETATM   18  O1  UNL     1       5.470 -10.786   5.268  1.00  0.00    -0.532 OA
HETATM   19  O2  UNL     1       6.367  -9.693   3.541  1.00  0.00    -0.532 OA
ENDBRANCH  14  17
ENDBRANCH   4  10
BRANCH   1  20
HETATM   20  N1  UNL     1       9.618 -16.754   1.921  1.00  0.00    -0.234 N 
ATOM     21  H12 UNL     1      10.065 -17.575   2.330  1.00  0.00     0.174 HD
ATOM     22  H11 UNL     1      10.122 -16.113   1.308  1.00  0.00     0.174 HD
ENDBRANCH   1  20
BRANCH   7  23
HETATM   23  N6  UNL     1       5.798 -18.672   3.441  1.00  0.00    -0.234 N 
ATOM     24  H62 UNL     1       4.780 -18.689   3.415  1.00  0.00     0.174 HD
ATOM     25  H61 UNL     1       6.303 -19.482   3.801  1.00  0.00     0.174 HD
ENDBRANCH   7  23
TORSDOF 4
ENDMDL
MODEL 3
REMARK VINA RESULT: -6.786092230      1.315      2.002
REMARK  4 active torsions:
REMARK  status: ('A' for Active; 'I' for Inactive)
REMARK    1  A    between atoms: N1_1  and  C1_4 
REMARK    2  A    between atoms: C2_7  and  N3_8 
REMARK    3  A    between atoms: C6_12  and  N4_13 
REMARK    4  A    between atoms: C8_20  and  N6_21 
ROOT
HETATM    1  C1  UNL     1       7.615 -16.440   0.326  1.00  0.00     0.705 A 
HETATM    2  N2  UNL     1       6.850 -15.338   0.426  1.00  0.00    -0.021 N 
ATOM      3  H2  UNL     1       6.493 -14.882  -0.414  1.00  0.00     0.203 HD
HETATM    4  C2  UNL     1       6.563 -14.844   1.637  1.00  0.00     0.720 A 
HETATM    5  N5  UNL     1       7.050 -15.470   2.717  1.00  0.00    -0.021 N 
ATOM      6  H5  UNL     1       6.831 -15.096   3.640  1.00  0.00     0.203 HD
HETATM    7  C8  UNL     1       7.818 -16.576   2.631  1.00  0.00     0.705 A 
HETATM    8  N7  UNL     1       8.112 -17.079   1.427  1.00  0.00    -0.022 N 
ATOM      9  H7  UNL     1       8.690 -17.914   1.333  1.00  0.00     0.203 HD
ENDROOT
BRANCH   4  10
HETATM   10  N3  UNL     1       5.761 -13.686   1.806  1.00  0.00    -0.119 N 
HETATM   11  C3  UNL     1       4.522 -13.622   1.257  1.00  0.00     0.119 A 
HETATM   12  C4  UNL     1       3.724 -12.509   1.407  1.00  0.00     0.021 A 
HETATM   13  C5  UNL     1       4.181 -11.406   2.137  1.00  0.00     0.043 A 
HETATM   14  C6  UNL     1       5.447 -11.474   2.696  1.00  0.00     0.171 A 
HETATM   15  C7  UNL     1       6.194 -12.617   2.509  1.00  0.00     0.299 A 
HETATM   16  O3  UNL     1       7.365 -12.726   3.006  1.00  0.00    -0.264 OA
BRANCH  14  17
HETATM   17  N4  UNL     1       5.967 -10.386   3.450  1.00  0.00    -0.110 N 
HETATM   18  O1  UNL     1       6.612  -9.443   2.951  1.00  0.00    -0.532 OA
HETATM   19  O2  UNL     1       5.762 -10.349   4.805  1.00  0.00    -0.532 OA
ENDBRANCH  14  17
ENDBRANCH   4  10
BRANCH   1  20
HETATM   20  N1  UNL     1       7.934 -16.973  -0.806  1.00  0.00    -0.234 N 
ATOM     21  H12 UNL     1       8.652 -16.475  -1.332  1.00  0.00     0.174 HD
ATOM     22  H11 UNL     1       7.505 -17.829  -1.156  1.00  0.00     0.174 HD
ENDBRANCH   1  20
BRANCH   7  23
HETATM   23  N6  UNL     1       8.274 -17.155   3.714  1.00  0.00    -0.234 N 
ATOM     24  H62 UNL     1       8.555 -16.591   4.515  1.00  0.00     0.174 HD
ATOM     25  H61 UNL     1       8.351 -18.171   3.765  1.00  0.00     0.174 HD
ENDBRANCH   7  23
TORSDOF 4
ENDMDL
MODEL 4
REMARK VINA RESULT: -6.716425075      3.348      5.985
REMARK  4 active torsions:
REMARK  status: ('A' for Active; 'I' for Inactive)
REMARK    1  A    between atoms: N1_1  and  C1_4 
REMARK    2  A    between atoms: C2_7  and  N3_8 
REMARK    3  A    between atoms: C6_12  and  N4_13 
REMARK    4  A    between atoms: C8_20  and  N6_21 
ROOT
HETATM    1  C1  UNL     1       6.626 -12.710   3.355  1.00  0.00     0.705 A 
HETATM    2  N2  UNL     1       6.722 -13.800   2.572  1.00  0.00    -0.021 N 
ATOM      3  H2  UNL     1       7.362 -14.556   2.818  1.00  0.00     0.203 HD
HETATM    4  C2  UNL     1       5.971 -13.883   1.466  1.00  0.00     0.720 A 
HETATM    5  N5  UNL     1       5.142 -12.872   1.176  1.00  0.00    -0.021 N 
ATOM      6  H5  UNL     1       4.568 -12.934   0.336  1.00  0.00     0.203 HD
HETATM    7  C8  UNL     1       5.035 -11.774   1.953  1.00  0.00     0.705 A 
HETATM    8  N7  UNL     1       5.781 -11.679   3.060  1.00  0.00    -0.022 N 
ATOM      9  H7  UNL     1       5.720 -10.860   3.666  1.00  0.00     0.203 HD
ENDROOT
BRANCH   4  10
HETATM   10  N3  UNL     1       6.027 -15.006   0.601  1.00  0.00    -0.119 N 
HETATM   11  C3  UNL     1       6.325 -14.846  -0.714  1.00  0.00     0.119 A 
HETATM   12  C4  UNL     1       6.387 -15.920  -1.574  1.00  0.00     0.021 A 
HETATM   13  C5  UNL     1       6.139 -17.215  -1.106  1.00  0.00     0.043 A 
HETATM   14  C6  UNL     1       5.836 -17.376   0.237  1.00  0.00     0.171 A 
HETATM   15  C7  UNL     1       5.791 -16.259   1.045  1.00  0.00     0.299 A 
HETATM   16  O3  UNL     1       5.516 -16.358   2.288  1.00  0.00    -0.264 OA
BRANCH  14  17
HETATM   17  N4  UNL     1       5.575 -18.666   0.773  1.00  0.00    -0.110 N 
HETATM   18  O1  UNL     1       6.466 -19.453   1.151  1.00  0.00    -0.532 OA
HETATM   19  O2  UNL     1       4.278 -19.094   0.895  1.00  0.00    -0.532 OA
ENDBRANCH  14  17
ENDBRANCH   4  10
BRANCH   1  20
HETATM   20  N1  UNL     1       7.318 -12.559   4.435  1.00  0.00    -0.234 N 
ATOM     21  H12 UNL     1       8.322 -12.450   4.294  1.00  0.00     0.174 HD
ATOM     22  H11 UNL     1       6.899 -12.549   5.365  1.00  0.00     0.174 HD
ENDBRANCH   1  20
BRANCH   7  23
HETATM   23  N6  UNL     1       4.212 -10.808   1.631  1.00  0.00    -0.234 N 
ATOM     24  H62 UNL     1       4.564  -9.862   1.490  1.00  0.00     0.174 HD
ATOM     25  H61 UNL     1       3.215 -10.993   1.518  1.00  0.00     0.174 HD
ENDBRANCH   7  23
TORSDOF 4
ENDMDL
MODEL 5
REMARK VINA RESULT: -6.635403343      3.269      5.924
REMARK  4 active torsions:
REMARK  status: ('A' for Active; 'I' for Inactive)
REMARK    1  A    between atoms: N1_1  and  C1_4 
REMARK    2  A    between atoms: C2_7  and  N3_8 
REMARK    3  A    between atoms: C6_12  and  N4_13 
REMARK    4  A    between atoms: C8_20  and  N6_21 
ROOT
HETATM    1  C1  UNL     1       5.035 -11.764   1.897  1.00  0.00     0.705 A 
HETATM    2  N2  UNL     1       5.121 -12.849   1.105  1.00  0.00    -0.021 N 
ATOM      3  H2  UNL     1       4.558 -12.912   0.256  1.00  0.00     0.203 HD
HETATM    4  C2  UNL     1       5.950 -13.845   1.442  1.00  0.00     0.720 A 
HETATM    5  N5  UNL     1       6.673 -13.726   2.564  1.00  0.00    -0.021 N 
ATOM      6  H5  UNL     1       7.306 -14.483   2.821  1.00  0.00     0.203 HD
HETATM    7  C8  UNL     1       6.596 -12.644   3.366  1.00  0.00     0.705 A 
HETATM    8  N7  UNL     1       5.771 -11.642   3.040  1.00  0.00    -0.022 N 
ATOM      9  H7  UNL     1       5.695 -10.812   3.628  1.00  0.00     0.203 HD
ENDROOT
BRANCH   4  10
HETATM   10  N3  UNL     1       6.084 -15.013   0.648  1.00  0.00    -0.119 N 
HETATM   11  C3  UNL     1       6.442 -14.918  -0.658  1.00  0.00     0.119 A 
HETATM   12  C4  UNL     1       6.579 -16.037  -1.450  1.00  0.00     0.021 A 
HETATM   13  C5  UNL     1       6.348 -17.311  -0.918  1.00  0.00     0.043 A 
HETATM   14  C6  UNL     1       5.983 -17.405   0.415  1.00  0.00     0.171 A 
HETATM   15  C7  UNL     1       5.864 -16.246   1.153  1.00  0.00     0.299 A 
HETATM   16  O3  UNL     1       5.530 -16.282   2.385  1.00  0.00    -0.264 OA
BRANCH  14  17
HETATM   17  N4  UNL     1       5.735 -18.670   1.014  1.00  0.00    -0.110 N 
HETATM   18  O1  UNL     1       6.631 -19.410   1.468  1.00  0.00    -0.532 OA
HETATM   19  O2  UNL     1       4.446 -19.127   1.110  1.00  0.00    -0.532 OA
ENDBRANCH  14  17
ENDBRANCH   4  10
BRANCH   1  20
HETATM   20  N1  UNL     1       4.258 -10.765   1.637  1.00  0.00    -0.234 N 
ATOM     21  H12 UNL     1       3.926 -10.252   2.453  1.00  0.00     0.174 HD
ATOM     22  H11 UNL     1       3.992 -10.503   0.688  1.00  0.00     0.174 HD
ENDBRANCH   1  20
BRANCH   7  23
HETATM   23  N6  UNL     1       7.321 -12.570   4.455  1.00  0.00    -0.234 N 
ATOM     24  H62 UNL     1       7.971 -13.320   4.687  1.00  0.00     0.174 HD
ATOM     25  H61 UNL     1       7.241 -11.766   5.077  1.00  0.00     0.174 HD
ENDBRANCH   7  23
TORSDOF 4
ENDMDL
