MODEL 1
REMARK VINA RESULT: -7.054256360      0.000      0.000
REMARK  3 active torsions:
REMARK  status: ('A' for Active; 'I' for Inactive)
REMARK    1  A    between atoms: C1_2  and  C2_4 
REMARK    2  A    between atoms: C5_7  and  C6_8 
REMARK    3  A    between atoms: N3_11  and  N4_12 
ROOT
HETATM    1  C6  UNL     1       5.705 -14.018   2.287  1.00  0.00     0.109 A 
HETATM    2  C7  UNL     1       5.970 -12.904   3.071  1.00  0.00     0.161 A 
HETATM    3  N2  UNL     1       6.845 -13.051   4.171  1.00  0.00    -0.079 NA
HETATM    4  N3  UNL     1       5.386 -11.725   2.755  1.00  0.00    -0.197 N 
HETATM    5  C8  UNL     1       4.553 -11.591   1.703  1.00  0.00     0.349 A 
HETATM    6  O2  UNL     1       4.020 -10.476   1.431  1.00  0.00    -0.244 OA
HETATM    7  N5  UNL     1       4.288 -12.661   0.937  1.00  0.00    -0.273 N 
ATOM      8  H5  UNL     1       3.660 -12.571   0.139  1.00  0.00     0.173 HD
HETATM    9  C9  UNL     1       4.857 -13.870   1.222  1.00  0.00     0.265 A 
HETATM   10  O3  UNL     1       4.604 -14.863   0.501  1.00  0.00    -0.267 OA
ENDROOT
BRANCH   1  11
HETATM   11  C5  UNL     1       6.359 -15.275   2.666  1.00  0.00     0.095 A 
HETATM   12  C4  UNL     1       5.893 -16.258   3.504  1.00  0.00     0.041 A 
HETATM   13  C3  UNL     1       6.842 -17.280   3.580  1.00  0.00     0.045 A 
HETATM   14  C2  UNL     1       7.862 -16.856   2.764  1.00  0.00     0.141 A 
HETATM   15  O4  UNL     1       7.538 -15.692   2.257  1.00  0.00    -0.304 OA
BRANCH  14  16
HETATM   16  C1  UNL     1       9.126 -17.579   2.490  1.00  0.00     0.288 C 
HETATM   17  N1  UNL     1      10.195 -16.924   1.861  1.00  0.00    -0.055 NA
HETATM   18  O1  UNL     1       9.161 -18.777   2.852  1.00  0.00    -0.269 OA
ENDBRANCH  14  16
ENDBRANCH   1  11
BRANCH   4  19
HETATM   19  N4  UNL     1       5.683 -10.626   3.574  1.00  0.00    -0.333 N 
ATOM     20  H42 UNL     1       6.406 -10.693   4.290  1.00  0.00     0.177 HD
ATOM     21  H41 UNL     1       5.146  -9.773   3.418  1.00  0.00     0.177 HD
ENDBRANCH   4  19
TORSDOF 3
ENDMDL
MODEL 2
REMARK VINA RESULT: -6.771983446      2.297      5.694
REMARK  3 active torsions:
REMARK  status: ('A' for Active; 'I' for Inactive)
REMARK    1  A    between atoms: C1_2  and  C2_4 
REMARK    2  A    between atoms: C5_7  and  C6_8 
REMARK    3  A    between atoms: N3_11  and  N4_12 
ROOT
HETATM    1  C6  UNL     1       6.298 -15.002   1.759  1.00  0.00     0.109 A 
HETATM    2  C7  UNL     1       6.580 -15.943   2.740  1.00  0.00     0.161 A 
HETATM    3  N2  UNL     1       6.290 -15.619   4.084  1.00  0.00    -0.079 NA
HETATM    4  N3  UNL     1       7.119 -17.130   2.375  1.00  0.00    -0.197 N 
HETATM    5  C8  UNL     1       7.393 -17.434   1.089  1.00  0.00     0.349 A 
HETATM    6  O2  UNL     1       7.897 -18.551   0.776  1.00  0.00    -0.244 OA
HETATM    7  N5  UNL     1       7.125 -16.532   0.131  1.00  0.00    -0.273 N 
ATOM      8  H5  UNL     1       7.328 -16.751  -0.843  1.00  0.00     0.173 HD
HETATM    9  C9  UNL     1       6.580 -15.322   0.458  1.00  0.00     0.265 A 
HETATM   10  O3  UNL     1       6.333 -14.487  -0.442  1.00  0.00    -0.267 OA
ENDROOT
BRANCH   1  11
HETATM   11  C5  UNL     1       5.715 -13.730   2.200  1.00  0.00     0.095 A 
HETATM   12  C4  UNL     1       4.421 -13.294   2.059  1.00  0.00     0.041 A 
HETATM   13  C3  UNL     1       4.305 -12.023   2.625  1.00  0.00     0.045 A 
HETATM   14  C2  UNL     1       5.565 -11.744   3.093  1.00  0.00     0.141 A 
HETATM   15  O4  UNL     1       6.347 -12.761   2.825  1.00  0.00    -0.304 OA
BRANCH  14  16
HETATM   16  C1  UNL     1       5.991 -10.506   3.788  1.00  0.00     0.288 C 
HETATM   17  N1  UNL     1       5.866 -10.396   5.181  1.00  0.00    -0.055 NA
HETATM   18  O1  UNL     1       6.453  -9.600   3.058  1.00  0.00    -0.269 OA
ENDBRANCH  14  16
ENDBRANCH   1  11
BRANCH   4  19
HETATM   19  N4  UNL     1       7.388 -18.051   3.397  1.00  0.00    -0.333 N 
ATOM     20  H42 UNL     1       7.607 -17.730   4.340  1.00  0.00     0.177 HD
ATOM     21  H41 UNL     1       7.354 -19.040   3.152  1.00  0.00     0.177 HD
ENDBRANCH   4  19
TORSDOF 3
ENDMDL
MODEL 3
REMARK VINA RESULT: -6.743054789      2.359      5.931
REMARK  3 active torsions:
REMARK  status: ('A' for Active; 'I' for Inactive)
REMARK    1  A    between atoms: C1_2  and  C2_4 
REMARK    2  A    between atoms: C5_7  and  C6_8 
REMARK    3  A    between atoms: N3_11  and  N4_12 
ROOT
HETATM    1  C6  UNL     1       6.092 -15.178   2.250  1.00  0.00     0.109 A 
HETATM    2  C7  UNL     1       6.438 -15.507   0.947  1.00  0.00     0.161 A 
HETATM    3  N2  UNL     1       6.288 -14.523  -0.056  1.00  0.00    -0.079 NA
HETATM    4  N3  UNL     1       6.904 -16.751   0.686  1.00  0.00    -0.197 N 
HETATM    5  C8  UNL     1       7.046 -17.685   1.649  1.00  0.00     0.349 A 
HETATM    6  O2  UNL     1       7.484 -18.841   1.376  1.00  0.00    -0.244 OA
HETATM    7  N5  UNL     1       6.714 -17.379   2.913  1.00  0.00    -0.273 N 
ATOM      8  H5  UNL     1       6.817 -18.078   3.648  1.00  0.00     0.173 HD
HETATM    9  C9  UNL     1       6.240 -16.135   3.218  1.00  0.00     0.265 A 
HETATM   10  O3  UNL     1       5.933 -15.858   4.400  1.00  0.00    -0.267 OA
ENDROOT
BRANCH   1  11
HETATM   11  C5  UNL     1       5.591 -13.819   2.487  1.00  0.00     0.095 A 
HETATM   12  C4  UNL     1       4.389 -13.277   2.105  1.00  0.00     0.041 A 
HETATM   13  C3  UNL     1       4.329 -11.951   2.540  1.00  0.00     0.045 A 
HETATM   14  C2  UNL     1       5.526 -11.750   3.181  1.00  0.00     0.141 A 
HETATM   15  O4  UNL     1       6.223 -12.858   3.125  1.00  0.00    -0.304 OA
BRANCH  14  16
HETATM   16  C1  UNL     1       5.974 -10.497   3.833  1.00  0.00     0.288 C 
HETATM   17  N1  UNL     1       5.884 -10.351   5.225  1.00  0.00    -0.055 NA
HETATM   18  O1  UNL     1       6.422  -9.613   3.069  1.00  0.00    -0.269 OA
ENDBRANCH  14  16
ENDBRANCH   1  11
BRANCH   4  19
HETATM   19  N4  UNL     1       7.242 -17.040  -0.644  1.00  0.00    -0.333 N 
ATOM     20  H42 UNL     1       6.714 -16.630  -1.414  1.00  0.00     0.177 HD
ATOM     21  H41 UNL     1       8.027 -17.672  -0.796  1.00  0.00     0.177 HD
ENDBRANCH   4  19
TORSDOF 3
ENDMDL
MODEL 4
REMARK VINA RESULT: -6.633561026      2.907      5.457
REMARK  3 active torsions:
REMARK  status: ('A' for Active; 'I' for Inactive)
REMARK    1  A    between atoms: C1_2  and  C2_4 
REMARK    2  A    between atoms: C5_7  and  C6_8 
REMARK    3  A    between atoms: N3_11  and  N4_12 
ROOT
HETATM    1  C6  UNL     1       6.062 -13.106   2.453  1.00  0.00     0.109 A 
HETATM    2  C7  UNL     1       6.235 -14.452   2.747  1.00  0.00     0.161 A 
HETATM    3  N2  UNL     1       6.968 -14.796   3.905  1.00  0.00    -0.079 NA
HETATM    4  N3  UNL     1       5.698 -15.379   1.920  1.00  0.00    -0.197 N 
HETATM    5  C8  UNL     1       4.998 -15.043   0.817  1.00  0.00     0.349 A 
HETATM    6  O2  UNL     1       4.507 -15.932   0.062  1.00  0.00    -0.244 OA
HETATM    7  N5  UNL     1       4.823 -13.746   0.521  1.00  0.00    -0.273 N 
ATOM      8  H5  UNL     1       4.296 -13.481  -0.310  1.00  0.00     0.173 HD
HETATM    9  C9  UNL     1       5.350 -12.778   1.331  1.00  0.00     0.265 A 
HETATM   10  O3  UNL     1       5.182 -11.570   1.047  1.00  0.00    -0.267 OA
ENDROOT
BRANCH   1  11
HETATM   11  C5  UNL     1       6.661 -12.137   3.376  1.00  0.00     0.095 A 
HETATM   12  C4  UNL     1       7.852 -11.465   3.249  1.00  0.00     0.041 A 
HETATM   13  C3  UNL     1       8.030 -10.640   4.362  1.00  0.00     0.045 A 
HETATM   14  C2  UNL     1       6.911 -10.856   5.127  1.00  0.00     0.141 A 
HETATM   15  O4  UNL     1       6.148 -11.729   4.516  1.00  0.00    -0.304 OA
BRANCH  14  16
HETATM   16  C1  UNL     1       6.599 -10.219   6.428  1.00  0.00     0.288 C 
HETATM   17  N1  UNL     1       7.608 -10.032   7.385  1.00  0.00    -0.055 NA
HETATM   18  O1  UNL     1       5.408  -9.875   6.598  1.00  0.00    -0.269 OA
ENDBRANCH  14  16
ENDBRANCH   1  11
BRANCH   4  19
HETATM   19  N4  UNL     1       5.896 -16.726   2.256  1.00  0.00    -0.333 N 
ATOM     20  H42 UNL     1       6.736 -17.017   2.757  1.00  0.00     0.177 HD
ATOM     21  H41 UNL     1       5.171 -17.386   1.977  1.00  0.00     0.177 HD
ENDBRANCH   4  19
TORSDOF 3
ENDMDL
MODEL 5
REMARK VINA RESULT: -6.568523345      2.921      3.625
REMARK  3 active torsions:
REMARK  status: ('A' for Active; 'I' for Inactive)
REMARK    1  A    between atoms: C1_2  and  C2_4 
REMARK    2  A    between atoms: C5_7  and  C6_8 
REMARK    3  A    between atoms: N3_11  and  N4_12 
ROOT
HETATM    1  C6  UNL     1       5.598 -13.023   1.858  1.00  0.00     0.109 A 
HETATM    2  C7  UNL     1       6.463 -13.166   2.934  1.00  0.00     0.161 A 
HETATM    3  N2  UNL     1       7.233 -14.347   3.024  1.00  0.00    -0.079 NA
HETATM    4  N3  UNL     1       6.538 -12.174   3.852  1.00  0.00    -0.197 N 
HETATM    5  C8  UNL     1       5.802 -11.047   3.760  1.00  0.00     0.349 A 
HETATM    6  O2  UNL     1       5.892 -10.136   4.634  1.00  0.00    -0.244 OA
HETATM    7  N5  UNL     1       4.961 -10.897   2.725  1.00  0.00    -0.273 N 
ATOM      8  H5  UNL     1       4.399 -10.050   2.645  1.00  0.00     0.173 HD
HETATM    9  C9  UNL     1       4.856 -11.875   1.776  1.00  0.00     0.265 A 
HETATM   10  O3  UNL     1       4.069 -11.726   0.813  1.00  0.00    -0.267 OA
ENDROOT
BRANCH   1  11
HETATM   11  C5  UNL     1       5.549 -14.122   0.888  1.00  0.00     0.095 A 
HETATM   12  C4  UNL     1       4.793 -15.267   0.938  1.00  0.00     0.041 A 
HETATM   13  C3  UNL     1       5.059 -16.038  -0.196  1.00  0.00     0.045 A 
HETATM   14  C2  UNL     1       5.985 -15.304  -0.895  1.00  0.00     0.141 A 
HETATM   15  O4  UNL     1       6.238 -14.204  -0.229  1.00  0.00    -0.304 OA
BRANCH  14  16
HETATM   16  C1  UNL     1       6.609 -15.677  -2.187  1.00  0.00     0.288 C 
HETATM   17  N1  UNL     1       6.315 -16.911  -2.785  1.00  0.00    -0.055 NA
HETATM   18  O1  UNL     1       7.388 -14.833  -2.682  1.00  0.00    -0.269 OA
ENDBRANCH  14  16
ENDBRANCH   1  11
BRANCH   4  19
HETATM   19  N4  UNL     1       7.426 -12.360   4.922  1.00  0.00    -0.333 N 
ATOM     20  H42 UNL     1       7.935 -11.569   5.317  1.00  0.00     0.177 HD
ATOM     21  H41 UNL     1       7.533 -13.310   5.276  1.00  0.00     0.177 HD
ENDBRANCH   4  19
TORSDOF 3
ENDMDL
