MODEL 1
REMARK VINA RESULT: -7.998175958      0.000      0.000
REMARK  9 active torsions:
REMARK  status: ('A' for Active; 'I' for Inactive)
REMARK    1  A    between atoms: C2_2  and  C3_3 
REMARK    2  A    between atoms: C3_3  and  S1_4 
REMARK    3  A    between atoms: S1_4  and  C4_5 
REMARK    4  A    between atoms: N4_16  and  C9_17 
REMARK    5  A    between atoms: C11_19  and  N5_20 
REMARK       I    between atoms: N5_20  and  C12_22 
REMARK    6  A    between atoms: C12_22  and  C13_24 
REMARK    7  A    between atoms: C13_24  and  C14_27 
REMARK    8  A    between atoms: C18_31  and  C19_32 
REMARK    9  A    between atoms: C19_32  and  O2_33 
ROOT
HETATM    1  C9  UNL     1      -3.973  11.937  22.677  1.00  0.00     0.233 C 
HETATM    2  C10 UNL     1      -4.822  11.011  21.861  1.00  0.00     0.082 C 
HETATM    3  C11 UNL     1      -4.986  11.872  20.597  1.00  0.00     0.119 C 
HETATM    4  C18 UNL     1      -3.750  12.701  20.624  1.00  0.00     0.170 C 
HETATM    5  O3  UNL     1      -3.007  12.316  21.746  1.00  0.00    -0.357 OA
ENDROOT
BRANCH   1   6
HETATM    6  N4  UNL     1      -3.396  11.312  23.825  1.00  0.00    -0.300 N 
HETATM    7  C6  UNL     1      -2.225  10.647  23.863  1.00  0.00     0.141 A 
HETATM    8  N2  UNL     1      -1.309  10.384  22.919  1.00  0.00    -0.336 N 
HETATM    9  C7  UNL     1      -1.981  10.173  25.145  1.00  0.00     0.112 A 
HETATM   10  C5  UNL     1      -0.199   9.687  23.208  1.00  0.00     0.183 A 
ATOM     11  H2  UNL     1      -1.459  10.718  21.967  1.00  0.00     0.168 HD
HETATM   12  N1  UNL     1       0.030   9.225  24.475  1.00  0.00    -0.345 N 
HETATM   13  C4  UNL     1      -0.850   9.458  25.461  1.00  0.00     0.101 A 
ATOM     14  H1  UNL     1       0.881   8.698  24.672  1.00  0.00     0.167 HD
HETATM   15  N3  UNL     1      -3.042  10.573  25.877  1.00  0.00    -0.347 N 
HETATM   16  C8  UNL     1      -3.886  11.260  25.064  1.00  0.00     0.188 A 
ATOM     17  H3  UNL     1      -3.185  10.390  26.870  1.00  0.00     0.167 HD
BRANCH  13  18
HETATM   18  S1  UNL     1      -0.560   8.862  27.108  1.00  0.00    -0.110 SA
BRANCH  18  19
HETATM   19  C3  UNL     1      -1.786   7.638  27.623  1.00  0.00     0.080 C 
BRANCH  19  20
HETATM   20  C2  UNL     1      -1.060   6.620  28.493  1.00  0.00     0.006 C 
HETATM   21  C1  UNL     1      -0.243   5.743  27.540  1.00  0.00     0.006 C 
ENDBRANCH  19  20
ENDBRANCH  18  19
ENDBRANCH  13  18
ENDBRANCH   1   6
BRANCH   3  22
HETATM   22  N5  UNL     1      -5.178  11.066  19.435  1.00  0.00    -0.351 N 
HETATM   23  C12 UNL     1      -6.357  10.291  19.310  1.00  0.00     0.258 C 
HETATM   24  O1  UNL     1      -7.200  10.350  20.250  1.00  0.00    -0.270 OA
ATOM     25  H5  UNL     1      -4.471  11.048  18.701  1.00  0.00     0.163 HD
BRANCH  23  26
HETATM   26  C13 UNL     1      -6.619   9.425  18.124  1.00  0.00     0.199 C 
HETATM   27 CL1  UNL     1      -5.553   9.965  16.816  1.00  0.00    -0.090 Cl
HETATM   28 CL2  UNL     1      -8.329   9.428  17.644  1.00  0.00    -0.090 Cl
BRANCH  26  29
HETATM   29  C14 UNL     1      -6.250   7.987  18.439  1.00  0.00    -0.007 C 
HETATM   30  C15 UNL     1      -7.300   7.352  19.313  1.00  0.00     0.018 C 
HETATM   31  C16 UNL     1      -4.858   7.857  18.992  1.00  0.00     0.018 C 
HETATM   32  C17 UNL     1      -6.288   7.246  17.095  1.00  0.00     0.018 C 
ENDBRANCH  26  29
ENDBRANCH  23  26
ENDBRANCH   3  22
BRANCH   4  33
HETATM   33  C19 UNL     1      -2.857  12.499  19.418  1.00  0.00     0.198 C 
BRANCH  33  34
HETATM   34  O2  UNL     1      -2.048  11.396  19.687  1.00  0.00    -0.398 OA
ATOM     35  H2  UNL     1      -1.194  11.577  19.314  1.00  0.00     0.209 HD
ENDBRANCH  33  34
ENDBRANCH   4  33
TORSDOF 9
ENDMDL
MODEL 2
REMARK VINA RESULT: -7.525703573      1.212      1.985
REMARK  9 active torsions:
REMARK  status: ('A' for Active; 'I' for Inactive)
REMARK    1  A    between atoms: C2_2  and  C3_3 
REMARK    2  A    between atoms: C3_3  and  S1_4 
REMARK    3  A    between atoms: S1_4  and  C4_5 
REMARK    4  A    between atoms: N4_16  and  C9_17 
REMARK    5  A    between atoms: C11_19  and  N5_20 
REMARK       I    between atoms: N5_20  and  C12_22 
REMARK    6  A    between atoms: C12_22  and  C13_24 
REMARK    7  A    between atoms: C13_24  and  C14_27 
REMARK    8  A    between atoms: C18_31  and  C19_32 
REMARK    9  A    between atoms: C19_32  and  O2_33 
ROOT
HETATM    1  C9  UNL     1      -2.514  11.775  21.999  1.00  0.00     0.233 C 
HETATM    2  C10 UNL     1      -3.533  11.037  21.187  1.00  0.00     0.082 C 
HETATM    3  C11 UNL     1      -3.756  12.069  20.068  1.00  0.00     0.119 C 
HETATM    4  C18 UNL     1      -2.453  12.787  20.044  1.00  0.00     0.170 C 
HETATM    5  O3  UNL     1      -1.628  12.197  21.009  1.00  0.00    -0.357 OA
ENDROOT
BRANCH   1   6
HETATM    6  N4  UNL     1      -1.873  10.959  22.981  1.00  0.00    -0.300 N 
HETATM    7  C6  UNL     1      -2.323  10.714  24.227  1.00  0.00     0.141 A 
HETATM    8  N2  UNL     1      -3.420  11.122  24.883  1.00  0.00    -0.336 N 
HETATM    9  C7  UNL     1      -1.443   9.879  24.902  1.00  0.00     0.112 A 
HETATM   10  C5  UNL     1      -3.654  10.734  26.147  1.00  0.00     0.183 A 
ATOM     11  H2  UNL     1      -4.087  11.736  24.415  1.00  0.00     0.168 HD
HETATM   12  N1  UNL     1      -2.779   9.911  26.802  1.00  0.00    -0.345 N 
HETATM   13  C4  UNL     1      -1.665   9.471  26.196  1.00  0.00     0.101 A 
ATOM     14  H1  UNL     1      -2.977   9.628  27.761  1.00  0.00     0.167 HD
HETATM   15  N3  UNL     1      -0.450   9.630  24.024  1.00  0.00    -0.347 N 
HETATM   16  C8  UNL     1      -0.725  10.290  22.869  1.00  0.00     0.188 A 
ATOM     17  H3  UNL     1       0.369   9.047  24.199  1.00  0.00     0.167 HD
BRANCH  13  18
HETATM   18  S1  UNL     1      -0.525   8.403  27.039  1.00  0.00    -0.110 SA
BRANCH  18  19
HETATM   19  C3  UNL     1      -1.359   7.224  28.124  1.00  0.00     0.080 C 
BRANCH  19  20
HETATM   20  C2  UNL     1      -0.324   6.181  28.529  1.00  0.00     0.006 C 
HETATM   21  C1  UNL     1       0.049   5.426  27.249  1.00  0.00     0.006 C 
ENDBRANCH  19  20
ENDBRANCH  18  19
ENDBRANCH  13  18
ENDBRANCH   1   6
BRANCH   3  22
HETATM   22  N5  UNL     1      -4.153  11.443  18.849  1.00  0.00    -0.351 N 
HETATM   23  C12 UNL     1      -5.529  11.233  18.588  1.00  0.00     0.258 C 
HETATM   24  O1  UNL     1      -6.358  11.617  19.462  1.00  0.00    -0.270 OA
ATOM     25  H5  UNL     1      -3.450  11.149  18.171  1.00  0.00     0.163 HD
BRANCH  23  26
HETATM   26  C13 UNL     1      -6.012  10.583  17.335  1.00  0.00     0.199 C 
HETATM   27 CL1  UNL     1      -4.713  10.691  16.135  1.00  0.00    -0.090 Cl
HETATM   28 CL2  UNL     1      -7.533  11.286  16.746  1.00  0.00    -0.090 Cl
BRANCH  26  29
HETATM   29  C14 UNL     1      -6.272   9.108  17.582  1.00  0.00    -0.007 C 
HETATM   30  C15 UNL     1      -7.680   8.897  18.076  1.00  0.00     0.018 C 
HETATM   31  C16 UNL     1      -5.232   8.479  18.466  1.00  0.00     0.018 C 
HETATM   32  C17 UNL     1      -6.182   8.435  16.205  1.00  0.00     0.018 C 
ENDBRANCH  26  29
ENDBRANCH  23  26
ENDBRANCH   3  22
BRANCH   4  33
HETATM   33  C19 UNL     1      -1.724  12.678  18.722  1.00  0.00     0.198 C 
BRANCH  33  34
HETATM   34  O2  UNL     1      -0.599  11.882  18.937  1.00  0.00    -0.398 OA
ATOM     35  H2  UNL     1      -0.682  11.512  19.808  1.00  0.00     0.209 HD
ENDBRANCH  33  34
ENDBRANCH   4  33
TORSDOF 9
ENDMDL
MODEL 3
REMARK VINA RESULT: -7.514961138      0.879      1.795
REMARK  9 active torsions:
REMARK  status: ('A' for Active; 'I' for Inactive)
REMARK    1  A    between atoms: C2_2  and  C3_3 
REMARK    2  A    between atoms: C3_3  and  S1_4 
REMARK    3  A    between atoms: S1_4  and  C4_5 
REMARK    4  A    between atoms: N4_16  and  C9_17 
REMARK    5  A    between atoms: C11_19  and  N5_20 
REMARK       I    between atoms: N5_20  and  C12_22 
REMARK    6  A    between atoms: C12_22  and  C13_24 
REMARK    7  A    between atoms: C13_24  and  C14_27 
REMARK    8  A    between atoms: C18_31  and  C19_32 
REMARK    9  A    between atoms: C19_32  and  O2_33 
ROOT
HETATM    1  C9  UNL     1      -2.756  11.619  21.939  1.00  0.00     0.233 C 
HETATM    2  C10 UNL     1      -3.834  10.793  21.307  1.00  0.00     0.082 C 
HETATM    3  C11 UNL     1      -4.218  11.728  20.148  1.00  0.00     0.119 C 
HETATM    4  C18 UNL     1      -2.952  12.476  19.919  1.00  0.00     0.170 C 
HETATM    5  O3  UNL     1      -2.003  11.986  20.824  1.00  0.00    -0.357 OA
ENDROOT
BRANCH   1   6
HETATM    6  N4  UNL     1      -1.980  10.900  22.899  1.00  0.00    -0.300 N 
HETATM    7  C6  UNL     1      -2.330  10.647  24.174  1.00  0.00     0.141 A 
HETATM    8  N2  UNL     1      -3.424  10.960  24.886  1.00  0.00    -0.336 N 
HETATM    9  C7  UNL     1      -1.333   9.924  24.814  1.00  0.00     0.112 A 
HETATM   10  C5  UNL     1      -3.544  10.587  26.170  1.00  0.00     0.183 A 
ATOM     11  H2  UNL     1      -4.176  11.491  24.444  1.00  0.00     0.168 HD
HETATM   12  N1  UNL     1      -2.554   9.875  26.789  1.00  0.00    -0.345 N 
HETATM   13  C4  UNL     1      -1.437   9.532  26.128  1.00  0.00     0.101 A 
ATOM     14  H1  UNL     1      -2.666   9.601  27.765  1.00  0.00     0.167 HD
HETATM   15  N3  UNL     1      -0.371   9.752  23.884  1.00  0.00    -0.347 N 
HETATM   16  C8  UNL     1      -0.778  10.347  22.733  1.00  0.00     0.188 A 
ATOM     17  H3  UNL     1       0.511   9.259  24.022  1.00  0.00     0.167 HD
BRANCH  13  18
HETATM   18  S1  UNL     1      -0.147   8.609  26.925  1.00  0.00    -0.110 SA
BRANCH  18  19
HETATM   19  C3  UNL     1      -0.208   6.849  26.517  1.00  0.00     0.080 C 
BRANCH  19  20
HETATM   20  C2  UNL     1      -0.453   6.099  27.820  1.00  0.00     0.006 C 
HETATM   21  C1  UNL     1      -1.504   6.905  28.590  1.00  0.00     0.006 C 
ENDBRANCH  19  20
ENDBRANCH  18  19
ENDBRANCH  13  18
ENDBRANCH   1   6
BRANCH   3  22
HETATM   22  N5  UNL     1      -4.728  10.998  19.033  1.00  0.00    -0.351 N 
HETATM   23  C12 UNL     1      -5.922  10.249  19.175  1.00  0.00     0.258 C 
HETATM   24  O1  UNL     1      -6.492  10.263  20.304  1.00  0.00    -0.270 OA
ATOM     25  H5  UNL     1      -4.236  11.015  18.140  1.00  0.00     0.163 HD
BRANCH  23  26
HETATM   26  C13 UNL     1      -6.508   9.462  18.052  1.00  0.00     0.199 C 
HETATM   27 CL1  UNL     1      -5.652   9.918  16.569  1.00  0.00    -0.090 Cl
HETATM   28 CL2  UNL     1      -8.265   9.683  17.909  1.00  0.00    -0.090 Cl
BRANCH  26  29
HETATM   29  C14 UNL     1      -6.265   7.981  18.273  1.00  0.00    -0.007 C 
HETATM   30  C15 UNL     1      -7.407   7.368  19.040  1.00  0.00     0.018 C 
HETATM   31  C16 UNL     1      -4.921   7.702  18.886  1.00  0.00     0.018 C 
HETATM   32  C17 UNL     1      -6.280   7.346  16.876  1.00  0.00     0.018 C 
ENDBRANCH  26  29
ENDBRANCH  23  26
ENDBRANCH   3  22
BRANCH   4  33
HETATM   33  C19 UNL     1      -2.373  12.282  18.533  1.00  0.00     0.198 C 
BRANCH  33  34
HETATM   34  O2  UNL     1      -0.991  12.167  18.678  1.00  0.00    -0.398 OA
ATOM     35  H2  UNL     1      -0.822  11.326  19.084  1.00  0.00     0.209 HD
ENDBRANCH  33  34
ENDBRANCH   4  33
TORSDOF 9
ENDMDL
MODEL 4
REMARK VINA RESULT: -7.439529380      1.224      1.310
REMARK  9 active torsions:
REMARK  status: ('A' for Active; 'I' for Inactive)
REMARK    1  A    between atoms: C2_2  and  C3_3 
REMARK    2  A    between atoms: C3_3  and  S1_4 
REMARK    3  A    between atoms: S1_4  and  C4_5 
REMARK    4  A    between atoms: N4_16  and  C9_17 
REMARK    5  A    between atoms: C11_19  and  N5_20 
REMARK       I    between atoms: N5_20  and  C12_22 
REMARK    6  A    between atoms: C12_22  and  C13_24 
REMARK    7  A    between atoms: C13_24  and  C14_27 
REMARK    8  A    between atoms: C18_31  and  C19_32 
REMARK    9  A    between atoms: C19_32  and  O2_33 
ROOT
HETATM    1  C9  UNL     1      -4.328  12.583  22.094  1.00  0.00     0.233 C 
HETATM    2  C10 UNL     1      -5.053  11.690  21.135  1.00  0.00     0.082 C 
HETATM    3  C11 UNL     1      -4.931  12.541  19.860  1.00  0.00     0.119 C 
HETATM    4  C18 UNL     1      -3.682  13.308  20.117  1.00  0.00     0.170 C 
HETATM    5  O3  UNL     1      -3.185  12.902  21.361  1.00  0.00    -0.357 OA
ENDROOT
BRANCH   1   6
HETATM    6  N4  UNL     1      -4.010  11.946  23.333  1.00  0.00    -0.300 N 
HETATM    7  C6  UNL     1      -2.909  11.215  23.591  1.00  0.00     0.141 A 
HETATM    8  N2  UNL     1      -1.853  10.882  22.833  1.00  0.00    -0.336 N 
HETATM    9  C7  UNL     1      -2.934  10.750  24.899  1.00  0.00     0.112 A 
HETATM   10  C5  UNL     1      -0.859  10.127  23.327  1.00  0.00     0.183 A 
ATOM     11  H2  UNL     1      -1.804  11.208  21.868  1.00  0.00     0.168 HD
HETATM   12  N1  UNL     1      -0.895   9.675  24.617  1.00  0.00    -0.345 N 
HETATM   13  C4  UNL     1      -1.926   9.976  25.422  1.00  0.00     0.101 A 
ATOM     14  H1  UNL     1      -0.129   9.103  24.972  1.00  0.00     0.167 HD
HETATM   15  N3  UNL     1      -4.085  11.223  25.419  1.00  0.00    -0.347 N 
HETATM   16  C8  UNL     1      -4.723  11.944  24.460  1.00  0.00     0.188 A 
ATOM     17  H3  UNL     1      -4.419  11.067  26.370  1.00  0.00     0.167 HD
BRANCH  13  18
HETATM   18  S1  UNL     1      -1.981   9.392  27.098  1.00  0.00    -0.110 SA
BRANCH  18  19
HETATM   19  C3  UNL     1      -0.682   8.186  27.450  1.00  0.00     0.080 C 
BRANCH  19  20
HETATM   20  C2  UNL     1      -1.366   6.951  28.024  1.00  0.00     0.006 C 
HETATM   21  C1  UNL     1      -0.354   5.807  27.908  1.00  0.00     0.006 C 
ENDBRANCH  19  20
ENDBRANCH  18  19
ENDBRANCH  13  18
ENDBRANCH   1   6
BRANCH   3  22
HETATM   22  N5  UNL     1      -4.941  11.730  18.686  1.00  0.00    -0.351 N 
HETATM   23  C12 UNL     1      -6.175  11.407  18.070  1.00  0.00     0.258 C 
HETATM   24  O1  UNL     1      -7.230  11.862  18.598  1.00  0.00    -0.270 OA
ATOM     25  H5  UNL     1      -4.065  11.385  18.294  1.00  0.00     0.163 HD
BRANCH  23  26
HETATM   26  C13 UNL     1      -6.256  10.563  16.843  1.00  0.00     0.199 C 
HETATM   27 CL1  UNL     1      -4.710  10.702  15.989  1.00  0.00    -0.090 Cl
HETATM   28 CL2  UNL     1      -7.636  10.993  15.811  1.00  0.00    -0.090 Cl
BRANCH  26  29
HETATM   29  C14 UNL     1      -6.427   9.104  17.226  1.00  0.00    -0.007 C 
HETATM   30  C15 UNL     1      -7.840   8.841  17.678  1.00  0.00     0.018 C 
HETATM   31  C16 UNL     1      -5.392   8.643  18.213  1.00  0.00     0.018 C 
HETATM   32  C17 UNL     1      -6.223   8.309  15.930  1.00  0.00     0.018 C 
ENDBRANCH  26  29
ENDBRANCH  23  26
ENDBRANCH   3  22
BRANCH   4  33
HETATM   33  C19 UNL     1      -2.588  13.047  19.104  1.00  0.00     0.198 C 
BRANCH  33  34
HETATM   34  O2  UNL     1      -2.144  11.741  19.307  1.00  0.00    -0.398 OA
ATOM     35  H2  UNL     1      -2.221  11.288  18.476  1.00  0.00     0.209 HD
ENDBRANCH  33  34
ENDBRANCH   4  33
TORSDOF 9
ENDMDL
MODEL 5
REMARK VINA RESULT: -7.103628013      1.193      1.392
REMARK  9 active torsions:
REMARK  status: ('A' for Active; 'I' for Inactive)
REMARK    1  A    between atoms: C2_2  and  C3_3 
REMARK    2  A    between atoms: C3_3  and  S1_4 
REMARK    3  A    between atoms: S1_4  and  C4_5 
REMARK    4  A    between atoms: N4_16  and  C9_17 
REMARK    5  A    between atoms: C11_19  and  N5_20 
REMARK       I    between atoms: N5_20  and  C12_22 
REMARK    6  A    between atoms: C12_22  and  C13_24 
REMARK    7  A    between atoms: C13_24  and  C14_27 
REMARK    8  A    between atoms: C18_31  and  C19_32 
REMARK    9  A    between atoms: C19_32  and  O2_33 
ROOT
HETATM    1  C9  UNL     1      -4.195  12.154  22.539  1.00  0.00     0.233 C 
HETATM    2  C10 UNL     1      -5.072  11.250  21.728  1.00  0.00     0.082 C 
HETATM    3  C11 UNL     1      -5.262  12.136  20.485  1.00  0.00     0.119 C 
HETATM    4  C18 UNL     1      -4.021  12.956  20.496  1.00  0.00     0.170 C 
HETATM    5  O3  UNL     1      -3.252  12.544  21.590  1.00  0.00    -0.357 OA
ENDROOT
BRANCH   1   6
HETATM    6  N4  UNL     1      -3.593  11.503  23.659  1.00  0.00    -0.300 N 
HETATM    7  C6  UNL     1      -2.419  10.843  23.658  1.00  0.00     0.141 A 
HETATM    8  N2  UNL     1      -1.521  10.608  22.689  1.00  0.00    -0.336 N 
HETATM    9  C7  UNL     1      -2.147  10.338  24.922  1.00  0.00     0.112 A 
HETATM   10  C5  UNL     1      -0.402   9.909  22.938  1.00  0.00     0.183 A 
ATOM     11  H2  UNL     1      -1.691  10.965  21.748  1.00  0.00     0.168 HD
HETATM   12  N1  UNL     1      -0.146   9.417  24.188  1.00  0.00    -0.345 N 
HETATM   13  C4  UNL     1      -1.007   9.620  25.197  1.00  0.00     0.101 A 
ATOM     14  H1  UNL     1       0.710   8.889  24.356  1.00  0.00     0.167 HD
HETATM   15  N3  UNL     1      -3.195  10.714  25.684  1.00  0.00    -0.347 N 
HETATM   16  C8  UNL     1      -4.059  11.418  24.906  1.00  0.00     0.188 A 
ATOM     17  H3  UNL     1      -3.317  10.506  26.675  1.00  0.00     0.167 HD
BRANCH  13  18
HETATM   18  S1  UNL     1      -0.682   8.984  26.822  1.00  0.00    -0.110 SA
BRANCH  18  19
HETATM   19  C3  UNL     1      -2.079   8.051  27.488  1.00  0.00     0.080 C 
BRANCH  19  20
HETATM   20  C2  UNL     1      -1.501   6.977  28.402  1.00  0.00     0.006 C 
HETATM   21  C1  UNL     1      -0.551   6.142  27.539  1.00  0.00     0.006 C 
ENDBRANCH  19  20
ENDBRANCH  18  19
ENDBRANCH  13  18
ENDBRANCH   1   6
BRANCH   3  22
HETATM   22  N5  UNL     1      -5.490  11.354  19.314  1.00  0.00    -0.351 N 
HETATM   23  C12 UNL     1      -6.690  11.526  18.581  1.00  0.00     0.258 C 
HETATM   24  O1  UNL     1      -7.520  12.380  19.007  1.00  0.00    -0.270 OA
ATOM     25  H5  UNL     1      -4.793  10.676  19.006  1.00  0.00     0.163 HD
BRANCH  23  26
HETATM   26  C13 UNL     1      -6.992  10.740  17.350  1.00  0.00     0.199 C 
HETATM   27 CL1  UNL     1      -5.495   9.942  16.839  1.00  0.00    -0.090 Cl
HETATM   28 CL2  UNL     1      -7.697  11.737  16.061  1.00  0.00    -0.090 Cl
BRANCH  26  29
HETATM   29  C14 UNL     1      -7.998   9.647  17.664  1.00  0.00    -0.007 C 
HETATM   30  C15 UNL     1      -9.403  10.147  17.451  1.00  0.00     0.018 C 
HETATM   31  C16 UNL     1      -7.784   9.040  19.023  1.00  0.00     0.018 C 
HETATM   32  C17 UNL     1      -7.756   8.549  16.620  1.00  0.00     0.018 C 
ENDBRANCH  26  29
ENDBRANCH  23  26
ENDBRANCH   3  22
BRANCH   4  33
HETATM   33  C19 UNL     1      -3.160  12.772  19.264  1.00  0.00     0.198 C 
BRANCH  33  34
HETATM   34  O2  UNL     1      -2.386  11.631  19.470  1.00  0.00    -0.398 OA
ATOM     35  H2  UNL     1      -1.585  11.910  19.896  1.00  0.00     0.209 HD
ENDBRANCH  33  34
ENDBRANCH   4  33
TORSDOF 9
ENDMDL
