MODEL 1
REMARK VINA RESULT: -6.493341010      0.000      0.000
REMARK  4 active torsions:
REMARK  status: ('A' for Active; 'I' for Inactive)
REMARK    1  A    between atoms: N1_2  and  N2_3 
REMARK    2  A    between atoms: N2_3  and  C2_5 
REMARK    3  A    between atoms: C2_5  and  C4_7 
REMARK       I    between atoms: C4_7  and  N3_9 
REMARK    4  A    between atoms: N3_9  and  C5_11 
ROOT
HETATM    1  C4  UNL     1      -4.924  77.050  23.444  1.00  0.00     0.245 C 
HETATM    2  O1  UNL     1      -4.969  75.846  23.768  1.00  0.00    -0.271 OA
HETATM    3  N3  UNL     1      -5.477  77.601  22.280  1.00  0.00    -0.324 N 
ATOM      4  H3  UNL     1      -5.350  78.606  22.167  1.00  0.00     0.169 HD
ENDROOT
BRANCH   3   5
HETATM    5  C5  UNL     1      -6.185  76.959  21.241  1.00  0.00     0.059 A 
HETATM    6  C6  UNL     1      -5.610  76.066  20.378  1.00  0.00     0.031 A 
HETATM    7  C7  UNL     1      -6.318  75.432  19.348  1.00  0.00     0.002 A 
HETATM    8  C8  UNL     1      -7.653  75.751  19.237  1.00  0.00     0.002 A 
HETATM    9  C9  UNL     1      -8.246  76.648  20.100  1.00  0.00     0.029 A 
HETATM   10  C10 UNL     1      -7.548  77.264  21.103  1.00  0.00     0.073 A 
HETATM   11  N4  UNL     1      -8.180  78.201  21.999  1.00  0.00    -0.100 NA
ENDBRANCH   3   5
BRANCH   1  12
HETATM   12  C2  UNL     1      -4.195  77.933  24.436  1.00  0.00     0.183 C 
HETATM   13  C3  UNL     1      -5.157  79.084  24.736  1.00  0.00     0.043 C 
BRANCH  12  14
HETATM   14  N2  UNL     1      -3.912  77.235  25.641  1.00  0.00    -0.327 N 
ATOM     15  H2  UNL     1      -4.650  76.956  26.288  1.00  0.00     0.176 HD
BRANCH  14  16
HETATM   16  N1  UNL     1      -2.581  76.957  25.888  1.00  0.00    -0.150 NA
HETATM   17  C1  UNL     1      -1.744  77.897  25.174  1.00  0.00     0.158 C 
ENDBRANCH  14  16
ENDBRANCH  12  14
ENDBRANCH   1  12
TORSDOF 4
ENDMDL
MODEL 2
REMARK VINA RESULT: -6.470216729      1.593      2.397
REMARK  4 active torsions:
REMARK  status: ('A' for Active; 'I' for Inactive)
REMARK    1  A    between atoms: N1_2  and  N2_3 
REMARK    2  A    between atoms: N2_3  and  C2_5 
REMARK    3  A    between atoms: C2_5  and  C4_7 
REMARK       I    between atoms: C4_7  and  N3_9 
REMARK    4  A    between atoms: N3_9  and  C5_11 
ROOT
HETATM    1  C4  UNL     1      -4.911  77.545  23.571  1.00  0.00     0.245 C 
HETATM    2  O1  UNL     1      -5.690  77.043  24.405  1.00  0.00    -0.271 OA
HETATM    3  N3  UNL     1      -5.236  77.869  22.246  1.00  0.00    -0.324 N 
ATOM      4  H3  UNL     1      -4.479  78.273  21.695  1.00  0.00     0.169 HD
ENDROOT
BRANCH   3   5
HETATM    5  C5  UNL     1      -6.464  77.715  21.567  1.00  0.00     0.059 A 
HETATM    6  C6  UNL     1      -7.490  78.616  21.655  1.00  0.00     0.031 A 
HETATM    7  C7  UNL     1      -8.708  78.458  20.978  1.00  0.00     0.002 A 
HETATM    8  C8  UNL     1      -8.832  77.329  20.200  1.00  0.00     0.002 A 
HETATM    9  C9  UNL     1      -7.807  76.413  20.102  1.00  0.00     0.029 A 
HETATM   10  C10 UNL     1      -6.621  76.574  20.766  1.00  0.00     0.073 A 
HETATM   11  N4  UNL     1      -5.555  75.608  20.655  1.00  0.00    -0.100 NA
ENDBRANCH   3   5
BRANCH   1  12
HETATM   12  C2  UNL     1      -3.514  77.797  24.099  1.00  0.00     0.183 C 
HETATM   13  C3  UNL     1      -3.647  77.773  25.623  1.00  0.00     0.043 C 
BRANCH  12  14
HETATM   14  N2  UNL     1      -2.614  76.776  23.692  1.00  0.00    -0.327 N 
ATOM     15  H2  UNL     1      -1.934  76.923  22.946  1.00  0.00     0.176 HD
BRANCH  14  16
HETATM   16  N1  UNL     1      -2.710  75.572  24.365  1.00  0.00    -0.150 NA
HETATM   17  C1  UNL     1      -3.123  74.531  23.447  1.00  0.00     0.158 C 
ENDBRANCH  14  16
ENDBRANCH  12  14
ENDBRANCH   1  12
TORSDOF 4
ENDMDL
MODEL 3
REMARK VINA RESULT: -6.458122570      2.341      5.803
REMARK  4 active torsions:
REMARK  status: ('A' for Active; 'I' for Inactive)
REMARK    1  A    between atoms: N1_2  and  N2_3 
REMARK    2  A    between atoms: N2_3  and  C2_5 
REMARK    3  A    between atoms: C2_5  and  C4_7 
REMARK       I    between atoms: C4_7  and  N3_9 
REMARK    4  A    between atoms: N3_9  and  C5_11 
ROOT
HETATM    1  C4  UNL     1      -4.988  77.732  24.265  1.00  0.00     0.245 C 
HETATM    2  O1  UNL     1      -5.299  78.373  25.288  1.00  0.00    -0.271 OA
HETATM    3  N3  UNL     1      -3.731  77.747  23.644  1.00  0.00    -0.324 N 
ATOM      4  H3  UNL     1      -3.646  77.163  22.812  1.00  0.00     0.169 HD
ENDROOT
BRANCH   3   5
HETATM    5  C5  UNL     1      -2.567  78.457  24.009  1.00  0.00     0.059 A 
HETATM    6  C6  UNL     1      -2.187  79.632  23.419  1.00  0.00     0.031 A 
HETATM    7  C7  UNL     1      -1.030  80.333  23.786  1.00  0.00     0.002 A 
HETATM    8  C8  UNL     1      -0.271  79.777  24.792  1.00  0.00     0.002 A 
HETATM    9  C9  UNL     1      -0.643  78.595  25.395  1.00  0.00     0.029 A 
HETATM   10  C10 UNL     1      -1.773  77.916  25.032  1.00  0.00     0.073 A 
HETATM   11  N4  UNL     1      -2.151  76.679  25.671  1.00  0.00    -0.100 NA
ENDBRANCH   3   5
BRANCH   1  12
HETATM   12  C2  UNL     1      -6.111  76.888  23.696  1.00  0.00     0.183 C 
HETATM   13  C3  UNL     1      -6.311  77.391  22.265  1.00  0.00     0.043 C 
BRANCH  12  14
HETATM   14  N2  UNL     1      -5.759  75.511  23.662  1.00  0.00    -0.327 N 
ATOM     15  H2  UNL     1      -6.024  74.869  24.409  1.00  0.00     0.176 HD
BRANCH  14  16
HETATM   16  N1  UNL     1      -5.037  75.092  22.560  1.00  0.00    -0.150 NA
HETATM   17  C1  UNL     1      -3.934  74.257  22.986  1.00  0.00     0.158 C 
ENDBRANCH  14  16
ENDBRANCH  12  14
ENDBRANCH   1  12
TORSDOF 4
ENDMDL
MODEL 4
REMARK VINA RESULT: -6.435968529      1.477      2.153
REMARK  4 active torsions:
REMARK  status: ('A' for Active; 'I' for Inactive)
REMARK    1  A    between atoms: N1_2  and  N2_3 
REMARK    2  A    between atoms: N2_3  and  C2_5 
REMARK    3  A    between atoms: C2_5  and  C4_7 
REMARK       I    between atoms: C4_7  and  N3_9 
REMARK    4  A    between atoms: N3_9  and  C5_11 
ROOT
HETATM    1  C4  UNL     1      -5.853  78.080  23.045  1.00  0.00     0.245 C 
HETATM    2  O1  UNL     1      -6.944  78.682  23.000  1.00  0.00    -0.271 OA
HETATM    3  N3  UNL     1      -5.437  77.079  22.156  1.00  0.00    -0.324 N 
ATOM      4  H3  UNL     1      -4.512  76.688  22.337  1.00  0.00     0.169 HD
ENDROOT
BRANCH   3   5
HETATM    5  C5  UNL     1      -6.119  76.535  21.046  1.00  0.00     0.059 A 
HETATM    6  C6  UNL     1      -7.134  77.183  20.396  1.00  0.00     0.031 A 
HETATM    7  C7  UNL     1      -7.808  76.638  19.294  1.00  0.00     0.002 A 
HETATM    8  C8  UNL     1      -7.396  75.391  18.881  1.00  0.00     0.002 A 
HETATM    9  C9  UNL     1      -6.375  74.727  19.526  1.00  0.00     0.029 A 
HETATM   10  C10 UNL     1      -5.721  75.265  20.601  1.00  0.00     0.073 A 
HETATM   11  N4  UNL     1      -4.654  74.560  21.269  1.00  0.00    -0.100 NA
ENDBRANCH   3   5
BRANCH   1  12
HETATM   12  C2  UNL     1      -4.950  78.515  24.181  1.00  0.00     0.183 C 
HETATM   13  C3  UNL     1      -5.642  79.729  24.805  1.00  0.00     0.043 C 
BRANCH  12  14
HETATM   14  N2  UNL     1      -4.823  77.495  25.163  1.00  0.00    -0.327 N 
ATOM     15  H2  UNL     1      -5.465  76.703  25.202  1.00  0.00     0.176 HD
BRANCH  14  16
HETATM   16  N1  UNL     1      -3.781  77.636  26.060  1.00  0.00    -0.150 NA
HETATM   17  C1  UNL     1      -2.517  77.508  25.366  1.00  0.00     0.158 C 
ENDBRANCH  14  16
ENDBRANCH  12  14
ENDBRANCH   1  12
TORSDOF 4
ENDMDL
MODEL 5
REMARK VINA RESULT: -6.422338810      1.598      1.664
REMARK  4 active torsions:
REMARK  status: ('A' for Active; 'I' for Inactive)
REMARK    1  A    between atoms: N1_2  and  N2_3 
REMARK    2  A    between atoms: N2_3  and  C2_5 
REMARK    3  A    between atoms: C2_5  and  C4_7 
REMARK       I    between atoms: C4_7  and  N3_9 
REMARK    4  A    between atoms: N3_9  and  C5_11 
ROOT
HETATM    1  C4  UNL     1      -5.769  78.110  22.872  1.00  0.00     0.245 C 
HETATM    2  O1  UNL     1      -6.843  78.737  22.785  1.00  0.00    -0.271 OA
HETATM    3  N3  UNL     1      -5.343  77.099  21.998  1.00  0.00    -0.324 N 
ATOM      4  H3  UNL     1      -4.435  76.687  22.214  1.00  0.00     0.169 HD
ENDROOT
BRANCH   3   5
HETATM    5  C5  UNL     1      -5.995  76.572  20.863  1.00  0.00     0.059 A 
HETATM    6  C6  UNL     1      -5.711  76.964  19.582  1.00  0.00     0.031 A 
HETATM    7  C7  UNL     1      -6.361  76.436  18.459  1.00  0.00     0.002 A 
HETATM    8  C8  UNL     1      -7.322  75.480  18.701  1.00  0.00     0.002 A 
HETATM    9  C9  UNL     1      -7.618  75.075  19.985  1.00  0.00     0.029 A 
HETATM   10  C10 UNL     1      -6.979  75.595  21.077  1.00  0.00     0.073 A 
HETATM   11  N4  UNL     1      -7.297  75.163  22.417  1.00  0.00    -0.100 NA
ENDBRANCH   3   5
BRANCH   1  12
HETATM   12  C2  UNL     1      -4.900  78.524  24.042  1.00  0.00     0.183 C 
HETATM   13  C3  UNL     1      -5.602  79.737  24.657  1.00  0.00     0.043 C 
BRANCH  12  14
HETATM   14  N2  UNL     1      -4.814  77.492  25.015  1.00  0.00    -0.327 N 
ATOM     15  H2  UNL     1      -5.424  76.675  24.988  1.00  0.00     0.176 HD
BRANCH  14  16
HETATM   16  N1  UNL     1      -3.857  77.657  25.998  1.00  0.00    -0.150 NA
HETATM   17  C1  UNL     1      -2.539  77.434  25.441  1.00  0.00     0.158 C 
ENDBRANCH  14  16
ENDBRANCH  12  14
ENDBRANCH   1  12
TORSDOF 4
ENDMDL
