MODEL 1
REMARK VINA RESULT: -8.611593189      0.000      0.000
REMARK  8 active torsions:
REMARK  status: ('A' for Active; 'I' for Inactive)
REMARK    1  A    between atoms: C2_2  and  C4_4 
REMARK       I    between atoms: N1_7  and  C7_8 
REMARK    2  A    between atoms: C7_8  and  C8_10 
REMARK    3  A    between atoms: C8_10  and  C9_13 
REMARK       I    between atoms: C9_13  and  N2_15 
REMARK    4  A    between atoms: C11_17  and  O3_18 
REMARK    5  A    between atoms: O3_18  and  C12_19 
REMARK    6  A    between atoms: C14_25  and  C15_26 
REMARK    7  A    between atoms: C16_29  and  C17_30 
REMARK       I    between atoms: C17_30  and  N5_32 
REMARK    8  A    between atoms: N5_32  and  C18_34 
ROOT
HETATM    1  C8  UNL     1       8.268  63.104   1.861  1.00  0.00     0.401 C 
HETATM    2  F1  UNL     1       8.049  63.268   3.242  1.00  0.00    -0.184 F 
HETATM    3  F2  UNL     1       7.741  64.211   1.279  1.00  0.00    -0.184 F 
ENDROOT
BRANCH   1   4
HETATM    4  C7  UNL     1       7.547  61.896   1.431  1.00  0.00     0.303 C 
HETATM    5  N1  UNL     1       7.160  60.820   2.296  1.00  0.00    -0.333 N 
HETATM    6  C6  UNL     1       7.486  60.760   3.683  1.00  0.00     0.127 C 
HETATM    7  C16 UNL     1       6.398  59.658   1.934  1.00  0.00     0.183 C 
HETATM    8  C5  UNL     1       7.215  59.297   4.101  1.00  0.00     0.027 C 
HETATM    9  C4  UNL     1       6.066  58.980   3.209  1.00  0.00     0.023 C 
HETATM   10  O1  UNL     1       7.236  61.786   0.215  1.00  0.00    -0.266 OA
BRANCH   9  11
HETATM   11  C2  UNL     1       5.714  57.534   3.139  1.00  0.00    -0.016 C 
HETATM   12  C1  UNL     1       6.853  56.759   3.797  1.00  0.00     0.010 C 
HETATM   13  C3  UNL     1       5.380  57.003   1.791  1.00  0.00     0.010 C 
ENDBRANCH   9  11
BRANCH   7  14
HETATM   14  C17 UNL     1       5.168  60.021   1.163  1.00  0.00     0.241 C 
HETATM   15  O6  UNL     1       4.170  60.562   1.662  1.00  0.00    -0.271 OA
HETATM   16  N5  UNL     1       5.147  59.729  -0.226  1.00  0.00    -0.351 N 
ATOM     17  H5  UNL     1       5.957  59.290  -0.664  1.00  0.00     0.163 HD
BRANCH  16  18
HETATM   18  C18 UNL     1       3.971  60.053  -1.032  1.00  0.00     0.022 C 
HETATM   19  C19 UNL     1       3.795  61.530  -1.134  1.00  0.00     0.037 C 
HETATM   20  C20 UNL     1       4.203  59.541  -2.463  1.00  0.00     0.037 C 
HETATM   21  C21 UNL     1       2.718  59.431  -0.471  1.00  0.00     0.037 C 
ENDBRANCH  16  18
ENDBRANCH   7  14
ENDBRANCH   1   4
BRANCH   1  22
HETATM   22  C9  UNL     1       9.747  62.959   1.677  1.00  0.00     0.303 C 
HETATM   23  O2  UNL     1      10.154  61.976   1.012  1.00  0.00    -0.266 OA
HETATM   24  N2  UNL     1      10.671  63.858   2.210  1.00  0.00    -0.329 N 
HETATM   25  C10 UNL     1      12.109  63.781   2.095  1.00  0.00     0.159 C 
HETATM   26  C14 UNL     1      10.349  65.045   2.989  1.00  0.00     0.191 C 
HETATM   27  C11 UNL     1      12.722  64.747   3.047  1.00  0.00     0.152 C 
HETATM   28  C13 UNL     1      11.575  65.238   3.880  1.00  0.00     0.070 C 
BRANCH  27  29
HETATM   29  O3  UNL     1      13.694  64.158   3.887  1.00  0.00    -0.318 OA
BRANCH  29  30
HETATM   30  C12 UNL     1      14.955  64.669   4.085  1.00  0.00     0.225 C 
HETATM   31  N3  UNL     1      15.666  64.905   3.032  1.00  0.00    -0.368 N 
ATOM     32  H32 UNL     1      15.332  64.730   2.084  1.00  0.00     0.159 HD
ATOM     33  H31 UNL     1      16.602  65.283   3.180  1.00  0.00     0.159 HD
HETATM   34  N4  UNL     1      15.416  64.911   5.394  1.00  0.00    -0.057 NA
ENDBRANCH  29  30
ENDBRANCH  27  29
BRANCH  26  35
HETATM   35  C15 UNL     1      10.298  66.252   2.127  1.00  0.00     0.197 C 
HETATM   36  O4  UNL     1       9.797  66.270   0.981  1.00  0.00    -0.646 OA
HETATM   37  O5  UNL     1      10.830  67.447   2.588  1.00  0.00    -0.646 OA
ENDBRANCH  26  35
ENDBRANCH   1  22
TORSDOF 8
ENDMDL
MODEL 2
REMARK VINA RESULT: -8.283702410      1.305      1.797
REMARK  8 active torsions:
REMARK  status: ('A' for Active; 'I' for Inactive)
REMARK    1  A    between atoms: C2_2  and  C4_4 
REMARK       I    between atoms: N1_7  and  C7_8 
REMARK    2  A    between atoms: C7_8  and  C8_10 
REMARK    3  A    between atoms: C8_10  and  C9_13 
REMARK       I    between atoms: C9_13  and  N2_15 
REMARK    4  A    between atoms: C11_17  and  O3_18 
REMARK    5  A    between atoms: O3_18  and  C12_19 
REMARK    6  A    between atoms: C14_25  and  C15_26 
REMARK    7  A    between atoms: C16_29  and  C17_30 
REMARK       I    between atoms: C17_30  and  N5_32 
REMARK    8  A    between atoms: N5_32  and  C18_34 
ROOT
HETATM    1  C8  UNL     1       8.151  63.012   2.288  1.00  0.00     0.401 C 
HETATM    2  F1  UNL     1       8.069  62.853   3.684  1.00  0.00    -0.184 F 
HETATM    3  F2  UNL     1       7.653  64.249   2.038  1.00  0.00    -0.184 F 
ENDROOT
BRANCH   1   4
HETATM    4  C7  UNL     1       7.310  61.977   1.667  1.00  0.00     0.303 C 
HETATM    5  N1  UNL     1       7.027  60.695   2.243  1.00  0.00    -0.333 N 
HETATM    6  C6  UNL     1       7.583  60.238   3.474  1.00  0.00     0.127 C 
HETATM    7  C16 UNL     1       6.160  59.684   1.707  1.00  0.00     0.183 C 
HETATM    8  C5  UNL     1       7.318  58.715   3.499  1.00  0.00     0.027 C 
HETATM    9  C4  UNL     1       6.020  58.665   2.774  1.00  0.00     0.023 C 
HETATM   10  O1  UNL     1       6.789  62.222   0.546  1.00  0.00    -0.266 OA
BRANCH   9  11
HETATM   11  C2  UNL     1       5.592  57.300   2.358  1.00  0.00    -0.016 C 
HETATM   12  C1  UNL     1       4.071  57.319   2.239  1.00  0.00     0.010 C 
HETATM   13  C3  UNL     1       6.073  56.175   3.203  1.00  0.00     0.010 C 
ENDBRANCH   9  11
BRANCH   7  14
HETATM   14  C17 UNL     1       4.834  60.250   1.305  1.00  0.00     0.241 C 
HETATM   15  O6  UNL     1       4.329  60.106   0.182  1.00  0.00    -0.271 OA
HETATM   16  N5  UNL     1       4.111  60.994   2.274  1.00  0.00    -0.351 N 
ATOM     17  H5  UNL     1       4.500  61.122   3.209  1.00  0.00     0.163 HD
BRANCH  16  18
HETATM   18  C18 UNL     1       2.813  61.578   1.940  1.00  0.00     0.022 C 
HETATM   19  C19 UNL     1       1.809  60.509   1.670  1.00  0.00     0.037 C 
HETATM   20  C20 UNL     1       2.300  62.360   3.160  1.00  0.00     0.037 C 
HETATM   21  C21 UNL     1       2.902  62.500   0.751  1.00  0.00     0.037 C 
ENDBRANCH  16  18
ENDBRANCH   7  14
ENDBRANCH   1   4
BRANCH   1  22
HETATM   22  C9  UNL     1       9.593  62.844   1.922  1.00  0.00     0.303 C 
HETATM   23  O2  UNL     1       9.908  61.825   1.262  1.00  0.00    -0.266 OA
HETATM   24  N2  UNL     1      10.580  63.761   2.283  1.00  0.00    -0.329 N 
HETATM   25  C10 UNL     1      11.991  63.666   1.987  1.00  0.00     0.159 C 
HETATM   26  C14 UNL     1      10.365  64.990   3.034  1.00  0.00     0.191 C 
HETATM   27  C11 UNL     1      12.724  64.673   2.799  1.00  0.00     0.152 C 
HETATM   28  C13 UNL     1      11.697  65.217   3.747  1.00  0.00     0.070 C 
BRANCH  27  29
HETATM   29  O3  UNL     1      13.796  64.120   3.536  1.00  0.00    -0.318 OA
BRANCH  29  30
HETATM   30  C12 UNL     1      15.013  64.737   3.711  1.00  0.00     0.225 C 
HETATM   31  N3  UNL     1      15.629  65.134   2.647  1.00  0.00    -0.368 N 
ATOM     32  H32 UNL     1      15.253  65.009   1.707  1.00  0.00     0.159 HD
ATOM     33  H31 UNL     1      16.532  65.591   2.777  1.00  0.00     0.159 HD
HETATM   34  N4  UNL     1      15.531  64.908   5.009  1.00  0.00    -0.057 NA
ENDBRANCH  29  30
ENDBRANCH  27  29
BRANCH  26  35
HETATM   35  C15 UNL     1      10.205  66.151   2.125  1.00  0.00     0.197 C 
HETATM   36  O4  UNL     1       9.787  66.064   0.949  1.00  0.00    -0.646 OA
HETATM   37  O5  UNL     1      10.530  67.423   2.572  1.00  0.00    -0.646 OA
ENDBRANCH  26  35
ENDBRANCH   1  22
TORSDOF 8
ENDMDL
MODEL 3
REMARK VINA RESULT: -8.128556769      2.722      3.895
REMARK  8 active torsions:
REMARK  status: ('A' for Active; 'I' for Inactive)
REMARK    1  A    between atoms: C2_2  and  C4_4 
REMARK       I    between atoms: N1_7  and  C7_8 
REMARK    2  A    between atoms: C7_8  and  C8_10 
REMARK    3  A    between atoms: C8_10  and  C9_13 
REMARK       I    between atoms: C9_13  and  N2_15 
REMARK    4  A    between atoms: C11_17  and  O3_18 
REMARK    5  A    between atoms: O3_18  and  C12_19 
REMARK    6  A    between atoms: C14_25  and  C15_26 
REMARK    7  A    between atoms: C16_29  and  C17_30 
REMARK       I    between atoms: C17_30  and  N5_32 
REMARK    8  A    between atoms: N5_32  and  C18_34 
ROOT
HETATM    1  C8  UNL     1       9.260  64.267   1.635  1.00  0.00     0.401 C 
HETATM    2  F1  UNL     1       9.194  65.671   1.565  1.00  0.00    -0.184 F 
HETATM    3  F2  UNL     1       9.488  63.854   0.363  1.00  0.00    -0.184 F 
ENDROOT
BRANCH   1   4
HETATM    4  C7  UNL     1       7.959  63.778   2.116  1.00  0.00     0.303 C 
HETATM    5  N1  UNL     1       7.637  62.401   2.352  1.00  0.00    -0.333 N 
HETATM    6  C6  UNL     1       8.529  61.320   2.088  1.00  0.00     0.127 C 
HETATM    7  C16 UNL     1       6.407  61.885   2.885  1.00  0.00     0.183 C 
HETATM    8  C5  UNL     1       7.649  60.049   2.122  1.00  0.00     0.027 C 
HETATM    9  C4  UNL     1       6.655  60.449   3.155  1.00  0.00     0.023 C 
HETATM   10  O1  UNL     1       7.051  64.620   2.346  1.00  0.00    -0.266 OA
BRANCH   9  11
HETATM   11  C2  UNL     1       5.464  59.559   3.250  1.00  0.00    -0.016 C 
HETATM   12  C1  UNL     1       5.974  58.120   3.249  1.00  0.00     0.010 C 
HETATM   13  C3  UNL     1       4.399  59.776   2.235  1.00  0.00     0.010 C 
ENDBRANCH   9  11
BRANCH   7  14
HETATM   14  C17 UNL     1       5.990  62.617   4.122  1.00  0.00     0.241 C 
HETATM   15  O6  UNL     1       6.529  62.476   5.228  1.00  0.00    -0.271 OA
HETATM   16  N5  UNL     1       4.909  63.532   4.015  1.00  0.00    -0.351 N 
ATOM     17  H5  UNL     1       4.451  63.674   3.115  1.00  0.00     0.163 HD
BRANCH  16  18
HETATM   18  C18 UNL     1       4.449  64.272   5.189  1.00  0.00     0.022 C 
HETATM   19  C19 UNL     1       5.495  65.232   5.647  1.00  0.00     0.037 C 
HETATM   20  C20 UNL     1       3.228  65.115   4.789  1.00  0.00     0.037 C 
HETATM   21  C21 UNL     1       4.077  63.352   6.323  1.00  0.00     0.037 C 
ENDBRANCH  16  18
ENDBRANCH   7  14
ENDBRANCH   1   4
BRANCH   1  22
HETATM   22  C9  UNL     1      10.363  63.938   2.594  1.00  0.00     0.303 C 
HETATM   23  O2  UNL     1      10.056  63.303   3.632  1.00  0.00    -0.266 OA
HETATM   24  N2  UNL     1      11.691  64.306   2.380  1.00  0.00    -0.329 N 
HETATM   25  C10 UNL     1      12.807  64.045   3.259  1.00  0.00     0.159 C 
HETATM   26  C14 UNL     1      12.196  65.030   1.222  1.00  0.00     0.191 C 
HETATM   27  C11 UNL     1      13.972  64.857   2.815  1.00  0.00     0.152 C 
HETATM   28  C13 UNL     1      13.418  65.771   1.763  1.00  0.00     0.070 C 
BRANCH  27  29
HETATM   29  O3  UNL     1      14.541  65.628   3.854  1.00  0.00    -0.318 OA
BRANCH  29  30
HETATM   30  C12 UNL     1      14.622  65.219   5.165  1.00  0.00     0.225 C 
HETATM   31  N3  UNL     1      13.851  65.814   6.014  1.00  0.00    -0.368 N 
ATOM     32  H32 UNL     1      13.202  66.555   5.752  1.00  0.00     0.159 HD
ATOM     33  H31 UNL     1      13.912  65.511   6.986  1.00  0.00     0.159 HD
HETATM   34  N4  UNL     1      15.519  64.195   5.525  1.00  0.00    -0.057 NA
ENDBRANCH  29  30
ENDBRANCH  27  29
BRANCH  26  35
HETATM   35  C15 UNL     1      12.725  64.097   0.197  1.00  0.00     0.197 C 
HETATM   36  O4  UNL     1      12.495  62.868   0.188  1.00  0.00    -0.646 OA
HETATM   37  O5  UNL     1      13.527  64.584  -0.825  1.00  0.00    -0.646 OA
ENDBRANCH  26  35
ENDBRANCH   1  22
TORSDOF 8
ENDMDL
MODEL 4
REMARK VINA RESULT: -8.065612527      1.876      2.075
REMARK  8 active torsions:
REMARK  status: ('A' for Active; 'I' for Inactive)
REMARK    1  A    between atoms: C2_2  and  C4_4 
REMARK       I    between atoms: N1_7  and  C7_8 
REMARK    2  A    between atoms: C7_8  and  C8_10 
REMARK    3  A    between atoms: C8_10  and  C9_13 
REMARK       I    between atoms: C9_13  and  N2_15 
REMARK    4  A    between atoms: C11_17  and  O3_18 
REMARK    5  A    between atoms: O3_18  and  C12_19 
REMARK    6  A    between atoms: C14_25  and  C15_26 
REMARK    7  A    between atoms: C16_29  and  C17_30 
REMARK       I    between atoms: C17_30  and  N5_32 
REMARK    8  A    between atoms: N5_32  and  C18_34 
ROOT
HETATM    1  C8  UNL     1       8.003  64.685   2.260  1.00  0.00     0.401 C 
HETATM    2  F1  UNL     1       8.238  64.758   3.646  1.00  0.00    -0.184 F 
HETATM    3  F2  UNL     1       7.495  65.895   1.918  1.00  0.00    -0.184 F 
ENDROOT
BRANCH   1   4
HETATM    4  C7  UNL     1       7.016  63.620   2.026  1.00  0.00     0.303 C 
HETATM    5  N1  UNL     1       7.053  62.320   2.630  1.00  0.00    -0.333 N 
HETATM    6  C6  UNL     1       8.097  61.875   3.493  1.00  0.00     0.127 C 
HETATM    7  C16 UNL     1       6.078  61.276   2.484  1.00  0.00     0.183 C 
HETATM    8  C5  UNL     1       7.925  60.341   3.583  1.00  0.00     0.027 C 
HETATM    9  C4  UNL     1       6.444  60.239   3.478  1.00  0.00     0.023 C 
HETATM   10  O1  UNL     1       6.059  63.853   1.241  1.00  0.00    -0.266 OA
BRANCH   9  11
HETATM   11  C2  UNL     1       5.930  58.861   3.244  1.00  0.00    -0.016 C 
HETATM   12  C1  UNL     1       6.930  57.893   3.871  1.00  0.00     0.010 C 
HETATM   13  C3  UNL     1       5.616  58.507   1.834  1.00  0.00     0.010 C 
ENDBRANCH   9  11
BRANCH   7  14
HETATM   14  C17 UNL     1       4.687  61.785   2.701  1.00  0.00     0.241 C 
HETATM   15  O6  UNL     1       4.272  62.235   3.778  1.00  0.00    -0.271 OA
HETATM   16  N5  UNL     1       3.791  61.750   1.600  1.00  0.00    -0.351 N 
ATOM     17  H5  UNL     1       4.107  61.391   0.699  1.00  0.00     0.163 HD
BRANCH  16  18
HETATM   18  C18 UNL     1       2.417  62.225   1.750  1.00  0.00     0.022 C 
HETATM   19  C19 UNL     1       2.399  63.645   2.209  1.00  0.00     0.037 C 
HETATM   20  C20 UNL     1       1.738  62.204   0.372  1.00  0.00     0.037 C 
HETATM   21  C21 UNL     1       1.630  61.373   2.713  1.00  0.00     0.037 C 
ENDBRANCH  16  18
ENDBRANCH   7  14
ENDBRANCH   1   4
BRANCH   1  22
HETATM   22  C9  UNL     1       9.320  64.368   1.620  1.00  0.00     0.303 C 
HETATM   23  O2  UNL     1       9.303  63.671   0.577  1.00  0.00    -0.266 OA
HETATM   24  N2  UNL     1      10.539  64.809   2.133  1.00  0.00    -0.329 N 
HETATM   25  C10 UNL     1      11.849  64.535   1.589  1.00  0.00     0.159 C 
HETATM   26  C14 UNL     1      10.714  65.632   3.322  1.00  0.00     0.191 C 
HETATM   27  C11 UNL     1      12.879  64.926   2.589  1.00  0.00     0.152 C 
HETATM   28  C13 UNL     1      12.101  65.241   3.832  1.00  0.00     0.070 C 
BRANCH  27  29
HETATM   29  O3  UNL     1      13.806  63.895   2.865  1.00  0.00    -0.318 OA
BRANCH  29  30
HETATM   30  C12 UNL     1      14.959  64.067   3.595  1.00  0.00     0.225 C 
HETATM   31  N3  UNL     1      15.842  64.878   3.115  1.00  0.00    -0.368 N 
ATOM     32  H32 UNL     1      15.717  65.382   2.237  1.00  0.00     0.159 HD
ATOM     33  H31 UNL     1      16.697  65.005   3.657  1.00  0.00     0.159 HD
HETATM   34  N4  UNL     1      15.131  63.371   4.807  1.00  0.00    -0.057 NA
ENDBRANCH  29  30
ENDBRANCH  27  29
BRANCH  26  35
HETATM   35  C15 UNL     1      10.818  67.069   2.968  1.00  0.00     0.197 C 
HETATM   36  O4  UNL     1      10.069  67.639   2.143  1.00  0.00    -0.646 OA
HETATM   37  O5  UNL     1      11.790  67.854   3.567  1.00  0.00    -0.646 OA
ENDBRANCH  26  35
ENDBRANCH   1  22
TORSDOF 8
ENDMDL
MODEL 5
REMARK VINA RESULT: -7.843005342      1.401      1.809
REMARK  8 active torsions:
REMARK  status: ('A' for Active; 'I' for Inactive)
REMARK    1  A    between atoms: C2_2  and  C4_4 
REMARK       I    between atoms: N1_7  and  C7_8 
REMARK    2  A    between atoms: C7_8  and  C8_10 
REMARK    3  A    between atoms: C8_10  and  C9_13 
REMARK       I    between atoms: C9_13  and  N2_15 
REMARK    4  A    between atoms: C11_17  and  O3_18 
REMARK    5  A    between atoms: O3_18  and  C12_19 
REMARK    6  A    between atoms: C14_25  and  C15_26 
REMARK    7  A    between atoms: C16_29  and  C17_30 
REMARK       I    between atoms: C17_30  and  N5_32 
REMARK    8  A    between atoms: N5_32  and  C18_34 
ROOT
HETATM    1  C8  UNL     1       8.954  64.583   1.004  1.00  0.00     0.401 C 
HETATM    2  F1  UNL     1       8.473  64.964   2.270  1.00  0.00    -0.184 F 
HETATM    3  F2  UNL     1       8.559  65.568   0.158  1.00  0.00    -0.184 F 
ENDROOT
BRANCH   1   4
HETATM    4  C7  UNL     1       8.319  63.305   0.647  1.00  0.00     0.303 C 
HETATM    5  N1  UNL     1       7.935  62.290   1.584  1.00  0.00    -0.333 N 
HETATM    6  C6  UNL     1       8.182  62.370   2.986  1.00  0.00     0.127 C 
HETATM    7  C16 UNL     1       7.253  61.061   1.288  1.00  0.00     0.183 C 
HETATM    8  C5  UNL     1       7.959  60.936   3.520  1.00  0.00     0.027 C 
HETATM    9  C4  UNL     1       6.881  60.480   2.601  1.00  0.00     0.023 C 
HETATM   10  O1  UNL     1       8.085  63.072  -0.569  1.00  0.00    -0.266 OA
BRANCH   9  11
HETATM   11  C2  UNL     1       6.605  59.017   2.643  1.00  0.00    -0.016 C 
HETATM   12  C1  UNL     1       5.091  58.840   2.552  1.00  0.00     0.010 C 
HETATM   13  C3  UNL     1       7.188  58.271   3.789  1.00  0.00     0.010 C 
ENDBRANCH   9  11
BRANCH   7  14
HETATM   14  C17 UNL     1       6.054  61.288   0.424  1.00  0.00     0.241 C 
HETATM   15  O6  UNL     1       5.037  61.893   0.791  1.00  0.00    -0.271 OA
HETATM   16  N5  UNL     1       6.088  60.780  -0.902  1.00  0.00    -0.351 N 
ATOM     17  H5  UNL     1       6.916  60.284  -1.234  1.00  0.00     0.163 HD
BRANCH  16  18
HETATM   18  C18 UNL     1       4.944  60.963  -1.794  1.00  0.00     0.022 C 
HETATM   19  C19 UNL     1       4.756  62.407  -2.117  1.00  0.00     0.037 C 
HETATM   20  C20 UNL     1       5.243  60.253  -3.124  1.00  0.00     0.037 C 
HETATM   21  C21 UNL     1       3.675  60.409  -1.200  1.00  0.00     0.037 C 
ENDBRANCH  16  18
ENDBRANCH   7  14
ENDBRANCH   1   4
BRANCH   1  22
HETATM   22  C9  UNL     1      10.439  64.444   1.134  1.00  0.00     0.303 C 
HETATM   23  O2  UNL     1      11.036  63.773   0.259  1.00  0.00    -0.266 OA
HETATM   24  N2  UNL     1      11.167  65.021   2.175  1.00  0.00    -0.329 N 
HETATM   25  C10 UNL     1      12.593  64.920   2.383  1.00  0.00     0.159 C 
HETATM   26  C14 UNL     1      10.616  65.832   3.250  1.00  0.00     0.191 C 
HETATM   27  C11 UNL     1      12.918  65.413   3.749  1.00  0.00     0.152 C 
HETATM   28  C13 UNL     1      11.585  65.604   4.409  1.00  0.00     0.070 C 
BRANCH  27  29
HETATM   29  O3  UNL     1      13.688  64.498   4.502  1.00  0.00    -0.318 OA
BRANCH  29  30
HETATM   30  C12 UNL     1      14.690  64.863   5.370  1.00  0.00     0.225 C 
HETATM   31  N3  UNL     1      14.339  65.167   6.576  1.00  0.00    -0.368 N 
ATOM     32  H32 UNL     1      13.371  65.146   6.897  1.00  0.00     0.159 HD
ATOM     33  H31 UNL     1      15.083  65.437   7.220  1.00  0.00     0.159 HD
HETATM   34  N4  UNL     1      16.026  64.892   4.927  1.00  0.00    -0.057 NA
ENDBRANCH  29  30
ENDBRANCH  27  29
BRANCH  26  35
HETATM   35  C15 UNL     1      10.717  67.278   2.935  1.00  0.00     0.197 C 
HETATM   36  O4  UNL     1       9.972  67.868   2.120  1.00  0.00    -0.646 OA
HETATM   37  O5  UNL     1      11.683  68.051   3.560  1.00  0.00    -0.646 OA
ENDBRANCH  26  35
ENDBRANCH   1  22
TORSDOF 8
ENDMDL
