MODEL 1
REMARK VINA RESULT: -4.921066176      0.000      0.000
REMARK  1 active torsions:
REMARK  status: ('A' for Active; 'I' for Inactive)
REMARK       I    between atoms: N1_1  and  C1_5 
REMARK       I    between atoms: C1_5  and  N2_6 
REMARK       I    between atoms: C1_5  and  N3_10 
REMARK    1  A    between atoms: N3_10  and  C2_12 
ROOT
HETATM    1  N1  UNL     1      17.285  11.603  53.477  1.00  0.00    -0.033 N 
ATOM      2  H11 UNL     1      18.009  11.145  52.925  1.00  0.00     0.278 HD
ATOM      3  H12 UNL     1      17.490  11.547  54.475  1.00  0.00     0.278 HD
ATOM      4  H13 UNL     1      17.317  12.616  53.362  1.00  0.00     0.278 HD
HETATM    5  C1  UNL     1      15.965  11.083  53.182  1.00  0.00     0.482 C 
HETATM    6  N2  UNL     1      14.933  11.735  53.969  1.00  0.00    -0.033 N 
ATOM      7  H21 UNL     1      14.004  11.369  53.762  1.00  0.00     0.278 HD
ATOM      8  H22 UNL     1      14.965  12.748  53.854  1.00  0.00     0.278 HD
ATOM      9  H23 UNL     1      15.138  11.679  54.967  1.00  0.00     0.278 HD
HETATM   10  N3  UNL     1      15.871   9.662  53.468  1.00  0.00    -0.321 N 
ATOM     11  H3  UNL     1      15.358   9.311  54.276  1.00  0.00     0.165 HD
ENDROOT
BRANCH  10  12
HETATM   12  C2  UNL     1      16.472   8.863  52.642  1.00  0.00     0.156 A 
HETATM   13  N4  UNL     1      16.094   8.747  51.355  1.00  0.00    -0.288 N 
HETATM   14  C3  UNL     1      16.650   7.958  50.444  1.00  0.00     0.329 A 
ATOM     15  H4  UNL     1      15.306   9.319  51.050  1.00  0.00     0.172 HD
HETATM   16  O1  UNL     1      16.135   8.000  49.271  1.00  0.00    -0.247 OA
HETATM   17  N5  UNL     1      17.677   7.130  50.605  1.00  0.00    -0.269 N 
HETATM   18  C4  UNL     1      18.360   6.930  51.738  1.00  0.00     0.295 A 
ATOM     19  H5  UNL     1      17.972   6.596  49.788  1.00  0.00     0.174 HD
HETATM   20  O2  UNL     1      19.317   6.121  51.781  1.00  0.00    -0.259 OA
HETATM   21  S1  UNL     1      17.794   7.869  53.061  1.00  0.00     0.007 SA
ENDBRANCH  10  12
TORSDOF 1
ENDMDL
MODEL 2
REMARK VINA RESULT: -4.854931542      1.219      1.748
REMARK  1 active torsions:
REMARK  status: ('A' for Active; 'I' for Inactive)
REMARK       I    between atoms: N1_1  and  C1_5 
REMARK       I    between atoms: C1_5  and  N2_6 
REMARK       I    between atoms: C1_5  and  N3_10 
REMARK    1  A    between atoms: N3_10  and  C2_12 
ROOT
HETATM    1  N1  UNL     1      14.075   8.160  54.370  1.00  0.00    -0.033 N 
ATOM      2  H11 UNL     1      14.264   7.429  53.684  1.00  0.00     0.278 HD
ATOM      3  H12 UNL     1      13.326   8.777  54.056  1.00  0.00     0.278 HD
ATOM      4  H13 UNL     1      13.629   7.777  55.204  1.00  0.00     0.278 HD
HETATM    5  C1  UNL     1      15.267   8.910  54.709  1.00  0.00     0.482 C 
HETATM    6  N2  UNL     1      14.997   9.950  55.687  1.00  0.00    -0.033 N 
ATOM      7  H21 UNL     1      15.836  10.479  55.925  1.00  0.00     0.278 HD
ATOM      8  H22 UNL     1      14.552   9.567  56.521  1.00  0.00     0.278 HD
ATOM      9  H23 UNL     1      14.248  10.567  55.372  1.00  0.00     0.278 HD
HETATM   10  N3  UNL     1      15.837   9.568  53.548  1.00  0.00    -0.321 N 
ATOM     11  H3  UNL     1      15.762  10.577  53.412  1.00  0.00     0.165 HD
ENDROOT
BRANCH  10  12
HETATM   12  C2  UNL     1      16.447   8.809  52.691  1.00  0.00     0.156 A 
HETATM   13  N4  UNL     1      16.070   8.741  51.400  1.00  0.00    -0.288 N 
HETATM   14  C3  UNL     1      16.635   7.994  50.459  1.00  0.00     0.329 A 
ATOM     15  H4  UNL     1      15.277   9.317  51.118  1.00  0.00     0.172 HD
HETATM   16  O1  UNL     1      16.120   8.078  49.288  1.00  0.00    -0.247 OA
HETATM   17  N5  UNL     1      17.670   7.170  50.588  1.00  0.00    -0.269 N 
HETATM   18  C4  UNL     1      18.355   6.932  51.712  1.00  0.00     0.295 A 
ATOM     19  H5  UNL     1      17.971   6.673  49.750  1.00  0.00     0.174 HD
HETATM   20  O2  UNL     1      19.320   6.133  51.724  1.00  0.00    -0.259 OA
HETATM   21  S1  UNL     1      17.779   7.812  53.071  1.00  0.00     0.007 SA
ENDBRANCH  10  12
TORSDOF 1
ENDMDL
MODEL 3
REMARK VINA RESULT: -4.849876690      2.039      3.395
REMARK  1 active torsions:
REMARK  status: ('A' for Active; 'I' for Inactive)
REMARK       I    between atoms: N1_1  and  C1_5 
REMARK       I    between atoms: C1_5  and  N2_6 
REMARK       I    between atoms: C1_5  and  N3_10 
REMARK    1  A    between atoms: N3_10  and  C2_12 
ROOT
HETATM    1  N1  UNL     1      15.411   7.226  55.440  1.00  0.00    -0.033 N 
ATOM      2  H11 UNL     1      15.216   6.797  54.535  1.00  0.00     0.278 HD
ATOM      3  H12 UNL     1      14.756   7.982  55.639  1.00  0.00     0.278 HD
ATOM      4  H13 UNL     1      15.171   6.597  56.206  1.00  0.00     0.278 HD
HETATM    5  C1  UNL     1      16.784   7.679  55.543  1.00  0.00     0.482 C 
HETATM    6  N2  UNL     1      17.061   8.289  56.831  1.00  0.00    -0.033 N 
ATOM      7  H21 UNL     1      18.027   8.608  56.904  1.00  0.00     0.278 HD
ATOM      8  H22 UNL     1      16.821   7.661  57.598  1.00  0.00     0.278 HD
ATOM      9  H23 UNL     1      16.406   9.046  57.031  1.00  0.00     0.278 HD
HETATM   10  N3  UNL     1      17.099   8.674  54.534  1.00  0.00    -0.321 N 
ATOM     11  H3  UNL     1      17.209   9.660  54.770  1.00  0.00     0.165 HD
ENDROOT
BRANCH  10  12
HETATM   12  C2  UNL     1      17.234   8.244  53.317  1.00  0.00     0.156 A 
HETATM   13  N4  UNL     1      18.187   7.357  52.973  1.00  0.00    -0.288 N 
HETATM   14  C3  UNL     1      18.396   6.866  51.758  1.00  0.00     0.329 A 
ATOM     15  H4  UNL     1      18.806   7.032  53.715  1.00  0.00     0.172 HD
HETATM   16  O1  UNL     1      19.360   6.029  51.646  1.00  0.00    -0.247 OA
HETATM   17  N5  UNL     1      17.725   7.141  50.644  1.00  0.00    -0.269 N 
HETATM   18  C4  UNL     1      16.688   7.980  50.533  1.00  0.00     0.295 A 
ATOM     19  H5  UNL     1      18.028   6.666  49.794  1.00  0.00     0.174 HD
HETATM   20  O2  UNL     1      16.124   8.167  49.429  1.00  0.00    -0.259 OA
HETATM   21  S1  UNL     1      16.248   8.733  52.013  1.00  0.00     0.007 SA
ENDBRANCH  10  12
TORSDOF 1
ENDMDL
MODEL 4
REMARK VINA RESULT: -4.703921985      1.621      1.793
REMARK  1 active torsions:
REMARK  status: ('A' for Active; 'I' for Inactive)
REMARK       I    between atoms: N1_1  and  C1_5 
REMARK       I    between atoms: C1_5  and  N2_6 
REMARK       I    between atoms: C1_5  and  N3_10 
REMARK    1  A    between atoms: N3_10  and  C2_12 
ROOT
HETATM    1  N1  UNL     1      19.400  12.096  51.620  1.00  0.00    -0.033 N 
ATOM      2  H11 UNL     1      19.624  11.328  50.988  1.00  0.00     0.278 HD
ATOM      3  H12 UNL     1      20.149  12.249  52.296  1.00  0.00     0.278 HD
ATOM      4  H13 UNL     1      19.433  12.994  51.136  1.00  0.00     0.278 HD
HETATM    5  C1  UNL     1      18.126  11.903  52.282  1.00  0.00     0.482 C 
HETATM    6  N2  UNL     1      17.807  12.997  53.181  1.00  0.00    -0.033 N 
ATOM      7  H21 UNL     1      16.910  12.862  53.647  1.00  0.00     0.278 HD
ATOM      8  H22 UNL     1      17.840  13.895  52.697  1.00  0.00     0.278 HD
ATOM      9  H23 UNL     1      18.555  13.151  53.857  1.00  0.00     0.278 HD
HETATM   10  N3  UNL     1      18.113  10.690  53.080  1.00  0.00    -0.321 N 
ATOM     11  H3  UNL     1      18.150  10.719  54.100  1.00  0.00     0.165 HD
ENDROOT
BRANCH  10  12
HETATM   12  C2  UNL     1      18.052   9.569  52.432  1.00  0.00     0.156 A 
HETATM   13  N4  UNL     1      17.132   9.345  51.474  1.00  0.00    -0.288 N 
HETATM   14  C3  UNL     1      16.998   8.231  50.764  1.00  0.00     0.329 A 
ATOM     15  H4  UNL     1      16.477  10.101  51.276  1.00  0.00     0.172 HD
HETATM   16  O1  UNL     1      16.053   8.226  49.898  1.00  0.00    -0.247 OA
HETATM   17  N5  UNL     1      17.727   7.123  50.845  1.00  0.00    -0.269 N 
HETATM   18  C4  UNL     1      18.756   6.913  51.674  1.00  0.00     0.295 A 
ATOM     19  H5  UNL     1      17.478   6.360  50.216  1.00  0.00     0.174 HD
HETATM   20  O2  UNL     1      19.379   5.825  51.668  1.00  0.00    -0.259 OA
HETATM   21  S1  UNL     1      19.103   8.250  52.696  1.00  0.00     0.007 SA
ENDBRANCH  10  12
TORSDOF 1
ENDMDL
MODEL 5
REMARK VINA RESULT: -4.657250777      1.345      1.359
REMARK  1 active torsions:
REMARK  status: ('A' for Active; 'I' for Inactive)
REMARK       I    between atoms: N1_1  and  C1_5 
REMARK       I    between atoms: C1_5  and  N2_6 
REMARK       I    between atoms: C1_5  and  N3_10 
REMARK    1  A    between atoms: N3_10  and  C2_12 
ROOT
HETATM    1  N1  UNL     1      16.818  10.926  54.789  1.00  0.00    -0.033 N 
ATOM      2  H11 UNL     1      17.372  10.963  53.934  1.00  0.00     0.278 HD
ATOM      3  H12 UNL     1      17.411  10.793  55.608  1.00  0.00     0.278 HD
ATOM      4  H13 UNL     1      16.429  11.841  55.018  1.00  0.00     0.278 HD
HETATM    5  C1  UNL     1      15.781   9.916  54.722  1.00  0.00     0.482 C 
HETATM    6  N2  UNL     1      14.991   9.863  55.940  1.00  0.00    -0.033 N 
ATOM      7  H21 UNL     1      14.261   9.153  55.893  1.00  0.00     0.278 HD
ATOM      8  H22 UNL     1      14.602  10.778  56.168  1.00  0.00     0.278 HD
ATOM      9  H23 UNL     1      15.584   9.730  56.759  1.00  0.00     0.278 HD
HETATM   10  N3  UNL     1      16.334   8.588  54.526  1.00  0.00    -0.321 N 
ATOM     11  H3  UNL     1      16.356   7.900  55.280  1.00  0.00     0.165 HD
ENDROOT
BRANCH  10  12
HETATM   12  C2  UNL     1      16.799   8.321  53.346  1.00  0.00     0.156 A 
HETATM   13  N4  UNL     1      16.107   8.595  52.224  1.00  0.00    -0.288 N 
HETATM   14  C3  UNL     1      16.505   8.357  50.981  1.00  0.00     0.329 A 
ATOM     15  H4  UNL     1      15.189   9.026  52.340  1.00  0.00     0.172 HD
HETATM   16  O1  UNL     1      15.690   8.697  50.052  1.00  0.00    -0.247 OA
HETATM   17  N5  UNL     1      17.649   7.807  50.585  1.00  0.00    -0.269 N 
HETATM   18  C4  UNL     1      18.637   7.382  51.380  1.00  0.00     0.295 A 
ATOM     19  H5  UNL     1      17.786   7.700  49.581  1.00  0.00     0.174 HD
HETATM   20  O2  UNL     1      19.680   6.876  50.902  1.00  0.00    -0.259 OA
HETATM   21  S1  UNL     1      18.320   7.602  53.055  1.00  0.00     0.007 SA
ENDBRANCH  10  12
TORSDOF 1
ENDMDL
