MODEL 1
REMARK VINA RESULT: -6.678607274      0.000      0.000
REMARK  5 active torsions:
REMARK  status: ('A' for Active; 'I' for Inactive)
REMARK    1  A    between atoms: N1_1  and  O1_4 
REMARK    2  A    between atoms: O1_4  and  C1_5 
REMARK    3  A    between atoms: C1_5  and  C2_6 
REMARK    4  A    between atoms: C5_15  and  C6_16 
REMARK    5  A    between atoms: C7_23  and  N7_24 
ROOT
HETATM    1  C2  UNL     1      -9.019 -13.152   8.862  1.00  0.00     0.058 A 
HETATM    2  N2  UNL     1      -9.651 -14.055   8.044  1.00  0.00    -0.309 N 
ATOM      3  H2  UNL     1      -9.597 -15.045   8.285  1.00  0.00     0.170 HD
HETATM    4  C3  UNL     1     -10.329 -13.709   6.954  1.00  0.00     0.327 A 
HETATM    5  O2  UNL     1     -10.890 -14.584   6.241  1.00  0.00    -0.247 OA
HETATM    6  N3  UNL     1     -10.404 -12.411   6.629  1.00  0.00    -0.275 N 
ATOM      7  H3  UNL     1     -10.917 -12.121   5.796  1.00  0.00     0.173 HD
HETATM    8  C4  UNL     1      -9.805 -11.498   7.397  1.00  0.00     0.264 A 
HETATM    9  O3  UNL     1      -9.872 -10.288   7.098  1.00  0.00    -0.267 OA
HETATM   10  C5  UNL     1      -9.074 -11.836   8.569  1.00  0.00     0.089 A 
ENDROOT
BRANCH  10  11
HETATM   11  C6  UNL     1      -8.545 -10.780   9.375  1.00  0.00     0.118 A 
HETATM   12  N4  UNL     1      -9.357 -10.029  10.207  1.00  0.00    -0.281 N 
HETATM   13  N5  UNL     1      -8.618  -9.198  10.900  1.00  0.00    -0.240 N 
ATOM     14  H4  UNL     1     -10.371 -10.110  10.272  1.00  0.00     0.188 HD
HETATM   15  N6  UNL     1      -7.353  -9.339  10.592  1.00  0.00    -0.264 N 
ATOM     16  H5  UNL     1      -8.977  -8.533  11.584  1.00  0.00     0.208 HD
HETATM   17  C7  UNL     1      -7.300 -10.339   9.632  1.00  0.00     0.218 A 
ATOM     18  H6  UNL     1      -6.565  -8.818  10.979  1.00  0.00     0.190 HD
BRANCH  17  19
HETATM   19  N7  UNL     1      -6.027 -10.751   9.170  1.00  0.00    -0.094 N 
HETATM   20  O4  UNL     1      -5.716 -10.682   7.971  1.00  0.00    -0.530 OA
HETATM   21  O5  UNL     1      -5.118 -11.280  10.044  1.00  0.00    -0.530 OA
ENDBRANCH  17  19
ENDBRANCH  10  11
BRANCH   1  22
HETATM   22  C1  UNL     1      -8.242 -13.761   9.956  1.00  0.00     0.258 C 
BRANCH  22  23
HETATM   23  O1  UNL     1      -7.369 -14.765   9.480  1.00  0.00    -0.281 OA
BRANCH  23  24
HETATM   24  N1  UNL     1      -6.161 -14.155   9.373  1.00  0.00    -0.311 N 
ATOM     25  H12 UNL     1      -5.433 -14.358   8.689  1.00  0.00     0.184 HD
ATOM     26  H11 UNL     1      -6.150 -13.461  10.121  1.00  0.00     0.184 HD
ENDBRANCH  23  24
ENDBRANCH  22  23
ENDBRANCH   1  22
TORSDOF 5
ENDMDL
MODEL 2
REMARK VINA RESULT: -6.644382730      2.296      5.138
REMARK  5 active torsions:
REMARK  status: ('A' for Active; 'I' for Inactive)
REMARK    1  A    between atoms: N1_1  and  O1_4 
REMARK    2  A    between atoms: O1_4  and  C1_5 
REMARK    3  A    between atoms: C1_5  and  C2_6 
REMARK    4  A    between atoms: C5_15  and  C6_16 
REMARK    5  A    between atoms: C7_23  and  N7_24 
ROOT
HETATM    1  C2  UNL     1      -5.956 -10.893  10.472  1.00  0.00     0.058 A 
HETATM    2  N2  UNL     1      -5.061  -9.980  10.969  1.00  0.00    -0.309 N 
ATOM      3  H2  UNL     1      -4.071 -10.111  10.759  1.00  0.00     0.170 HD
HETATM    4  C3  UNL     1      -5.413  -8.933  11.710  1.00  0.00     0.327 A 
HETATM    5  O2  UNL     1      -4.544  -8.127  12.139  1.00  0.00    -0.247 OA
HETATM    6  N3  UNL     1      -6.711  -8.754  11.992  1.00  0.00    -0.275 N 
ATOM      7  H3  UNL     1      -7.006  -7.959  12.561  1.00  0.00     0.173 HD
HETATM    8  C4  UNL     1      -7.618  -9.617  11.528  1.00  0.00     0.264 A 
HETATM    9  O3  UNL     1      -8.827  -9.453  11.788  1.00  0.00    -0.267 OA
HETATM   10  C5  UNL     1      -7.272 -10.744  10.733  1.00  0.00     0.089 A 
ENDROOT
BRANCH  10  11
HETATM   11  C6  UNL     1      -8.323 -11.560  10.208  1.00  0.00     0.118 A 
HETATM   12  N4  UNL     1      -8.879 -12.588  10.949  1.00  0.00    -0.281 N 
HETATM   13  N5  UNL     1      -9.877 -13.113  10.282  1.00  0.00    -0.240 N 
ATOM     14  H4  UNL     1      -8.562 -12.890  11.870  1.00  0.00     0.188 HD
HETATM   15  N6  UNL     1     -10.037 -12.503   9.134  1.00  0.00    -0.264 N 
ATOM     16  H5  UNL     1     -10.451 -13.889  10.611  1.00  0.00     0.208 HD
HETATM   17  C7  UNL     1      -9.061 -11.519   9.083  1.00  0.00     0.218 A 
ATOM     18  H6  UNL     1     -10.737 -12.710   8.421  1.00  0.00     0.190 HD
BRANCH  17  19
HETATM   19  N7  UNL     1      -9.052 -10.648   7.966  1.00  0.00    -0.094 N 
HETATM   20  O4  UNL     1      -8.004 -10.117   7.565  1.00  0.00    -0.530 OA
HETATM   21  O5  UNL     1     -10.220 -10.340   7.327  1.00  0.00    -0.530 OA
ENDBRANCH  17  19
ENDBRANCH  10  11
BRANCH   1  22
HETATM   22  C1  UNL     1      -5.340 -12.028   9.764  1.00  0.00     0.258 C 
BRANCH  22  23
HETATM   23  O1  UNL     1      -5.647 -12.013   8.386  1.00  0.00    -0.281 OA
BRANCH  23  24
HETATM   24  N1  UNL     1      -4.999 -10.925   7.896  1.00  0.00    -0.311 N 
ATOM     25  H12 UNL     1      -4.090 -10.912   7.434  1.00  0.00     0.184 HD
ATOM     26  H11 UNL     1      -5.619 -10.139   8.092  1.00  0.00     0.184 HD
ENDBRANCH  23  24
ENDBRANCH  22  23
ENDBRANCH   1  22
TORSDOF 5
ENDMDL
MODEL 3
REMARK VINA RESULT: -6.619766898      2.087      3.983
REMARK  5 active torsions:
REMARK  status: ('A' for Active; 'I' for Inactive)
REMARK    1  A    between atoms: N1_1  and  O1_4 
REMARK    2  A    between atoms: O1_4  and  C1_5 
REMARK    3  A    between atoms: C1_5  and  C2_6 
REMARK    4  A    between atoms: C5_15  and  C6_16 
REMARK    5  A    between atoms: C7_23  and  N7_24 
ROOT
HETATM    1  C2  UNL     1      -9.752 -14.415   7.773  1.00  0.00     0.058 A 
HETATM    2  N2  UNL     1     -10.471 -15.565   7.982  1.00  0.00    -0.309 N 
ATOM      3  H2  UNL     1     -10.987 -15.960   7.196  1.00  0.00     0.170 HD
HETATM    4  C3  UNL     1     -10.530 -16.193   9.152  1.00  0.00     0.327 A 
HETATM    5  O2  UNL     1     -11.208 -17.248   9.283  1.00  0.00    -0.247 OA
HETATM    6  N3  UNL     1      -9.856 -15.680  10.191  1.00  0.00    -0.275 N 
ATOM      7  H3  UNL     1      -9.888 -16.142  11.100  1.00  0.00     0.173 HD
HETATM    8  C4  UNL     1      -9.142 -14.563  10.034  1.00  0.00     0.264 A 
HETATM    9  O3  UNL     1      -8.513 -14.082  10.998  1.00  0.00    -0.267 OA
HETATM   10  C5  UNL     1      -9.058 -13.871   8.795  1.00  0.00     0.089 A 
ENDROOT
BRANCH  10  11
HETATM   11  C6  UNL     1      -8.195 -12.733   8.703  1.00  0.00     0.118 A 
HETATM   12  N4  UNL     1      -6.832 -12.873   8.509  1.00  0.00    -0.281 N 
HETATM   13  N5  UNL     1      -6.290 -11.688   8.367  1.00  0.00    -0.240 N 
ATOM     14  H4  UNL     1      -6.328 -13.759   8.481  1.00  0.00     0.188 HD
HETATM   15  N6  UNL     1      -7.201 -10.751   8.449  1.00  0.00    -0.264 N 
ATOM     16  H5  UNL     1      -5.297 -11.519   8.213  1.00  0.00     0.208 HD
HETATM   17  C7  UNL     1      -8.407 -11.405   8.658  1.00  0.00     0.218 A 
ATOM     18  H6  UNL     1      -7.055  -9.745   8.376  1.00  0.00     0.190 HD
BRANCH  17  19
HETATM   19  N7  UNL     1      -9.587 -10.624   8.710  1.00  0.00    -0.094 N 
HETATM   20  O4  UNL     1     -10.096 -10.146   7.684  1.00  0.00    -0.530 OA
HETATM   21  O5  UNL     1     -10.172 -10.344   9.914  1.00  0.00    -0.530 OA
ENDBRANCH  17  19
ENDBRANCH  10  11
BRANCH   1  22
HETATM   22  C1  UNL     1      -9.908 -13.834   6.429  1.00  0.00     0.258 C 
BRANCH  22  23
HETATM   23  O1  UNL     1     -11.176 -13.236   6.262  1.00  0.00    -0.281 OA
BRANCH  23  24
HETATM   24  N1  UNL     1     -10.919 -12.014   5.728  1.00  0.00    -0.311 N 
ATOM     25  H12 UNL     1     -10.010 -11.654   5.436  1.00  0.00     0.184 HD
ATOM     26  H11 UNL     1     -11.826 -11.549   5.686  1.00  0.00     0.184 HD
ENDBRANCH  23  24
ENDBRANCH  22  23
ENDBRANCH   1  22
TORSDOF 5
ENDMDL
MODEL 4
REMARK VINA RESULT: -6.617418360      2.208      4.941
REMARK  5 active torsions:
REMARK  status: ('A' for Active; 'I' for Inactive)
REMARK    1  A    between atoms: N1_1  and  O1_4 
REMARK    2  A    between atoms: O1_4  and  C1_5 
REMARK    3  A    between atoms: C1_5  and  C2_6 
REMARK    4  A    between atoms: C5_15  and  C6_16 
REMARK    5  A    between atoms: C7_23  and  N7_24 
ROOT
HETATM    1  C2  UNL     1      -8.913 -12.241   9.123  1.00  0.00     0.058 A 
HETATM    2  N2  UNL     1      -9.360 -11.070   8.565  1.00  0.00    -0.309 N 
ATOM      3  H2  UNL     1      -9.213 -10.202   9.081  1.00  0.00     0.170 HD
HETATM    4  C3  UNL     1      -9.977 -11.005   7.389  1.00  0.00     0.327 A 
HETATM    5  O2  UNL     1     -10.366  -9.897   6.926  1.00  0.00    -0.247 OA
HETATM    6  N3  UNL     1     -10.177 -12.139   6.705  1.00  0.00    -0.275 N 
ATOM      7  H3  UNL     1     -10.650 -12.115   5.800  1.00  0.00     0.173 HD
HETATM    8  C4  UNL     1      -9.757 -13.302   7.208  1.00  0.00     0.264 A 
HETATM    9  O3  UNL     1      -9.941 -14.361   6.574  1.00  0.00    -0.267 OA
HETATM   10  C5  UNL     1      -9.094 -13.404   8.462  1.00  0.00     0.089 A 
ENDROOT
BRANCH  10  11
HETATM   11  C6  UNL     1      -8.602 -14.682   8.875  1.00  0.00     0.118 A 
HETATM   12  N4  UNL     1      -7.328 -15.109   8.541  1.00  0.00    -0.281 N 
HETATM   13  N5  UNL     1      -7.093 -16.263   9.116  1.00  0.00    -0.240 N 
ATOM     14  H4  UNL     1      -6.676 -14.605   7.941  1.00  0.00     0.188 HD
HETATM   15  N6  UNL     1      -8.126 -16.645   9.823  1.00  0.00    -0.264 N 
ATOM     16  H5  UNL     1      -6.225 -16.790   9.026  1.00  0.00     0.208 HD
HETATM   17  C7  UNL     1      -9.081 -15.649   9.678  1.00  0.00     0.218 A 
ATOM     18  H6  UNL     1      -8.212 -17.502  10.371  1.00  0.00     0.190 HD
BRANCH  17  19
HETATM   19  N7  UNL     1     -10.288 -15.773  10.409  1.00  0.00    -0.094 N 
HETATM   20  O4  UNL     1     -10.813 -14.796  10.966  1.00  0.00    -0.530 OA
HETATM   21  O5  UNL     1     -10.882 -16.996  10.551  1.00  0.00    -0.530 OA
ENDBRANCH  17  19
ENDBRANCH  10  11
BRANCH   1  22
HETATM   22  C1  UNL     1      -8.351 -12.096  10.476  1.00  0.00     0.258 C 
BRANCH  22  23
HETATM   23  O1  UNL     1      -8.383 -10.753  10.914  1.00  0.00    -0.281 OA
BRANCH  23  24
HETATM   24  N1  UNL     1      -8.742 -10.820  12.221  1.00  0.00    -0.311 N 
ATOM     25  H12 UNL     1      -9.499 -11.375  12.620  1.00  0.00     0.184 HD
ATOM     26  H11 UNL     1      -8.093 -10.198  12.704  1.00  0.00     0.184 HD
ENDBRANCH  23  24
ENDBRANCH  22  23
ENDBRANCH   1  22
TORSDOF 5
ENDMDL
MODEL 5
REMARK VINA RESULT: -6.410720937      2.323      3.675
REMARK  5 active torsions:
REMARK  status: ('A' for Active; 'I' for Inactive)
REMARK    1  A    between atoms: N1_1  and  O1_4 
REMARK    2  A    between atoms: O1_4  and  C1_5 
REMARK    3  A    between atoms: C1_5  and  C2_6 
REMARK    4  A    between atoms: C5_15  and  C6_16 
REMARK    5  A    between atoms: C7_23  and  N7_24 
ROOT
HETATM    1  C2  UNL     1      -8.143 -14.751   9.378  1.00  0.00     0.058 A 
HETATM    2  N2  UNL     1      -8.150 -16.124   9.369  1.00  0.00    -0.309 N 
ATOM      3  H2  UNL     1      -7.318 -16.608   9.031  1.00  0.00     0.170 HD
HETATM    4  C3  UNL     1      -9.181 -16.856   9.778  1.00  0.00     0.327 A 
HETATM    5  O2  UNL     1      -9.129 -18.116   9.746  1.00  0.00    -0.247 OA
HETATM    6  N3  UNL     1     -10.279 -16.229  10.222  1.00  0.00    -0.275 N 
ATOM      7  H3  UNL     1     -11.084 -16.769  10.539  1.00  0.00     0.173 HD
HETATM    8  C4  UNL     1     -10.316 -14.895  10.250  1.00  0.00     0.264 A 
HETATM    9  O3  UNL     1     -11.336 -14.306  10.664  1.00  0.00    -0.267 OA
HETATM   10  C5  UNL     1      -9.229 -14.084   9.822  1.00  0.00     0.089 A 
ENDROOT
BRANCH  10  11
HETATM   11  C6  UNL     1      -9.330 -12.666   9.975  1.00  0.00     0.118 A 
HETATM   12  N4  UNL     1      -9.052 -12.046  11.182  1.00  0.00    -0.281 N 
HETATM   13  N5  UNL     1      -9.128 -10.747  11.030  1.00  0.00    -0.240 N 
ATOM     14  H4  UNL     1      -8.825 -12.526  12.052  1.00  0.00     0.188 HD
HETATM   15  N6  UNL     1      -9.436 -10.444   9.794  1.00  0.00    -0.264 N 
ATOM     16  H5  UNL     1      -8.968 -10.066  11.771  1.00  0.00     0.208 HD
HETATM   17  C7  UNL     1      -9.562 -11.651   9.122  1.00  0.00     0.218 A 
ATOM     18  H6  UNL     1      -9.560  -9.510   9.404  1.00  0.00     0.190 HD
BRANCH  17  19
HETATM   19  N7  UNL     1      -9.821 -11.614   7.730  1.00  0.00    -0.094 N 
HETATM   20  O4  UNL     1      -9.922 -12.654   7.061  1.00  0.00    -0.530 OA
HETATM   21  O5  UNL     1      -9.925 -10.415   7.083  1.00  0.00    -0.530 OA
ENDBRANCH  17  19
ENDBRANCH  10  11
BRANCH   1  22
HETATM   22  C1  UNL     1      -6.938 -14.144   8.789  1.00  0.00     0.258 C 
BRANCH  22  23
HETATM   23  O1  UNL     1      -7.018 -14.087   7.379  1.00  0.00    -0.281 OA
BRANCH  23  24
HETATM   24  N1  UNL     1      -5.981 -14.844   6.939  1.00  0.00    -0.311 N 
ATOM     25  H12 UNL     1      -5.013 -14.547   6.824  1.00  0.00     0.184 HD
ATOM     26  H11 UNL     1      -6.386 -15.762   6.754  1.00  0.00     0.184 HD
ENDBRANCH  23  24
ENDBRANCH  22  23
ENDBRANCH   1  22
TORSDOF 5
ENDMDL
