MODEL 1
REMARK VINA RESULT: -6.819539447      0.000      0.000
REMARK  2 active torsions:
REMARK  status: ('A' for Active; 'I' for Inactive)
REMARK    1  A    between atoms: C2_10  and  N3_11 
REMARK    2  A    between atoms: N3_11  and  C3_13 
ROOT
HETATM    1  N1  UNL     1     -14.272   2.471   0.814  1.00  0.00    -0.370 N 
ATOM      2  H11 UNL     1     -13.293   2.401   0.539  1.00  0.00     0.159 HD
ATOM      3  H12 UNL     1     -14.593   1.780   1.492  1.00  0.00     0.159 HD
HETATM    4  C1  UNL     1     -15.031   3.417   0.295  1.00  0.00     0.189 A 
HETATM    5  N2  UNL     1     -16.395   3.514   0.678  1.00  0.00    -0.249 N 
ATOM      6  H2  UNL     1     -16.909   2.927   1.335  1.00  0.00     0.182 HD
HETATM    7  S1  UNL     1     -16.977   4.864  -0.235  1.00  0.00     0.298 S 
HETATM    8  O1  UNL     1     -18.010   4.348  -1.179  1.00  0.00    -0.197 OA
HETATM    9  O2  UNL     1     -17.449   5.977   0.623  1.00  0.00    -0.197 OA
HETATM   10  C2  UNL     1     -15.459   5.204  -1.030  1.00  0.00     0.241 A 
HETATM   11  N6  UNL     1     -14.594   4.359  -0.629  1.00  0.00    -0.302 N 
ATOM     12  H6  UNL     1     -13.632   4.373  -0.967  1.00  0.00     0.171 HD
ENDROOT
BRANCH  10  13
HETATM   13  N3  UNL     1     -15.260   6.245  -1.953  1.00  0.00    -0.164 N 
ATOM     14  H3  UNL     1     -15.062   6.049  -2.934  1.00  0.00     0.186 HD
BRANCH  13  15
HETATM   15  C3  UNL     1     -15.337   7.477  -1.509  1.00  0.00     0.684 A 
HETATM   16  N4  UNL     1     -14.913   7.905  -0.308  1.00  0.00    -0.200 N 
HETATM   17  C4  UNL     1     -15.147   9.221  -0.185  1.00  0.00     0.123 A 
ATOM     18  H4  UNL     1     -14.477   7.317   0.403  1.00  0.00     0.183 HD
HETATM   19  C5  UNL     1     -15.738   9.587  -1.372  1.00  0.00     0.123 A 
HETATM   20  N5  UNL     1     -15.850   8.521  -2.172  1.00  0.00    -0.200 N 
ATOM     21  H5  UNL     1     -16.251   8.507  -3.109  1.00  0.00     0.183 HD
ENDBRANCH  13  15
ENDBRANCH  10  13
TORSDOF 2
ENDMDL
MODEL 2
REMARK VINA RESULT: -6.753505027      1.886      2.220
REMARK  2 active torsions:
REMARK  status: ('A' for Active; 'I' for Inactive)
REMARK    1  A    between atoms: C2_10  and  N3_11 
REMARK    2  A    between atoms: N3_11  and  C3_13 
ROOT
HETATM    1  N1  UNL     1     -14.475   2.892  -4.063  1.00  0.00    -0.370 N 
ATOM      2  H11 UNL     1     -13.731   3.411  -4.530  1.00  0.00     0.159 HD
ATOM      3  H12 UNL     1     -14.772   2.031  -4.524  1.00  0.00     0.159 HD
HETATM    4  C1  UNL     1     -14.985   3.350  -2.936  1.00  0.00     0.189 A 
HETATM    5  N2  UNL     1     -16.020   2.628  -2.288  1.00  0.00    -0.249 N 
ATOM      6  H2  UNL     1     -16.458   1.754  -2.578  1.00  0.00     0.182 HD
HETATM    7  S1  UNL     1     -16.365   3.584  -0.887  1.00  0.00     0.298 S 
HETATM    8  O1  UNL     1     -17.764   4.085  -1.025  1.00  0.00    -0.197 OA
HETATM    9  O2  UNL     1     -16.109   2.859   0.380  1.00  0.00    -0.197 OA
HETATM   10  C2  UNL     1     -15.179   4.821  -1.224  1.00  0.00     0.241 A 
HETATM   11  N6  UNL     1     -14.580   4.523  -2.309  1.00  0.00    -0.302 N 
ATOM     12  H6  UNL     1     -13.843   5.112  -2.696  1.00  0.00     0.171 HD
ENDROOT
BRANCH  10  13
HETATM   13  N3  UNL     1     -14.949   5.946  -0.414  1.00  0.00    -0.164 N 
ATOM     14  H3  UNL     1     -14.607   5.846   0.542  1.00  0.00     0.186 HD
BRANCH  13  15
HETATM   15  C3  UNL     1     -15.189   7.128  -0.929  1.00  0.00     0.684 A 
HETATM   16  N4  UNL     1     -14.534   8.262  -0.626  1.00  0.00    -0.200 N 
HETATM   17  C4  UNL     1     -15.038   9.283  -1.337  1.00  0.00     0.123 A 
ATOM     18  H4  UNL     1     -13.769   8.335   0.045  1.00  0.00     0.183 HD
HETATM   19  C5  UNL     1     -16.038   8.723  -2.098  1.00  0.00     0.123 A 
HETATM   20  N5  UNL     1     -16.124   7.413  -1.844  1.00  0.00    -0.200 N 
ATOM     21  H5  UNL     1     -16.777   6.755  -2.267  1.00  0.00     0.183 HD
ENDBRANCH  13  15
ENDBRANCH  10  13
TORSDOF 2
ENDMDL
MODEL 3
REMARK VINA RESULT: -6.657326962      1.962      2.260
REMARK  2 active torsions:
REMARK  status: ('A' for Active; 'I' for Inactive)
REMARK    1  A    between atoms: C2_10  and  N3_11 
REMARK    2  A    between atoms: N3_11  and  C3_13 
ROOT
HETATM    1  N1  UNL     1     -14.267   2.404   1.028  1.00  0.00    -0.370 N 
ATOM      2  H11 UNL     1     -14.484   2.758   1.959  1.00  0.00     0.159 HD
ATOM      3  H12 UNL     1     -13.700   1.556   0.996  1.00  0.00     0.159 HD
HETATM    4  C1  UNL     1     -14.718   3.040  -0.035  1.00  0.00     0.189 A 
HETATM    5  N2  UNL     1     -14.415   2.547  -1.332  1.00  0.00    -0.249 N 
ATOM      6  H2  UNL     1     -13.868   1.724  -1.582  1.00  0.00     0.182 HD
HETATM    7  S1  UNL     1     -15.195   3.676  -2.387  1.00  0.00     0.298 S 
HETATM    8  O1  UNL     1     -14.126   4.363  -3.168  1.00  0.00    -0.197 OA
HETATM    9  O2  UNL     1     -16.243   3.048  -3.226  1.00  0.00    -0.197 OA
HETATM   10  C2  UNL     1     -15.843   4.683  -1.116  1.00  0.00     0.241 A 
HETATM   11  N6  UNL     1     -15.491   4.195   0.007  1.00  0.00    -0.302 N 
ATOM     12  H6  UNL     1     -15.762   4.628   0.890  1.00  0.00     0.171 HD
ENDROOT
BRANCH  10  13
HETATM   13  N3  UNL     1     -16.620   5.835  -1.331  1.00  0.00    -0.164 N 
ATOM     14  H3  UNL     1     -17.597   5.766  -1.613  1.00  0.00     0.186 HD
BRANCH  13  15
HETATM   15  C3  UNL     1     -16.044   7.000  -1.155  1.00  0.00     0.684 A 
HETATM   16  N4  UNL     1     -16.112   7.747  -0.040  1.00  0.00    -0.200 N 
HETATM   17  C4  UNL     1     -15.408   8.877  -0.205  1.00  0.00     0.123 A 
ATOM     18  H4  UNL     1     -16.623   7.492   0.805  1.00  0.00     0.183 HD
HETATM   19  C5  UNL     1     -14.898   8.792  -1.481  1.00  0.00     0.123 A 
HETATM   20  N5  UNL     1     -15.289   7.648  -2.051  1.00  0.00    -0.200 N 
ATOM     21  H5  UNL     1     -15.057   7.330  -2.991  1.00  0.00     0.183 HD
ENDBRANCH  13  15
ENDBRANCH  10  13
TORSDOF 2
ENDMDL
MODEL 4
REMARK VINA RESULT: -6.639431385      2.189      2.609
REMARK  2 active torsions:
REMARK  status: ('A' for Active; 'I' for Inactive)
REMARK    1  A    between atoms: C2_10  and  N3_11 
REMARK    2  A    between atoms: N3_11  and  C3_13 
ROOT
HETATM    1  N1  UNL     1     -14.618   2.293  -3.931  1.00  0.00    -0.370 N 
ATOM      2  H11 UNL     1     -14.033   2.677  -4.672  1.00  0.00     0.159 HD
ATOM      3  H12 UNL     1     -14.800   1.290  -3.984  1.00  0.00     0.159 HD
HETATM    4  C1  UNL     1     -15.084   3.087  -2.987  1.00  0.00     0.189 A 
HETATM    5  N2  UNL     1     -15.899   2.552  -1.956  1.00  0.00    -0.249 N 
ATOM      6  H2  UNL     1     -16.198   1.585  -1.825  1.00  0.00     0.182 HD
HETATM    7  S1  UNL     1     -16.265   3.928  -0.972  1.00  0.00     0.298 S 
HETATM    8  O1  UNL     1     -17.738   4.151  -1.054  1.00  0.00    -0.197 OA
HETATM    9  O2  UNL     1     -15.753   3.797   0.412  1.00  0.00    -0.197 OA
HETATM   10  C2  UNL     1     -15.365   5.074  -1.935  1.00  0.00     0.241 A 
HETATM   11  N6  UNL     1     -14.836   4.453  -2.914  1.00  0.00    -0.302 N 
ATOM     12  H6  UNL     1     -14.262   4.933  -3.608  1.00  0.00     0.171 HD
ENDROOT
BRANCH  10  13
HETATM   13  N3  UNL     1     -15.260   6.446  -1.648  1.00  0.00    -0.164 N 
ATOM     14  H3  UNL     1     -14.984   7.115  -2.366  1.00  0.00     0.186 HD
BRANCH  13  15
HETATM   15  C3  UNL     1     -15.530   6.835  -0.425  1.00  0.00     0.684 A 
HETATM   16  N4  UNL     1     -16.745   6.824   0.150  1.00  0.00    -0.200 N 
HETATM   17  C4  UNL     1     -16.659   7.289   1.406  1.00  0.00     0.123 A 
ATOM     18  H4  UNL     1     -17.604   6.508  -0.301  1.00  0.00     0.183 HD
HETATM   19  C5  UNL     1     -15.327   7.589   1.580  1.00  0.00     0.123 A 
HETATM   20  N5  UNL     1     -14.648   7.311   0.463  1.00  0.00    -0.200 N 
ATOM     21  H5  UNL     1     -13.647   7.436   0.314  1.00  0.00     0.183 HD
ENDBRANCH  13  15
ENDBRANCH  10  13
TORSDOF 2
ENDMDL
MODEL 5
REMARK VINA RESULT: -6.581250900      2.345      2.731
REMARK  2 active torsions:
REMARK  status: ('A' for Active; 'I' for Inactive)
REMARK    1  A    between atoms: C2_10  and  N3_11 
REMARK    2  A    between atoms: N3_11  and  C3_13 
ROOT
HETATM    1  N1  UNL     1     -15.474   2.617  -3.971  1.00  0.00    -0.370 N 
ATOM      2  H11 UNL     1     -15.521   3.177  -4.822  1.00  0.00     0.159 HD
ATOM      3  H12 UNL     1     -15.194   1.644  -4.096  1.00  0.00     0.159 HD
HETATM    4  C1  UNL     1     -15.767   3.167  -2.809  1.00  0.00     0.189 A 
HETATM    5  N2  UNL     1     -15.701   2.387  -1.625  1.00  0.00    -0.249 N 
ATOM      6  H2  UNL     1     -15.446   1.404  -1.530  1.00  0.00     0.182 HD
HETATM    7  S1  UNL     1     -16.158   3.499  -0.380  1.00  0.00     0.298 S 
HETATM    8  O1  UNL     1     -17.438   3.006   0.207  1.00  0.00    -0.197 OA
HETATM    9  O2  UNL     1     -15.084   3.717   0.617  1.00  0.00    -0.197 OA
HETATM   10  C2  UNL     1     -16.397   4.863  -1.445  1.00  0.00     0.241 A 
HETATM   11  N6  UNL     1     -16.148   4.493  -2.639  1.00  0.00    -0.302 N 
ATOM     12  H6  UNL     1     -16.225   5.135  -3.428  1.00  0.00     0.171 HD
ENDROOT
BRANCH  10  13
HETATM   13  N3  UNL     1     -16.797   6.142  -1.023  1.00  0.00    -0.164 N 
ATOM     14  H3  UNL     1     -17.581   6.622  -1.464  1.00  0.00     0.186 HD
BRANCH  13  15
HETATM   15  C3  UNL     1     -16.127   6.697  -0.041  1.00  0.00     0.684 A 
HETATM   16  N4  UNL     1     -16.433   6.608   1.264  1.00  0.00    -0.200 N 
HETATM   17  C4  UNL     1     -15.537   7.295   1.990  1.00  0.00     0.123 A 
ATOM     18  H4  UNL     1     -17.227   6.094   1.646  1.00  0.00     0.183 HD
HETATM   19  C5  UNL     1     -14.658   7.814   1.067  1.00  0.00     0.123 A 
HETATM   20  N5  UNL     1     -15.024   7.446  -0.165  1.00  0.00    -0.200 N 
ATOM     21  H5  UNL     1     -14.552   7.690  -1.035  1.00  0.00     0.183 HD
ENDBRANCH  13  15
ENDBRANCH  10  13
TORSDOF 2
ENDMDL
