MODEL 1
REMARK VINA RESULT: -8.844986932      0.000      0.000
REMARK  11 active torsions:
REMARK  status: ('A' for Active; 'I' for Inactive)
REMARK    1  A    between atoms: N1_2  and  O3_4 
REMARK    2  A    between atoms: O3_4  and  C1_5 
REMARK    3  A    between atoms: C1_5  and  C2_6 
REMARK    4  A    between atoms: C2_6  and  O4_7 
REMARK    5  A    between atoms: O4_7  and  C3_8 
REMARK    6  A    between atoms: C4_12  and  C5_13 
REMARK    7  A    between atoms: C5_13  and  N3_14 
REMARK    8  A    between atoms: N3_14  and  C6_16 
REMARK    9  A    between atoms: C12_22  and  O5_23 
REMARK   10  A    between atoms: C13_25  and  O6_26 
REMARK   11  A    between atoms: C14_28  and  O7_29 
ROOT
HETATM    1  C3  UNL     1       6.733  14.984  30.273  1.00  0.00     0.353 C 
HETATM    2  N2  UNL     1       6.750  16.074  31.234  1.00  0.00    -0.038 N 
ATOM      3  H21 UNL     1       5.830  16.485  31.392  1.00  0.00     0.281 HD
ATOM      4  H22 UNL     1       7.207  16.914  30.880  1.00  0.00     0.281 HD
HETATM    5  C4  UNL     1       7.359  15.561  32.441  1.00  0.00     0.237 C 
HETATM    6  C12 UNL     1       8.729  15.007  32.239  1.00  0.00     0.181 C 
HETATM    7  C13 UNL     1       8.894  14.173  31.016  1.00  0.00     0.182 C 
HETATM    8  C14 UNL     1       8.197  14.823  29.831  1.00  0.00     0.205 C 
ENDROOT
BRANCH   5   9
HETATM    9  C5  UNL     1       7.365  16.609  33.501  1.00  0.00     0.155 C 
BRANCH   9  10
HETATM   10  N3  UNL     1       7.037  16.060  34.792  1.00  0.00    -0.388 N 
ATOM     11  H3  UNL     1       7.438  15.160  35.056  1.00  0.00     0.159 HD
BRANCH  10  12
HETATM   12  C6  UNL     1       6.177  16.719  35.716  1.00  0.00     0.028 A 
HETATM   13  C7  UNL     1       5.202  17.589  35.279  1.00  0.00     0.029 A 
HETATM   14  C8  UNL     1       4.378  18.218  36.202  1.00  0.00     0.002 A 
HETATM   15  C9  UNL     1       4.483  18.014  37.559  1.00  0.00     0.000 A 
HETATM   16  C10 UNL     1       5.468  17.135  37.991  1.00  0.00     0.002 A 
HETATM   17  C11 UNL     1       6.286  16.511  37.075  1.00  0.00     0.029 A 
ENDBRANCH  10  12
ENDBRANCH   9  10
ENDBRANCH   5   9
BRANCH   6  18
HETATM   18  O5  UNL     1       9.006  14.176  33.348  1.00  0.00    -0.391 OA
ATOM     19  H5  UNL     1       8.970  14.726  34.123  1.00  0.00     0.210 HD
ENDBRANCH   6  18
BRANCH   1  20
HETATM   20  O4  UNL     1       5.897  15.188  29.224  1.00  0.00    -0.355 OA
BRANCH  20  21
HETATM   21  C2  UNL     1       5.076  16.276  29.460  1.00  0.00     0.199 C 
BRANCH  21  22
HETATM   22  C1  UNL     1       5.418  17.504  28.656  1.00  0.00     0.234 C 
BRANCH  22  23
HETATM   23  O3  UNL     1       4.354  17.682  27.727  1.00  0.00    -0.219 OA
BRANCH  23  24
HETATM   24  N1  UNL     1       3.935  18.922  27.311  1.00  0.00     0.004 N 
HETATM   25  O1  UNL     1       2.761  19.268  27.531  1.00  0.00    -0.511 OA
HETATM   26  O2  UNL     1       4.857  19.710  26.667  1.00  0.00    -0.511 OA
ENDBRANCH  23  24
ENDBRANCH  22  23
ENDBRANCH  21  22
ENDBRANCH  20  21
ENDBRANCH   1  20
BRANCH   7  27
HETATM   27  O6  UNL     1      10.243  13.960  30.767  1.00  0.00    -0.390 OA
ATOM     28  H6  UNL     1      10.613  14.712  30.318  1.00  0.00     0.210 HD
ENDBRANCH   7  27
BRANCH   8  29
HETATM   29  O7  UNL     1       8.286  14.078  28.687  1.00  0.00    -0.388 OA
ATOM     30  H7  UNL     1       8.315  13.150  28.885  1.00  0.00     0.210 HD
ENDBRANCH   8  29
TORSDOF 11
ENDMDL
MODEL 2
REMARK VINA RESULT: -8.505934923      1.671      2.073
REMARK  11 active torsions:
REMARK  status: ('A' for Active; 'I' for Inactive)
REMARK    1  A    between atoms: N1_2  and  O3_4 
REMARK    2  A    between atoms: O3_4  and  C1_5 
REMARK    3  A    between atoms: C1_5  and  C2_6 
REMARK    4  A    between atoms: C2_6  and  O4_7 
REMARK    5  A    between atoms: O4_7  and  C3_8 
REMARK    6  A    between atoms: C4_12  and  C5_13 
REMARK    7  A    between atoms: C5_13  and  N3_14 
REMARK    8  A    between atoms: N3_14  and  C6_16 
REMARK    9  A    between atoms: C12_22  and  O5_23 
REMARK   10  A    between atoms: C13_25  and  O6_26 
REMARK   11  A    between atoms: C14_28  and  O7_29 
ROOT
HETATM    1  C3  UNL     1       7.620  14.807  30.383  1.00  0.00     0.353 C 
HETATM    2  N2  UNL     1       7.479  15.895  31.337  1.00  0.00    -0.038 N 
ATOM      3  H21 UNL     1       6.569  16.354  31.292  1.00  0.00     0.281 HD
ATOM      4  H22 UNL     1       8.046  16.710  31.103  1.00  0.00     0.281 HD
HETATM    5  C4  UNL     1       7.779  15.349  32.642  1.00  0.00     0.237 C 
HETATM    6  C12 UNL     1       9.130  14.725  32.741  1.00  0.00     0.181 C 
HETATM    7  C13 UNL     1       9.519  13.884  31.574  1.00  0.00     0.182 C 
HETATM    8  C14 UNL     1       9.135  14.570  30.273  1.00  0.00     0.205 C 
ENDROOT
BRANCH   5   9
HETATM    9  C5  UNL     1       7.605  16.395  33.689  1.00  0.00     0.155 C 
BRANCH   9  10
HETATM   10  N3  UNL     1       6.215  16.586  34.022  1.00  0.00    -0.388 N 
ATOM     11  H3  UNL     1       5.523  16.531  33.275  1.00  0.00     0.159 HD
BRANCH  10  12
HETATM   12  C6  UNL     1       5.767  16.846  35.348  1.00  0.00     0.028 A 
HETATM   13  C7  UNL     1       4.458  17.195  35.597  1.00  0.00     0.029 A 
HETATM   14  C8  UNL     1       4.049  17.444  36.900  1.00  0.00     0.002 A 
HETATM   15  C9  UNL     1       4.898  17.358  37.981  1.00  0.00     0.000 A 
HETATM   16  C10 UNL     1       6.215  17.004  37.720  1.00  0.00     0.002 A 
HETATM   17  C11 UNL     1       6.622  16.757  36.427  1.00  0.00     0.029 A 
ENDBRANCH  10  12
ENDBRANCH   9  10
ENDBRANCH   5   9
BRANCH   6  18
HETATM   18  O5  UNL     1       9.112  13.880  33.874  1.00  0.00    -0.391 OA
ATOM     19  H5  UNL     1       9.108  14.442  34.640  1.00  0.00     0.210 HD
ENDBRANCH   6  18
BRANCH   1  20
HETATM   20  O4  UNL     1       7.048  15.056  29.177  1.00  0.00    -0.355 OA
BRANCH  20  21
HETATM   21  C2  UNL     1       6.841  16.413  29.007  1.00  0.00     0.199 C 
BRANCH  21  22
HETATM   22  C1  UNL     1       5.391  16.826  28.978  1.00  0.00     0.234 C 
BRANCH  22  23
HETATM   23  O3  UNL     1       5.256  17.872  29.934  1.00  0.00    -0.219 OA
BRANCH  23  24
HETATM   24  N1  UNL     1       4.903  17.639  31.240  1.00  0.00     0.004 N 
HETATM   25  O1  UNL     1       4.868  18.594  32.036  1.00  0.00    -0.511 OA
HETATM   26  O2  UNL     1       4.606  16.343  31.587  1.00  0.00    -0.511 OA
ENDBRANCH  23  24
ENDBRANCH  22  23
ENDBRANCH  21  22
ENDBRANCH  20  21
ENDBRANCH   1  20
BRANCH   7  27
HETATM   27  O6  UNL     1      10.876  13.601  31.626  1.00  0.00    -0.390 OA
ATOM     28  H6  UNL     1      11.045  12.748  31.243  1.00  0.00     0.210 HD
ENDBRANCH   7  27
BRANCH   8  29
HETATM   29  O7  UNL     1       9.437  13.823  29.167  1.00  0.00    -0.388 OA
ATOM     30  H7  UNL     1      10.264  13.368  29.278  1.00  0.00     0.210 HD
ENDBRANCH   8  29
TORSDOF 11
ENDMDL
MODEL 3
REMARK VINA RESULT: -8.279354336      1.588      1.647
REMARK  11 active torsions:
REMARK  status: ('A' for Active; 'I' for Inactive)
REMARK    1  A    between atoms: N1_2  and  O3_4 
REMARK    2  A    between atoms: O3_4  and  C1_5 
REMARK    3  A    between atoms: C1_5  and  C2_6 
REMARK    4  A    between atoms: C2_6  and  O4_7 
REMARK    5  A    between atoms: O4_7  and  C3_8 
REMARK    6  A    between atoms: C4_12  and  C5_13 
REMARK    7  A    between atoms: C5_13  and  N3_14 
REMARK    8  A    between atoms: N3_14  and  C6_16 
REMARK    9  A    between atoms: C12_22  and  O5_23 
REMARK   10  A    between atoms: C13_25  and  O6_26 
REMARK   11  A    between atoms: C14_28  and  O7_29 
ROOT
HETATM    1  C3  UNL     1       6.463  14.916  29.928  1.00  0.00     0.353 C 
HETATM    2  N2  UNL     1       6.850  16.016  30.796  1.00  0.00    -0.038 N 
ATOM      3  H21 UNL     1       6.059  16.579  31.109  1.00  0.00     0.281 HD
ATOM      4  H22 UNL     1       7.350  16.757  30.306  1.00  0.00     0.281 HD
HETATM    5  C4  UNL     1       7.607  15.443  31.887  1.00  0.00     0.237 C 
HETATM    6  C12 UNL     1       8.802  14.664  31.450  1.00  0.00     0.181 C 
HETATM    7  C13 UNL     1       8.577  13.780  30.272  1.00  0.00     0.182 C 
HETATM    8  C14 UNL     1       7.760  14.502  29.213  1.00  0.00     0.205 C 
ENDROOT
BRANCH   5   9
HETATM    9  C5  UNL     1       7.998  16.506  32.856  1.00  0.00     0.155 C 
BRANCH   9  10
HETATM   10  N3  UNL     1       7.244  16.409  34.081  1.00  0.00    -0.388 N 
ATOM     11  H3  UNL     1       7.752  16.365  34.964  1.00  0.00     0.159 HD
BRANCH  10  12
HETATM   12  C6  UNL     1       5.821  16.374  34.112  1.00  0.00     0.028 A 
HETATM   13  C7  UNL     1       5.077  17.461  33.712  1.00  0.00     0.029 A 
HETATM   14  C8  UNL     1       3.691  17.399  33.753  1.00  0.00     0.002 A 
HETATM   15  C9  UNL     1       3.005  16.285  34.181  1.00  0.00     0.000 A 
HETATM   16  C10 UNL     1       3.763  15.193  34.582  1.00  0.00     0.002 A 
HETATM   17  C11 UNL     1       5.139  15.255  34.541  1.00  0.00     0.029 A 
ENDBRANCH  10  12
ENDBRANCH   9  10
ENDBRANCH   5   9
BRANCH   6  18
HETATM   18  O5  UNL     1       9.169  13.831  32.531  1.00  0.00    -0.391 OA
ATOM     19  H5  UNL     1       8.886  12.950  32.312  1.00  0.00     0.210 HD
ENDBRANCH   6  18
BRANCH   1  20
HETATM   20  O4  UNL     1       5.470  15.226  29.057  1.00  0.00    -0.355 OA
BRANCH  20  21
HETATM   21  C2  UNL     1       4.877  16.427  29.402  1.00  0.00     0.199 C 
BRANCH  21  22
HETATM   22  C1  UNL     1       5.296  17.599  28.552  1.00  0.00     0.234 C 
BRANCH  22  23
HETATM   23  O3  UNL     1       4.241  17.813  27.620  1.00  0.00    -0.219 OA
BRANCH  23  24
HETATM   24  N1  UNL     1       3.835  19.068  27.238  1.00  0.00     0.004 N 
HETATM   25  O1  UNL     1       2.661  19.415  27.456  1.00  0.00    -0.511 OA
HETATM   26  O2  UNL     1       4.769  19.871  26.631  1.00  0.00    -0.511 OA
ENDBRANCH  23  24
ENDBRANCH  22  23
ENDBRANCH  21  22
ENDBRANCH  20  21
ENDBRANCH   1  20
BRANCH   7  27
HETATM   27  O6  UNL     1       9.794  13.338  29.773  1.00  0.00    -0.390 OA
ATOM     28  H6  UNL     1       9.651  12.681  29.101  1.00  0.00     0.210 HD
ENDBRANCH   7  27
BRANCH   8  29
HETATM   29  O7  UNL     1       7.492  13.720  28.123  1.00  0.00    -0.388 OA
ATOM     30  H7  UNL     1       8.277  13.284  27.815  1.00  0.00     0.210 HD
ENDBRANCH   8  29
TORSDOF 11
ENDMDL
MODEL 4
REMARK VINA RESULT: -8.205844370      1.210      1.829
REMARK  11 active torsions:
REMARK  status: ('A' for Active; 'I' for Inactive)
REMARK    1  A    between atoms: N1_2  and  O3_4 
REMARK    2  A    between atoms: O3_4  and  C1_5 
REMARK    3  A    between atoms: C1_5  and  C2_6 
REMARK    4  A    between atoms: C2_6  and  O4_7 
REMARK    5  A    between atoms: O4_7  and  C3_8 
REMARK    6  A    between atoms: C4_12  and  C5_13 
REMARK    7  A    between atoms: C5_13  and  N3_14 
REMARK    8  A    between atoms: N3_14  and  C6_16 
REMARK    9  A    between atoms: C12_22  and  O5_23 
REMARK   10  A    between atoms: C13_25  and  O6_26 
REMARK   11  A    between atoms: C14_28  and  O7_29 
ROOT
HETATM    1  C3  UNL     1       6.494  15.454  30.473  1.00  0.00     0.353 C 
HETATM    2  N2  UNL     1       5.521  16.045  31.376  1.00  0.00    -0.038 N 
ATOM      3  H21 UNL     1       4.556  15.831  31.122  1.00  0.00     0.281 HD
ATOM      4  H22 UNL     1       5.455  17.059  31.288  1.00  0.00     0.281 HD
HETATM    5  C4  UNL     1       5.868  15.610  32.711  1.00  0.00     0.237 C 
HETATM    6  C12 UNL     1       7.257  15.966  33.120  1.00  0.00     0.181 C 
HETATM    7  C13 UNL     1       8.294  15.753  32.071  1.00  0.00     0.182 C 
HETATM    8  C14 UNL     1       7.792  16.240  30.721  1.00  0.00     0.205 C 
ENDROOT
BRANCH   5   9
HETATM    9  C5  UNL     1       4.879  16.134  33.696  1.00  0.00     0.155 C 
BRANCH   9  10
HETATM   10  N3  UNL     1       5.413  17.244  34.444  1.00  0.00    -0.388 N 
ATOM     11  H3  UNL     1       5.975  17.939  33.952  1.00  0.00     0.159 HD
BRANCH  10  12
HETATM   12  C6  UNL     1       5.190  17.414  35.840  1.00  0.00     0.028 A 
HETATM   13  C7  UNL     1       5.881  16.661  36.763  1.00  0.00     0.029 A 
HETATM   14  C8  UNL     1       5.642  16.847  38.119  1.00  0.00     0.002 A 
HETATM   15  C9  UNL     1       4.735  17.764  38.599  1.00  0.00     0.000 A 
HETATM   16  C10 UNL     1       4.044  18.519  37.661  1.00  0.00     0.002 A 
HETATM   17  C11 UNL     1       4.280  18.334  36.316  1.00  0.00     0.029 A 
ENDBRANCH  10  12
ENDBRANCH   9  10
ENDBRANCH   5   9
BRANCH   6  18
HETATM   18  O5  UNL     1       7.593  15.131  34.210  1.00  0.00    -0.391 OA
ATOM     19  H5  UNL     1       7.525  14.234  33.904  1.00  0.00     0.210 HD
ENDBRANCH   6  18
BRANCH   1  20
HETATM   20  O4  UNL     1       6.120  15.475  29.169  1.00  0.00    -0.355 OA
BRANCH  20  21
HETATM   21  C2  UNL     1       4.965  16.219  29.006  1.00  0.00     0.199 C 
BRANCH  21  22
HETATM   22  C1  UNL     1       5.194  17.639  28.556  1.00  0.00     0.234 C 
BRANCH  22  23
HETATM   23  O3  UNL     1       4.238  17.890  27.531  1.00  0.00    -0.219 OA
BRANCH  23  24
HETATM   24  N1  UNL     1       3.869  19.160  27.159  1.00  0.00     0.004 N 
HETATM   25  O1  UNL     1       4.705  19.895  26.605  1.00  0.00    -0.511 OA
HETATM   26  O2  UNL     1       2.576  19.540  27.429  1.00  0.00    -0.511 OA
ENDBRANCH  23  24
ENDBRANCH  22  23
ENDBRANCH  21  22
ENDBRANCH  20  21
ENDBRANCH   1  20
BRANCH   7  27
HETATM   27  O6  UNL     1       9.476  16.379  32.439  1.00  0.00    -0.390 OA
ATOM     28  H6  UNL     1       9.309  17.292  32.646  1.00  0.00     0.210 HD
ENDBRANCH   7  27
BRANCH   8  29
HETATM   29  O7  UNL     1       8.693  16.034  29.712  1.00  0.00    -0.388 OA
ATOM     30  H7  UNL     1       9.584  16.072  30.038  1.00  0.00     0.210 HD
ENDBRANCH   8  29
TORSDOF 11
ENDMDL
MODEL 5
REMARK VINA RESULT: -8.205636355      2.569      5.443
REMARK  11 active torsions:
REMARK  status: ('A' for Active; 'I' for Inactive)
REMARK    1  A    between atoms: N1_2  and  O3_4 
REMARK    2  A    between atoms: O3_4  and  C1_5 
REMARK    3  A    between atoms: C1_5  and  C2_6 
REMARK    4  A    between atoms: C2_6  and  O4_7 
REMARK    5  A    between atoms: O4_7  and  C3_8 
REMARK    6  A    between atoms: C4_12  and  C5_13 
REMARK    7  A    between atoms: C5_13  and  N3_14 
REMARK    8  A    between atoms: N3_14  and  C6_16 
REMARK    9  A    between atoms: C12_22  and  O5_23 
REMARK   10  A    between atoms: C13_25  and  O6_26 
REMARK   11  A    between atoms: C14_28  and  O7_29 
ROOT
HETATM    1  C3  UNL     1       5.223  17.310  32.508  1.00  0.00     0.353 C 
HETATM    2  N2  UNL     1       6.202  16.238  32.428  1.00  0.00    -0.038 N 
ATOM      3  H21 UNL     1       6.802  16.301  31.606  1.00  0.00     0.281 HD
ATOM      4  H22 UNL     1       5.787  15.331  32.216  1.00  0.00     0.281 HD
HETATM    5  C4  UNL     1       6.938  16.249  33.673  1.00  0.00     0.237 C 
HETATM    6  C12 UNL     1       6.081  16.100  34.884  1.00  0.00     0.181 C 
HETATM    7  C13 UNL     1       4.820  16.893  34.862  1.00  0.00     0.182 C 
HETATM    8  C14 UNL     1       4.160  16.803  33.495  1.00  0.00     0.205 C 
ENDROOT
BRANCH   5   9
HETATM    9  C5  UNL     1       8.003  15.207  33.650  1.00  0.00     0.155 C 
BRANCH   9  10
HETATM   10  N3  UNL     1       9.006  15.495  32.656  1.00  0.00    -0.388 N 
ATOM     11  H3  UNL     1       9.851  15.989  32.944  1.00  0.00     0.159 HD
BRANCH  10  12
HETATM   12  C6  UNL     1       8.869  15.121  31.289  1.00  0.00     0.028 A 
HETATM   13  C7  UNL     1       8.940  13.800  30.906  1.00  0.00     0.029 A 
HETATM   14  C8  UNL     1       8.804  13.465  29.566  1.00  0.00     0.002 A 
HETATM   15  C9  UNL     1       8.597  14.401  28.578  1.00  0.00     0.000 A 
HETATM   16  C10 UNL     1       8.526  15.729  28.973  1.00  0.00     0.002 A 
HETATM   17  C11 UNL     1       8.661  16.063  30.303  1.00  0.00     0.029 A 
ENDBRANCH  10  12
ENDBRANCH   9  10
ENDBRANCH   5   9
BRANCH   6  18
HETATM   18  O5  UNL     1       6.839  16.557  35.986  1.00  0.00    -0.391 OA
ATOM     19  H5  UNL     1       6.226  16.927  36.611  1.00  0.00     0.210 HD
ENDBRANCH   6  18
BRANCH   1  20
HETATM   20  O4  UNL     1       4.691  17.658  31.309  1.00  0.00    -0.355 OA
BRANCH  20  21
HETATM   21  C2  UNL     1       5.023  16.729  30.340  1.00  0.00     0.199 C 
BRANCH  21  22
HETATM   22  C1  UNL     1       5.337  17.320  28.989  1.00  0.00     0.234 C 
BRANCH  22  23
HETATM   23  O3  UNL     1       4.679  18.581  28.943  1.00  0.00    -0.219 OA
BRANCH  23  24
HETATM   24  N1  UNL     1       4.259  19.155  27.768  1.00  0.00     0.004 N 
HETATM   25  O1  UNL     1       5.107  19.623  26.988  1.00  0.00    -0.511 OA
HETATM   26  O2  UNL     1       2.907  19.173  27.528  1.00  0.00    -0.511 OA
ENDBRANCH  23  24
ENDBRANCH  22  23
ENDBRANCH  21  22
ENDBRANCH  20  21
ENDBRANCH   1  20
BRANCH   7  27
HETATM   27  O6  UNL     1       3.973  16.463  35.873  1.00  0.00    -0.390 OA
ATOM     28  H6  UNL     1       3.327  17.134  36.063  1.00  0.00     0.210 HD
ENDBRANCH   7  27
BRANCH   8  29
HETATM   29  O7  UNL     1       3.014  17.545  33.408  1.00  0.00    -0.388 OA
ATOM     30  H7  UNL     1       2.445  17.216  32.723  1.00  0.00     0.210 HD
ENDBRANCH   8  29
TORSDOF 11
ENDMDL
