MODEL 1
REMARK VINA RESULT: -9.567183306      0.000      0.000
REMARK  9 active torsions:
REMARK  status: ('A' for Active; 'I' for Inactive)
REMARK    1  A    between atoms: C1_4  and  C2_5 
REMARK    2  A    between atoms: C1_4  and  N6_20 
REMARK    3  A    between atoms: C2_5  and  C3_6 
REMARK    4  A    between atoms: C3_6  and  N2_7 
REMARK    5  A    between atoms: C5_12  and  N4_13 
REMARK    6  A    between atoms: N6_20  and  N7_22 
REMARK    7  A    between atoms: N7_22  and  N8_23 
REMARK    8  A    between atoms: N8_23  and  C7_25 
REMARK    9  A    between atoms: C10_28  and  N9_29 
ROOT
HETATM    1  N1  UNL     1       4.589  17.275  28.626  1.00  0.00    -0.388 N 
ATOM      2  H11 UNL     1       4.156  18.198  28.653  1.00  0.00     0.157 HD
ATOM      3  H12 UNL     1       4.319  16.644  27.872  1.00  0.00     0.157 HD
HETATM    4  C1  UNL     1       5.448  16.956  29.537  1.00  0.00     0.089 C 
ENDROOT
BRANCH   4   5
HETATM    5  C2  UNL     1       6.080  15.608  29.497  1.00  0.00     0.097 C 
BRANCH   5   6
HETATM    6  C3  UNL     1       7.575  15.834  29.287  1.00  0.00     0.146 C 
BRANCH   6   7
HETATM    7  N2  UNL     1       8.369  15.119  30.253  1.00  0.00    -0.250 N 
HETATM    8  C4  UNL     1       8.698  15.699  31.414  1.00  0.00     0.344 A 
HETATM    9  O1  UNL     1       8.310  16.865  31.650  1.00  0.00    -0.246 OA
HETATM   10  N3  UNL     1       9.429  15.046  32.307  1.00  0.00    -0.141 N 
HETATM   11  C5  UNL     1       9.842  13.791  32.041  1.00  0.00     0.683 A 
ATOM     12  H3  UNL     1       9.678  15.491  33.191  1.00  0.00     0.189 HD
HETATM   13  N5  UNL     1       9.518  13.200  30.880  1.00  0.00    -0.141 N 
HETATM   14  C6  UNL     1       8.773  13.870  29.972  1.00  0.00     0.344 A 
ATOM     15  H5  UNL     1       9.834  12.251  30.683  1.00  0.00     0.189 HD
HETATM   16  O2  UNL     1       8.457  13.352  28.892  1.00  0.00    -0.246 OA
BRANCH  11  17
HETATM   17  N4  UNL     1      10.551  13.162  32.912  1.00  0.00    -0.234 N 
ATOM     18  H42 UNL     1      10.580  13.484  33.879  1.00  0.00     0.174 HD
ATOM     19  H41 UNL     1      11.082  12.340  32.624  1.00  0.00     0.174 HD
ENDBRANCH  11  17
ENDBRANCH   6   7
ENDBRANCH   5   6
ENDBRANCH   4   5
BRANCH   4  20
HETATM   20  N6  UNL     1       5.823  17.833  30.584  1.00  0.00    -0.273 N 
ATOM     21  H6  UNL     1       6.772  18.207  30.598  1.00  0.00     0.185 HD
BRANCH  20  22
HETATM   22  N7  UNL     1       4.932  18.204  31.602  1.00  0.00    -0.021 NA
BRANCH  22  23
HETATM   23  N8  UNL     1       4.610  17.087  32.365  1.00  0.00    -0.284 N 
ATOM     24  H8  UNL     1       4.027  16.352  31.967  1.00  0.00     0.184 HD
BRANCH  23  25
HETATM   25  C7  UNL     1       5.093  16.966  33.704  1.00  0.00     0.046 A 
HETATM   26  C8  UNL     1       4.687  17.811  34.712  1.00  0.00     0.033 A 
HETATM   27  C9  UNL     1       5.165  17.678  36.000  1.00  0.00     0.038 A 
HETATM   28  C10 UNL     1       6.071  16.687  36.333  1.00  0.00     0.103 A 
HETATM   29  C11 UNL     1       6.471  15.846  35.317  1.00  0.00     0.038 A 
HETATM   30  C12 UNL     1       5.996  15.974  34.023  1.00  0.00     0.033 A 
BRANCH  28  31
HETATM   31  N9  UNL     1       6.555  16.560  37.662  1.00  0.00    -0.116 N 
HETATM   32  O3  UNL     1       7.766  16.712  37.894  1.00  0.00    -0.532 OA
HETATM   33  O4  UNL     1       5.727  16.272  38.714  1.00  0.00    -0.532 OA
ENDBRANCH  28  31
ENDBRANCH  23  25
ENDBRANCH  22  23
ENDBRANCH  20  22
ENDBRANCH   4  20
TORSDOF 9
ENDMDL
MODEL 2
REMARK VINA RESULT: -9.559440527      0.054      1.832
REMARK  9 active torsions:
REMARK  status: ('A' for Active; 'I' for Inactive)
REMARK    1  A    between atoms: C1_4  and  C2_5 
REMARK    2  A    between atoms: C1_4  and  N6_20 
REMARK    3  A    between atoms: C2_5  and  C3_6 
REMARK    4  A    between atoms: C3_6  and  N2_7 
REMARK    5  A    between atoms: C5_12  and  N4_13 
REMARK    6  A    between atoms: N6_20  and  N7_22 
REMARK    7  A    between atoms: N7_22  and  N8_23 
REMARK    8  A    between atoms: N8_23  and  C7_25 
REMARK    9  A    between atoms: C10_28  and  N9_29 
ROOT
HETATM    1  N1  UNL     1       4.583  17.284  28.615  1.00  0.00    -0.388 N 
ATOM      2  H11 UNL     1       4.154  18.209  28.642  1.00  0.00     0.157 HD
ATOM      3  H12 UNL     1       4.312  16.656  27.859  1.00  0.00     0.157 HD
HETATM    4  C1  UNL     1       5.437  16.960  29.528  1.00  0.00     0.089 C 
ENDROOT
BRANCH   4   5
HETATM    5  C2  UNL     1       6.064  15.609  29.487  1.00  0.00     0.097 C 
BRANCH   5   6
HETATM    6  C3  UNL     1       7.557  15.826  29.257  1.00  0.00     0.146 C 
BRANCH   6   7
HETATM    7  N2  UNL     1       8.360  15.108  30.212  1.00  0.00    -0.250 N 
HETATM    8  C4  UNL     1       8.748  13.852  29.956  1.00  0.00     0.344 A 
HETATM    9  O1  UNL     1       8.405  13.311  28.882  1.00  0.00    -0.246 OA
HETATM   10  N3  UNL     1       9.488  13.186  30.832  1.00  0.00    -0.141 N 
HETATM   11  C5  UNL     1       9.850  13.780  31.986  1.00  0.00     0.683 A 
ATOM     12  H3  UNL     1       9.781  12.230  30.634  1.00  0.00     0.189 HD
HETATM   13  N5  UNL     1       9.467  15.039  32.253  1.00  0.00    -0.141 N 
HETATM   14  C6  UNL     1       8.713  15.714  31.357  1.00  0.00     0.344 A 
ATOM     15  H5  UNL     1       9.743  15.483  33.129  1.00  0.00     0.189 HD
HETATM   16  O2  UNL     1       8.343  16.877  31.574  1.00  0.00    -0.246 OA
BRANCH  11  17
HETATM   17  N4  UNL     1      10.569  13.129  32.833  1.00  0.00    -0.234 N 
ATOM     18  H42 UNL     1      11.311  12.511  32.507  1.00  0.00     0.174 HD
ATOM     19  H41 UNL     1      10.388  13.240  33.830  1.00  0.00     0.174 HD
ENDBRANCH  11  17
ENDBRANCH   6   7
ENDBRANCH   5   6
ENDBRANCH   4   5
BRANCH   4  20
HETATM   20  N6  UNL     1       5.813  17.833  30.578  1.00  0.00    -0.273 N 
ATOM     21  H6  UNL     1       6.757  18.221  30.583  1.00  0.00     0.185 HD
BRANCH  20  22
HETATM   22  N7  UNL     1       4.931  18.183  31.610  1.00  0.00    -0.021 NA
BRANCH  22  23
HETATM   23  N8  UNL     1       4.627  17.054  32.362  1.00  0.00    -0.284 N 
ATOM     24  H8  UNL     1       4.049  16.316  31.960  1.00  0.00     0.184 HD
BRANCH  23  25
HETATM   25  C7  UNL     1       5.122  16.921  33.696  1.00  0.00     0.046 A 
HETATM   26  C8  UNL     1       6.080  15.994  34.037  1.00  0.00     0.033 A 
HETATM   27  C9  UNL     1       6.546  15.881  35.331  1.00  0.00     0.038 A 
HETATM   28  C10 UNL     1       6.069  16.698  36.341  1.00  0.00     0.103 A 
HETATM   29  C11 UNL     1       5.110  17.623  35.990  1.00  0.00     0.038 A 
HETATM   30  C12 UNL     1       4.638  17.742  34.694  1.00  0.00     0.033 A 
BRANCH  28  31
HETATM   31  N9  UNL     1       6.556  16.572  37.669  1.00  0.00    -0.116 N 
HETATM   32  O3  UNL     1       7.765  16.735  37.901  1.00  0.00    -0.532 OA
HETATM   33  O4  UNL     1       5.731  16.275  38.722  1.00  0.00    -0.532 OA
ENDBRANCH  28  31
ENDBRANCH  23  25
ENDBRANCH  22  23
ENDBRANCH  20  22
ENDBRANCH   4  20
TORSDOF 9
ENDMDL
MODEL 3
REMARK VINA RESULT: -9.416550528      0.924      1.053
REMARK  9 active torsions:
REMARK  status: ('A' for Active; 'I' for Inactive)
REMARK    1  A    between atoms: C1_4  and  C2_5 
REMARK    2  A    between atoms: C1_4  and  N6_20 
REMARK    3  A    between atoms: C2_5  and  C3_6 
REMARK    4  A    between atoms: C3_6  and  N2_7 
REMARK    5  A    between atoms: C5_12  and  N4_13 
REMARK    6  A    between atoms: N6_20  and  N7_22 
REMARK    7  A    between atoms: N7_22  and  N8_23 
REMARK    8  A    between atoms: N8_23  and  C7_25 
REMARK    9  A    between atoms: C10_28  and  N9_29 
ROOT
HETATM    1  N1  UNL     1       5.179  18.297  28.899  1.00  0.00    -0.388 N 
ATOM      2  H11 UNL     1       4.396  18.893  29.169  1.00  0.00     0.157 HD
ATOM      3  H12 UNL     1       5.575  18.422  27.967  1.00  0.00     0.157 HD
HETATM    4  C1  UNL     1       5.625  17.424  29.741  1.00  0.00     0.089 C 
ENDROOT
BRANCH   4   5
HETATM    5  C2  UNL     1       6.768  16.554  29.348  1.00  0.00     0.097 C 
BRANCH   5   6
HETATM    6  C3  UNL     1       6.527  15.195  29.999  1.00  0.00     0.146 C 
BRANCH   6   7
HETATM    7  N2  UNL     1       7.720  14.672  30.613  1.00  0.00    -0.250 N 
HETATM    8  C4  UNL     1       8.097  15.100  31.824  1.00  0.00     0.344 A 
HETATM    9  O1  UNL     1       7.403  15.957  32.415  1.00  0.00    -0.246 OA
HETATM   10  N3  UNL     1       9.194  14.622  32.394  1.00  0.00    -0.141 N 
HETATM   11  C5  UNL     1       9.933  13.699  31.747  1.00  0.00     0.683 A 
ATOM     12  H3  UNL     1       9.478  14.950  33.318  1.00  0.00     0.189 HD
HETATM   13  N5  UNL     1       9.565  13.263  30.532  1.00  0.00    -0.141 N 
HETATM   14  C6  UNL     1       8.445  13.754  29.955  1.00  0.00     0.344 A 
ATOM     15  H5  UNL     1      10.128  12.565  30.046  1.00  0.00     0.189 HD
HETATM   16  O2  UNL     1       8.079  13.371  28.834  1.00  0.00    -0.246 OA
BRANCH  11  17
HETATM   17  N4  UNL     1      10.997  13.238  32.305  1.00  0.00    -0.234 N 
ATOM     18  H42 UNL     1      10.958  12.865  33.253  1.00  0.00     0.174 HD
ATOM     19  H41 UNL     1      11.877  13.250  31.790  1.00  0.00     0.174 HD
ENDBRANCH  11  17
ENDBRANCH   6   7
ENDBRANCH   5   6
ENDBRANCH   4   5
BRANCH   4  20
HETATM   20  N6  UNL     1       5.075  17.251  31.035  1.00  0.00    -0.273 N 
ATOM     21  H6  UNL     1       4.681  16.344  31.286  1.00  0.00     0.185 HD
BRANCH  20  22
HETATM   22  N7  UNL     1       5.055  18.285  31.982  1.00  0.00    -0.021 NA
BRANCH  22  23
HETATM   23  N8  UNL     1       4.139  17.979  32.983  1.00  0.00    -0.284 N 
ATOM     24  H8  UNL     1       3.140  18.069  32.801  1.00  0.00     0.184 HD
BRANCH  23  25
HETATM   25  C7  UNL     1       4.591  17.537  34.264  1.00  0.00     0.046 A 
HETATM   26  C8  UNL     1       4.712  18.392  35.336  1.00  0.00     0.033 A 
HETATM   27  C9  UNL     1       5.151  17.948  36.567  1.00  0.00     0.038 A 
HETATM   28  C10 UNL     1       5.486  16.621  36.775  1.00  0.00     0.103 A 
HETATM   29  C11 UNL     1       5.361  15.773  35.696  1.00  0.00     0.038 A 
HETATM   30  C12 UNL     1       4.922  16.213  34.459  1.00  0.00     0.033 A 
BRANCH  28  31
HETATM   31  N9  UNL     1       5.936  16.175  38.046  1.00  0.00    -0.116 N 
HETATM   32  O3  UNL     1       5.623  16.808  39.068  1.00  0.00    -0.532 OA
HETATM   33  O4  UNL     1       6.714  15.057  38.191  1.00  0.00    -0.532 OA
ENDBRANCH  28  31
ENDBRANCH  23  25
ENDBRANCH  22  23
ENDBRANCH  20  22
ENDBRANCH   4  20
TORSDOF 9
ENDMDL
MODEL 4
REMARK VINA RESULT: -8.719974255      1.095      1.255
REMARK  9 active torsions:
REMARK  status: ('A' for Active; 'I' for Inactive)
REMARK    1  A    between atoms: C1_4  and  C2_5 
REMARK    2  A    between atoms: C1_4  and  N6_20 
REMARK    3  A    between atoms: C2_5  and  C3_6 
REMARK    4  A    between atoms: C3_6  and  N2_7 
REMARK    5  A    between atoms: C5_12  and  N4_13 
REMARK    6  A    between atoms: N6_20  and  N7_22 
REMARK    7  A    between atoms: N7_22  and  N8_23 
REMARK    8  A    between atoms: N8_23  and  C7_25 
REMARK    9  A    between atoms: C10_28  and  N9_29 
ROOT
HETATM    1  N1  UNL     1       4.599  17.590  28.555  1.00  0.00    -0.388 N 
ATOM      2  H11 UNL     1       4.209  18.529  28.642  1.00  0.00     0.157 HD
ATOM      3  H12 UNL     1       4.318  17.030  27.751  1.00  0.00     0.157 HD
HETATM    4  C1  UNL     1       5.420  17.165  29.457  1.00  0.00     0.089 C 
ENDROOT
BRANCH   4   5
HETATM    5  C2  UNL     1       5.991  15.795  29.330  1.00  0.00     0.097 C 
BRANCH   5   6
HETATM    6  C3  UNL     1       7.480  15.966  29.044  1.00  0.00     0.146 C 
BRANCH   6   7
HETATM    7  N2  UNL     1       8.294  15.173  29.927  1.00  0.00    -0.250 N 
HETATM    8  C4  UNL     1       8.789  15.710  31.050  1.00  0.00     0.344 A 
HETATM    9  O1  UNL     1       8.537  16.905  31.321  1.00  0.00    -0.246 OA
HETATM   10  N3  UNL     1       9.540  14.984  31.867  1.00  0.00    -0.141 N 
HETATM   11  C5  UNL     1       9.804  13.699  31.563  1.00  0.00     0.683 A 
ATOM     12  H3  UNL     1       9.915  15.397  32.721  1.00  0.00     0.189 HD
HETATM   13  N5  UNL     1       9.314  13.150  30.440  1.00  0.00    -0.141 N 
HETATM   14  C6  UNL     1       8.549  13.894  29.610  1.00  0.00     0.344 A 
ATOM     15  H5  UNL     1       9.518  12.177  30.214  1.00  0.00     0.189 HD
HETATM   16  O2  UNL     1       8.081  13.416  28.566  1.00  0.00    -0.246 OA
BRANCH  11  17
HETATM   17  N4  UNL     1      10.534  12.999  32.360  1.00  0.00    -0.234 N 
ATOM     18  H42 UNL     1      10.629  11.993  32.217  1.00  0.00     0.174 HD
ATOM     19  H41 UNL     1      11.014  13.459  33.132  1.00  0.00     0.174 HD
ENDBRANCH  11  17
ENDBRANCH   6   7
ENDBRANCH   5   6
ENDBRANCH   4   5
BRANCH   4  20
HETATM   20  N6  UNL     1       5.811  17.944  30.574  1.00  0.00    -0.273 N 
ATOM     21  H6  UNL     1       6.691  18.460  30.532  1.00  0.00     0.185 HD
BRANCH  20  22
HETATM   22  N7  UNL     1       5.028  18.032  31.734  1.00  0.00    -0.021 NA
BRANCH  22  23
HETATM   23  N8  UNL     1       4.662  16.754  32.143  1.00  0.00    -0.284 N 
ATOM     24  H8  UNL     1       4.021  16.202  31.573  1.00  0.00     0.184 HD
BRANCH  23  25
HETATM   25  C7  UNL     1       5.182  16.210  33.358  1.00  0.00     0.046 A 
HETATM   26  C8  UNL     1       4.400  15.495  34.237  1.00  0.00     0.033 A 
HETATM   27  C9  UNL     1       4.920  14.977  35.406  1.00  0.00     0.038 A 
HETATM   28  C10 UNL     1       6.251  15.154  35.743  1.00  0.00     0.103 A 
HETATM   29  C11 UNL     1       7.025  15.870  34.856  1.00  0.00     0.038 A 
HETATM   30  C12 UNL     1       6.510  16.393  33.681  1.00  0.00     0.033 A 
BRANCH  28  31
HETATM   31  N9  UNL     1       6.774  14.616  36.948  1.00  0.00    -0.116 N 
HETATM   32  O3  UNL     1       7.188  15.380  37.836  1.00  0.00    -0.532 OA
HETATM   33  O4  UNL     1       6.841  13.266  37.174  1.00  0.00    -0.532 OA
ENDBRANCH  28  31
ENDBRANCH  23  25
ENDBRANCH  22  23
ENDBRANCH  20  22
ENDBRANCH   4  20
TORSDOF 9
ENDMDL
MODEL 5
REMARK VINA RESULT: -8.440844875      1.576      2.326
REMARK  9 active torsions:
REMARK  status: ('A' for Active; 'I' for Inactive)
REMARK    1  A    between atoms: C1_4  and  C2_5 
REMARK    2  A    between atoms: C1_4  and  N6_20 
REMARK    3  A    between atoms: C2_5  and  C3_6 
REMARK    4  A    between atoms: C3_6  and  N2_7 
REMARK    5  A    between atoms: C5_12  and  N4_13 
REMARK    6  A    between atoms: N6_20  and  N7_22 
REMARK    7  A    between atoms: N7_22  and  N8_23 
REMARK    8  A    between atoms: N8_23  and  C7_25 
REMARK    9  A    between atoms: C10_28  and  N9_29 
ROOT
HETATM    1  N1  UNL     1       4.727  17.655  28.482  1.00  0.00    -0.388 N 
ATOM      2  H11 UNL     1       4.740  18.673  28.424  1.00  0.00     0.157 HD
ATOM      3  H12 UNL     1       4.322  17.138  27.702  1.00  0.00     0.157 HD
HETATM    4  C1  UNL     1       5.217  17.079  29.529  1.00  0.00     0.089 C 
ENDROOT
BRANCH   4   5
HETATM    5  C2  UNL     1       5.199  15.592  29.614  1.00  0.00     0.097 C 
BRANCH   5   6
HETATM    6  C3  UNL     1       6.388  15.189  30.481  1.00  0.00     0.146 C 
BRANCH   6   7
HETATM    7  N2  UNL     1       7.599  15.065  29.712  1.00  0.00    -0.250 N 
HETATM    8  C4  UNL     1       7.689  14.147  28.742  1.00  0.00     0.344 A 
HETATM    9  O1  UNL     1       6.712  13.401  28.511  1.00  0.00    -0.246 OA
HETATM   10  N3  UNL     1       8.802  14.029  28.030  1.00  0.00    -0.141 N 
HETATM   11  C5  UNL     1       9.847  14.839  28.289  1.00  0.00     0.683 A 
ATOM     12  H3  UNL     1       8.866  13.329  27.291  1.00  0.00     0.189 HD
HETATM   13  N5  UNL     1       9.768  15.762  29.260  1.00  0.00    -0.141 N 
HETATM   14  C6  UNL     1       8.632  15.880  29.983  1.00  0.00     0.344 A 
ATOM     15  H5  UNL     1      10.563  16.372  29.452  1.00  0.00     0.189 HD
HETATM   16  O2  UNL     1       8.528  16.723  30.885  1.00  0.00    -0.246 OA
BRANCH  11  17
HETATM   17  N4  UNL     1      10.925  14.720  27.595  1.00  0.00    -0.234 N 
ATOM     18  H42 UNL     1      11.100  13.868  27.063  1.00  0.00     0.174 HD
ATOM     19  H41 UNL     1      11.599  15.484  27.584  1.00  0.00     0.174 HD
ENDBRANCH  11  17
ENDBRANCH   6   7
ENDBRANCH   5   6
ENDBRANCH   4   5
BRANCH   4  20
HETATM   20  N6  UNL     1       5.779  17.797  30.613  1.00  0.00    -0.273 N 
ATOM     21  H6  UNL     1       6.791  17.923  30.650  1.00  0.00     0.185 HD
BRANCH  20  22
HETATM   22  N7  UNL     1       4.990  18.343  31.636  1.00  0.00    -0.021 NA
BRANCH  22  23
HETATM   23  N8  UNL     1       4.509  17.319  32.446  1.00  0.00    -0.284 N 
ATOM     24  H8  UNL     1       3.795  16.684  32.091  1.00  0.00     0.184 HD
BRANCH  23  25
HETATM   25  C7  UNL     1       5.012  17.153  33.772  1.00  0.00     0.046 A 
HETATM   26  C8  UNL     1       4.426  17.754  34.863  1.00  0.00     0.033 A 
HETATM   27  C9  UNL     1       4.927  17.582  36.137  1.00  0.00     0.038 A 
HETATM   28  C10 UNL     1       6.040  16.794  36.373  1.00  0.00     0.103 A 
HETATM   29  C11 UNL     1       6.620  16.197  35.275  1.00  0.00     0.038 A 
HETATM   30  C12 UNL     1       6.123  16.366  33.993  1.00  0.00     0.033 A 
BRANCH  28  31
HETATM   31  N9  UNL     1       6.545  16.625  37.688  1.00  0.00    -0.116 N 
HETATM   32  O3  UNL     1       7.767  16.709  37.895  1.00  0.00    -0.532 OA
HETATM   33  O4  UNL     1       5.726  16.367  38.756  1.00  0.00    -0.532 OA
ENDBRANCH  28  31
ENDBRANCH  23  25
ENDBRANCH  22  23
ENDBRANCH  20  22
ENDBRANCH   4  20
TORSDOF 9
ENDMDL
