MODEL 1
REMARK VINA RESULT: -6.435209020      0.000      0.000
REMARK  10 active torsions:
REMARK  status: ('A' for Active; 'I' for Inactive)
REMARK    1  A    between atoms: C2_2  and  O1_3 
REMARK    2  A    between atoms: O1_3  and  C3_4 
REMARK    3  A    between atoms: C3_4  and  O2_5 
REMARK    4  A    between atoms: C3_4  and  C4_7 
REMARK    5  A    between atoms: C4_7  and  S1_8 
REMARK    6  A    between atoms: C9_14  and  C10_15 
REMARK    7  A    between atoms: C9_14  and  N2_18 
REMARK    8  A    between atoms: C10_15  and  O3_16 
REMARK    9  A    between atoms: N2_18  and  N3_20 
REMARK   10  A    between atoms: N3_20  and  N4_21 
ROOT
HETATM    1  S1  UNL     1      10.879  -4.920  18.284  1.00  0.00    -0.007 SA
HETATM    2  C5  UNL     1      10.324  -5.939  19.612  1.00  0.00     0.136 C 
HETATM    3  N1  UNL     1       9.958  -6.629  20.484  1.00  0.00    -0.184 NA
ENDROOT
BRANCH   1   4
HETATM    4  C4  UNL     1      10.930  -3.195  18.898  1.00  0.00     0.175 C 
HETATM    5  C6  UNL     1      10.275  -3.066  20.230  1.00  0.00     0.065 C 
HETATM    6  C7  UNL     1      11.322  -2.342  21.051  1.00  0.00     0.045 C 
HETATM    7  C8  UNL     1      11.263  -2.822  22.478  1.00  0.00     0.015 C 
HETATM    8  C9  UNL     1      12.583  -2.713  20.345  1.00  0.00     0.186 C 
HETATM    9  O4  UNL     1      12.271  -2.871  19.026  1.00  0.00    -0.328 OA
BRANCH   4  10
HETATM   10  C3  UNL     1      10.282  -2.359  17.809  1.00  0.00     0.302 C 
BRANCH  10  11
HETATM   11  O1  UNL     1      10.011  -1.064  18.220  1.00  0.00    -0.358 OA
BRANCH  11  12
HETATM   12  C2  UNL     1       9.044  -0.479  17.416  1.00  0.00     0.166 C 
HETATM   13  C1  UNL     1       7.859  -1.414  17.230  1.00  0.00     0.033 C 
ENDBRANCH  11  12
ENDBRANCH  10  11
BRANCH  10  14
HETATM   14  O2  UNL     1      11.177  -2.365  16.720  1.00  0.00    -0.367 OA
ATOM     15  H2  UNL     1      10.707  -2.319  15.896  1.00  0.00     0.212 HD
ENDBRANCH  10  14
ENDBRANCH   4  10
BRANCH   8  16
HETATM   16  C10 UNL     1      13.246  -3.935  20.947  1.00  0.00     0.227 C 
BRANCH  16  17
HETATM   17  O3  UNL     1      14.541  -3.685  21.342  1.00  0.00    -0.396 OA
ATOM     18  H3  UNL     1      14.833  -4.283  22.020  1.00  0.00     0.209 HD
ENDBRANCH  16  17
ENDBRANCH   8  16
BRANCH   8  19
HETATM   19  N2  UNL     1      13.563  -1.625  20.428  1.00  0.00    -0.214 N 
ATOM     20  H2  UNL     1      14.457  -1.716  19.946  1.00  0.00     0.200 HD
BRANCH  19  21
HETATM   21  N3  UNL     1      13.322  -0.606  21.071  1.00  0.00    -0.246 NA
BRANCH  21  22
HETATM   22  N4  UNL     1      13.411   0.497  21.605  1.00  0.00    -0.261 N 
ATOM     23  H42 UNL     1      13.936   0.154  22.410  1.00  0.00     0.193 HD
ATOM     24  H41 UNL     1      13.332   1.493  21.807  1.00  0.00     0.193 HD
ENDBRANCH  21  22
ENDBRANCH  19  21
ENDBRANCH   8  19
ENDBRANCH   1   4
TORSDOF 10
ENDMDL
MODEL 2
REMARK VINA RESULT: -6.387455352      0.980      1.196
REMARK  10 active torsions:
REMARK  status: ('A' for Active; 'I' for Inactive)
REMARK    1  A    between atoms: C2_2  and  O1_3 
REMARK    2  A    between atoms: O1_3  and  C3_4 
REMARK    3  A    between atoms: C3_4  and  O2_5 
REMARK    4  A    between atoms: C3_4  and  C4_7 
REMARK    5  A    between atoms: C4_7  and  S1_8 
REMARK    6  A    between atoms: C9_14  and  C10_15 
REMARK    7  A    between atoms: C9_14  and  N2_18 
REMARK    8  A    between atoms: C10_15  and  O3_16 
REMARK    9  A    between atoms: N2_18  and  N3_20 
REMARK   10  A    between atoms: N3_20  and  N4_21 
ROOT
HETATM    1  S1  UNL     1      10.990  -5.683  18.522  1.00  0.00    -0.007 SA
HETATM    2  C5  UNL     1      10.159  -6.652  19.739  1.00  0.00     0.136 C 
HETATM    3  N1  UNL     1       9.612  -7.310  20.538  1.00  0.00    -0.184 NA
ENDROOT
BRANCH   1   4
HETATM    4  C4  UNL     1      10.747  -3.922  18.962  1.00  0.00     0.175 C 
HETATM    5  C6  UNL     1      10.156  -3.770  20.322  1.00  0.00     0.065 C 
HETATM    6  C7  UNL     1      11.090  -2.783  20.988  1.00  0.00     0.045 C 
HETATM    7  C8  UNL     1      11.204  -3.108  22.454  1.00  0.00     0.015 C 
HETATM    8  C9  UNL     1      12.357  -2.992  20.228  1.00  0.00     0.186 C 
HETATM    9  O4  UNL     1      12.007  -3.346  18.957  1.00  0.00    -0.328 OA
BRANCH   4  10
HETATM   10  C3  UNL     1       9.892  -3.342  17.850  1.00  0.00     0.302 C 
BRANCH  10  11
HETATM   11  O1  UNL     1      10.619  -2.555  16.972  1.00  0.00    -0.358 OA
BRANCH  11  12
HETATM   12  C2  UNL     1      10.010  -1.323  16.785  1.00  0.00     0.166 C 
HETATM   13  C1  UNL     1      10.149  -0.459  18.029  1.00  0.00     0.033 C 
ENDBRANCH  11  12
ENDBRANCH  10  11
BRANCH  10  14
HETATM   14  O2  UNL     1       9.315  -4.440  17.181  1.00  0.00    -0.367 OA
ATOM     15  H2  UNL     1       9.176  -4.242  16.262  1.00  0.00     0.212 HD
ENDBRANCH  10  14
ENDBRANCH   4  10
BRANCH   8  16
HETATM   16  C10 UNL     1      13.273  -3.998  20.892  1.00  0.00     0.227 C 
BRANCH  16  17
HETATM   17  O3  UNL     1      14.477  -3.444  21.264  1.00  0.00    -0.396 OA
ATOM     18  H3  UNL     1      15.180  -4.084  21.276  1.00  0.00     0.209 HD
ENDBRANCH  16  17
ENDBRANCH   8  16
BRANCH   8  19
HETATM   19  N2  UNL     1      13.117  -1.740  20.132  1.00  0.00    -0.214 N 
ATOM     20  H2  UNL     1      13.953  -1.703  19.550  1.00  0.00     0.200 HD
BRANCH  19  21
HETATM   21  N3  UNL     1      12.758  -0.736  20.742  1.00  0.00    -0.246 NA
BRANCH  21  22
HETATM   22  N4  UNL     1      12.726   0.379  21.257  1.00  0.00    -0.261 N 
ATOM     23  H42 UNL     1      13.591   0.250  21.782  1.00  0.00     0.193 HD
ATOM     24  H41 UNL     1      12.450   1.324  21.524  1.00  0.00     0.193 HD
ENDBRANCH  21  22
ENDBRANCH  19  21
ENDBRANCH   8  19
ENDBRANCH   1   4
TORSDOF 10
ENDMDL
MODEL 3
REMARK VINA RESULT: -6.195603568      1.256      1.256
REMARK  10 active torsions:
REMARK  status: ('A' for Active; 'I' for Inactive)
REMARK    1  A    between atoms: C2_2  and  O1_3 
REMARK    2  A    between atoms: O1_3  and  C3_4 
REMARK    3  A    between atoms: C3_4  and  O2_5 
REMARK    4  A    between atoms: C3_4  and  C4_7 
REMARK    5  A    between atoms: C4_7  and  S1_8 
REMARK    6  A    between atoms: C9_14  and  C10_15 
REMARK    7  A    between atoms: C9_14  and  N2_18 
REMARK    8  A    between atoms: C10_15  and  O3_16 
REMARK    9  A    between atoms: N2_18  and  N3_20 
REMARK   10  A    between atoms: N3_20  and  N4_21 
ROOT
HETATM    1  S1  UNL     1      10.962  -4.869  18.062  1.00  0.00    -0.007 SA
HETATM    2  C5  UNL     1       9.533  -5.002  17.037  1.00  0.00     0.136 C 
HETATM    3  N1  UNL     1       8.588  -5.108  16.353  1.00  0.00    -0.184 NA
ENDROOT
BRANCH   1   4
HETATM    4  C4  UNL     1      10.973  -3.181  18.773  1.00  0.00     0.175 C 
HETATM    5  C6  UNL     1      10.271  -3.132  20.087  1.00  0.00     0.065 C 
HETATM    6  C7  UNL     1      11.281  -2.447  20.983  1.00  0.00     0.045 C 
HETATM    7  C8  UNL     1      11.178  -3.007  22.378  1.00  0.00     0.015 C 
HETATM    8  C9  UNL     1      12.570  -2.767  20.302  1.00  0.00     0.186 C 
HETATM    9  O4  UNL     1      12.306  -2.853  18.966  1.00  0.00    -0.328 OA
BRANCH   4  10
HETATM   10  C3  UNL     1      10.354  -2.291  17.710  1.00  0.00     0.302 C 
BRANCH  10  11
HETATM   11  O1  UNL     1       9.829  -1.121  18.233  1.00  0.00    -0.358 OA
BRANCH  11  12
HETATM   12  C2  UNL     1       8.900  -0.562  17.369  1.00  0.00     0.166 C 
HETATM   13  C1  UNL     1       7.842  -1.583  16.981  1.00  0.00     0.033 C 
ENDBRANCH  11  12
ENDBRANCH  10  11
BRANCH  10  14
HETATM   14  O2  UNL     1      11.378  -2.013  16.782  1.00  0.00    -0.367 OA
ATOM     15  H2  UNL     1      11.634  -2.799  16.315  1.00  0.00     0.212 HD
ENDBRANCH  10  14
ENDBRANCH   4  10
BRANCH   8  16
HETATM   16  C10 UNL     1      13.225  -4.014  20.857  1.00  0.00     0.227 C 
BRANCH  16  17
HETATM   17  O3  UNL     1      14.504  -3.776  21.308  1.00  0.00    -0.396 OA
ATOM     18  H3  UNL     1      15.056  -4.547  21.250  1.00  0.00     0.209 HD
ENDBRANCH  16  17
ENDBRANCH   8  16
BRANCH   8  19
HETATM   19  N2  UNL     1      13.535  -1.676  20.480  1.00  0.00    -0.214 N 
ATOM     20  H2  UNL     1      14.490  -1.791  20.143  1.00  0.00     0.200 HD
BRANCH  19  21
HETATM   21  N3  UNL     1      13.208  -0.627  21.030  1.00  0.00    -0.246 NA
BRANCH  21  22
HETATM   22  N4  UNL     1      13.232   0.482  21.557  1.00  0.00    -0.261 N 
ATOM     23  H42 UNL     1      13.932   0.859  20.917  1.00  0.00     0.193 HD
ATOM     24  H41 UNL     1      13.050   1.277  22.170  1.00  0.00     0.193 HD
ENDBRANCH  21  22
ENDBRANCH  19  21
ENDBRANCH   8  19
ENDBRANCH   1   4
TORSDOF 10
ENDMDL
MODEL 4
REMARK VINA RESULT: -6.053780911      2.006      4.270
REMARK  10 active torsions:
REMARK  status: ('A' for Active; 'I' for Inactive)
REMARK    1  A    between atoms: C2_2  and  O1_3 
REMARK    2  A    between atoms: O1_3  and  C3_4 
REMARK    3  A    between atoms: C3_4  and  O2_5 
REMARK    4  A    between atoms: C3_4  and  C4_7 
REMARK    5  A    between atoms: C4_7  and  S1_8 
REMARK    6  A    between atoms: C9_14  and  C10_15 
REMARK    7  A    between atoms: C9_14  and  N2_18 
REMARK    8  A    between atoms: C10_15  and  O3_16 
REMARK    9  A    between atoms: N2_18  and  N3_20 
REMARK   10  A    between atoms: N3_20  and  N4_21 
ROOT
HETATM    1  S1  UNL     1      11.535  -1.297  17.952  1.00  0.00    -0.007 SA
HETATM    2  C5  UNL     1      11.701  -0.750  19.621  1.00  0.00     0.136 C 
HETATM    3  N1  UNL     1      11.822  -0.374  20.723  1.00  0.00    -0.184 NA
ENDROOT
BRANCH   1   4
HETATM    4  C4  UNL     1      10.371  -2.711  17.950  1.00  0.00     0.175 C 
HETATM    5  C6  UNL     1      10.907  -3.864  17.174  1.00  0.00     0.065 C 
HETATM    6  C7  UNL     1      10.758  -5.020  18.142  1.00  0.00     0.045 C 
HETATM    7  C8  UNL     1      11.895  -5.988  17.948  1.00  0.00     0.015 C 
HETATM    8  C9  UNL     1      10.779  -4.325  19.462  1.00  0.00     0.186 C 
HETATM    9  O4  UNL     1      10.225  -3.092  19.275  1.00  0.00    -0.328 OA
BRANCH   4  10
HETATM   10  C3  UNL     1       9.065  -2.158  17.409  1.00  0.00     0.302 C 
BRANCH  10  11
HETATM   11  O1  UNL     1       8.257  -3.139  16.858  1.00  0.00    -0.358 OA
BRANCH  11  12
HETATM   12  C2  UNL     1       7.621  -2.677  15.715  1.00  0.00     0.166 C 
HETATM   13  C1  UNL     1       8.555  -1.801  14.895  1.00  0.00     0.033 C 
ENDBRANCH  11  12
ENDBRANCH  10  11
BRANCH  10  14
HETATM   14  O2  UNL     1       8.422  -1.528  18.494  1.00  0.00    -0.367 OA
ATOM     15  H2  UNL     1       9.037  -1.351  19.196  1.00  0.00     0.212 HD
ENDBRANCH  10  14
ENDBRANCH   4  10
BRANCH   8  16
HETATM   16  C10 UNL     1      12.168  -4.265  20.063  1.00  0.00     0.227 C 
BRANCH  16  17
HETATM   17  O3  UNL     1      12.180  -4.634  21.389  1.00  0.00    -0.396 OA
ATOM     18  H3  UNL     1      12.422  -5.545  21.507  1.00  0.00     0.209 HD
ENDBRANCH  16  17
ENDBRANCH   8  16
BRANCH   8  19
HETATM   19  N2  UNL     1       9.937  -5.032  20.434  1.00  0.00    -0.214 N 
ATOM     20  H2  UNL     1       9.265  -4.506  20.991  1.00  0.00     0.200 HD
BRANCH  19  21
HETATM   21  N3  UNL     1      10.031  -6.248  20.584  1.00  0.00    -0.246 NA
BRANCH  21  22
HETATM   22  N4  UNL     1       9.782  -7.449  20.633  1.00  0.00    -0.261 N 
ATOM     23  H42 UNL     1       8.775  -7.328  20.522  1.00  0.00     0.193 HD
ATOM     24  H41 UNL     1       9.870  -8.463  20.705  1.00  0.00     0.193 HD
ENDBRANCH  21  22
ENDBRANCH  19  21
ENDBRANCH   8  19
ENDBRANCH   1   4
TORSDOF 10
ENDMDL
MODEL 5
REMARK VINA RESULT: -6.048225071      1.893      2.246
REMARK  10 active torsions:
REMARK  status: ('A' for Active; 'I' for Inactive)
REMARK    1  A    between atoms: C2_2  and  O1_3 
REMARK    2  A    between atoms: O1_3  and  C3_4 
REMARK    3  A    between atoms: C3_4  and  O2_5 
REMARK    4  A    between atoms: C3_4  and  C4_7 
REMARK    5  A    between atoms: C4_7  and  S1_8 
REMARK    6  A    between atoms: C9_14  and  C10_15 
REMARK    7  A    between atoms: C9_14  and  N2_18 
REMARK    8  A    between atoms: C10_15  and  O3_16 
REMARK    9  A    between atoms: N2_18  and  N3_20 
REMARK   10  A    between atoms: N3_20  and  N4_21 
ROOT
HETATM    1  S1  UNL     1       9.798  -3.435  19.646  1.00  0.00    -0.007 SA
HETATM    2  C5  UNL     1      10.224  -4.980  20.383  1.00  0.00     0.136 C 
HETATM    3  N1  UNL     1      10.490  -6.009  20.874  1.00  0.00    -0.184 NA
ENDROOT
BRANCH   1   4
HETATM    4  C4  UNL     1      11.357  -2.618  19.141  1.00  0.00     0.175 C 
HETATM    5  C6  UNL     1      11.326  -1.154  19.417  1.00  0.00     0.065 C 
HETATM    6  C7  UNL     1      12.613  -0.927  20.182  1.00  0.00     0.045 C 
HETATM    7  C8  UNL     1      12.405   0.157  21.207  1.00  0.00     0.015 C 
HETATM    8  C9  UNL     1      12.863  -2.273  20.775  1.00  0.00     0.186 C 
HETATM    9  O4  UNL     1      12.359  -3.195  19.903  1.00  0.00    -0.328 OA
BRANCH   4  10
HETATM   10  C3  UNL     1      11.538  -2.964  17.674  1.00  0.00     0.302 C 
BRANCH  10  11
HETATM   11  O1  UNL     1      10.399  -3.516  17.111  1.00  0.00    -0.358 OA
BRANCH  11  12
HETATM   12  C2  UNL     1      10.599  -3.813  15.771  1.00  0.00     0.166 C 
HETATM   13  C1  UNL     1       9.410  -3.365  14.936  1.00  0.00     0.033 C 
ENDBRANCH  11  12
ENDBRANCH  10  11
BRANCH  10  14
HETATM   14  O2  UNL     1      11.888  -1.763  17.024  1.00  0.00    -0.367 OA
ATOM     15  H2  UNL     1      12.829  -1.633  17.037  1.00  0.00     0.212 HD
ENDBRANCH  10  14
ENDBRANCH   4  10
BRANCH   8  16
HETATM   16  C10 UNL     1      12.293  -2.406  22.172  1.00  0.00     0.227 C 
BRANCH  16  17
HETATM   17  O3  UNL     1      13.275  -2.541  23.127  1.00  0.00    -0.396 OA
ATOM     18  H3  UNL     1      13.415  -3.448  23.374  1.00  0.00     0.209 HD
ENDBRANCH  16  17
ENDBRANCH   8  16
BRANCH   8  19
HETATM   19  N2  UNL     1      14.303  -2.531  20.889  1.00  0.00    -0.214 N 
ATOM     20  H2  UNL     1      14.632  -3.481  21.056  1.00  0.00     0.200 HD
BRANCH  19  21
HETATM   21  N3  UNL     1      15.118  -1.617  20.784  1.00  0.00    -0.246 NA
BRANCH  21  22
HETATM   22  N4  UNL     1      15.977  -0.851  20.358  1.00  0.00    -0.261 N 
ATOM     23  H42 UNL     1      16.108  -1.356  19.481  1.00  0.00     0.193 HD
ATOM     24  H41 UNL     1      16.640  -0.081  20.263  1.00  0.00     0.193 HD
ENDBRANCH  21  22
ENDBRANCH  19  21
ENDBRANCH   8  19
ENDBRANCH   1   4
TORSDOF 10
ENDMDL
