MODEL 1
REMARK VINA RESULT: -8.616519403      0.000      0.000
REMARK  9 active torsions:
REMARK  status: ('A' for Active; 'I' for Inactive)
REMARK       I    between atoms: C1_2  and  N2_4 
REMARK    1  A    between atoms: N2_4  and  C2_6 
REMARK    2  A    between atoms: C2_6  and  O2_7 
REMARK    3  A    between atoms: C2_6  and  C3_9 
REMARK    4  A    between atoms: C3_9  and  C4_10 
REMARK    5  A    between atoms: C3_9  and  C9_17 
REMARK    6  A    between atoms: C9_17  and  O3_18 
REMARK    7  A    between atoms: C9_17  and  N4_20 
REMARK    8  A    between atoms: N4_20  and  C10_22 
REMARK    9  A    between atoms: C10_22  and  C11_23 
ROOT
HETATM    1  C3  UNL     1       3.474   3.937   6.316  1.00  0.00     0.169 C 
ENDROOT
BRANCH   1   2
HETATM    2  C2  UNL     1       3.688   2.659   5.660  1.00  0.00     0.135 C 
BRANCH   2   3
HETATM    3  N2  UNL     1       4.244   2.293   4.450  1.00  0.00    -0.294 N 
HETATM    4  C1  UNL     1       5.611   1.938   4.314  1.00  0.00     0.334 C 
HETATM    5  N1  UNL     1       6.460   1.952   5.436  1.00  0.00    -0.040 NA
HETATM    6  O1  UNL     1       6.122   1.603   3.209  1.00  0.00    -0.251 OA
ATOM      7  H2  UNL     1       3.649   2.276   3.623  1.00  0.00     0.172 HD
ENDBRANCH   2   3
BRANCH   2   8
HETATM    8  O2  UNL     1       3.262   1.646   6.374  1.00  0.00    -0.348 OA
ATOM      9  H2  UNL     1       2.773   1.901   7.147  1.00  0.00     0.219 HD
ENDBRANCH   2   8
ENDBRANCH   1   2
BRANCH   1  10
HETATM   10  C4  UNL     1       3.911   5.028   5.380  1.00  0.00    -0.023 A 
HETATM   11  C5  UNL     1       3.055   5.459   4.399  1.00  0.00     0.011 A 
HETATM   12  C6  UNL     1       3.429   6.467   3.514  1.00  0.00     0.018 A 
HETATM   13  C7  UNL     1       4.680   7.033   3.636  1.00  0.00     0.087 A 
HETATM   14  N3  UNL     1       5.505   6.603   4.597  1.00  0.00    -0.375 N 
HETATM   15  C8  UNL     1       5.145   5.614   5.468  1.00  0.00     0.096 A 
ATOM     16  H3  UNL     1       6.429   7.026   4.682  1.00  0.00     0.164 HD
ENDBRANCH   1  10
BRANCH   1  17
HETATM   17  C9  UNL     1       4.031   4.166   7.670  1.00  0.00     0.132 C 
BRANCH  17  18
HETATM   18  O3  UNL     1       5.151   3.358   7.977  1.00  0.00    -0.348 OA
ATOM     19  H3  UNL     1       4.984   2.700   8.642  1.00  0.00     0.219 HD
ENDBRANCH  17  18
BRANCH  17  20
HETATM   20  N4  UNL     1       3.269   4.622   8.731  1.00  0.00    -0.349 N 
ATOM     21  H4  UNL     1       3.275   4.069   9.587  1.00  0.00     0.167 HD
BRANCH  20  22
HETATM   22  C10 UNL     1       2.495   5.775   8.717  1.00  0.00     0.102 C 
BRANCH  22  23
HETATM   23  C11 UNL     1       1.825   6.065  10.009  1.00  0.00    -0.005 A 
HETATM   24  C12 UNL     1       0.931   7.074  10.235  1.00  0.00     0.015 A 
HETATM   25  C13 UNL     1       0.404   7.202  11.501  1.00  0.00     0.018 A 
HETATM   26  C14 UNL     1       0.743   6.358  12.533  1.00  0.00     0.087 A 
HETATM   27  N5  UNL     1       1.624   5.373  12.286  1.00  0.00    -0.374 N 
HETATM   28  C15 UNL     1       2.163   5.211  11.066  1.00  0.00     0.100 A 
ATOM     29  H5  UNL     1       1.888   4.736  13.039  1.00  0.00     0.164 HD
ENDBRANCH  22  23
ENDBRANCH  20  22
ENDBRANCH  17  20
ENDBRANCH   1  17
TORSDOF 9
ENDMDL
MODEL 2
REMARK VINA RESULT: -8.461380978      3.749      6.641
REMARK  9 active torsions:
REMARK  status: ('A' for Active; 'I' for Inactive)
REMARK       I    between atoms: C1_2  and  N2_4 
REMARK    1  A    between atoms: N2_4  and  C2_6 
REMARK    2  A    between atoms: C2_6  and  O2_7 
REMARK    3  A    between atoms: C2_6  and  C3_9 
REMARK    4  A    between atoms: C3_9  and  C4_10 
REMARK    5  A    between atoms: C3_9  and  C9_17 
REMARK    6  A    between atoms: C9_17  and  O3_18 
REMARK    7  A    between atoms: C9_17  and  N4_20 
REMARK    8  A    between atoms: N4_20  and  C10_22 
REMARK    9  A    between atoms: C10_22  and  C11_23 
ROOT
HETATM    1  C3  UNL     1       2.885   6.228  10.374  1.00  0.00     0.169 C 
ENDROOT
BRANCH   1   2
HETATM    2  C2  UNL     1       2.280   5.398  11.402  1.00  0.00     0.135 C 
BRANCH   2   3
HETATM    3  N2  UNL     1       2.768   4.408  12.232  1.00  0.00    -0.294 N 
HETATM    4  C1  UNL     1       2.875   4.572  13.636  1.00  0.00     0.334 C 
HETATM    5  N1  UNL     1       2.479   5.780  14.239  1.00  0.00    -0.040 NA
HETATM    6  O1  UNL     1       3.320   3.668  14.397  1.00  0.00    -0.251 OA
ATOM      7  H2  UNL     1       3.062   3.524  11.818  1.00  0.00     0.172 HD
ENDBRANCH   2   3
BRANCH   2   8
HETATM    8  O2  UNL     1       1.006   5.652  11.573  1.00  0.00    -0.348 OA
ATOM      9  H2  UNL     1       0.433   5.105  11.049  1.00  0.00     0.219 HD
ENDBRANCH   2   8
ENDBRANCH   1   2
BRANCH   1  10
HETATM   10  C4  UNL     1       3.345   5.337   9.256  1.00  0.00    -0.023 A 
HETATM   11  C5  UNL     1       2.735   5.422   8.030  1.00  0.00     0.011 A 
HETATM   12  C6  UNL     1       3.135   4.610   6.973  1.00  0.00     0.018 A 
HETATM   13  C7  UNL     1       4.161   3.710   7.173  1.00  0.00     0.087 A 
HETATM   14  N3  UNL     1       4.747   3.637   8.372  1.00  0.00    -0.375 N 
HETATM   15  C8  UNL     1       4.359   4.430   9.414  1.00  0.00     0.096 A 
ATOM     16  H3  UNL     1       5.505   2.970   8.514  1.00  0.00     0.164 HD
ENDBRANCH   1  10
BRANCH   1  17
HETATM   17  C9  UNL     1       3.954   7.186  10.742  1.00  0.00     0.132 C 
BRANCH  17  18
HETATM   18  O3  UNL     1       4.201   7.267  12.133  1.00  0.00    -0.348 OA
ATOM     19  H3  UNL     1       5.100   7.081  12.378  1.00  0.00     0.219 HD
ENDBRANCH  17  18
BRANCH  17  20
HETATM   20  N4  UNL     1       4.269   8.294   9.977  1.00  0.00    -0.349 N 
ATOM     21  H4  UNL     1       3.500   8.890   9.671  1.00  0.00     0.167 HD
BRANCH  20  22
HETATM   22  C10 UNL     1       5.554   8.658   9.593  1.00  0.00     0.102 C 
BRANCH  22  23
HETATM   23  C11 UNL     1       6.272   7.608   8.828  1.00  0.00    -0.005 A 
HETATM   24  C12 UNL     1       7.272   6.814   9.311  1.00  0.00     0.015 A 
HETATM   25  C13 UNL     1       7.835   5.888   8.459  1.00  0.00     0.018 A 
HETATM   26  C14 UNL     1       7.425   5.739   7.154  1.00  0.00     0.087 A 
HETATM   27  N5  UNL     1       6.439   6.532   6.702  1.00  0.00    -0.374 N 
HETATM   28  C15 UNL     1       5.863   7.449   7.498  1.00  0.00     0.100 A 
ATOM     29  H5  UNL     1       6.121   6.437   5.737  1.00  0.00     0.164 HD
ENDBRANCH  22  23
ENDBRANCH  20  22
ENDBRANCH  17  20
ENDBRANCH   1  17
TORSDOF 9
ENDMDL
MODEL 3
REMARK VINA RESULT: -8.456271596      1.568      2.265
REMARK  9 active torsions:
REMARK  status: ('A' for Active; 'I' for Inactive)
REMARK       I    between atoms: C1_2  and  N2_4 
REMARK    1  A    between atoms: N2_4  and  C2_6 
REMARK    2  A    between atoms: C2_6  and  O2_7 
REMARK    3  A    between atoms: C2_6  and  C3_9 
REMARK    4  A    between atoms: C3_9  and  C4_10 
REMARK    5  A    between atoms: C3_9  and  C9_17 
REMARK    6  A    between atoms: C9_17  and  O3_18 
REMARK    7  A    between atoms: C9_17  and  N4_20 
REMARK    8  A    between atoms: N4_20  and  C10_22 
REMARK    9  A    between atoms: C10_22  and  C11_23 
ROOT
HETATM    1  C3  UNL     1       3.701   3.573   6.946  1.00  0.00     0.169 C 
ENDROOT
BRANCH   1   2
HETATM    2  C2  UNL     1       3.552   2.631   5.850  1.00  0.00     0.135 C 
BRANCH   2   3
HETATM    3  N2  UNL     1       4.424   2.123   4.909  1.00  0.00    -0.294 N 
HETATM    4  C1  UNL     1       4.492   2.620   3.582  1.00  0.00     0.334 C 
HETATM    5  N1  UNL     1       3.649   3.671   3.178  1.00  0.00    -0.040 NA
HETATM    6  O1  UNL     1       5.289   2.157   2.719  1.00  0.00    -0.251 OA
ATOM      7  H2  UNL     1       5.045   1.360   5.178  1.00  0.00     0.172 HD
ENDBRANCH   2   3
BRANCH   2   8
HETATM    8  O2  UNL     1       2.330   2.171   5.741  1.00  0.00    -0.348 OA
ATOM      9  H2  UNL     1       1.794   2.650   5.121  1.00  0.00     0.219 HD
ENDBRANCH   2   8
ENDBRANCH   1   2
BRANCH   1  10
HETATM   10  C4  UNL     1       5.043   4.237   6.820  1.00  0.00    -0.023 A 
HETATM   11  C5  UNL     1       6.150   3.629   7.353  1.00  0.00     0.011 A 
HETATM   12  C6  UNL     1       7.408   4.218   7.256  1.00  0.00     0.018 A 
HETATM   13  C7  UNL     1       7.530   5.431   6.612  1.00  0.00     0.087 A 
HETATM   14  N3  UNL     1       6.442   6.013   6.096  1.00  0.00    -0.375 N 
HETATM   15  C8  UNL     1       5.205   5.441   6.188  1.00  0.00     0.096 A 
ATOM     16  H3  UNL     1       6.538   6.910   5.619  1.00  0.00     0.164 HD
ENDBRANCH   1  10
BRANCH   1  17
HETATM   17  C9  UNL     1       3.483   3.115   8.338  1.00  0.00     0.132 C 
BRANCH  17  18
HETATM   18  O3  UNL     1       2.903   1.828   8.438  1.00  0.00    -0.348 OA
ATOM     19  H3  UNL     1       1.963   1.815   8.299  1.00  0.00     0.219 HD
ENDBRANCH  17  18
BRANCH  17  20
HETATM   20  N4  UNL     1       3.278   3.985   9.394  1.00  0.00    -0.349 N 
ATOM     21  H4  UNL     1       3.344   3.605  10.338  1.00  0.00     0.167 HD
BRANCH  20  22
HETATM   22  C10 UNL     1       2.991   5.338   9.267  1.00  0.00     0.102 C 
BRANCH  22  23
HETATM   23  C11 UNL     1       2.077   5.860  10.313  1.00  0.00    -0.005 A 
HETATM   24  C12 UNL     1       1.207   6.903  10.164  1.00  0.00     0.015 A 
HETATM   25  C13 UNL     1       0.430   7.260  11.245  1.00  0.00     0.018 A 
HETATM   26  C14 UNL     1       0.501   6.607  12.454  1.00  0.00     0.087 A 
HETATM   27  N5  UNL     1       1.364   5.584  12.576  1.00  0.00    -0.374 N 
HETATM   28  C15 UNL     1       2.141   5.203  11.548  1.00  0.00     0.100 A 
ATOM     29  H5  UNL     1       1.430   5.088  13.465  1.00  0.00     0.164 HD
ENDBRANCH  22  23
ENDBRANCH  20  22
ENDBRANCH  17  20
ENDBRANCH   1  17
TORSDOF 9
ENDMDL
MODEL 4
REMARK VINA RESULT: -8.296072177      3.131      6.706
REMARK  9 active torsions:
REMARK  status: ('A' for Active; 'I' for Inactive)
REMARK       I    between atoms: C1_2  and  N2_4 
REMARK    1  A    between atoms: N2_4  and  C2_6 
REMARK    2  A    between atoms: C2_6  and  O2_7 
REMARK    3  A    between atoms: C2_6  and  C3_9 
REMARK    4  A    between atoms: C3_9  and  C4_10 
REMARK    5  A    between atoms: C3_9  and  C9_17 
REMARK    6  A    between atoms: C9_17  and  O3_18 
REMARK    7  A    between atoms: C9_17  and  N4_20 
REMARK    8  A    between atoms: N4_20  and  C10_22 
REMARK    9  A    between atoms: C10_22  and  C11_23 
ROOT
HETATM    1  C3  UNL     1       3.980   5.653  11.027  1.00  0.00     0.169 C 
ENDROOT
BRANCH   1   2
HETATM    2  C2  UNL     1       3.116   6.672  11.596  1.00  0.00     0.135 C 
BRANCH   2   3
HETATM    3  N2  UNL     1       1.880   7.176  11.242  1.00  0.00    -0.294 N 
HETATM    4  C1  UNL     1       0.685   6.812  11.914  1.00  0.00     0.334 C 
HETATM    5  N1  UNL     1       0.728   5.903  12.987  1.00  0.00    -0.040 NA
HETATM    6  O1  UNL     1      -0.446   7.270  11.593  1.00  0.00    -0.251 OA
ATOM      7  H2  UNL     1       1.823   7.835  10.466  1.00  0.00     0.172 HD
ENDBRANCH   2   3
BRANCH   2   8
HETATM    8  O2  UNL     1       3.622   7.223  12.672  1.00  0.00    -0.348 OA
ATOM      9  H2  UNL     1       4.476   7.616  12.536  1.00  0.00     0.219 HD
ENDBRANCH   2   8
ENDBRANCH   1   2
BRANCH   1  10
HETATM   10  C4  UNL     1       4.968   6.325  10.116  1.00  0.00    -0.023 A 
HETATM   11  C5  UNL     1       6.304   6.044  10.244  1.00  0.00     0.011 A 
HETATM   12  C6  UNL     1       7.247   6.649   9.418  1.00  0.00     0.018 A 
HETATM   13  C7  UNL     1       6.819   7.543   8.460  1.00  0.00     0.087 A 
HETATM   14  N3  UNL     1       5.513   7.809   8.345  1.00  0.00    -0.375 N 
HETATM   15  C8  UNL     1       4.583   7.218   9.153  1.00  0.00     0.096 A 
ATOM     16  H3  UNL     1       5.203   8.470   7.634  1.00  0.00     0.164 HD
ENDBRANCH   1  10
BRANCH   1  17
HETATM   17  C9  UNL     1       3.380   4.476  10.357  1.00  0.00     0.132 C 
BRANCH  17  18
HETATM   18  O3  UNL     1       2.389   3.820  11.124  1.00  0.00    -0.348 OA
ATOM     19  H3  UNL     1       1.503   3.946  10.803  1.00  0.00     0.219 HD
ENDBRANCH  17  18
BRANCH  17  20
HETATM   20  N4  UNL     1       4.053   3.721   9.412  1.00  0.00    -0.349 N 
ATOM     21  H4  UNL     1       4.993   3.405   9.646  1.00  0.00     0.167 HD
BRANCH  20  22
HETATM   22  C10 UNL     1       3.544   3.363   8.171  1.00  0.00     0.102 C 
BRANCH  22  23
HETATM   23  C11 UNL     1       3.820   4.352   7.099  1.00  0.00    -0.005 A 
HETATM   24  C12 UNL     1       2.885   5.115   6.459  1.00  0.00     0.015 A 
HETATM   25  C13 UNL     1       3.316   5.985   5.482  1.00  0.00     0.018 A 
HETATM   26  C14 UNL     1       4.641   6.110   5.135  1.00  0.00     0.087 A 
HETATM   27  N5  UNL     1       5.543   5.350   5.779  1.00  0.00    -0.374 N 
HETATM   28  C15 UNL     1       5.166   4.487   6.739  1.00  0.00     0.100 A 
ATOM     29  H5  UNL     1       6.531   5.428   5.536  1.00  0.00     0.164 HD
ENDBRANCH  22  23
ENDBRANCH  20  22
ENDBRANCH  17  20
ENDBRANCH   1  17
TORSDOF 9
ENDMDL
MODEL 5
REMARK VINA RESULT: -8.208706938      4.483      6.832
REMARK  9 active torsions:
REMARK  status: ('A' for Active; 'I' for Inactive)
REMARK       I    between atoms: C1_2  and  N2_4 
REMARK    1  A    between atoms: N2_4  and  C2_6 
REMARK    2  A    between atoms: C2_6  and  O2_7 
REMARK    3  A    between atoms: C2_6  and  C3_9 
REMARK    4  A    between atoms: C3_9  and  C4_10 
REMARK    5  A    between atoms: C3_9  and  C9_17 
REMARK    6  A    between atoms: C9_17  and  O3_18 
REMARK    7  A    between atoms: C9_17  and  N4_20 
REMARK    8  A    between atoms: N4_20  and  C10_22 
REMARK    9  A    between atoms: C10_22  and  C11_23 
ROOT
HETATM    1  C3  UNL     1       2.883   6.243  10.411  1.00  0.00     0.169 C 
ENDROOT
BRANCH   1   2
HETATM    2  C2  UNL     1       2.274   5.410  11.433  1.00  0.00     0.135 C 
BRANCH   2   3
HETATM    3  N2  UNL     1       2.756   4.417  12.262  1.00  0.00    -0.294 N 
HETATM    4  C1  UNL     1       2.862   4.578  13.667  1.00  0.00     0.334 C 
HETATM    5  N1  UNL     1       2.468   5.787  14.271  1.00  0.00    -0.040 NA
HETATM    6  O1  UNL     1       3.302   3.672  14.427  1.00  0.00    -0.251 OA
ATOM      7  H2  UNL     1       3.049   3.532  11.847  1.00  0.00     0.172 HD
ENDBRANCH   2   3
BRANCH   2   8
HETATM    8  O2  UNL     1       0.998   5.663  11.598  1.00  0.00    -0.348 OA
ATOM      9  H2  UNL     1       0.739   6.529  11.308  1.00  0.00     0.219 HD
ENDBRANCH   2   8
ENDBRANCH   1   2
BRANCH   1  10
HETATM   10  C4  UNL     1       3.329   5.358   9.282  1.00  0.00    -0.023 A 
HETATM   11  C5  UNL     1       2.686   5.432   8.072  1.00  0.00     0.011 A 
HETATM   12  C6  UNL     1       3.071   4.625   7.005  1.00  0.00     0.018 A 
HETATM   13  C7  UNL     1       4.116   3.742   7.179  1.00  0.00     0.087 A 
HETATM   14  N3  UNL     1       4.734   3.679   8.364  1.00  0.00    -0.375 N 
HETATM   15  C8  UNL     1       4.360   4.468   9.415  1.00  0.00     0.096 A 
ATOM     16  H3  UNL     1       5.506   3.025   8.486  1.00  0.00     0.164 HD
ENDBRANCH   1  10
BRANCH   1  17
HETATM   17  C9  UNL     1       3.965   7.185  10.784  1.00  0.00     0.132 C 
BRANCH  17  18
HETATM   18  O3  UNL     1       4.179   7.293  12.179  1.00  0.00    -0.348 OA
ATOM     19  H3  UNL     1       4.298   8.185  12.484  1.00  0.00     0.219 HD
ENDBRANCH  17  18
BRANCH  17  20
HETATM   20  N4  UNL     1       4.325   8.268  10.002  1.00  0.00    -0.349 N 
ATOM     21  H4  UNL     1       3.598   8.945   9.773  1.00  0.00     0.167 HD
BRANCH  20  22
HETATM   22  C10 UNL     1       5.600   8.501   9.505  1.00  0.00     0.102 C 
BRANCH  22  23
HETATM   23  C11 UNL     1       6.187   9.794   9.938  1.00  0.00    -0.005 A 
HETATM   24  C12 UNL     1       5.718  10.582  10.952  1.00  0.00     0.015 A 
HETATM   25  C13 UNL     1       6.384  11.758  11.220  1.00  0.00     0.018 A 
HETATM   26  C14 UNL     1       7.492  12.159  10.510  1.00  0.00     0.087 A 
HETATM   27  N5  UNL     1       7.934  11.367   9.518  1.00  0.00    -0.374 N 
HETATM   28  C15 UNL     1       7.314  10.212   9.222  1.00  0.00     0.100 A 
ATOM     29  H5  UNL     1       8.755  11.648   8.981  1.00  0.00     0.164 HD
ENDBRANCH  22  23
ENDBRANCH  20  22
ENDBRANCH  17  20
ENDBRANCH   1  17
TORSDOF 9
ENDMDL
