MODEL 1
REMARK VINA RESULT: -6.861281236      0.000      0.000
REMARK  6 active torsions:
REMARK  status: ('A' for Active; 'I' for Inactive)
REMARK    1  A    between atoms: N1_2  and  C2_4 
REMARK    2  A    between atoms: C3_7  and  N3_8 
REMARK    3  A    between atoms: C6_13  and  N5_14 
REMARK    4  A    between atoms: N5_14  and  C7_16 
REMARK    5  A    between atoms: C7_16  and  C8_17 
REMARK       I    between atoms: C8_17  and  N6_19 
REMARK    6  A    between atoms: N6_19  and  C9_21 
ROOT
HETATM    1  N5  UNL     1      26.304  -4.273  -0.021  1.00  0.00    -0.216 N 
ATOM      2  H5  UNL     1      26.718  -3.477  -0.507  1.00  0.00     0.178 HD
ENDROOT
BRANCH   1   3
HETATM    3  C6  UNL     1      25.712  -5.163  -0.734  1.00  0.00     0.707 A 
HETATM    4  N4  UNL     1      26.401  -6.060  -1.430  1.00  0.00    -0.021 N 
HETATM    5  C3  UNL     1      25.811  -7.004  -2.186  1.00  0.00     0.708 A 
ATOM      6  H4  UNL     1      27.420  -6.032  -1.390  1.00  0.00     0.203 HD
HETATM    7  N2  UNL     1      24.468  -7.011  -2.214  1.00  0.00    -0.021 N 
HETATM    8  C2  UNL     1      23.727  -6.121  -1.524  1.00  0.00     0.706 A 
ATOM      9  H2  UNL     1      23.992  -7.716  -2.778  1.00  0.00     0.203 HD
HETATM   10  N10 UNL     1      24.379  -5.200  -0.786  1.00  0.00    -0.022 N 
ATOM     11  H10 UNL     1      23.840  -4.515  -0.255  1.00  0.00     0.203 HD
BRANCH   5  12
HETATM   12  N3  UNL     1      26.601  -7.936  -2.907  1.00  0.00    -0.225 N 
HETATM   13  C4  UNL     1      27.130  -7.573  -4.205  1.00  0.00     0.168 C 
HETATM   14  C5  UNL     1      26.878  -9.242  -2.345  1.00  0.00     0.168 C 
ENDBRANCH   5  12
BRANCH   8  15
HETATM   15  N1  UNL     1      22.430  -6.162  -1.579  1.00  0.00    -0.229 N 
HETATM   16  C1  UNL     1      21.698  -5.016  -2.055  1.00  0.00     0.165 C 
ATOM     17  H1  UNL     1      21.932  -7.003  -1.286  1.00  0.00     0.177 HD
ENDBRANCH   8  15
ENDBRANCH   1   3
BRANCH   1  18
HETATM   18  C7  UNL     1      26.425  -4.316   1.402  1.00  0.00     0.241 C 
BRANCH  18  19
HETATM   19  C8  UNL     1      27.781  -4.789   1.747  1.00  0.00     0.241 C 
HETATM   20  O1  UNL     1      28.041  -5.321   2.857  1.00  0.00    -0.271 OA
HETATM   21  N6  UNL     1      28.828  -4.647   0.818  1.00  0.00    -0.309 N 
ATOM     22  H6  UNL     1      28.627  -4.215  -0.084  1.00  0.00     0.170 HD
BRANCH  21  23
HETATM   23  C9  UNL     1      30.158  -5.082   1.088  1.00  0.00     0.147 A 
HETATM   24  N7  UNL     1      30.953  -4.660   2.114  1.00  0.00    -0.269 N 
HETATM   25  N8  UNL     1      32.101  -5.304   2.007  1.00  0.00    -0.241 N 
ATOM     26  H7  UNL     1      30.707  -3.976   2.828  1.00  0.00     0.190 HD
HETATM   27  N9  UNL     1      32.094  -6.114   0.976  1.00  0.00    -0.287 N 
ATOM     28  H8  UNL     1      32.890  -5.187   2.643  1.00  0.00     0.208 HD
HETATM   29  C10 UNL     1      30.900  -5.995   0.390  1.00  0.00     0.068 A 
ATOM     30  H9  UNL     1      32.858  -6.722   0.678  1.00  0.00     0.188 HD
HETATM   31  C11 UNL     1      30.396  -6.712  -0.832  1.00  0.00     0.074 C 
ENDBRANCH  21  23
ENDBRANCH  18  19
ENDBRANCH   1  18
TORSDOF 6
ENDMDL
MODEL 2
REMARK VINA RESULT: -6.630828436      2.598      7.578
REMARK  6 active torsions:
REMARK  status: ('A' for Active; 'I' for Inactive)
REMARK    1  A    between atoms: N1_2  and  C2_4 
REMARK    2  A    between atoms: C3_7  and  N3_8 
REMARK    3  A    between atoms: C6_13  and  N5_14 
REMARK    4  A    between atoms: N5_14  and  C7_16 
REMARK    5  A    between atoms: C7_16  and  C8_17 
REMARK       I    between atoms: C8_17  and  N6_19 
REMARK    6  A    between atoms: N6_19  and  C9_21 
ROOT
HETATM    1  N5  UNL     1      29.274  -5.044   1.369  1.00  0.00    -0.216 N 
ATOM      2  H5  UNL     1      29.432  -5.222   0.376  1.00  0.00     0.178 HD
ENDROOT
BRANCH   1   3
HETATM    3  C6  UNL     1      30.205  -5.375   2.189  1.00  0.00     0.707 A 
HETATM    4  N4  UNL     1      29.941  -6.068   3.290  1.00  0.00    -0.021 N 
HETATM    5  C3  UNL     1      30.894  -6.429   4.169  1.00  0.00     0.708 A 
ATOM      6  H4  UNL     1      28.975  -6.338   3.478  1.00  0.00     0.203 HD
HETATM    7  N2  UNL     1      32.154  -6.057   3.890  1.00  0.00    -0.021 N 
HETATM    8  C2  UNL     1      32.470  -5.352   2.784  1.00  0.00     0.706 A 
ATOM      9  H2  UNL     1      32.899  -6.316   4.537  1.00  0.00     0.203 HD
HETATM   10  N10 UNL     1      31.469  -5.022   1.943  1.00  0.00    -0.022 N 
ATOM     11  H10 UNL     1      31.683  -4.489   1.100  1.00  0.00     0.203 HD
BRANCH   5  12
HETATM   12  N3  UNL     1      30.549  -7.170   5.328  1.00  0.00    -0.225 N 
HETATM   13  C4  UNL     1      29.346  -7.977   5.331  1.00  0.00     0.168 C 
HETATM   14  C5  UNL     1      31.397  -7.121   6.502  1.00  0.00     0.168 C 
ENDBRANCH   5  12
BRANCH   8  15
HETATM   15  N1  UNL     1      33.701  -5.013   2.551  1.00  0.00    -0.229 N 
HETATM   16  C1  UNL     1      34.423  -5.638   1.472  1.00  0.00     0.165 C 
ATOM     17  H1  UNL     1      34.156  -4.306   3.129  1.00  0.00     0.177 HD
ENDBRANCH   8  15
ENDBRANCH   1   3
BRANCH   1  18
HETATM   18  C7  UNL     1      28.032  -4.446   1.743  1.00  0.00     0.241 C 
BRANCH  18  19
HETATM   19  C8  UNL     1      27.029  -4.745   0.702  1.00  0.00     0.241 C 
HETATM   20  O1  UNL     1      25.972  -4.073   0.577  1.00  0.00    -0.271 OA
HETATM   21  N6  UNL     1      27.244  -5.813  -0.189  1.00  0.00    -0.309 N 
ATOM     22  H6  UNL     1      28.097  -6.365  -0.096  1.00  0.00     0.170 HD
BRANCH  21  23
HETATM   23  C9  UNL     1      26.316  -6.154  -1.216  1.00  0.00     0.147 A 
HETATM   24  N7  UNL     1      24.958  -6.197  -1.096  1.00  0.00    -0.269 N 
HETATM   25  N8  UNL     1      24.474  -6.555  -2.272  1.00  0.00    -0.241 N 
ATOM     26  H7  UNL     1      24.418  -5.992  -0.256  1.00  0.00     0.190 HD
HETATM   27  N9  UNL     1      25.437  -6.745  -3.141  1.00  0.00    -0.287 N 
ATOM     28  H8  UNL     1      23.481  -6.669  -2.477  1.00  0.00     0.208 HD
HETATM   29  C10 UNL     1      26.589  -6.502  -2.511  1.00  0.00     0.068 A 
ATOM     30  H9  UNL     1      25.327  -7.024  -4.116  1.00  0.00     0.188 HD
HETATM   31  C11 UNL     1      27.982  -6.581  -3.072  1.00  0.00     0.074 C 
ENDBRANCH  21  23
ENDBRANCH  18  19
ENDBRANCH   1  18
TORSDOF 6
ENDMDL
MODEL 3
REMARK VINA RESULT: -6.606514827      1.829      2.240
REMARK  6 active torsions:
REMARK  status: ('A' for Active; 'I' for Inactive)
REMARK    1  A    between atoms: N1_2  and  C2_4 
REMARK    2  A    between atoms: C3_7  and  N3_8 
REMARK    3  A    between atoms: C6_13  and  N5_14 
REMARK    4  A    between atoms: N5_14  and  C7_16 
REMARK    5  A    between atoms: C7_16  and  C8_17 
REMARK       I    between atoms: C8_17  and  N6_19 
REMARK    6  A    between atoms: N6_19  and  C9_21 
ROOT
HETATM    1  N5  UNL     1      26.829  -3.887   1.072  1.00  0.00    -0.216 N 
ATOM      2  H5  UNL     1      26.847  -2.877   0.929  1.00  0.00     0.178 HD
ENDROOT
BRANCH   1   3
HETATM    3  C6  UNL     1      26.447  -4.621   0.090  1.00  0.00     0.707 A 
HETATM    4  N4  UNL     1      27.297  -5.004  -0.856  1.00  0.00    -0.021 N 
HETATM    5  C3  UNL     1      26.929  -5.773  -1.897  1.00  0.00     0.708 A 
ATOM      6  H4  UNL     1      28.270  -4.703  -0.790  1.00  0.00     0.203 HD
HETATM    7  N2  UNL     1      25.641  -6.151  -1.951  1.00  0.00    -0.021 N 
HETATM    8  C2  UNL     1      24.742  -5.786  -1.014  1.00  0.00     0.706 A 
ATOM      9  H2  UNL     1      25.331  -6.734  -2.729  1.00  0.00     0.203 HD
HETATM   10  N10 UNL     1      25.175  -5.015   0.004  1.00  0.00    -0.022 N 
ATOM     11  H10 UNL     1      24.514  -4.726   0.726  1.00  0.00     0.203 HD
BRANCH   5  12
HETATM   12  N3  UNL     1      27.883  -6.150  -2.876  1.00  0.00    -0.225 N 
HETATM   13  C4  UNL     1      27.489  -7.025  -3.961  1.00  0.00     0.168 C 
HETATM   14  C5  UNL     1      29.244  -5.661  -2.791  1.00  0.00     0.168 C 
ENDBRANCH   5  12
BRANCH   8  15
HETATM   15  N1  UNL     1      23.506  -6.173  -1.103  1.00  0.00    -0.229 N 
HETATM   16  C1  UNL     1      22.565  -5.388  -1.861  1.00  0.00     0.165 C 
ATOM     17  H1  UNL     1      23.202  -7.028  -0.639  1.00  0.00     0.177 HD
ENDBRANCH   8  15
ENDBRANCH   1   3
BRANCH   1  18
HETATM   18  C7  UNL     1      27.230  -4.380   2.352  1.00  0.00     0.241 C 
BRANCH  18  19
HETATM   19  C8  UNL     1      28.704  -4.353   2.430  1.00  0.00     0.241 C 
HETATM   20  O1  UNL     1      29.361  -3.288   2.291  1.00  0.00    -0.271 OA
HETATM   21  N6  UNL     1      29.414  -5.544   2.665  1.00  0.00    -0.309 N 
ATOM     22  H6  UNL     1      28.890  -6.412   2.777  1.00  0.00     0.170 HD
BRANCH  21  23
HETATM   23  C9  UNL     1      30.836  -5.586   2.751  1.00  0.00     0.147 A 
HETATM   24  N7  UNL     1      31.716  -5.063   1.849  1.00  0.00    -0.269 N 
HETATM   25  N8  UNL     1      32.931  -5.315   2.299  1.00  0.00    -0.241 N 
ATOM     26  H7  UNL     1      31.479  -4.569   0.989  1.00  0.00     0.190 HD
HETATM   27  N9  UNL     1      32.889  -5.968   3.435  1.00  0.00    -0.287 N 
ATOM     28  H8  UNL     1      33.791  -5.038   1.826  1.00  0.00     0.208 HD
HETATM   29  C10 UNL     1      31.600  -6.149   3.736  1.00  0.00     0.068 A 
ATOM     30  H9  UNL     1      33.689  -6.280   3.986  1.00  0.00     0.188 HD
HETATM   31  C11 UNL     1      31.022  -6.844   4.938  1.00  0.00     0.074 C 
ENDBRANCH  21  23
ENDBRANCH  18  19
ENDBRANCH   1  18
TORSDOF 6
ENDMDL
MODEL 4
REMARK VINA RESULT: -6.592504421      2.256      6.455
REMARK  6 active torsions:
REMARK  status: ('A' for Active; 'I' for Inactive)
REMARK    1  A    between atoms: N1_2  and  C2_4 
REMARK    2  A    between atoms: C3_7  and  N3_8 
REMARK    3  A    between atoms: C6_13  and  N5_14 
REMARK    4  A    between atoms: N5_14  and  C7_16 
REMARK    5  A    between atoms: C7_16  and  C8_17 
REMARK       I    between atoms: C8_17  and  N6_19 
REMARK    6  A    between atoms: N6_19  and  C9_21 
ROOT
HETATM    1  N5  UNL     1      30.046  -4.438  -0.703  1.00  0.00    -0.216 N 
ATOM      2  H5  UNL     1      29.996  -3.465  -1.007  1.00  0.00     0.178 HD
ENDROOT
BRANCH   1   3
HETATM    3  C6  UNL     1      29.835  -4.685   0.539  1.00  0.00     0.707 A 
HETATM    4  N4  UNL     1      30.678  -5.427   1.248  1.00  0.00    -0.021 N 
HETATM    5  C3  UNL     1      30.484  -5.705   2.550  1.00  0.00     0.708 A 
ATOM      6  H4  UNL     1      31.506  -5.802   0.786  1.00  0.00     0.203 HD
HETATM    7  N2  UNL     1      29.383  -5.195   3.126  1.00  0.00    -0.021 N 
HETATM    8  C2  UNL     1      28.500  -4.436   2.446  1.00  0.00     0.706 A 
ATOM      9  H2  UNL     1      29.210  -5.388   4.113  1.00  0.00     0.203 HD
HETATM   10  N10 UNL     1      28.751  -4.195   1.144  1.00  0.00    -0.022 N 
ATOM     11  H10 UNL     1      28.097  -3.623   0.609  1.00  0.00     0.203 HD
BRANCH   5  12
HETATM   12  N3  UNL     1      31.422  -6.504   3.255  1.00  0.00    -0.225 N 
HETATM   13  C4  UNL     1      31.376  -6.554   4.701  1.00  0.00     0.168 C 
HETATM   14  C5  UNL     1      32.418  -7.265   2.529  1.00  0.00     0.168 C 
ENDBRANCH   5  12
BRANCH   8  15
HETATM   15  N1  UNL     1      27.447  -3.961   3.041  1.00  0.00    -0.229 N 
HETATM   16  C1  UNL     1      26.292  -3.592   2.263  1.00  0.00     0.165 C 
ATOM     17  H1  UNL     1      27.439  -3.849   4.055  1.00  0.00     0.177 HD
ENDBRANCH   8  15
ENDBRANCH   1   3
BRANCH   1  18
HETATM   18  C7  UNL     1      30.346  -5.424  -1.692  1.00  0.00     0.241 C 
BRANCH  18  19
HETATM   19  C8  UNL     1      29.080  -5.912  -2.274  1.00  0.00     0.241 C 
HETATM   20  O1  UNL     1      28.794  -5.747  -3.488  1.00  0.00    -0.271 OA
HETATM   21  N6  UNL     1      28.150  -6.585  -1.460  1.00  0.00    -0.309 N 
ATOM     22  H6  UNL     1      28.372  -6.723  -0.474  1.00  0.00     0.170 HD
BRANCH  21  23
HETATM   23  C9  UNL     1      26.910  -7.080  -1.959  1.00  0.00     0.147 A 
HETATM   24  N7  UNL     1      26.748  -8.110  -2.839  1.00  0.00    -0.269 N 
HETATM   25  N8  UNL     1      25.450  -8.249  -3.041  1.00  0.00    -0.241 N 
ATOM     26  H7  UNL     1      27.489  -8.668  -3.261  1.00  0.00     0.190 HD
HETATM   27  N9  UNL     1      24.767  -7.372  -2.345  1.00  0.00    -0.287 N 
ATOM     28  H8  UNL     1      25.034  -8.947  -3.657  1.00  0.00     0.208 HD
HETATM   29  C10 UNL     1      25.650  -6.636  -1.666  1.00  0.00     0.068 A 
ATOM     30  H9  UNL     1      23.752  -7.272  -2.326  1.00  0.00     0.188 HD
HETATM   31  C11 UNL     1      25.371  -5.497  -0.724  1.00  0.00     0.074 C 
ENDBRANCH  21  23
ENDBRANCH  18  19
ENDBRANCH   1  18
TORSDOF 6
ENDMDL
MODEL 5
REMARK VINA RESULT: -6.460001920      1.547      1.795
REMARK  6 active torsions:
REMARK  status: ('A' for Active; 'I' for Inactive)
REMARK    1  A    between atoms: N1_2  and  C2_4 
REMARK    2  A    between atoms: C3_7  and  N3_8 
REMARK    3  A    between atoms: C6_13  and  N5_14 
REMARK    4  A    between atoms: N5_14  and  C7_16 
REMARK    5  A    between atoms: C7_16  and  C8_17 
REMARK       I    between atoms: C8_17  and  N6_19 
REMARK    6  A    between atoms: N6_19  and  C9_21 
ROOT
HETATM    1  N5  UNL     1      27.501  -4.624   0.548  1.00  0.00    -0.216 N 
ATOM      2  H5  UNL     1      27.590  -3.634   0.317  1.00  0.00     0.178 HD
ENDROOT
BRANCH   1   3
HETATM    3  C6  UNL     1      26.935  -5.388  -0.315  1.00  0.00     0.707 A 
HETATM    4  N4  UNL     1      27.465  -6.558  -0.652  1.00  0.00    -0.021 N 
HETATM    5  C3  UNL     1      26.897  -7.381  -1.553  1.00  0.00     0.708 A 
ATOM      6  H4  UNL     1      28.337  -6.846  -0.209  1.00  0.00     0.203 HD
HETATM    7  N2  UNL     1      25.748  -6.971  -2.116  1.00  0.00    -0.021 N 
HETATM    8  C2  UNL     1      25.175  -5.790  -1.805  1.00  0.00     0.706 A 
ATOM      9  H2  UNL     1      25.294  -7.573  -2.803  1.00  0.00     0.203 HD
HETATM   10  N10 UNL     1      25.794  -5.012  -0.895  1.00  0.00    -0.022 N 
ATOM     11  H10 UNL     1      25.379  -4.114  -0.643  1.00  0.00     0.203 HD
BRANCH   5  12
HETATM   12  N3  UNL     1      27.510  -8.620  -1.871  1.00  0.00    -0.225 N 
HETATM   13  C4  UNL     1      26.859  -9.525  -2.796  1.00  0.00     0.168 C 
HETATM   14  C5  UNL     1      28.780  -8.977  -1.274  1.00  0.00     0.168 C 
ENDBRANCH   5  12
BRANCH   8  15
HETATM   15  N1  UNL     1      24.063  -5.431  -2.372  1.00  0.00    -0.229 N 
HETATM   16  C1  UNL     1      22.812  -5.645  -1.691  1.00  0.00     0.165 C 
ATOM     17  H1  UNL     1      24.076  -4.999  -3.296  1.00  0.00     0.177 HD
ENDBRANCH   8  15
ENDBRANCH   1   3
BRANCH   1  18
HETATM   18  C7  UNL     1      28.015  -5.058   1.809  1.00  0.00     0.241 C 
BRANCH  18  19
HETATM   19  C8  UNL     1      29.462  -4.767   1.855  1.00  0.00     0.241 C 
HETATM   20  O1  UNL     1      29.905  -3.603   2.038  1.00  0.00    -0.271 OA
HETATM   21  N6  UNL     1      30.390  -5.811   1.691  1.00  0.00    -0.309 N 
ATOM     22  H6  UNL     1      30.041  -6.758   1.541  1.00  0.00     0.170 HD
BRANCH  21  23
HETATM   23  C9  UNL     1      31.799  -5.598   1.727  1.00  0.00     0.147 A 
HETATM   24  N7  UNL     1      32.471  -4.776   2.584  1.00  0.00    -0.269 N 
HETATM   25  N8  UNL     1      33.754  -4.865   2.285  1.00  0.00    -0.241 N 
ATOM     26  H7  UNL     1      32.059  -4.202   3.319  1.00  0.00     0.190 HD
HETATM   27  N9  UNL     1      33.950  -5.694   1.287  1.00  0.00    -0.287 N 
ATOM     28  H8  UNL     1      34.495  -4.357   2.766  1.00  0.00     0.208 HD
HETATM   29  C10 UNL     1      32.753  -6.161   0.923  1.00  0.00     0.068 A 
ATOM     30  H9  UNL     1      34.848  -5.936   0.868  1.00  0.00     0.188 HD
HETATM   31  C11 UNL     1      32.440  -7.140  -0.174  1.00  0.00     0.074 C 
ENDBRANCH  21  23
ENDBRANCH  18  19
ENDBRANCH   1  18
TORSDOF 6
ENDMDL
