MODEL 1
REMARK VINA RESULT: -7.573272217      0.000      0.000
REMARK  12 active torsions:
REMARK  status: ('A' for Active; 'I' for Inactive)
REMARK    1  A    between atoms: S1_2  and  C2_3 
REMARK    2  A    between atoms: C2_3  and  C3_4 
REMARK    3  A    between atoms: C3_4  and  N1_5 
REMARK    4  A    between atoms: N1_5  and  C4_8 
REMARK       I    between atoms: N2_12  and  C7_13 
REMARK    5  A    between atoms: C7_13  and  C8_15 
REMARK    6  A    between atoms: C8_15  and  C9_16 
REMARK    7  A    between atoms: C8_15  and  N6_24 
REMARK    8  A    between atoms: C9_16  and  C10_17 
REMARK    9  A    between atoms: C10_17  and  C11_18 
REMARK   10  A    between atoms: C11_18  and  N3_19 
REMARK       I    between atoms: N6_24  and  C13_26 
REMARK   11  A    between atoms: C13_26  and  C14_28 
REMARK   12  A    between atoms: C14_28  and  S3_29 
ROOT
HETATM    1  C8  UNL     1      21.267   9.265  21.660  1.00  0.00     0.176 C 
ENDROOT
BRANCH   1   2
HETATM    2  C7  UNL     1      20.035   8.482  21.928  1.00  0.00     0.244 C 
HETATM    3  N2  UNL     1      19.227   7.926  20.901  1.00  0.00    -0.313 N 
HETATM    4  C4  UNL     1      18.007   7.135  21.166  1.00  0.00     0.352 C 
HETATM    5  C6  UNL     1      19.354   7.990  19.469  1.00  0.00     0.139 C 
HETATM    6  S2  UNL     1      18.388   5.696  20.081  1.00  0.00    -0.114 SA
HETATM    7  C5  UNL     1      19.571   6.563  18.967  1.00  0.00     0.098 C 
HETATM    8  O1  UNL     1      19.714   8.318  23.135  1.00  0.00    -0.271 OA
BRANCH   4   9
HETATM    9  N1  UNL     1      16.869   7.784  20.599  1.00  0.00    -0.044 N 
ATOM     10  H12 UNL     1      16.570   7.310  19.747  1.00  0.00     0.280 HD
ATOM     11  H11 UNL     1      17.130   8.690  20.207  1.00  0.00     0.280 HD
BRANCH   9  12
HETATM   12  C3  UNL     1      15.771   7.925  21.513  1.00  0.00     0.246 C 
BRANCH  12  13
HETATM   13  C2  UNL     1      16.187   7.443  22.888  1.00  0.00     0.101 C 
BRANCH  13  14
HETATM   14  S1  UNL     1      14.675   6.943  23.792  1.00  0.00    -0.172 SA
HETATM   15  C1  UNL     1      13.384   6.594  22.553  1.00  0.00     0.089 C 
ENDBRANCH  13  14
ENDBRANCH  12  13
ENDBRANCH   9  12
ENDBRANCH   4   9
ENDBRANCH   1   2
BRANCH   1  16
HETATM   16  C9  UNL     1      22.449   8.308  21.521  1.00  0.00     0.036 C 
BRANCH  16  17
HETATM   17  C10 UNL     1      23.387   8.693  20.418  1.00  0.00     0.022 C 
BRANCH  17  18
HETATM   18  C11 UNL     1      24.204   7.515  19.937  1.00  0.00     0.122 C 
BRANCH  18  19
HETATM   19  N3  UNL     1      23.444   6.458  19.364  1.00  0.00    -0.367 N 
HETATM   20  C12 UNL     1      23.576   6.090  18.157  1.00  0.00     0.196 C 
HETATM   21  N4  UNL     1      22.746   5.006  17.706  1.00  0.00    -0.067 NA
HETATM   22  N5  UNL     1      24.492   6.715  17.299  1.00  0.00    -0.067 NA
ATOM     23  H3  UNL     1      22.763   5.973  19.950  1.00  0.00     0.161 HD
ENDBRANCH  18  19
ENDBRANCH  17  18
ENDBRANCH  16  17
ENDBRANCH   1  16
BRANCH   1  24
HETATM   24  N6  UNL     1      21.593  10.107  22.824  1.00  0.00    -0.346 N 
HETATM   25  C13 UNL     1      22.080  11.435  22.704  1.00  0.00     0.238 C 
HETATM   26  O2  UNL     1      22.236  11.902  21.563  1.00  0.00    -0.272 OA
ATOM     27  H6  UNL     1      21.463   9.719  23.758  1.00  0.00     0.163 HD
BRANCH  25  28
HETATM   28  C14 UNL     1      22.389  12.245  23.901  1.00  0.00     0.097 C 
HETATM   29  C16 UNL     1      22.675  13.710  23.490  1.00  0.00     0.036 C 
HETATM   30  C17 UNL     1      21.921  14.576  24.441  1.00  0.00    -0.004 C 
HETATM   31  C18 UNL     1      20.478  14.601  23.995  1.00  0.00     0.006 C 
HETATM   32  C22 UNL     1      21.733  13.647  25.651  1.00  0.00    -0.035 C 
HETATM   33  C19 UNL     1      20.126  13.109  24.085  1.00  0.00     0.012 C 
HETATM   34  C20 UNL     1      21.275  12.443  24.831  1.00  0.00    -0.011 C 
HETATM   35  C21 UNL     1      20.833  11.310  25.677  1.00  0.00     0.018 C 
HETATM   36  C23 UNL     1      20.633  14.151  26.555  1.00  0.00     0.016 C 
HETATM   37  C24 UNL     1      22.961  13.474  26.440  1.00  0.00     0.016 C 
BRANCH  28  38
HETATM   38  S3  UNL     1      23.898  11.520  24.600  1.00  0.00    -0.153 SA
HETATM   39  C15 UNL     1      25.397  12.233  23.937  1.00  0.00     0.091 C 
ENDBRANCH  28  38
ENDBRANCH  25  28
ENDBRANCH   1  24
TORSDOF 12
ENDMDL
MODEL 2
REMARK VINA RESULT: -7.384382973      3.274      7.803
REMARK  12 active torsions:
REMARK  status: ('A' for Active; 'I' for Inactive)
REMARK    1  A    between atoms: S1_2  and  C2_3 
REMARK    2  A    between atoms: C2_3  and  C3_4 
REMARK    3  A    between atoms: C3_4  and  N1_5 
REMARK    4  A    between atoms: N1_5  and  C4_8 
REMARK       I    between atoms: N2_12  and  C7_13 
REMARK    5  A    between atoms: C7_13  and  C8_15 
REMARK    6  A    between atoms: C8_15  and  C9_16 
REMARK    7  A    between atoms: C8_15  and  N6_24 
REMARK    8  A    between atoms: C9_16  and  C10_17 
REMARK    9  A    between atoms: C10_17  and  C11_18 
REMARK   10  A    between atoms: C11_18  and  N3_19 
REMARK       I    between atoms: N6_24  and  C13_26 
REMARK   11  A    between atoms: C13_26  and  C14_28 
REMARK   12  A    between atoms: C14_28  and  S3_29 
ROOT
HETATM    1  C8  UNL     1      21.022   8.036  19.561  1.00  0.00     0.176 C 
ENDROOT
BRANCH   1   2
HETATM    2  C7  UNL     1      22.159   7.118  19.304  1.00  0.00     0.244 C 
HETATM    3  N2  UNL     1      22.102   6.050  18.369  1.00  0.00    -0.313 N 
HETATM    4  C4  UNL     1      23.238   5.143  18.103  1.00  0.00     0.352 C 
HETATM    5  C6  UNL     1      21.028   5.598  17.525  1.00  0.00     0.139 C 
HETATM    6  S2  UNL     1      23.232   5.249  16.264  1.00  0.00    -0.114 SA
HETATM    7  C5  UNL     1      21.479   5.782  16.077  1.00  0.00     0.098 C 
HETATM    8  O1  UNL     1      23.213   7.318  19.963  1.00  0.00    -0.271 OA
BRANCH   4   9
HETATM    9  N1  UNL     1      22.881   3.801  18.436  1.00  0.00    -0.044 N 
ATOM     10  H12 UNL     1      21.891   3.636  18.256  1.00  0.00     0.280 HD
ATOM     11  H11 UNL     1      22.896   3.666  19.448  1.00  0.00     0.280 HD
BRANCH   9  12
HETATM   12  C3  UNL     1      23.687   2.810  17.781  1.00  0.00     0.246 C 
BRANCH  12  13
HETATM   13  C2  UNL     1      22.954   1.484  17.767  1.00  0.00     0.101 C 
BRANCH  13  14
HETATM   14  S1  UNL     1      21.157   1.833  17.766  1.00  0.00    -0.172 SA
HETATM   15  C1  UNL     1      20.650   2.101  16.036  1.00  0.00     0.089 C 
ENDBRANCH  13  14
ENDBRANCH  12  13
ENDBRANCH   9  12
ENDBRANCH   4   9
ENDBRANCH   1   2
BRANCH   1  16
HETATM   16  C9  UNL     1      21.440   9.075  20.600  1.00  0.00     0.036 C 
BRANCH  16  17
HETATM   17  C10 UNL     1      20.818   8.844  21.942  1.00  0.00     0.022 C 
BRANCH  17  18
HETATM   18  C11 UNL     1      21.107   9.977  22.900  1.00  0.00     0.122 C 
BRANCH  18  19
HETATM   19  N3  UNL     1      21.785  11.087  22.322  1.00  0.00    -0.367 N 
HETATM   20  C12 UNL     1      22.923  11.482  22.722  1.00  0.00     0.196 C 
HETATM   21  N4  UNL     1      23.498  12.615  22.049  1.00  0.00    -0.067 NA
HETATM   22  N5  UNL     1      23.590  10.842  23.776  1.00  0.00    -0.067 NA
ATOM     23  H3  UNL     1      21.338  11.586  21.553  1.00  0.00     0.161 HD
ENDBRANCH  18  19
ENDBRANCH  17  18
ENDBRANCH  16  17
ENDBRANCH   1  16
BRANCH   1  24
HETATM   24  N6  UNL     1      19.909   7.300  20.185  1.00  0.00    -0.346 N 
HETATM   25  C13 UNL     1      18.615   7.221  19.608  1.00  0.00     0.238 C 
HETATM   26  O2  UNL     1      18.418   7.803  18.527  1.00  0.00    -0.272 OA
ATOM     27  H6  UNL     1      20.076   6.825  21.072  1.00  0.00     0.163 HD
BRANCH  25  28
HETATM   28  C14 UNL     1      17.530   6.466  20.268  1.00  0.00     0.097 C 
HETATM   29  C16 UNL     1      18.082   5.720  21.508  1.00  0.00     0.036 C 
HETATM   30  C17 UNL     1      17.112   5.955  22.615  1.00  0.00    -0.004 C 
HETATM   31  C18 UNL     1      17.375   7.334  23.173  1.00  0.00     0.006 C 
HETATM   32  C22 UNL     1      15.822   6.297  21.853  1.00  0.00    -0.035 C 
HETATM   33  C19 UNL     1      17.130   8.197  21.925  1.00  0.00     0.012 C 
HETATM   34  C20 UNL     1      16.486   7.281  20.892  1.00  0.00    -0.011 C 
HETATM   35  C21 UNL     1      15.509   7.985  20.029  1.00  0.00     0.018 C 
HETATM   36  C23 UNL     1      14.828   6.990  22.755  1.00  0.00     0.016 C 
HETATM   37  C24 UNL     1      15.182   5.121  21.248  1.00  0.00     0.016 C 
BRANCH  28  38
HETATM   38  S3  UNL     1      16.973   5.248  19.045  1.00  0.00    -0.153 SA
HETATM   39  C15 UNL     1      18.025   3.807  18.952  1.00  0.00     0.091 C 
ENDBRANCH  28  38
ENDBRANCH  25  28
ENDBRANCH   1  24
TORSDOF 12
ENDMDL
MODEL 3
REMARK VINA RESULT: -7.372009313      2.701      5.516
REMARK  12 active torsions:
REMARK  status: ('A' for Active; 'I' for Inactive)
REMARK    1  A    between atoms: S1_2  and  C2_3 
REMARK    2  A    between atoms: C2_3  and  C3_4 
REMARK    3  A    between atoms: C3_4  and  N1_5 
REMARK    4  A    between atoms: N1_5  and  C4_8 
REMARK       I    between atoms: N2_12  and  C7_13 
REMARK    5  A    between atoms: C7_13  and  C8_15 
REMARK    6  A    between atoms: C8_15  and  C9_16 
REMARK    7  A    between atoms: C8_15  and  N6_24 
REMARK    8  A    between atoms: C9_16  and  C10_17 
REMARK    9  A    between atoms: C10_17  and  C11_18 
REMARK   10  A    between atoms: C11_18  and  N3_19 
REMARK       I    between atoms: N6_24  and  C13_26 
REMARK   11  A    between atoms: C13_26  and  C14_28 
REMARK   12  A    between atoms: C14_28  and  S3_29 
ROOT
HETATM    1  C8  UNL     1      19.761   8.750  22.914  1.00  0.00     0.176 C 
ENDROOT
BRANCH   1   2
HETATM    2  C7  UNL     1      19.299   8.526  21.522  1.00  0.00     0.244 C 
HETATM    3  N2  UNL     1      18.229   7.654  21.186  1.00  0.00    -0.313 N 
HETATM    4  C4  UNL     1      17.760   7.440  19.801  1.00  0.00     0.352 C 
HETATM    5  C6  UNL     1      17.407   6.815  22.017  1.00  0.00     0.139 C 
HETATM    6  S2  UNL     1      15.960   7.694  20.093  1.00  0.00    -0.114 SA
HETATM    7  C5  UNL     1      15.971   7.324  21.897  1.00  0.00     0.098 C 
HETATM    8  O1  UNL     1      19.905   9.153  20.613  1.00  0.00    -0.271 OA
BRANCH   4   9
HETATM    9  N1  UNL     1      17.925   6.070  19.434  1.00  0.00    -0.044 N 
ATOM     10  H12 UNL     1      17.198   5.782  18.780  1.00  0.00     0.280 HD
ATOM     11  H11 UNL     1      17.701   5.458  20.219  1.00  0.00     0.280 HD
BRANCH   9  12
HETATM   12  C3  UNL     1      19.227   5.767  18.910  1.00  0.00     0.246 C 
BRANCH  12  13
HETATM   13  C2  UNL     1      19.678   6.881  17.987  1.00  0.00     0.101 C 
BRANCH  13  14
HETATM   14  S1  UNL     1      21.468   6.664  17.673  1.00  0.00    -0.172 SA
HETATM   15  C1  UNL     1      21.653   5.961  16.002  1.00  0.00     0.089 C 
ENDBRANCH  13  14
ENDBRANCH  12  13
ENDBRANCH   9  12
ENDBRANCH   4   9
ENDBRANCH   1   2
BRANCH   1  16
HETATM   16  C9  UNL     1      18.591   8.532  23.871  1.00  0.00     0.036 C 
BRANCH  16  17
HETATM   17  C10 UNL     1      18.313   9.723  24.736  1.00  0.00     0.022 C 
BRANCH  17  18
HETATM   18  C11 UNL     1      18.350   9.372  26.207  1.00  0.00     0.122 C 
BRANCH  18  19
HETATM   19  N3  UNL     1      17.810   8.096  26.528  1.00  0.00    -0.367 N 
HETATM   20  C12 UNL     1      16.609   7.932  26.903  1.00  0.00     0.196 C 
HETATM   21  N4  UNL     1      16.190   6.588  27.195  1.00  0.00    -0.067 NA
HETATM   22  N5  UNL     1      15.727   9.015  27.027  1.00  0.00    -0.067 NA
ATOM     23  H3  UNL     1      18.414   7.277  26.454  1.00  0.00     0.161 HD
ENDBRANCH  18  19
ENDBRANCH  17  18
ENDBRANCH  16  17
ENDBRANCH   1  16
BRANCH   1  24
HETATM   24  N6  UNL     1      20.147  10.159  23.098  1.00  0.00    -0.346 N 
HETATM   25  C13 UNL     1      21.492  10.573  23.284  1.00  0.00     0.238 C 
HETATM   26  O2  UNL     1      22.379   9.702  23.292  1.00  0.00    -0.272 OA
ATOM     27  H6  UNL     1      19.416  10.870  23.092  1.00  0.00     0.163 HD
BRANCH  25  28
HETATM   28  C14 UNL     1      21.833  12.000  23.460  1.00  0.00     0.097 C 
HETATM   29  C16 UNL     1      20.570  12.875  23.263  1.00  0.00     0.036 C 
HETATM   30  C17 UNL     1      20.558  13.866  24.375  1.00  0.00    -0.004 C 
HETATM   31  C18 UNL     1      20.033  13.168  25.608  1.00  0.00     0.006 C 
HETATM   32  C22 UNL     1      22.037  13.909  24.792  1.00  0.00    -0.035 C 
HETATM   33  C19 UNL     1      21.076  12.051  25.768  1.00  0.00     0.012 C 
HETATM   34  C20 UNL     1      22.217  12.392  24.818  1.00  0.00    -0.011 C 
HETATM   35  C21 UNL     1      23.542  11.983  25.338  1.00  0.00     0.018 C 
HETATM   36  C23 UNL     1      22.194  14.507  26.170  1.00  0.00     0.016 C 
HETATM   37  C24 UNL     1      22.881  14.653  23.846  1.00  0.00     0.016 C 
BRANCH  28  38
HETATM   38  S3  UNL     1      23.027  12.379  22.148  1.00  0.00    -0.153 SA
HETATM   39  C15 UNL     1      22.700  11.508  20.622  1.00  0.00     0.091 C 
ENDBRANCH  28  38
ENDBRANCH  25  28
ENDBRANCH   1  24
TORSDOF 12
ENDMDL
MODEL 4
REMARK VINA RESULT: -7.363810759      4.707      9.044
REMARK  12 active torsions:
REMARK  status: ('A' for Active; 'I' for Inactive)
REMARK    1  A    between atoms: S1_2  and  C2_3 
REMARK    2  A    between atoms: C2_3  and  C3_4 
REMARK    3  A    between atoms: C3_4  and  N1_5 
REMARK    4  A    between atoms: N1_5  and  C4_8 
REMARK       I    between atoms: N2_12  and  C7_13 
REMARK    5  A    between atoms: C7_13  and  C8_15 
REMARK    6  A    between atoms: C8_15  and  C9_16 
REMARK    7  A    between atoms: C8_15  and  N6_24 
REMARK    8  A    between atoms: C9_16  and  C10_17 
REMARK    9  A    between atoms: C10_17  and  C11_18 
REMARK   10  A    between atoms: C11_18  and  N3_19 
REMARK       I    between atoms: N6_24  and  C13_26 
REMARK   11  A    between atoms: C13_26  and  C14_28 
REMARK   12  A    between atoms: C14_28  and  S3_29 
ROOT
HETATM    1  C8  UNL     1      17.066   5.083  19.340  1.00  0.00     0.176 C 
ENDROOT
BRANCH   1   2
HETATM    2  C7  UNL     1      18.098   6.030  18.851  1.00  0.00     0.244 C 
HETATM    3  N2  UNL     1      19.344   5.613  18.308  1.00  0.00    -0.313 N 
HETATM    4  C4  UNL     1      20.368   6.555  17.810  1.00  0.00     0.352 C 
HETATM    5  C6  UNL     1      19.896   4.297  18.131  1.00  0.00     0.139 C 
HETATM    6  S2  UNL     1      20.681   5.759  16.179  1.00  0.00    -0.114 SA
HETATM    7  C5  UNL     1      20.079   4.079  16.629  1.00  0.00     0.098 C 
HETATM    8  O1  UNL     1      17.832   7.258  18.935  1.00  0.00    -0.271 OA
BRANCH   4   9
HETATM    9  N1  UNL     1      21.569   6.418  18.569  1.00  0.00    -0.044 N 
ATOM     10  H12 UNL     1      21.676   5.461  18.905  1.00  0.00     0.280 HD
ATOM     11  H11 UNL     1      21.488   6.905  19.462  1.00  0.00     0.280 HD
BRANCH   9  12
HETATM   12  C3  UNL     1      22.747   6.843  17.866  1.00  0.00     0.246 C 
BRANCH  12  13
HETATM   13  C2  UNL     1      23.931   6.002  18.299  1.00  0.00     0.101 C 
BRANCH  13  14
HETATM   14  S1  UNL     1      24.753   6.860  19.691  1.00  0.00    -0.172 SA
HETATM   15  C1  UNL     1      24.264   8.615  19.621  1.00  0.00     0.089 C 
ENDBRANCH  13  14
ENDBRANCH  12  13
ENDBRANCH   9  12
ENDBRANCH   4   9
ENDBRANCH   1   2
BRANCH   1  16
HETATM   16  C9  UNL     1      16.105   4.755  18.198  1.00  0.00     0.036 C 
BRANCH  16  17
HETATM   17  C10 UNL     1      14.728   5.300  18.417  1.00  0.00     0.022 C 
BRANCH  17  18
HETATM   18  C11 UNL     1      13.659   4.300  18.039  1.00  0.00     0.122 C 
BRANCH  18  19
HETATM   19  N3  UNL     1      13.929   3.559  16.855  1.00  0.00    -0.367 N 
HETATM   20  C12 UNL     1      13.504   2.378  16.669  1.00  0.00     0.196 C 
HETATM   21  N4  UNL     1      13.848   1.744  15.426  1.00  0.00    -0.067 NA
HETATM   22  N5  UNL     1      12.731   1.719  17.636  1.00  0.00    -0.067 NA
ATOM     23  H3  UNL     1      14.490   3.996  16.122  1.00  0.00     0.161 HD
ENDBRANCH  18  19
ENDBRANCH  17  18
ENDBRANCH  16  17
ENDBRANCH   1  16
BRANCH   1  24
HETATM   24  N6  UNL     1      16.231   5.731  20.366  1.00  0.00    -0.346 N 
HETATM   25  C13 UNL     1      16.379   5.478  21.754  1.00  0.00     0.238 C 
HETATM   26  O2  UNL     1      17.254   4.671  22.114  1.00  0.00    -0.272 OA
ATOM     27  H6  UNL     1      15.514   6.391  20.065  1.00  0.00     0.163 HD
BRANCH  25  28
HETATM   28  C14 UNL     1      15.521   6.156  22.748  1.00  0.00     0.097 C 
HETATM   29  C16 UNL     1      14.440   7.000  22.028  1.00  0.00     0.036 C 
HETATM   30  C17 UNL     1      13.150   6.722  22.720  1.00  0.00    -0.004 C 
HETATM   31  C18 UNL     1      12.632   5.397  22.211  1.00  0.00     0.006 C 
HETATM   32  C22 UNL     1      13.617   6.231  24.100  1.00  0.00    -0.035 C 
HETATM   33  C19 UNL     1      13.782   4.465  22.623  1.00  0.00     0.012 C 
HETATM   34  C20 UNL     1      14.675   5.274  23.555  1.00  0.00    -0.011 C 
HETATM   35  C21 UNL     1      15.299   4.449  24.615  1.00  0.00     0.018 C 
HETATM   36  C23 UNL     1      12.512   5.486  24.811  1.00  0.00     0.016 C 
HETATM   37  C24 UNL     1      14.098   7.318  24.964  1.00  0.00     0.016 C 
BRANCH  28  38
HETATM   38  S3  UNL     1      16.625   7.266  23.665  1.00  0.00    -0.153 SA
HETATM   39  C15 UNL     1      17.696   8.229  22.607  1.00  0.00     0.091 C 
ENDBRANCH  28  38
ENDBRANCH  25  28
ENDBRANCH   1  24
TORSDOF 12
ENDMDL
MODEL 5
REMARK VINA RESULT: -7.302052716      2.765      5.661
REMARK  12 active torsions:
REMARK  status: ('A' for Active; 'I' for Inactive)
REMARK    1  A    between atoms: S1_2  and  C2_3 
REMARK    2  A    between atoms: C2_3  and  C3_4 
REMARK    3  A    between atoms: C3_4  and  N1_5 
REMARK    4  A    between atoms: N1_5  and  C4_8 
REMARK       I    between atoms: N2_12  and  C7_13 
REMARK    5  A    between atoms: C7_13  and  C8_15 
REMARK    6  A    between atoms: C8_15  and  C9_16 
REMARK    7  A    between atoms: C8_15  and  N6_24 
REMARK    8  A    between atoms: C9_16  and  C10_17 
REMARK    9  A    between atoms: C10_17  and  C11_18 
REMARK   10  A    between atoms: C11_18  and  N3_19 
REMARK       I    between atoms: N6_24  and  C13_26 
REMARK   11  A    between atoms: C13_26  and  C14_28 
REMARK   12  A    between atoms: C14_28  and  S3_29 
ROOT
HETATM    1  C8  UNL     1      19.699   8.732  22.897  1.00  0.00     0.176 C 
ENDROOT
BRANCH   1   2
HETATM    2  C7  UNL     1      19.271   8.511  21.493  1.00  0.00     0.244 C 
HETATM    3  N2  UNL     1      18.230   7.616  21.127  1.00  0.00    -0.313 N 
HETATM    4  C4  UNL     1      17.794   7.405  19.731  1.00  0.00     0.352 C 
HETATM    5  C6  UNL     1      17.413   6.748  21.933  1.00  0.00     0.139 C 
HETATM    6  S2  UNL     1      15.983   7.611  19.989  1.00  0.00    -0.114 SA
HETATM    7  C5  UNL     1      15.967   7.222  21.789  1.00  0.00     0.098 C 
HETATM    8  O1  UNL     1      19.878   9.162  20.603  1.00  0.00    -0.271 OA
BRANCH   4   9
HETATM    9  N1  UNL     1      18.002   6.044  19.354  1.00  0.00    -0.044 N 
ATOM     10  H12 UNL     1      17.308   5.751  18.666  1.00  0.00     0.280 HD
ATOM     11  H11 UNL     1      17.757   5.416  20.121  1.00  0.00     0.280 HD
BRANCH   9  12
HETATM   12  C3  UNL     1      19.330   5.772  18.882  1.00  0.00     0.246 C 
BRANCH  12  13
HETATM   13  C2  UNL     1      19.820   6.934  18.042  1.00  0.00     0.101 C 
BRANCH  13  14
HETATM   14  S1  UNL     1      21.547   6.582  17.544  1.00  0.00    -0.172 SA
HETATM   15  C1  UNL     1      22.643   7.363  18.773  1.00  0.00     0.089 C 
ENDBRANCH  13  14
ENDBRANCH  12  13
ENDBRANCH   9  12
ENDBRANCH   4   9
ENDBRANCH   1   2
BRANCH   1  16
HETATM   16  C9  UNL     1      18.503   8.520  23.825  1.00  0.00     0.036 C 
BRANCH  16  17
HETATM   17  C10 UNL     1      18.514   9.433  25.011  1.00  0.00     0.022 C 
BRANCH  17  18
HETATM   18  C11 UNL     1      17.536   8.988  26.074  1.00  0.00     0.122 C 
BRANCH  18  19
HETATM   19  N3  UNL     1      18.136   8.488  27.264  1.00  0.00    -0.367 N 
HETATM   20  C12 UNL     1      18.274   9.189  28.312  1.00  0.00     0.196 C 
HETATM   21  N4  UNL     1      18.897   8.561  29.446  1.00  0.00    -0.067 NA
HETATM   22  N5  UNL     1      17.839  10.521  28.363  1.00  0.00    -0.067 NA
ATOM     23  H3  UNL     1      18.470   7.524  27.275  1.00  0.00     0.161 HD
ENDBRANCH  18  19
ENDBRANCH  17  18
ENDBRANCH  16  17
ENDBRANCH   1  16
BRANCH   1  24
HETATM   24  N6  UNL     1      20.087  10.139  23.092  1.00  0.00    -0.346 N 
HETATM   25  C13 UNL     1      21.431  10.548  23.289  1.00  0.00     0.238 C 
HETATM   26  O2  UNL     1      22.316   9.675  23.298  1.00  0.00    -0.272 OA
ATOM     27  H6  UNL     1      19.357  10.851  23.085  1.00  0.00     0.163 HD
BRANCH  25  28
HETATM   28  C14 UNL     1      21.775  11.974  23.476  1.00  0.00     0.097 C 
HETATM   29  C16 UNL     1      20.508  12.850  23.314  1.00  0.00     0.036 C 
HETATM   30  C17 UNL     1      20.518  13.827  24.438  1.00  0.00    -0.004 C 
HETATM   31  C18 UNL     1      20.017  13.114  25.672  1.00  0.00     0.006 C 
HETATM   32  C22 UNL     1      22.004  13.866  24.826  1.00  0.00    -0.035 C 
HETATM   33  C19 UNL     1      21.064  11.996  25.798  1.00  0.00     0.012 C 
HETATM   34  C20 UNL     1      22.186  12.350  24.830  1.00  0.00    -0.011 C 
HETATM   35  C21 UNL     1      23.521  11.935  25.319  1.00  0.00     0.018 C 
HETATM   36  C23 UNL     1      22.188  14.448  26.207  1.00  0.00     0.016 C 
HETATM   37  C24 UNL     1      22.828  14.623  23.873  1.00  0.00     0.016 C 
BRANCH  28  38
HETATM   38  S3  UNL     1      22.943  12.369  22.145  1.00  0.00    -0.153 SA
HETATM   39  C15 UNL     1      22.684  11.399  20.666  1.00  0.00     0.091 C 
ENDBRANCH  28  38
ENDBRANCH  25  28
ENDBRANCH   1  24
TORSDOF 12
ENDMDL
