MODEL 1
REMARK VINA RESULT: -8.752633371      0.000      0.000
REMARK  11 active torsions:
REMARK  status: ('A' for Active; 'I' for Inactive)
REMARK       I    between atoms: C2_2  and  N1_4 
REMARK    1  A    between atoms: N1_4  and  C3_6 
REMARK    2  A    between atoms: C16_20  and  N2_21 
REMARK    3  A    between atoms: C17_24  and  O5_25 
REMARK    4  A    between atoms: O5_25  and  C18_26 
REMARK    5  A    between atoms: C19_27  and  C20_28 
REMARK    6  A    between atoms: C20_28  and  C21_29 
REMARK    7  A    between atoms: C21_29  and  C22_30 
REMARK    8  A    between atoms: C22_30  and  C23_31 
REMARK    9  A    between atoms: C23_31  and  C26_34 
REMARK   10  A    between atoms: C28_38  and  O8_39 
REMARK   11  A    between atoms: C29_41  and  O9_42 
ROOT
HETATM    1  C3  UNL     1      23.319   8.368  20.909  1.00  0.00     0.116 C 
HETATM    2  C4  UNL     1      24.417   7.707  20.188  1.00  0.00     0.032 C 
HETATM    3  C5  UNL     1      24.053   7.053  18.865  1.00  0.00    -0.011 C 
HETATM    4  C6  UNL     1      25.461   6.745  18.296  1.00  0.00     0.010 C 
HETATM    5  C7  UNL     1      23.392   5.775  19.175  1.00  0.00     0.008 C 
HETATM    6  C8  UNL     1      23.052   4.863  18.025  1.00  0.00     0.043 C 
HETATM    7  C9  UNL     1      23.860   4.738  16.850  1.00  0.00     0.014 C 
HETATM    8  C10 UNL     1      23.297   3.669  15.911  1.00  0.00     0.041 C 
HETATM    9  C11 UNL     1      21.817   3.566  15.970  1.00  0.00     0.084 A 
HETATM   10  C12 UNL     1      21.058   4.706  15.369  1.00  0.00     0.049 C 
HETATM   11  O2  UNL     1      21.121   2.407  15.617  1.00  0.00    -0.370 OA
HETATM   12  C13 UNL     1      21.421   2.583  16.915  1.00  0.00     0.157 A 
HETATM   13  C14 UNL     1      20.625   3.092  18.027  1.00  0.00     0.048 C 
HETATM   14  C15 UNL     1      21.489   3.406  19.235  1.00  0.00     0.071 C 
HETATM   15  C16 UNL     1      22.874   3.587  18.751  1.00  0.00     0.069 C 
HETATM   16  C17 UNL     1      21.092   4.773  19.700  1.00  0.00     0.144 C 
HETATM   17  C27 UNL     1      22.181   5.771  20.030  1.00  0.00     0.052 C 
HETATM   18  C28 UNL     1      21.410   7.035  20.203  1.00  0.00     0.155 C 
HETATM   19  C29 UNL     1      22.071   8.335  20.078  1.00  0.00     0.170 C 
ENDROOT
BRANCH  16  20
HETATM   20  O5  UNL     1      20.333   4.589  20.898  1.00  0.00    -0.357 OA
BRANCH  20  21
HETATM   21  C18 UNL     1      19.057   4.091  20.945  1.00  0.00     0.131 C 
HETATM   22  C19 UNL     1      18.237   4.296  21.956  1.00  0.00    -0.003 C 
BRANCH  22  23
HETATM   23  C20 UNL     1      16.854   3.720  21.938  1.00  0.00     0.029 C 
BRANCH  23  24
HETATM   24  C21 UNL     1      15.814   4.776  21.931  1.00  0.00     0.005 C 
BRANCH  24  25
HETATM   25  C22 UNL     1      16.330   6.151  22.014  1.00  0.00     0.020 C 
BRANCH  25  26
HETATM   26  C23 UNL     1      16.316   7.025  20.822  1.00  0.00     0.041 C 
HETATM   27  C24 UNL     1      15.566   6.404  19.649  1.00  0.00     0.026 C 
HETATM   28  C25 UNL     1      15.429   8.248  21.222  1.00  0.00     0.026 C 
BRANCH  26  29
HETATM   29  C26 UNL     1      17.608   7.581  20.390  1.00  0.00     0.181 C 
HETATM   30  O6  UNL     1      18.286   8.303  21.185  1.00  0.00    -0.647 OA
HETATM   31  O7  UNL     1      18.142   7.353  19.135  1.00  0.00    -0.647 OA
ENDBRANCH  26  29
ENDBRANCH  25  26
ENDBRANCH  24  25
ENDBRANCH  23  24
ENDBRANCH  22  23
ENDBRANCH  20  21
ENDBRANCH  16  20
BRANCH  15  32
HETATM   32  N2  UNL     1      23.775   2.746  18.992  1.00  0.00    -0.123 N 
HETATM   33  O3  UNL     1      24.008   1.580  18.288  1.00  0.00    -0.532 OA
HETATM   34  O4  UNL     1      24.698   2.911  20.038  1.00  0.00    -0.532 OA
ENDBRANCH  15  32
BRANCH  18  35
HETATM   35  O8  UNL     1      20.742   7.031  21.435  1.00  0.00    -0.392 OA
ATOM     36  H8  UNL     1      20.164   7.782  21.499  1.00  0.00     0.210 HD
ENDBRANCH  18  35
BRANCH  19  37
HETATM   37  O9  UNL     1      21.216   9.285  20.710  1.00  0.00    -0.391 OA
ATOM     38  H9  UNL     1      20.402   9.219  20.223  1.00  0.00     0.210 HD
ENDBRANCH  19  37
BRANCH   1  39
HETATM   39  N1  UNL     1      23.641   9.667  21.409  1.00  0.00    -0.354 N 
HETATM   40  C2  UNL     1      23.251  10.051  22.707  1.00  0.00     0.214 C 
HETATM   41  C1  UNL     1      23.554  11.388  23.290  1.00  0.00     0.117 C 
HETATM   42  O1  UNL     1      22.613   9.254  23.443  1.00  0.00    -0.274 OA
ATOM     43  H1  UNL     1      24.159  10.321  20.823  1.00  0.00     0.162 HD
ENDBRANCH   1  39
TORSDOF 11
ENDMDL
MODEL 2
REMARK VINA RESULT: -8.497540104      2.392      6.448
REMARK  11 active torsions:
REMARK  status: ('A' for Active; 'I' for Inactive)
REMARK       I    between atoms: C2_2  and  N1_4 
REMARK    1  A    between atoms: N1_4  and  C3_6 
REMARK    2  A    between atoms: C16_20  and  N2_21 
REMARK    3  A    between atoms: C17_24  and  O5_25 
REMARK    4  A    between atoms: O5_25  and  C18_26 
REMARK    5  A    between atoms: C19_27  and  C20_28 
REMARK    6  A    between atoms: C20_28  and  C21_29 
REMARK    7  A    between atoms: C21_29  and  C22_30 
REMARK    8  A    between atoms: C22_30  and  C23_31 
REMARK    9  A    between atoms: C23_31  and  C26_34 
REMARK   10  A    between atoms: C28_38  and  O8_39 
REMARK   11  A    between atoms: C29_41  and  O9_42 
ROOT
HETATM    1  C3  UNL     1      22.270   9.206  21.713  1.00  0.00     0.116 C 
HETATM    2  C4  UNL     1      21.116   9.268  22.620  1.00  0.00     0.032 C 
HETATM    3  C5  UNL     1      20.377   7.961  22.857  1.00  0.00    -0.011 C 
HETATM    4  C6  UNL     1      19.460   8.355  24.042  1.00  0.00     0.010 C 
HETATM    5  C7  UNL     1      19.528   7.718  21.679  1.00  0.00     0.008 C 
HETATM    6  C8  UNL     1      18.583   6.545  21.724  1.00  0.00     0.043 C 
HETATM    7  C9  UNL     1      17.925   6.107  22.917  1.00  0.00     0.014 C 
HETATM    8  C10 UNL     1      16.964   4.952  22.618  1.00  0.00     0.041 C 
HETATM    9  C11 UNL     1      17.428   4.085  21.504  1.00  0.00     0.084 A 
HETATM   10  C12 UNL     1      18.612   3.220  21.799  1.00  0.00     0.049 C 
HETATM   11  O2  UNL     1      16.559   3.306  20.735  1.00  0.00    -0.370 OA
HETATM   12  C13 UNL     1      16.883   4.524  20.269  1.00  0.00     0.157 A 
HETATM   13  C14 UNL     1      17.872   4.946  19.282  1.00  0.00     0.048 C 
HETATM   14  C15 UNL     1      18.095   6.447  19.320  1.00  0.00     0.071 C 
HETATM   15  C16 UNL     1      17.648   6.925  20.645  1.00  0.00     0.069 C 
HETATM   16  C17 UNL     1      19.577   6.658  19.346  1.00  0.00     0.144 C 
HETATM   17  C27 UNL     1      20.150   7.649  20.336  1.00  0.00     0.052 C 
HETATM   18  C28 UNL     1      21.615   7.395  20.226  1.00  0.00     0.155 C 
HETATM   19  C29 UNL     1      22.523   7.785  21.306  1.00  0.00     0.170 C 
ENDROOT
BRANCH  16  20
HETATM   20  O5  UNL     1      19.944   7.124  18.045  1.00  0.00    -0.357 OA
BRANCH  20  21
HETATM   21  C18 UNL     1      20.322   6.318  17.005  1.00  0.00     0.131 C 
HETATM   22  C19 UNL     1      20.685   5.060  17.158  1.00  0.00    -0.003 C 
BRANCH  22  23
HETATM   23  C20 UNL     1      21.087   4.237  15.973  1.00  0.00     0.029 C 
BRANCH  23  24
HETATM   24  C21 UNL     1      22.124   3.235  16.320  1.00  0.00     0.005 C 
BRANCH  24  25
HETATM   25  C22 UNL     1      22.502   3.205  17.741  1.00  0.00     0.020 C 
BRANCH  25  26
HETATM   26  C23 UNL     1      23.885   3.524  18.151  1.00  0.00     0.041 C 
HETATM   27  C24 UNL     1      24.586   2.345  18.817  1.00  0.00     0.026 C 
HETATM   28  C25 UNL     1      24.674   3.716  16.816  1.00  0.00     0.026 C 
BRANCH  26  29
HETATM   29  C26 UNL     1      24.082   4.761  18.923  1.00  0.00     0.181 C 
HETATM   30  O6  UNL     1      24.094   5.884  18.330  1.00  0.00    -0.647 OA
HETATM   31  O7  UNL     1      24.256   4.771  20.295  1.00  0.00    -0.647 OA
ENDBRANCH  26  29
ENDBRANCH  25  26
ENDBRANCH  24  25
ENDBRANCH  23  24
ENDBRANCH  22  23
ENDBRANCH  20  21
ENDBRANCH  16  20
BRANCH  15  32
HETATM   32  N2  UNL     1      16.606   7.613  20.783  1.00  0.00    -0.123 N 
HETATM   33  O3  UNL     1      16.175   8.210  21.953  1.00  0.00    -0.532 OA
HETATM   34  O4  UNL     1      15.733   7.882  19.716  1.00  0.00    -0.532 OA
ENDBRANCH  15  32
BRANCH  18  35
HETATM   35  O8  UNL     1      22.118   7.956  19.044  1.00  0.00    -0.392 OA
ATOM     36  H8  UNL     1      23.047   8.130  19.132  1.00  0.00     0.210 HD
ENDBRANCH  18  35
BRANCH  19  37
HETATM   37  O9  UNL     1      23.832   7.820  20.740  1.00  0.00    -0.391 OA
ATOM     38  H9  UNL     1      23.706   7.495  19.856  1.00  0.00     0.210 HD
ENDBRANCH  19  37
BRANCH   1  39
HETATM   39  N1  UNL     1      23.434   9.881  22.193  1.00  0.00    -0.354 N 
HETATM   40  C2  UNL     1      23.695  11.213  21.816  1.00  0.00     0.214 C 
HETATM   41  C1  UNL     1      24.888  11.975  22.280  1.00  0.00     0.117 C 
HETATM   42  O1  UNL     1      22.905  11.825  21.051  1.00  0.00    -0.274 OA
ATOM     43  H1  UNL     1      24.080   9.396  22.815  1.00  0.00     0.162 HD
ENDBRANCH   1  39
TORSDOF 11
ENDMDL
MODEL 3
REMARK VINA RESULT: -8.474486374      0.860      1.265
REMARK  11 active torsions:
REMARK  status: ('A' for Active; 'I' for Inactive)
REMARK       I    between atoms: C2_2  and  N1_4 
REMARK    1  A    between atoms: N1_4  and  C3_6 
REMARK    2  A    between atoms: C16_20  and  N2_21 
REMARK    3  A    between atoms: C17_24  and  O5_25 
REMARK    4  A    between atoms: O5_25  and  C18_26 
REMARK    5  A    between atoms: C19_27  and  C20_28 
REMARK    6  A    between atoms: C20_28  and  C21_29 
REMARK    7  A    between atoms: C21_29  and  C22_30 
REMARK    8  A    between atoms: C22_30  and  C23_31 
REMARK    9  A    between atoms: C23_31  and  C26_34 
REMARK   10  A    between atoms: C28_38  and  O8_39 
REMARK   11  A    between atoms: C29_41  and  O9_42 
ROOT
HETATM    1  C3  UNL     1      22.982   8.201  21.391  1.00  0.00     0.116 C 
HETATM    2  C4  UNL     1      24.149   7.647  20.689  1.00  0.00     0.032 C 
HETATM    3  C5  UNL     1      23.898   7.113  19.289  1.00  0.00    -0.011 C 
HETATM    4  C6  UNL     1      25.351   6.906  18.791  1.00  0.00     0.010 C 
HETATM    5  C7  UNL     1      23.267   5.790  19.431  1.00  0.00     0.008 C 
HETATM    6  C8  UNL     1      23.039   4.983  18.180  1.00  0.00     0.043 C 
HETATM    7  C9  UNL     1      23.926   4.997  17.057  1.00  0.00     0.014 C 
HETATM    8  C10 UNL     1      23.466   4.006  15.984  1.00  0.00     0.041 C 
HETATM    9  C11 UNL     1      21.990   3.850  15.932  1.00  0.00     0.084 A 
HETATM   10  C12 UNL     1      21.229   5.018  15.390  1.00  0.00     0.049 C 
HETATM   11  O2  UNL     1      21.363   2.709  15.425  1.00  0.00    -0.370 OA
HETATM   12  C13 UNL     1      21.572   2.770  16.751  1.00  0.00     0.157 A 
HETATM   13  C14 UNL     1      20.686   3.143  17.849  1.00  0.00     0.048 C 
HETATM   14  C15 UNL     1      21.457   3.367  19.138  1.00  0.00     0.071 C 
HETATM   15  C16 UNL     1      22.862   3.638  18.768  1.00  0.00     0.069 C 
HETATM   16  C17 UNL     1      20.978   4.669  19.701  1.00  0.00     0.144 C 
HETATM   17  C27 UNL     1      22.004   5.665  20.197  1.00  0.00     0.052 C 
HETATM   18  C28 UNL     1      21.176   6.881  20.435  1.00  0.00     0.155 C 
HETATM   19  C29 UNL     1      21.793   8.208  20.478  1.00  0.00     0.170 C 
ENDROOT
BRANCH  16  20
HETATM   20  O5  UNL     1      20.150   4.347  20.821  1.00  0.00    -0.357 OA
BRANCH  20  21
HETATM   21  C18 UNL     1      18.849   3.926  20.735  1.00  0.00     0.131 C 
HETATM   22  C19 UNL     1      17.991   4.400  19.854  1.00  0.00    -0.003 C 
BRANCH  22  23
HETATM   23  C20 UNL     1      16.583   3.891  19.817  1.00  0.00     0.029 C 
BRANCH  23  24
HETATM   24  C21 UNL     1      15.633   4.843  20.443  1.00  0.00     0.005 C 
BRANCH  24  25
HETATM   25  C22 UNL     1      15.881   6.258  20.127  1.00  0.00     0.020 C 
BRANCH  25  26
HETATM   26  C23 UNL     1      16.245   7.208  21.200  1.00  0.00     0.041 C 
HETATM   27  C24 UNL     1      15.125   8.192  21.518  1.00  0.00     0.026 C 
HETATM   28  C25 UNL     1      16.353   6.340  22.495  1.00  0.00     0.026 C 
BRANCH  26  29
HETATM   29  C26 UNL     1      17.536   7.901  21.063  1.00  0.00     0.181 C 
HETATM   30  O6  UNL     1      18.083   8.004  19.921  1.00  0.00    -0.647 OA
HETATM   31  O7  UNL     1      18.203   8.465  22.135  1.00  0.00    -0.647 OA
ENDBRANCH  26  29
ENDBRANCH  25  26
ENDBRANCH  24  25
ENDBRANCH  23  24
ENDBRANCH  22  23
ENDBRANCH  20  21
ENDBRANCH  16  20
BRANCH  15  32
HETATM   32  N2  UNL     1      23.777   2.807  18.991  1.00  0.00    -0.123 N 
HETATM   33  O3  UNL     1      24.016   1.650  18.274  1.00  0.00    -0.532 OA
HETATM   34  O4  UNL     1      24.712   2.974  20.026  1.00  0.00    -0.532 OA
ENDBRANCH  15  32
BRANCH  18  35
HETATM   35  O8  UNL     1      20.430   6.737  21.612  1.00  0.00    -0.392 OA
ATOM     36  H8  UNL     1      21.006   6.570  22.348  1.00  0.00     0.210 HD
ENDBRANCH  18  35
BRANCH  19  37
HETATM   37  O9  UNL     1      20.863   9.065  21.137  1.00  0.00    -0.391 OA
ATOM     38  H9  UNL     1      20.165   8.479  21.405  1.00  0.00     0.210 HD
ENDBRANCH  19  37
BRANCH   1  39
HETATM   39  N1  UNL     1      23.222   9.454  22.033  1.00  0.00    -0.354 N 
HETATM   40  C2  UNL     1      23.535  10.599  21.273  1.00  0.00     0.214 C 
HETATM   41  C1  UNL     1      23.796  11.935  21.878  1.00  0.00     0.117 C 
HETATM   42  O1  UNL     1      23.607  10.531  20.019  1.00  0.00    -0.274 OA
ATOM     43  H1  UNL     1      23.165   9.522  23.049  1.00  0.00     0.162 HD
ENDBRANCH   1  39
TORSDOF 11
ENDMDL
MODEL 4
REMARK VINA RESULT: -8.473962442      0.916      1.188
REMARK  11 active torsions:
REMARK  status: ('A' for Active; 'I' for Inactive)
REMARK       I    between atoms: C2_2  and  N1_4 
REMARK    1  A    between atoms: N1_4  and  C3_6 
REMARK    2  A    between atoms: C16_20  and  N2_21 
REMARK    3  A    between atoms: C17_24  and  O5_25 
REMARK    4  A    between atoms: O5_25  and  C18_26 
REMARK    5  A    between atoms: C19_27  and  C20_28 
REMARK    6  A    between atoms: C20_28  and  C21_29 
REMARK    7  A    between atoms: C21_29  and  C22_30 
REMARK    8  A    between atoms: C22_30  and  C23_31 
REMARK    9  A    between atoms: C23_31  and  C26_34 
REMARK   10  A    between atoms: C28_38  and  O8_39 
REMARK   11  A    between atoms: C29_41  and  O9_42 
ROOT
HETATM    1  C3  UNL     1      22.851   8.295  21.134  1.00  0.00     0.116 C 
HETATM    2  C4  UNL     1      24.014   7.721  20.442  1.00  0.00     0.032 C 
HETATM    3  C5  UNL     1      23.748   7.110  19.076  1.00  0.00    -0.011 C 
HETATM    4  C6  UNL     1      25.195   6.897  18.564  1.00  0.00     0.010 C 
HETATM    5  C7  UNL     1      23.140   5.788  19.299  1.00  0.00     0.008 C 
HETATM    6  C8  UNL     1      22.902   4.913  18.096  1.00  0.00     0.043 C 
HETATM    7  C9  UNL     1      23.770   4.880  16.959  1.00  0.00     0.014 C 
HETATM    8  C10 UNL     1      23.307   3.827  15.948  1.00  0.00     0.041 C 
HETATM    9  C11 UNL     1      21.833   3.648  15.930  1.00  0.00     0.084 A 
HETATM   10  C12 UNL     1      21.045   4.775  15.340  1.00  0.00     0.049 C 
HETATM   11  O2  UNL     1      21.214   2.473  15.495  1.00  0.00    -0.370 OA
HETATM   12  C13 UNL     1      21.444   2.607  16.812  1.00  0.00     0.157 A 
HETATM   13  C14 UNL     1      20.571   3.026  17.904  1.00  0.00     0.048 C 
HETATM   14  C15 UNL     1      21.360   3.328  19.165  1.00  0.00     0.071 C 
HETATM   15  C16 UNL     1      22.755   3.599  18.758  1.00  0.00     0.069 C 
HETATM   16  C17 UNL     1      20.872   4.651  19.667  1.00  0.00     0.144 C 
HETATM   17  C27 UNL     1      21.892   5.686  20.092  1.00  0.00     0.052 C 
HETATM   18  C28 UNL     1      21.049   6.902  20.280  1.00  0.00     0.155 C 
HETATM   19  C29 UNL     1      21.647   8.238  20.242  1.00  0.00     0.170 C 
ENDROOT
BRANCH  16  20
HETATM   20  O5  UNL     1      20.067   4.377  20.817  1.00  0.00    -0.357 OA
BRANCH  20  21
HETATM   21  C18 UNL     1      18.740   4.040  20.779  1.00  0.00     0.131 C 
HETATM   22  C19 UNL     1      17.864   4.637  19.996  1.00  0.00    -0.003 C 
BRANCH  22  23
HETATM   23  C20 UNL     1      16.427   4.216  20.008  1.00  0.00     0.029 C 
BRANCH  23  24
HETATM   24  C21 UNL     1      15.528   5.321  20.419  1.00  0.00     0.005 C 
BRANCH  24  25
HETATM   25  C22 UNL     1      15.555   5.636  21.855  1.00  0.00     0.020 C 
BRANCH  25  26
HETATM   26  C23 UNL     1      15.903   6.998  22.311  1.00  0.00     0.041 C 
HETATM   27  C24 UNL     1      15.366   8.083  21.385  1.00  0.00     0.026 C 
HETATM   28  C25 UNL     1      15.095   7.207  23.632  1.00  0.00     0.026 C 
BRANCH  26  29
HETATM   29  C26 UNL     1      17.314   7.245  22.652  1.00  0.00     0.181 C 
HETATM   30  O6  UNL     1      17.972   6.372  23.299  1.00  0.00    -0.647 OA
HETATM   31  O7  UNL     1      17.981   8.402  22.298  1.00  0.00    -0.647 OA
ENDBRANCH  26  29
ENDBRANCH  25  26
ENDBRANCH  24  25
ENDBRANCH  23  24
ENDBRANCH  22  23
ENDBRANCH  20  21
ENDBRANCH  16  20
BRANCH  15  32
HETATM   32  N2  UNL     1      23.686   2.793  19.008  1.00  0.00    -0.123 N 
HETATM   33  O3  UNL     1      23.935   1.607  18.344  1.00  0.00    -0.532 OA
HETATM   34  O4  UNL     1      24.631   3.025  20.021  1.00  0.00    -0.532 OA
ENDBRANCH  15  32
BRANCH  18  35
HETATM   35  O8  UNL     1      20.325   6.810  21.476  1.00  0.00    -0.392 OA
ATOM     36  H8  UNL     1      19.560   7.372  21.442  1.00  0.00     0.210 HD
ENDBRANCH  18  35
BRANCH  19  37
HETATM   37  O9  UNL     1      20.715   9.115  20.871  1.00  0.00    -0.391 OA
ATOM     38  H9  UNL     1      19.959   8.563  21.036  1.00  0.00     0.210 HD
ENDBRANCH  19  37
BRANCH   1  39
HETATM   39  N1  UNL     1      23.083   9.584  21.704  1.00  0.00    -0.354 N 
HETATM   40  C2  UNL     1      22.587   9.900  22.985  1.00  0.00     0.214 C 
HETATM   41  C1  UNL     1      22.792  11.224  23.636  1.00  0.00     0.117 C 
HETATM   42  O1  UNL     1      21.935   9.049  23.643  1.00  0.00    -0.274 OA
ATOM     43  H1  UNL     1      23.612  10.282  21.181  1.00  0.00     0.162 HD
ENDBRANCH   1  39
TORSDOF 11
ENDMDL
MODEL 5
REMARK VINA RESULT: -8.301127755      1.823      2.299
REMARK  11 active torsions:
REMARK  status: ('A' for Active; 'I' for Inactive)
REMARK       I    between atoms: C2_2  and  N1_4 
REMARK    1  A    between atoms: N1_4  and  C3_6 
REMARK    2  A    between atoms: C16_20  and  N2_21 
REMARK    3  A    between atoms: C17_24  and  O5_25 
REMARK    4  A    between atoms: O5_25  and  C18_26 
REMARK    5  A    between atoms: C19_27  and  C20_28 
REMARK    6  A    between atoms: C20_28  and  C21_29 
REMARK    7  A    between atoms: C21_29  and  C22_30 
REMARK    8  A    between atoms: C22_30  and  C23_31 
REMARK    9  A    between atoms: C23_31  and  C26_34 
REMARK   10  A    between atoms: C28_38  and  O8_39 
REMARK   11  A    between atoms: C29_41  and  O9_42 
ROOT
HETATM    1  C3  UNL     1      23.346   8.469  20.912  1.00  0.00     0.116 C 
HETATM    2  C4  UNL     1      24.411   7.767  20.183  1.00  0.00     0.032 C 
HETATM    3  C5  UNL     1      24.006   7.107  18.875  1.00  0.00    -0.011 C 
HETATM    4  C6  UNL     1      25.395   6.750  18.287  1.00  0.00     0.010 C 
HETATM    5  C7  UNL     1      23.313   5.853  19.212  1.00  0.00     0.008 C 
HETATM    6  C8  UNL     1      22.928   4.937  18.080  1.00  0.00     0.043 C 
HETATM    7  C9  UNL     1      23.712   4.774  16.894  1.00  0.00     0.014 C 
HETATM    8  C10 UNL     1      23.102   3.710  15.978  1.00  0.00     0.041 C 
HETATM    9  C11 UNL     1      21.620   3.651  16.063  1.00  0.00     0.084 A 
HETATM   10  C12 UNL     1      20.885   4.806  15.459  1.00  0.00     0.049 C 
HETATM   11  O2  UNL     1      20.884   2.509  15.737  1.00  0.00    -0.370 OA
HETATM   12  C13 UNL     1      21.212   2.693  17.027  1.00  0.00     0.157 A 
HETATM   13  C14 UNL     1      20.450   3.239  18.145  1.00  0.00     0.048 C 
HETATM   14  C15 UNL     1      21.343   3.543  19.335  1.00  0.00     0.071 C 
HETATM   15  C16 UNL     1      22.724   3.677  18.825  1.00  0.00     0.069 C 
HETATM   16  C17 UNL     1      20.994   4.926  19.788  1.00  0.00     0.144 C 
HETATM   17  C27 UNL     1      22.117   5.896  20.087  1.00  0.00     0.052 C 
HETATM   18  C28 UNL     1      21.387   7.184  20.256  1.00  0.00     0.155 C 
HETATM   19  C29 UNL     1      22.084   8.463  20.103  1.00  0.00     0.170 C 
ENDROOT
BRANCH  16  20
HETATM   20  O5  UNL     1      20.250   4.780  21.001  1.00  0.00    -0.357 OA
BRANCH  20  21
HETATM   21  C18 UNL     1      18.977   4.282  21.079  1.00  0.00     0.131 C 
HETATM   22  C19 UNL     1      17.910   4.954  20.695  1.00  0.00    -0.003 C 
BRANCH  22  23
HETATM   23  C20 UNL     1      16.547   4.345  20.811  1.00  0.00     0.029 C 
BRANCH  23  24
HETATM   24  C21 UNL     1      15.487   5.261  20.325  1.00  0.00     0.005 C 
BRANCH  24  25
HETATM   25  C22 UNL     1      15.216   5.180  18.882  1.00  0.00     0.020 C 
BRANCH  25  26
HETATM   26  C23 UNL     1      14.272   4.171  18.357  1.00  0.00     0.041 C 
HETATM   27  C24 UNL     1      13.317   3.650  19.424  1.00  0.00     0.026 C 
HETATM   28  C25 UNL     1      13.339   4.954  17.378  1.00  0.00     0.026 C 
BRANCH  26  29
HETATM   29  C26 UNL     1      14.847   3.065  17.576  1.00  0.00     0.181 C 
HETATM   30  O6  UNL     1      15.707   2.294  18.106  1.00  0.00    -0.647 OA
HETATM   31  O7  UNL     1      14.495   2.808  16.264  1.00  0.00    -0.647 OA
ENDBRANCH  26  29
ENDBRANCH  25  26
ENDBRANCH  24  25
ENDBRANCH  23  24
ENDBRANCH  22  23
ENDBRANCH  20  21
ENDBRANCH  16  20
BRANCH  15  32
HETATM   32  N2  UNL     1      23.604   2.812  19.063  1.00  0.00    -0.123 N 
HETATM   33  O3  UNL     1      23.730   1.587  18.435  1.00  0.00    -0.532 OA
HETATM   34  O4  UNL     1      24.613   3.008  20.020  1.00  0.00    -0.532 OA
ENDBRANCH  15  32
BRANCH  18  35
HETATM   35  O8  UNL     1      20.740   7.215  21.499  1.00  0.00    -0.392 OA
ATOM     36  H8  UNL     1      19.840   7.499  21.394  1.00  0.00     0.210 HD
ENDBRANCH  18  35
BRANCH  19  37
HETATM   37  O9  UNL     1      21.268   9.446  20.737  1.00  0.00    -0.391 OA
ATOM     38  H9  UNL     1      21.070   9.064  21.585  1.00  0.00     0.210 HD
ENDBRANCH  19  37
BRANCH   1  39
HETATM   39  N1  UNL     1      23.715   9.764  21.391  1.00  0.00    -0.354 N 
HETATM   40  C2  UNL     1      23.353  10.177  22.688  1.00  0.00     0.214 C 
HETATM   41  C1  UNL     1      23.705  11.512  23.248  1.00  0.00     0.117 C 
HETATM   42  O1  UNL     1      22.700   9.411  23.442  1.00  0.00    -0.274 OA
ATOM     43  H1  UNL     1      24.245  10.394  20.789  1.00  0.00     0.162 HD
ENDBRANCH   1  39
TORSDOF 11
ENDMDL
