MODEL 1
REMARK VINA RESULT: -6.219999580      0.000      0.000
REMARK  12 active torsions:
REMARK  status: ('A' for Active; 'I' for Inactive)
REMARK    1  A    between atoms: C5_5  and  C6_6 
REMARK    2  A    between atoms: C5_5  and  N2_12 
REMARK    3  A    between atoms: C6_6  and  O1_7 
REMARK    4  A    between atoms: C6_6  and  N1_9 
REMARK    5  A    between atoms: N2_12  and  C9_13 
REMARK    6  A    between atoms: N2_12  and  C14_18 
REMARK    7  A    between atoms: C10_14  and  C11_15 
REMARK    8  A    between atoms: C23_27  and  O2_28 
REMARK    9  A    between atoms: C24_30  and  O3_31 
REMARK   10  A    between atoms: C25_33  and  O4_34 
REMARK   11  A    between atoms: C26_36  and  O5_37 
REMARK   12  A    between atoms: C27_39  and  O6_40 
ROOT
HETATM    1  C1  UNL     1      18.505   2.443  23.055  1.00  0.00     0.016 C 
HETATM    2  C2  UNL     1      17.586   2.913  22.223  1.00  0.00    -0.066 C 
HETATM    3  C3  UNL     1      16.265   3.331  22.780  1.00  0.00     0.038 C 
HETATM    4  C4  UNL     1      16.392   4.187  23.970  1.00  0.00     0.044 C 
HETATM    5  C5  UNL     1      16.055   5.661  23.903  1.00  0.00     0.097 C 
HETATM    6  C18 UNL     1      17.289   6.296  23.334  1.00  0.00     0.040 C 
HETATM    7  C19 UNL     1      17.648   7.683  23.644  1.00  0.00     0.003 C 
HETATM    8  C20 UNL     1      19.101   7.887  24.123  1.00  0.00     0.000 C 
HETATM    9  C21 UNL     1      19.979   7.249  23.087  1.00  0.00     0.002 C 
HETATM   10  C22 UNL     1      20.944   8.204  22.415  1.00  0.00     0.034 C 
HETATM   11  C23 UNL     1      20.832   8.178  20.923  1.00  0.00     0.149 C 
HETATM   12  C24 UNL     1      21.866   7.401  20.196  1.00  0.00     0.178 C 
HETATM   13  C25 UNL     1      22.109   6.006  20.651  1.00  0.00     0.180 C 
HETATM   14  C26 UNL     1      21.981   4.965  19.553  1.00  0.00     0.180 C 
HETATM   15  C27 UNL     1      20.569   4.435  19.437  1.00  0.00     0.175 C 
HETATM   16  C29 UNL     1      20.021   3.876  20.701  1.00  0.00     0.202 C 
HETATM   17  O7  UNL     1      19.231   2.741  20.553  1.00  0.00    -0.384 OA
HETATM   18  C30 UNL     1      17.887   3.001  20.768  1.00  0.00     0.201 C 
ENDROOT
BRANCH   5  19
HETATM   19  C6  UNL     1      16.094   6.149  25.307  1.00  0.00     0.142 C 
BRANCH  19  20
HETATM   20  O1  UNL     1      15.499   7.274  25.591  1.00  0.00    -0.348 OA
ATOM     21  H1  UNL     1      16.006   8.076  25.556  1.00  0.00     0.219 HD
ENDBRANCH  19  20
BRANCH  19  22
HETATM   22  N1  UNL     1      16.646   5.673  26.493  1.00  0.00    -0.372 N 
HETATM   23  C7  UNL     1      15.705   5.222  27.568  1.00  0.00     0.150 C 
HETATM   24  C8  UNL     1      18.008   5.529  26.912  1.00  0.00     0.150 C 
ENDBRANCH  19  22
ENDBRANCH   5  19
BRANCH   5  25
HETATM   25  N2  UNL     1      14.810   5.916  23.202  1.00  0.00    -0.365 N 
BRANCH  25  26
HETATM   26  C9  UNL     1      15.121   6.736  22.142  1.00  0.00     0.084 C 
HETATM   27  C10 UNL     1      15.240   6.649  20.728  1.00  0.00    -0.006 C 
BRANCH  27  28
HETATM   28  C11 UNL     1      16.296   5.805  20.039  1.00  0.00     0.001 C 
HETATM   29  C12 UNL     1      15.702   5.318  18.680  1.00  0.00     0.013 C 
HETATM   30  C13 UNL     1      17.489   6.623  19.582  1.00  0.00     0.013 C 
ENDBRANCH  27  28
ENDBRANCH  25  26
BRANCH  25  31
HETATM   31  C14 UNL     1      13.606   5.373  23.517  1.00  0.00     0.022 C 
HETATM   32  C15 UNL     1      13.347   4.685  24.832  1.00  0.00     0.037 C 
HETATM   33  C16 UNL     1      12.922   4.567  22.479  1.00  0.00     0.037 C 
HETATM   34  C17 UNL     1      12.605   6.588  23.752  1.00  0.00     0.037 C 
ENDBRANCH  25  31
ENDBRANCH   5  25
BRANCH  11  35
HETATM   35  O2  UNL     1      20.912   9.510  20.476  1.00  0.00    -0.393 OA
ATOM     36  H2  UNL     1      20.441   9.559  19.652  1.00  0.00     0.210 HD
ENDBRANCH  11  35
BRANCH  15  37
HETATM   37  O6  UNL     1      20.477   3.503  18.435  1.00  0.00    -0.386 OA
HETATM   38  C28 UNL     1      20.340   4.083  17.170  1.00  0.00     0.202 C 
ENDBRANCH  15  37
BRANCH  12  39
HETATM   39  O3  UNL     1      21.464   7.316  18.840  1.00  0.00    -0.390 OA
ATOM     40  H3  UNL     1      22.246   7.199  18.314  1.00  0.00     0.210 HD
ENDBRANCH  12  39
BRANCH  14  41
HETATM   41  O5  UNL     1      22.902   3.966  19.796  1.00  0.00    -0.390 OA
ATOM     42  H5  UNL     1      23.754   4.271  19.506  1.00  0.00     0.210 HD
ENDBRANCH  14  41
BRANCH  13  43
HETATM   43  O4  UNL     1      23.455   5.946  21.087  1.00  0.00    -0.390 OA
ATOM     44  H4  UNL     1      23.479   6.329  21.956  1.00  0.00     0.210 HD
ENDBRANCH  13  43
TORSDOF 12
ENDMDL
MODEL 2
REMARK VINA RESULT: -6.147262123      2.364      4.203
REMARK  12 active torsions:
REMARK  status: ('A' for Active; 'I' for Inactive)
REMARK    1  A    between atoms: C5_5  and  C6_6 
REMARK    2  A    between atoms: C5_5  and  N2_12 
REMARK    3  A    between atoms: C6_6  and  O1_7 
REMARK    4  A    between atoms: C6_6  and  N1_9 
REMARK    5  A    between atoms: N2_12  and  C9_13 
REMARK    6  A    between atoms: N2_12  and  C14_18 
REMARK    7  A    between atoms: C10_14  and  C11_15 
REMARK    8  A    between atoms: C23_27  and  O2_28 
REMARK    9  A    between atoms: C24_30  and  O3_31 
REMARK   10  A    between atoms: C25_33  and  O4_34 
REMARK   11  A    between atoms: C26_36  and  O5_37 
REMARK   12  A    between atoms: C27_39  and  O6_40 
ROOT
HETATM    1  C1  UNL     1      19.802   1.072  21.568  1.00  0.00     0.016 C 
HETATM    2  C2  UNL     1      18.784   1.317  20.755  1.00  0.00    -0.066 C 
HETATM    3  C3  UNL     1      17.594   2.038  21.297  1.00  0.00     0.038 C 
HETATM    4  C4  UNL     1      17.955   3.235  22.072  1.00  0.00     0.044 C 
HETATM    5  C5  UNL     1      17.685   4.621  21.527  1.00  0.00     0.097 C 
HETATM    6  C18 UNL     1      18.839   4.887  20.607  1.00  0.00     0.040 C 
HETATM    7  C19 UNL     1      19.312   6.251  20.349  1.00  0.00     0.003 C 
HETATM    8  C20 UNL     1      20.832   6.456  20.522  1.00  0.00     0.000 C 
HETATM    9  C21 UNL     1      21.497   5.411  19.676  1.00  0.00     0.002 C 
HETATM   10  C22 UNL     1      22.386   5.968  18.583  1.00  0.00     0.034 C 
HETATM   11  C23 UNL     1      22.031   5.437  17.229  1.00  0.00     0.149 C 
HETATM   12  C24 UNL     1      22.894   4.353  16.697  1.00  0.00     0.178 C 
HETATM   13  C25 UNL     1      23.138   3.185  17.585  1.00  0.00     0.180 C 
HETATM   14  C26 UNL     1      22.783   1.848  16.961  1.00  0.00     0.180 C 
HETATM   15  C27 UNL     1      21.345   1.461  17.234  1.00  0.00     0.175 C 
HETATM   16  C29 UNL     1      20.984   1.434  18.676  1.00  0.00     0.202 C 
HETATM   17  O7  UNL     1      20.125   0.407  19.053  1.00  0.00    -0.384 OA
HETATM   18  C30 UNL     1      18.849   0.864  19.338  1.00  0.00     0.201 C 
ENDROOT
BRANCH   5  19
HETATM   19  C6  UNL     1      17.975   5.558  22.644  1.00  0.00     0.142 C 
BRANCH  19  20
HETATM   20  O1  UNL     1      18.241   5.061  23.820  1.00  0.00    -0.348 OA
ATOM     21  H1  UNL     1      18.541   5.649  24.503  1.00  0.00     0.219 HD
ENDBRANCH  19  20
BRANCH  19  22
HETATM   22  N1  UNL     1      18.044   6.943  22.766  1.00  0.00    -0.372 N 
HETATM   23  C7  UNL     1      19.088   7.512  23.676  1.00  0.00     0.150 C 
HETATM   24  C8  UNL     1      17.266   7.985  22.164  1.00  0.00     0.150 C 
ENDBRANCH  19  22
ENDBRANCH   5  19
BRANCH   5  25
HETATM   25  N2  UNL     1      16.357   4.745  20.956  1.00  0.00    -0.365 N 
BRANCH  25  26
HETATM   26  C9  UNL     1      15.468   4.481  21.974  1.00  0.00     0.084 C 
HETATM   27  C10 UNL     1      14.265   5.022  22.503  1.00  0.00    -0.006 C 
BRANCH  27  28
HETATM   28  C11 UNL     1      14.190   6.390  23.154  1.00  0.00     0.001 C 
HETATM   29  C12 UNL     1      12.704   6.644  23.556  1.00  0.00     0.013 C 
HETATM   30  C13 UNL     1      14.890   6.435  24.499  1.00  0.00     0.013 C 
ENDBRANCH  27  28
ENDBRANCH  25  26
BRANCH  25  31
HETATM   31  C14 UNL     1      16.082   5.123  19.681  1.00  0.00     0.022 C 
HETATM   32  C15 UNL     1      16.862   4.611  18.498  1.00  0.00     0.037 C 
HETATM   33  C16 UNL     1      15.834   6.563  19.428  1.00  0.00     0.037 C 
HETATM   34  C17 UNL     1      14.698   4.442  19.290  1.00  0.00     0.037 C 
ENDBRANCH  25  31
ENDBRANCH   5  25
BRANCH  11  35
HETATM   35  O2  UNL     1      22.103   6.516  16.327  1.00  0.00    -0.393 OA
ATOM     36  H2  UNL     1      21.610   6.269  15.553  1.00  0.00     0.210 HD
ENDBRANCH  11  35
BRANCH  15  37
HETATM   37  O6  UNL     1      21.046   0.254  16.655  1.00  0.00    -0.386 OA
HETATM   38  C28 UNL     1      21.001   0.321  15.259  1.00  0.00     0.202 C 
ENDBRANCH  15  37
BRANCH  12  39
HETATM   39  O3  UNL     1      22.272   3.845  15.529  1.00  0.00    -0.390 OA
ATOM     40  H3  UNL     1      22.361   2.900  15.544  1.00  0.00     0.210 HD
ENDBRANCH  12  39
BRANCH  14  41
HETATM   41  O5  UNL     1      23.680   0.906  17.420  1.00  0.00    -0.390 OA
ATOM     42  H5  UNL     1      23.194   0.125  17.661  1.00  0.00     0.210 HD
ENDBRANCH  14  41
BRANCH  13  43
HETATM   43  O4  UNL     1      24.532   3.141  17.828  1.00  0.00    -0.390 OA
ATOM     44  H4  UNL     1      24.644   3.035  18.765  1.00  0.00     0.210 HD
ENDBRANCH  13  43
TORSDOF 12
ENDMDL
MODEL 3
REMARK VINA RESULT: -6.094398317      1.860      3.078
REMARK  12 active torsions:
REMARK  status: ('A' for Active; 'I' for Inactive)
REMARK    1  A    between atoms: C5_5  and  C6_6 
REMARK    2  A    between atoms: C5_5  and  N2_12 
REMARK    3  A    between atoms: C6_6  and  O1_7 
REMARK    4  A    between atoms: C6_6  and  N1_9 
REMARK    5  A    between atoms: N2_12  and  C9_13 
REMARK    6  A    between atoms: N2_12  and  C14_18 
REMARK    7  A    between atoms: C10_14  and  C11_15 
REMARK    8  A    between atoms: C23_27  and  O2_28 
REMARK    9  A    between atoms: C24_30  and  O3_31 
REMARK   10  A    between atoms: C25_33  and  O4_34 
REMARK   11  A    between atoms: C26_36  and  O5_37 
REMARK   12  A    between atoms: C27_39  and  O6_40 
ROOT
HETATM    1  C1  UNL     1      20.071   2.604  20.867  1.00  0.00     0.016 C 
HETATM    2  C2  UNL     1      19.216   3.270  20.103  1.00  0.00    -0.066 C 
HETATM    3  C3  UNL     1      17.848   3.545  20.634  1.00  0.00     0.038 C 
HETATM    4  C4  UNL     1      17.863   4.079  22.005  1.00  0.00     0.044 C 
HETATM    5  C5  UNL     1      17.511   5.525  22.277  1.00  0.00     0.097 C 
HETATM    6  C18 UNL     1      18.777   6.275  21.987  1.00  0.00     0.040 C 
HETATM    7  C19 UNL     1      19.088   7.540  22.660  1.00  0.00     0.003 C 
HETATM    8  C20 UNL     1      20.494   7.611  23.294  1.00  0.00     0.000 C 
HETATM    9  C21 UNL     1      21.464   7.244  22.210  1.00  0.00     0.002 C 
HETATM   10  C22 UNL     1      22.466   8.330  21.879  1.00  0.00     0.034 C 
HETATM   11  C23 UNL     1      22.478   8.675  20.422  1.00  0.00     0.149 C 
HETATM   12  C24 UNL     1      23.581   8.096  19.614  1.00  0.00     0.178 C 
HETATM   13  C25 UNL     1      23.806   6.631  19.729  1.00  0.00     0.180 C 
HETATM   14  C26 UNL     1      23.786   5.895  18.402  1.00  0.00     0.180 C 
HETATM   15  C27 UNL     1      22.396   5.418  18.041  1.00  0.00     0.175 C 
HETATM   16  C29 UNL     1      21.754   4.567  19.077  1.00  0.00     0.202 C 
HETATM   17  O7  UNL     1      20.996   3.508  18.586  1.00  0.00    -0.384 OA
HETATM   18  C30 UNL     1      19.636   3.715  18.745  1.00  0.00     0.201 C 
ENDROOT
BRANCH   5  19
HETATM   19  C6  UNL     1      17.426   5.650  23.755  1.00  0.00     0.142 C 
BRANCH  19  20
HETATM   20  O1  UNL     1      17.811   4.642  24.487  1.00  0.00    -0.348 OA
ATOM     21  H1  UNL     1      17.593   4.645  25.412  1.00  0.00     0.219 HD
ENDBRANCH  19  20
BRANCH  19  22
HETATM   22  N1  UNL     1      17.009   6.649  24.631  1.00  0.00    -0.372 N 
HETATM   23  C7  UNL     1      17.820   6.874  25.870  1.00  0.00     0.150 C 
HETATM   24  C8  UNL     1      15.893   7.547  24.579  1.00  0.00     0.150 C 
ENDBRANCH  19  22
ENDBRANCH   5  19
BRANCH   5  25
HETATM   25  N2  UNL     1      16.324   5.953  21.559  1.00  0.00    -0.365 N 
BRANCH  25  26
HETATM   26  C9  UNL     1      15.254   5.350  22.180  1.00  0.00     0.084 C 
HETATM   27  C10 UNL     1      14.495   4.153  22.069  1.00  0.00    -0.006 C 
BRANCH  27  28
HETATM   28  C11 UNL     1      13.634   3.830  20.863  1.00  0.00     0.001 C 
HETATM   29  C12 UNL     1      14.192   2.523  20.218  1.00  0.00     0.013 C 
HETATM   30  C13 UNL     1      12.227   3.414  21.246  1.00  0.00     0.013 C 
ENDBRANCH  27  28
ENDBRANCH  25  26
BRANCH  25  31
HETATM   31  C14 UNL     1      16.306   6.837  20.528  1.00  0.00     0.022 C 
HETATM   32  C15 UNL     1      17.514   7.106  19.670  1.00  0.00     0.037 C 
HETATM   33  C16 UNL     1      15.653   8.148  20.757  1.00  0.00     0.037 C 
HETATM   34  C17 UNL     1      15.416   6.184  19.382  1.00  0.00     0.037 C 
ENDBRANCH  25  31
ENDBRANCH   5  25
BRANCH  11  35
HETATM   35  O2  UNL     1      22.575  10.076  20.327  1.00  0.00    -0.393 OA
ATOM     36  H2  UNL     1      23.429  10.274  19.960  1.00  0.00     0.210 HD
ENDBRANCH  11  35
BRANCH  15  37
HETATM   37  O6  UNL     1      22.401   4.764  16.835  1.00  0.00    -0.386 OA
HETATM   38  C28 UNL     1      21.931   5.561  15.786  1.00  0.00     0.202 C 
ENDBRANCH  15  37
BRANCH  12  39
HETATM   39  O3  UNL     1      23.293   8.352  18.251  1.00  0.00    -0.390 OA
ATOM     40  H3  UNL     1      23.327   7.522  17.789  1.00  0.00     0.210 HD
ENDBRANCH  12  39
BRANCH  14  41
HETATM   41  O5  UNL     1      24.698   4.862  18.467  1.00  0.00    -0.390 OA
ATOM     42  H5  UNL     1      24.218   4.046  18.550  1.00  0.00     0.210 HD
ENDBRANCH  14  41
BRANCH  13  43
HETATM   43  O4  UNL     1      25.112   6.457  20.248  1.00  0.00    -0.390 OA
ATOM     44  H4  UNL     1      25.037   6.485  21.195  1.00  0.00     0.210 HD
ENDBRANCH  13  43
TORSDOF 12
ENDMDL
MODEL 4
REMARK VINA RESULT: -5.966037977      3.702      6.447
REMARK  12 active torsions:
REMARK  status: ('A' for Active; 'I' for Inactive)
REMARK    1  A    between atoms: C5_5  and  C6_6 
REMARK    2  A    between atoms: C5_5  and  N2_12 
REMARK    3  A    between atoms: C6_6  and  O1_7 
REMARK    4  A    between atoms: C6_6  and  N1_9 
REMARK    5  A    between atoms: N2_12  and  C9_13 
REMARK    6  A    between atoms: N2_12  and  C14_18 
REMARK    7  A    between atoms: C10_14  and  C11_15 
REMARK    8  A    between atoms: C23_27  and  O2_28 
REMARK    9  A    between atoms: C24_30  and  O3_31 
REMARK   10  A    between atoms: C25_33  and  O4_34 
REMARK   11  A    between atoms: C26_36  and  O5_37 
REMARK   12  A    between atoms: C27_39  and  O6_40 
ROOT
HETATM    1  C1  UNL     1      20.052   1.167  21.697  1.00  0.00     0.016 C 
HETATM    2  C2  UNL     1      18.838   1.276  21.173  1.00  0.00    -0.066 C 
HETATM    3  C3  UNL     1      18.108   2.570  21.326  1.00  0.00     0.038 C 
HETATM    4  C4  UNL     1      18.938   3.738  20.991  1.00  0.00     0.044 C 
HETATM    5  C5  UNL     1      18.683   4.534  19.731  1.00  0.00     0.097 C 
HETATM    6  C18 UNL     1      19.375   3.753  18.654  1.00  0.00     0.040 C 
HETATM    7  C19 UNL     1      19.902   4.408  17.452  1.00  0.00     0.003 C 
HETATM    8  C20 UNL     1      21.368   4.064  17.113  1.00  0.00     0.000 C 
HETATM    9  C21 UNL     1      21.451   2.567  17.075  1.00  0.00     0.002 C 
HETATM   10  C22 UNL     1      21.879   2.001  15.737  1.00  0.00     0.034 C 
HETATM   11  C23 UNL     1      20.916   0.982  15.210  1.00  0.00     0.149 C 
HETATM   12  C24 UNL     1      21.301  -0.441  15.379  1.00  0.00     0.178 C 
HETATM   13  C25 UNL     1      21.709  -0.874  16.742  1.00  0.00     0.180 C 
HETATM   14  C26 UNL     1      20.926  -2.059  17.276  1.00  0.00     0.180 C 
HETATM   15  C27 UNL     1      19.692  -1.624  18.037  1.00  0.00     0.175 C 
HETATM   16  C29 UNL     1      19.963  -0.680  19.153  1.00  0.00     0.202 C 
HETATM   17  O7  UNL     1      19.192  -0.875  20.294  1.00  0.00    -0.384 OA
HETATM   18  C30 UNL     1      18.237   0.115  20.461  1.00  0.00     0.201 C 
ENDROOT
BRANCH   5  19
HETATM   19  C6  UNL     1      19.552   5.736  19.829  1.00  0.00     0.142 C 
BRANCH  19  20
HETATM   20  O1  UNL     1      19.226   6.796  19.143  1.00  0.00    -0.348 OA
ATOM     21  H1  UNL     1      19.793   7.557  19.188  1.00  0.00     0.219 HD
ENDBRANCH  19  20
BRANCH  19  22
HETATM   22  N1  UNL     1      20.718   6.047  20.523  1.00  0.00    -0.372 N 
HETATM   23  C7  UNL     1      20.612   6.999  21.674  1.00  0.00     0.150 C 
HETATM   24  C8  UNL     1      22.072   5.616  20.337  1.00  0.00     0.150 C 
ENDBRANCH  19  22
ENDBRANCH   5  19
BRANCH   5  25
HETATM   25  N2  UNL     1      17.274   4.815  19.525  1.00  0.00    -0.365 N 
BRANCH  25  26
HETATM   26  C9  UNL     1      16.944   4.280  18.301  1.00  0.00     0.084 C 
HETATM   27  C10 UNL     1      15.834   4.256  17.413  1.00  0.00    -0.006 C 
BRANCH  27  28
HETATM   28  C11 UNL     1      14.515   3.591  17.759  1.00  0.00     0.001 C 
HETATM   29  C12 UNL     1      13.384   4.646  17.553  1.00  0.00     0.013 C 
HETATM   30  C13 UNL     1      14.125   2.517  16.761  1.00  0.00     0.013 C 
ENDBRANCH  27  28
ENDBRANCH  25  26
BRANCH  25  31
HETATM   31  C14 UNL     1      16.455   5.422  20.423  1.00  0.00     0.022 C 
HETATM   32  C15 UNL     1      16.979   6.165  21.624  1.00  0.00     0.037 C 
HETATM   33  C16 UNL     1      15.259   4.675  20.879  1.00  0.00     0.037 C 
HETATM   34  C17 UNL     1      15.833   6.689  19.688  1.00  0.00     0.037 C 
ENDBRANCH  25  31
ENDBRANCH   5  25
BRANCH  11  35
HETATM   35  O2  UNL     1      20.772   1.221  13.831  1.00  0.00    -0.393 OA
ATOM     36  H2  UNL     1      20.128   0.603  13.505  1.00  0.00     0.210 HD
ENDBRANCH  11  35
BRANCH  15  37
HETATM   37  O6  UNL     1      18.997  -2.711  18.502  1.00  0.00    -0.386 OA
HETATM   38  C28 UNL     1      17.789  -2.911  17.824  1.00  0.00     0.202 C 
ENDBRANCH  15  37
BRANCH  12  39
HETATM   39  O3  UNL     1      20.180  -1.232  15.026  1.00  0.00    -0.390 OA
ATOM     40  H3  UNL     1      19.525  -1.122  15.705  1.00  0.00     0.210 HD
ENDBRANCH  12  39
BRANCH  14  41
HETATM   41  O5  UNL     1      21.776  -2.828  18.044  1.00  0.00    -0.390 OA
ATOM     42  H5  UNL     1      21.318  -3.624  18.288  1.00  0.00     0.210 HD
ENDBRANCH  14  41
BRANCH  13  43
HETATM   43  O4  UNL     1      23.054  -1.310  16.647  1.00  0.00    -0.390 OA
ATOM     44  H4  UNL     1      23.251  -1.389  15.721  1.00  0.00     0.210 HD
ENDBRANCH  13  43
TORSDOF 12
ENDMDL
MODEL 5
REMARK VINA RESULT: -5.951835241      2.302      3.798
REMARK  12 active torsions:
REMARK  status: ('A' for Active; 'I' for Inactive)
REMARK    1  A    between atoms: C5_5  and  C6_6 
REMARK    2  A    between atoms: C5_5  and  N2_12 
REMARK    3  A    between atoms: C6_6  and  O1_7 
REMARK    4  A    between atoms: C6_6  and  N1_9 
REMARK    5  A    between atoms: N2_12  and  C9_13 
REMARK    6  A    between atoms: N2_12  and  C14_18 
REMARK    7  A    between atoms: C10_14  and  C11_15 
REMARK    8  A    between atoms: C23_27  and  O2_28 
REMARK    9  A    between atoms: C24_30  and  O3_31 
REMARK   10  A    between atoms: C25_33  and  O4_34 
REMARK   11  A    between atoms: C26_36  and  O5_37 
REMARK   12  A    between atoms: C27_39  and  O6_40 
ROOT
HETATM    1  C1  UNL     1      19.667   1.303  20.556  1.00  0.00     0.016 C 
HETATM    2  C2  UNL     1      18.984   1.791  19.528  1.00  0.00    -0.066 C 
HETATM    3  C3  UNL     1      17.493   1.801  19.601  1.00  0.00     0.038 C 
HETATM    4  C4  UNL     1      16.987   2.335  20.876  1.00  0.00     0.044 C 
HETATM    5  C5  UNL     1      16.313   3.689  20.936  1.00  0.00     0.097 C 
HETATM    6  C18 UNL     1      17.450   4.665  20.996  1.00  0.00     0.040 C 
HETATM    7  C19 UNL     1      17.304   5.969  21.650  1.00  0.00     0.003 C 
HETATM    8  C20 UNL     1      18.408   6.311  22.674  1.00  0.00     0.000 C 
HETATM    9  C21 UNL     1      19.715   6.131  21.959  1.00  0.00     0.002 C 
HETATM   10  C22 UNL     1      20.558   7.387  21.878  1.00  0.00     0.034 C 
HETATM   11  C23 UNL     1      20.957   7.721  20.475  1.00  0.00     0.149 C 
HETATM   12  C24 UNL     1      22.340   7.360  20.077  1.00  0.00     0.178 C 
HETATM   13  C25 UNL     1      22.779   5.964  20.347  1.00  0.00     0.180 C 
HETATM   14  C26 UNL     1      23.303   5.232  19.125  1.00  0.00     0.180 C 
HETATM   15  C27 UNL     1      22.203   4.497  18.392  1.00  0.00     0.175 C 
HETATM   16  C29 UNL     1      21.437   3.543  19.237  1.00  0.00     0.202 C 
HETATM   17  O7  UNL     1      21.072   2.357  18.609  1.00  0.00    -0.384 OA
HETATM   18  C30 UNL     1      19.715   2.301  18.335  1.00  0.00     0.201 C 
ENDROOT
BRANCH   5  19
HETATM   19  C6  UNL     1      15.754   3.802  22.308  1.00  0.00     0.142 C 
BRANCH  19  20
HETATM   20  O1  UNL     1      16.398   3.234  23.290  1.00  0.00    -0.348 OA
ATOM     21  H1  UNL     1      16.257   2.307  23.448  1.00  0.00     0.219 HD
ENDBRANCH  19  20
BRANCH  19  22
HETATM   22  N1  UNL     1      14.630   4.410  22.860  1.00  0.00    -0.372 N 
HETATM   23  C7  UNL     1      13.778   3.593  23.783  1.00  0.00     0.150 C 
HETATM   24  C8  UNL     1      14.097   5.731  22.706  1.00  0.00     0.150 C 
ENDBRANCH  19  22
ENDBRANCH   5  19
BRANCH   5  25
HETATM   25  N2  UNL     1      15.350   3.878  19.867  1.00  0.00    -0.365 N 
BRANCH  25  26
HETATM   26  C9  UNL     1      14.295   3.037  20.139  1.00  0.00     0.084 C 
HETATM   27  C10 UNL     1      13.830   1.752  19.747  1.00  0.00    -0.006 C 
BRANCH  27  28
HETATM   28  C11 UNL     1      13.372   1.434  18.336  1.00  0.00     0.001 C 
HETATM   29  C12 UNL     1      14.638   1.078  17.496  1.00  0.00     0.013 C 
HETATM   30  C13 UNL     1      12.574   0.146  18.259  1.00  0.00     0.013 C 
ENDBRANCH  27  28
ENDBRANCH  25  26
BRANCH  25  31
HETATM   31  C14 UNL     1      15.467   4.776  18.855  1.00  0.00     0.022 C 
HETATM   32  C15 UNL     1      16.374   4.550  17.673  1.00  0.00     0.037 C 
HETATM   33  C16 UNL     1      15.594   6.208  19.215  1.00  0.00     0.037 C 
HETATM   34  C17 UNL     1      14.100   4.726  18.041  1.00  0.00     0.037 C 
ENDBRANCH  25  31
ENDBRANCH   5  25
BRANCH  11  35
HETATM   35  O2  UNL     1      20.824   9.114  20.325  1.00  0.00    -0.393 OA
ATOM     36  H2  UNL     1      21.527   9.518  20.820  1.00  0.00     0.210 HD
ENDBRANCH  11  35
BRANCH  15  37
HETATM   37  O6  UNL     1      22.698   3.851  17.289  1.00  0.00    -0.386 OA
HETATM   38  C28 UNL     1      22.621   4.626  16.127  1.00  0.00     0.202 C 
ENDBRANCH  15  37
BRANCH  12  39
HETATM   39  O3  UNL     1      22.447   7.549  18.677  1.00  0.00    -0.390 OA
ATOM     40  H3  UNL     1      23.321   7.284  18.417  1.00  0.00     0.210 HD
ENDBRANCH  12  39
BRANCH  14  41
HETATM   41  O5  UNL     1      24.321   4.393  19.529  1.00  0.00    -0.390 OA
ATOM     42  H5  UNL     1      24.082   3.503  19.298  1.00  0.00     0.210 HD
ENDBRANCH  14  41
BRANCH  13  43
HETATM   43  O4  UNL     1      23.870   6.047  21.247  1.00  0.00    -0.390 OA
ATOM     44  H4  UNL     1      24.241   5.174  21.309  1.00  0.00     0.210 HD
ENDBRANCH  13  43
TORSDOF 12
ENDMDL
