MODEL 1
REMARK VINA RESULT: -3.795983462      0.000      0.000
REMARK  1 active torsions:
REMARK  status: ('A' for Active; 'I' for Inactive)
REMARK    1  A    between atoms: C3_7  and  C4_8 
ROOT
HETATM    1  C1  UNL     1      14.406   4.692  16.673  1.00  0.00     0.315 C 
HETATM    2  N1  UNL     1      14.813   3.374  16.348  1.00  0.00     0.144 N 
HETATM    3  C2  UNL     1      15.391   2.573  17.396  1.00  0.00     0.508 C 
HETATM    4  N2  UNL     1      16.305   2.022  16.395  1.00  0.00    -0.013 N 
ATOM      5  H21 UNL     1      16.187   1.075  16.033  1.00  0.00     0.282 HD
ATOM      6  H22 UNL     1      17.267   1.781  16.633  1.00  0.00     0.282 HD
HETATM    7  C3  UNL     1      15.994   3.191  15.578  1.00  0.00     0.447 C 
ENDROOT
BRANCH   7   8
HETATM    8  C4  UNL     1      16.998   4.241  15.566  1.00  0.00     0.045 C 
HETATM    9  C5  UNL     1      17.472   4.752  14.435  1.00  0.00     0.056 C 
HETATM   10 BR1  UNL     1      18.793   6.135  14.415  1.00  0.00    -0.064 Br
ENDBRANCH   7   8
TORSDOF 1
ENDMDL
MODEL 2
REMARK VINA RESULT: -3.732358374      3.111      3.989
REMARK  1 active torsions:
REMARK  status: ('A' for Active; 'I' for Inactive)
REMARK    1  A    between atoms: C3_7  and  C4_8 
ROOT
HETATM    1  C1  UNL     1      17.036   6.665  14.774  1.00  0.00     0.315 C 
HETATM    2  N1  UNL     1      17.853   5.558  14.434  1.00  0.00     0.144 N 
HETATM    3  C2  UNL     1      17.745   5.031  13.099  1.00  0.00     0.508 C 
HETATM    4  N2  UNL     1      17.917   3.695  13.671  1.00  0.00    -0.013 N 
ATOM      5  H21 UNL     1      18.794   3.184  13.570  1.00  0.00     0.282 HD
ATOM      6  H22 UNL     1      17.432   2.887  13.283  1.00  0.00     0.282 HD
HETATM    7  C3  UNL     1      17.520   4.276  14.951  1.00  0.00     0.447 C 
ENDROOT
BRANCH   7   8
HETATM    8  C4  UNL     1      16.154   4.017  15.368  1.00  0.00     0.045 C 
HETATM    9  C5  UNL     1      15.870   3.358  16.486  1.00  0.00     0.056 C 
HETATM   10 BR1  UNL     1      14.072   3.014  17.040  1.00  0.00    -0.064 Br
ENDBRANCH   7   8
TORSDOF 1
ENDMDL
MODEL 3
REMARK VINA RESULT: -3.719914221      4.917      5.264
REMARK  1 active torsions:
REMARK  status: ('A' for Active; 'I' for Inactive)
REMARK    1  A    between atoms: C3_7  and  C4_8 
ROOT
HETATM    1  C1  UNL     1      16.099   3.295  11.437  1.00  0.00     0.315 C 
HETATM    2  N1  UNL     1      16.646   2.061  11.006  1.00  0.00     0.144 N 
HETATM    3  C2  UNL     1      16.849   1.036  11.996  1.00  0.00     0.508 C 
HETATM    4  N2  UNL     1      18.078   0.673  11.289  1.00  0.00    -0.013 N 
ATOM      5  H21 UNL     1      18.131  -0.171  10.717  1.00  0.00     0.282 HD
ATOM      6  H22 UNL     1      18.904   0.351  11.793  1.00  0.00     0.282 HD
HETATM    7  C3  UNL     1      18.028   1.999  10.680  1.00  0.00     0.447 C 
ENDROOT
BRANCH   7   8
HETATM    8  C4  UNL     1      18.930   2.988  11.243  1.00  0.00     0.045 C 
HETATM    9  C5  UNL     1      19.719   3.739  10.482  1.00  0.00     0.056 C 
HETATM   10 BR1  UNL     1      20.908   5.044  11.219  1.00  0.00    -0.064 Br
ENDBRANCH   7   8
TORSDOF 1
ENDMDL
MODEL 4
REMARK VINA RESULT: -3.653308960      2.977      3.340
REMARK  1 active torsions:
REMARK  status: ('A' for Active; 'I' for Inactive)
REMARK    1  A    between atoms: C3_7  and  C4_8 
ROOT
HETATM    1  C1  UNL     1      15.232   5.096  14.540  1.00  0.00     0.315 C 
HETATM    2  N1  UNL     1      16.288   4.503  15.275  1.00  0.00     0.144 N 
HETATM    3  C2  UNL     1      17.534   5.218  15.354  1.00  0.00     0.508 C 
HETATM    4  N2  UNL     1      18.218   3.928  15.268  1.00  0.00    -0.013 N 
ATOM      5  H21 UNL     1      18.658   3.505  16.085  1.00  0.00     0.282 HD
ATOM      6  H22 UNL     1      19.105   3.831  14.774  1.00  0.00     0.282 HD
HETATM    7  C3  UNL     1      16.978   3.394  14.712  1.00  0.00     0.447 C 
ENDROOT
BRANCH   7   8
HETATM    8  C4  UNL     1      16.957   3.208  13.272  1.00  0.00     0.045 C 
HETATM    9  C5  UNL     1      16.849   2.006  12.717  1.00  0.00     0.056 C 
HETATM   10 BR1  UNL     1      16.821   1.757  10.820  1.00  0.00    -0.064 Br
ENDBRANCH   7   8
TORSDOF 1
ENDMDL
MODEL 5
REMARK VINA RESULT: -3.645117767      4.015      4.988
REMARK  1 active torsions:
REMARK  status: ('A' for Active; 'I' for Inactive)
REMARK    1  A    between atoms: C3_7  and  C4_8 
ROOT
HETATM    1  C1  UNL     1      16.349   2.092  11.018  1.00  0.00     0.315 C 
HETATM    2  N1  UNL     1      17.337   3.103  11.108  1.00  0.00     0.144 N 
HETATM    3  C2  UNL     1      18.718   2.695  11.084  1.00  0.00     0.508 C 
HETATM    4  N2  UNL     1      18.990   3.751  12.059  1.00  0.00    -0.013 N 
ATOM      5  H21 UNL     1      19.464   4.613  11.790  1.00  0.00     0.282 HD
ATOM      6  H22 UNL     1      19.689   3.628  12.792  1.00  0.00     0.282 HD
HETATM    7  C3  UNL     1      17.561   3.734  12.362  1.00  0.00     0.447 C 
ENDROOT
BRANCH   7   8
HETATM    8  C4  UNL     1      17.179   3.040  13.579  1.00  0.00     0.045 C 
HETATM    9  C5  UNL     1      16.560   3.657  14.579  1.00  0.00     0.056 C 
HETATM   10 BR1  UNL     1      16.054   2.746  16.183  1.00  0.00    -0.064 Br
ENDBRANCH   7   8
TORSDOF 1
ENDMDL
