MODEL 1
REMARK VINA RESULT: -6.350420337      0.000      0.000
REMARK  1 active torsions:
REMARK  status: ('A' for Active; 'I' for Inactive)
REMARK    1  A    between atoms: C5_8  and  N2_9 
ROOT
HETATM    1  F1  UNL     1      14.421   5.141  18.150  1.00  0.00    -0.247 F 
HETATM    2  C1  UNL     1      14.624   4.431  16.955  1.00  0.00     0.199 C 
HETATM    3  C2  UNL     1      14.118   3.054  17.182  1.00  0.00     0.059 C 
HETATM    4  C3  UNL     1      15.217   2.068  17.503  1.00  0.00     0.121 C 
HETATM    5  N1  UNL     1      16.121   2.080  16.421  1.00  0.00    -0.400 N 
ATOM      6  H1  UNL     1      16.340   1.222  15.913  1.00  0.00     0.158 HD
HETATM    7  C4  UNL     1      16.713   3.301  16.059  1.00  0.00     0.083 C 
HETATM    8  C5  UNL     1      16.006   4.558  16.428  1.00  0.00     0.151 C 
ENDROOT
BRANCH   8   9
HETATM    9  N2  UNL     1      16.145   5.501  15.358  1.00  0.00    -0.401 N 
HETATM   10  C6  UNL     1      17.397   5.611  14.728  1.00  0.00     0.117 C 
HETATM   11  C7  UNL     1      17.510   7.034  14.160  1.00  0.00     0.019 C 
HETATM   12  C8  UNL     1      16.384   7.182  13.163  1.00  0.00     0.003 C 
HETATM   13  C9  UNL     1      15.082   7.105  13.935  1.00  0.00     0.019 C 
HETATM   14  C10 UNL     1      15.007   5.695  14.530  1.00  0.00     0.117 C 
ENDBRANCH   8   9
TORSDOF 1
ENDMDL
MODEL 2
REMARK VINA RESULT: -6.004554399      2.408      4.410
REMARK  1 active torsions:
REMARK  status: ('A' for Active; 'I' for Inactive)
REMARK    1  A    between atoms: C5_8  and  N2_9 
ROOT
HETATM    1  F1  UNL     1      16.178   6.893  13.152  1.00  0.00    -0.247 F 
HETATM    2  C1  UNL     1      16.927   5.866  13.750  1.00  0.00     0.199 C 
HETATM    3  C2  UNL     1      18.140   5.678  12.917  1.00  0.00     0.059 C 
HETATM    4  C3  UNL     1      18.025   4.513  11.961  1.00  0.00     0.121 C 
HETATM    5  N1  UNL     1      17.784   3.358  12.734  1.00  0.00    -0.400 N 
ATOM      6  H1  UNL     1      18.406   2.551  12.676  1.00  0.00     0.158 HD
HETATM    7  C4  UNL     1      16.667   3.346  13.586  1.00  0.00     0.083 C 
HETATM    8  C5  UNL     1      16.122   4.654  14.044  1.00  0.00     0.151 C 
ENDROOT
BRANCH   8   9
HETATM    9  N2  UNL     1      15.716   4.533  15.413  1.00  0.00    -0.401 N 
HETATM   10  C6  UNL     1      16.374   3.589  16.221  1.00  0.00     0.117 C 
HETATM   11  C7  UNL     1      15.399   3.163  17.329  1.00  0.00     0.019 C 
HETATM   12  C8  UNL     1      15.074   4.416  18.110  1.00  0.00     0.003 C 
HETATM   13  C9  UNL     1      14.323   5.347  17.181  1.00  0.00     0.019 C 
HETATM   14  C10 UNL     1      15.296   5.726  16.059  1.00  0.00     0.117 C 
ENDBRANCH   8   9
TORSDOF 1
ENDMDL
MODEL 3
REMARK VINA RESULT: -5.980711132      1.510      4.500
REMARK  1 active torsions:
REMARK  status: ('A' for Active; 'I' for Inactive)
REMARK    1  A    between atoms: C5_8  and  N2_9 
ROOT
HETATM    1  F1  UNL     1      15.111   7.553  15.799  1.00  0.00    -0.247 F 
HETATM    2  C1  UNL     1      16.049   6.585  15.401  1.00  0.00     0.199 C 
HETATM    3  C2  UNL     1      17.072   7.288  14.587  1.00  0.00     0.059 C 
HETATM    4  C3  UNL     1      16.853   7.130  13.101  1.00  0.00     0.121 C 
HETATM    5  N1  UNL     1      16.873   5.748  12.817  1.00  0.00    -0.400 N 
ATOM      6  H1  UNL     1      17.531   5.363  12.140  1.00  0.00     0.158 HD
HETATM    7  C4  UNL     1      15.964   4.916  13.491  1.00  0.00     0.083 C 
HETATM    8  C5  UNL     1      15.424   5.382  14.798  1.00  0.00     0.151 C 
ENDROOT
BRANCH   8   9
HETATM    9  N2  UNL     1      15.324   4.261  15.685  1.00  0.00    -0.401 N 
HETATM   10  C6  UNL     1      16.508   3.599  16.056  1.00  0.00     0.117 C 
HETATM   11  C7  UNL     1      16.144   2.146  16.392  1.00  0.00     0.019 C 
HETATM   12  C8  UNL     1      15.172   2.210  17.548  1.00  0.00     0.003 C 
HETATM   13  C9  UNL     1      13.913   2.887  17.045  1.00  0.00     0.019 C 
HETATM   14  C10 UNL     1      14.304   4.321  16.672  1.00  0.00     0.117 C 
ENDBRANCH   8   9
TORSDOF 1
ENDMDL
MODEL 4
REMARK VINA RESULT: -5.945472720      2.007      2.263
REMARK  1 active torsions:
REMARK  status: ('A' for Active; 'I' for Inactive)
REMARK    1  A    between atoms: C5_8  and  N2_9 
ROOT
HETATM    1  F1  UNL     1      15.370   5.899  16.467  1.00  0.00    -0.247 F 
HETATM    2  C1  UNL     1      15.169   4.631  15.895  1.00  0.00     0.199 C 
HETATM    3  C2  UNL     1      14.345   3.854  16.852  1.00  0.00     0.059 C 
HETATM    4  C3  UNL     1      15.162   2.913  17.706  1.00  0.00     0.121 C 
HETATM    5  N1  UNL     1      15.846   2.040  16.834  1.00  0.00    -0.400 N 
ATOM      6  H1  UNL     1      15.732   1.029  16.912  1.00  0.00     0.158 HD
HETATM    7  C4  UNL     1      16.686   2.597  15.856  1.00  0.00     0.083 C 
HETATM    8  C5  UNL     1      16.427   3.999  15.425  1.00  0.00     0.151 C 
ENDROOT
BRANCH   8   9
HETATM    9  N2  UNL     1      16.647   4.098  14.013  1.00  0.00    -0.401 N 
HETATM   10  C6  UNL     1      16.777   2.908  13.275  1.00  0.00     0.117 C 
HETATM   11  C7  UNL     1      17.636   3.217  12.040  1.00  0.00     0.019 C 
HETATM   12  C8  UNL     1      16.883   4.265  11.253  1.00  0.00     0.003 C 
HETATM   13  C9  UNL     1      16.839   5.522  12.099  1.00  0.00     0.019 C 
HETATM   14  C10 UNL     1      16.017   5.183  13.347  1.00  0.00     0.117 C 
ENDBRANCH   8   9
TORSDOF 1
ENDMDL
MODEL 5
REMARK VINA RESULT: -5.922559778      1.702      1.912
REMARK  1 active torsions:
REMARK  status: ('A' for Active; 'I' for Inactive)
REMARK    1  A    between atoms: C5_8  and  N2_9 
ROOT
HETATM    1  F1  UNL     1      14.764   5.586  16.800  1.00  0.00    -0.247 F 
HETATM    2  C1  UNL     1      14.833   4.388  16.069  1.00  0.00     0.199 C 
HETATM    3  C2  UNL     1      14.143   3.352  16.877  1.00  0.00     0.059 C 
HETATM    4  C3  UNL     1      15.099   2.480  17.657  1.00  0.00     0.121 C 
HETATM    5  N1  UNL     1      15.967   1.871  16.727  1.00  0.00    -0.400 N 
ATOM      6  H1  UNL     1      16.049   0.855  16.676  1.00  0.00     0.158 HD
HETATM    7  C4  UNL     1      16.716   2.698  15.873  1.00  0.00     0.083 C 
HETATM    8  C5  UNL     1      16.204   4.069  15.600  1.00  0.00     0.151 C 
ENDROOT
BRANCH   8   9
HETATM    9  N2  UNL     1      16.447   4.389  14.224  1.00  0.00    -0.401 N 
HETATM   10  C6  UNL     1      17.127   5.585  13.931  1.00  0.00     0.117 C 
HETATM   11  C7  UNL     1      16.688   6.039  12.530  1.00  0.00     0.019 C 
HETATM   12  C8  UNL     1      17.093   4.935  11.582  1.00  0.00     0.003 C 
HETATM   13  C9  UNL     1      16.276   3.709  11.936  1.00  0.00     0.019 C 
HETATM   14  C10 UNL     1      16.695   3.297  13.352  1.00  0.00     0.117 C 
ENDBRANCH   8   9
TORSDOF 1
ENDMDL
