MODEL 1
REMARK VINA RESULT: -4.140998378      0.000      0.000
REMARK  1 active torsions:
REMARK  status: ('A' for Active; 'I' for Inactive)
REMARK    1  A    between atoms: N1_2  and  C3_4 
ROOT
HETATM    1  C3  UNL     1      15.882   4.249  16.845  1.00  0.00     0.264 C 
HETATM    2  C4  UNL     1      15.105   5.187  15.992  1.00  0.00     0.066 C 
HETATM    3  C5  UNL     1      16.223   5.770  15.115  1.00  0.00     0.236 C 
HETATM    4  N2  UNL     1      17.237   4.773  15.025  1.00  0.00    -0.059 N 
ATOM      5  H21 UNL     1      18.175   5.162  15.120  1.00  0.00     0.278 HD
ATOM      6  H22 UNL     1      17.332   4.400  14.080  1.00  0.00     0.278 HD
HETATM    7  C6  UNL     1      16.968   3.735  16.003  1.00  0.00     0.290 C 
HETATM    8 BR1  UNL     1      16.698   2.098  15.077  1.00  0.00    -0.059 Br
ENDROOT
BRANCH   1   9
HETATM    9  N1  UNL     1      15.157   3.363  17.686  1.00  0.00     0.087 N 
HETATM   10  C1  UNL     1      14.829   4.103  18.931  1.00  0.00     0.310 C 
HETATM   11  C2  UNL     1      13.840   3.015  17.171  1.00  0.00     0.310 C 
ENDBRANCH   1   9
TORSDOF 1
ENDMDL
MODEL 2
REMARK VINA RESULT: -4.116063903      2.077      2.592
REMARK  1 active torsions:
REMARK  status: ('A' for Active; 'I' for Inactive)
REMARK    1  A    between atoms: N1_2  and  C3_4 
ROOT
HETATM    1  C3  UNL     1      15.003   4.079  15.628  1.00  0.00     0.264 C 
HETATM    2  C4  UNL     1      16.353   3.469  15.500  1.00  0.00     0.066 C 
HETATM    3  C5  UNL     1      16.706   3.853  14.055  1.00  0.00     0.236 C 
HETATM    4  N2  UNL     1      16.005   5.061  13.769  1.00  0.00    -0.059 N 
ATOM      5  H21 UNL     1      15.584   5.055  12.839  1.00  0.00     0.278 HD
ATOM      6  H22 UNL     1      16.634   5.852  13.636  1.00  0.00     0.278 HD
HETATM    7  C6  UNL     1      15.028   5.300  14.815  1.00  0.00     0.290 C 
HETATM    8 BR1  UNL     1      15.456   6.945  15.665  1.00  0.00    -0.059 Br
ENDROOT
BRANCH   1   9
HETATM    9  N1  UNL     1      14.404   4.096  16.916  1.00  0.00     0.087 N 
HETATM   10  C1  UNL     1      13.683   2.810  17.086  1.00  0.00     0.310 C 
HETATM   11  C2  UNL     1      15.366   4.066  18.009  1.00  0.00     0.310 C 
ENDBRANCH   1   9
TORSDOF 1
ENDMDL
MODEL 3
REMARK VINA RESULT: -4.094755858      2.134      3.449
REMARK  1 active torsions:
REMARK  status: ('A' for Active; 'I' for Inactive)
REMARK    1  A    between atoms: N1_2  and  C3_4 
ROOT
HETATM    1  C3  UNL     1      16.669   4.432  15.410  1.00  0.00     0.264 C 
HETATM    2  C4  UNL     1      16.362   3.537  14.263  1.00  0.00     0.066 C 
HETATM    3  C5  UNL     1      16.730   2.170  14.859  1.00  0.00     0.236 C 
HETATM    4  N2  UNL     1      16.536   2.271  16.267  1.00  0.00    -0.059 N 
ATOM      5  H21 UNL     1      17.289   1.831  16.796  1.00  0.00     0.278 HD
ATOM      6  H22 UNL     1      15.769   1.684  16.596  1.00  0.00     0.278 HD
HETATM    7  C6  UNL     1      16.353   3.667  16.621  1.00  0.00     0.290 C 
HETATM    8 BR1  UNL     1      14.629   3.865  17.393  1.00  0.00    -0.059 Br
ENDROOT
BRANCH   1   9
HETATM    9  N1  UNL     1      16.279   5.794  15.309  1.00  0.00     0.087 N 
HETATM   10  C1  UNL     1      17.365   6.514  14.598  1.00  0.00     0.310 C 
HETATM   11  C2  UNL     1      15.133   6.012  14.438  1.00  0.00     0.310 C 
ENDBRANCH   1   9
TORSDOF 1
ENDMDL
MODEL 4
REMARK VINA RESULT: -4.027116610      1.847      2.523
REMARK  1 active torsions:
REMARK  status: ('A' for Active; 'I' for Inactive)
REMARK    1  A    between atoms: N1_2  and  C3_4 
ROOT
HETATM    1  C3  UNL     1      15.757   3.840  15.966  1.00  0.00     0.264 C 
HETATM    2  C4  UNL     1      16.589   2.623  16.164  1.00  0.00     0.066 C 
HETATM    3  C5  UNL     1      16.742   2.141  14.714  1.00  0.00     0.236 C 
HETATM    4  N2  UNL     1      16.651   3.297  13.885  1.00  0.00    -0.059 N 
ATOM      5  H21 UNL     1      16.080   3.137  13.056  1.00  0.00     0.278 HD
ATOM      6  H22 UNL     1      17.531   3.507  13.414  1.00  0.00     0.278 HD
HETATM    7  C6  UNL     1      16.171   4.412  14.680  1.00  0.00     0.290 C 
HETATM    8 BR1  UNL     1      17.506   5.764  14.679  1.00  0.00    -0.059 Br
ENDROOT
BRANCH   1   9
HETATM    9  N1  UNL     1      15.548   4.688  17.086  1.00  0.00     0.087 N 
HETATM   10  C1  UNL     1      14.423   5.597  16.749  1.00  0.00     0.310 C 
HETATM   11  C2  UNL     1      15.049   3.992  18.263  1.00  0.00     0.310 C 
ENDBRANCH   1   9
TORSDOF 1
ENDMDL
MODEL 5
REMARK VINA RESULT: -3.989496288      1.678      1.995
REMARK  1 active torsions:
REMARK  status: ('A' for Active; 'I' for Inactive)
REMARK    1  A    between atoms: N1_2  and  C3_4 
ROOT
HETATM    1  C3  UNL     1      15.799   4.674  15.932  1.00  0.00     0.264 C 
HETATM    2  C4  UNL     1      14.807   5.775  16.055  1.00  0.00     0.066 C 
HETATM    3  C5  UNL     1      15.691   6.994  15.750  1.00  0.00     0.236 C 
HETATM    4  N2  UNL     1      16.740   6.538  14.899  1.00  0.00    -0.059 N 
ATOM      5  H21 UNL     1      17.648   6.923  15.160  1.00  0.00     0.278 HD
ATOM      6  H22 UNL     1      16.679   6.936  13.962  1.00  0.00     0.278 HD
HETATM    7  C6  UNL     1      16.739   5.087  14.884  1.00  0.00     0.290 C 
HETATM    8 BR1  UNL     1      16.418   4.509  13.102  1.00  0.00    -0.059 Br
ENDROOT
BRANCH   1   9
HETATM    9  N1  UNL     1      15.315   3.340  15.966  1.00  0.00     0.087 N 
HETATM   10  C1  UNL     1      16.471   2.456  16.260  1.00  0.00     0.310 C 
HETATM   11  C2  UNL     1      14.419   3.070  17.082  1.00  0.00     0.310 C 
ENDBRANCH   1   9
TORSDOF 1
ENDMDL
