MODEL 1
REMARK VINA RESULT: -5.576868411      0.000      0.000
REMARK  2 active torsions:
REMARK  status: ('A' for Active; 'I' for Inactive)
REMARK    1  A    between atoms: C3_3  and  N1_4 
REMARK    2  A    between atoms: C8_9  and  O1_10 
ROOT
HETATM    1  C1  UNL     1      16.825   2.574  12.661  1.00  0.00     0.013 C 
HETATM    2  C2  UNL     1      17.159   3.570  13.244  1.00  0.00    -0.087 C 
HETATM    3  C3  UNL     1      17.575   4.744  13.965  1.00  0.00     0.365 C 
ENDROOT
BRANCH   3   4
HETATM    4  N1  UNL     1      16.841   4.921  15.204  1.00  0.00     0.101 N 
HETATM    5  C4  UNL     1      15.410   4.985  14.980  1.00  0.00     0.274 C 
HETATM    6  C5  UNL     1      14.768   5.132  16.351  1.00  0.00     0.037 C 
HETATM    7  C6  UNL     1      14.835   3.757  16.985  1.00  0.00     0.014 C 
HETATM    8  C7  UNL     1      14.906   3.860  18.481  1.00  0.00     0.012 C 
HETATM    9  C8  UNL     1      15.963   2.959  16.431  1.00  0.00     0.150 C 
HETATM   10  C9  UNL     1      17.161   3.777  16.041  1.00  0.00     0.305 C 
BRANCH   9  11
HETATM   11  O1  UNL     1      16.388   2.101  17.462  1.00  0.00    -0.393 OA
ATOM     12  H1  UNL     1      17.224   2.436  17.763  1.00  0.00     0.210 HD
ENDBRANCH   9  11
ENDBRANCH   3   4
TORSDOF 2
ENDMDL
MODEL 2
REMARK VINA RESULT: -5.468912887      1.671      2.466
REMARK  2 active torsions:
REMARK  status: ('A' for Active; 'I' for Inactive)
REMARK    1  A    between atoms: C3_3  and  N1_4 
REMARK    2  A    between atoms: C8_9  and  O1_10 
ROOT
HETATM    1  C1  UNL     1      18.473   8.481  14.546  1.00  0.00     0.013 C 
HETATM    2  C2  UNL     1      17.970   7.408  14.347  1.00  0.00    -0.087 C 
HETATM    3  C3  UNL     1      17.337   6.138  14.109  1.00  0.00     0.365 C 
ENDROOT
BRANCH   3   4
HETATM    4  N1  UNL     1      16.671   5.622  15.290  1.00  0.00     0.101 N 
HETATM    5  C4  UNL     1      15.326   5.167  14.998  1.00  0.00     0.274 C 
HETATM    6  C5  UNL     1      14.765   4.624  16.303  1.00  0.00     0.037 C 
HETATM    7  C6  UNL     1      15.421   3.272  16.501  1.00  0.00     0.014 C 
HETATM    8  C7  UNL     1      15.536   2.940  17.961  1.00  0.00     0.012 C 
HETATM    9  C8  UNL     1      16.739   3.204  15.812  1.00  0.00     0.150 C 
HETATM   10  C9  UNL     1      17.478   4.511  15.767  1.00  0.00     0.305 C 
BRANCH   9  11
HETATM   11  O1  UNL     1      17.537   2.324  16.566  1.00  0.00    -0.393 OA
ATOM     12  H1  UNL     1      17.069   1.498  16.601  1.00  0.00     0.210 HD
ENDBRANCH   9  11
ENDBRANCH   3   4
TORSDOF 2
ENDMDL
MODEL 3
REMARK VINA RESULT: -5.413009512      1.140      1.827
REMARK  2 active torsions:
REMARK  status: ('A' for Active; 'I' for Inactive)
REMARK    1  A    between atoms: C3_3  and  N1_4 
REMARK    2  A    between atoms: C8_9  and  O1_10 
ROOT
HETATM    1  C1  UNL     1      19.581   6.699  14.146  1.00  0.00     0.013 C 
HETATM    2  C2  UNL     1      18.571   6.051  14.100  1.00  0.00    -0.087 C 
HETATM    3  C3  UNL     1      17.343   5.302  14.045  1.00  0.00     0.365 C 
ENDROOT
BRANCH   3   4
HETATM    4  N1  UNL     1      16.645   5.292  15.317  1.00  0.00     0.101 N 
HETATM    5  C4  UNL     1      15.206   5.251  15.144  1.00  0.00     0.274 C 
HETATM    6  C5  UNL     1      14.608   5.207  16.542  1.00  0.00     0.037 C 
HETATM    7  C6  UNL     1      14.815   3.789  17.034  1.00  0.00     0.014 C 
HETATM    8  C7  UNL     1      14.936   3.752  18.530  1.00  0.00     0.012 C 
HETATM    9  C8  UNL     1      15.985   3.151  16.368  1.00  0.00     0.150 C 
HETATM   10  C9  UNL     1      17.093   4.105  16.026  1.00  0.00     0.305 C 
BRANCH   9  11
HETATM   11  O1  UNL     1      16.521   2.238  17.296  1.00  0.00    -0.393 OA
ATOM     12  H1  UNL     1      17.344   2.608  17.593  1.00  0.00     0.210 HD
ENDBRANCH   9  11
ENDBRANCH   3   4
TORSDOF 2
ENDMDL
MODEL 4
REMARK VINA RESULT: -5.266597650      1.176      1.784
REMARK  2 active torsions:
REMARK  status: ('A' for Active; 'I' for Inactive)
REMARK    1  A    between atoms: C3_3  and  N1_4 
REMARK    2  A    between atoms: C8_9  and  O1_10 
ROOT
HETATM    1  C1  UNL     1      16.798   7.561  12.769  1.00  0.00     0.013 C 
HETATM    2  C2  UNL     1      16.990   6.530  13.356  1.00  0.00    -0.087 C 
HETATM    3  C3  UNL     1      17.188   5.287  14.053  1.00  0.00     0.365 C 
ENDROOT
BRANCH   3   4
HETATM    4  N1  UNL     1      16.541   5.273  15.352  1.00  0.00     0.101 N 
HETATM    5  C4  UNL     1      15.096   5.265  15.237  1.00  0.00     0.274 C 
HETATM    6  C5  UNL     1      14.554   5.213  16.657  1.00  0.00     0.037 C 
HETATM    7  C6  UNL     1      14.749   3.783  17.118  1.00  0.00     0.014 C 
HETATM    8  C7  UNL     1      14.928   3.720  18.608  1.00  0.00     0.012 C 
HETATM    9  C8  UNL     1      15.876   3.130  16.397  1.00  0.00     0.150 C 
HETATM   10  C9  UNL     1      16.991   4.065  16.024  1.00  0.00     0.305 C 
BRANCH   9  11
HETATM   11  O1  UNL     1      16.428   2.191  17.288  1.00  0.00    -0.393 OA
ATOM     12  H1  UNL     1      16.865   1.537  16.754  1.00  0.00     0.210 HD
ENDBRANCH   9  11
ENDBRANCH   3   4
TORSDOF 2
ENDMDL
MODEL 5
REMARK VINA RESULT: -4.956475292      2.987      4.855
REMARK  2 active torsions:
REMARK  status: ('A' for Active; 'I' for Inactive)
REMARK    1  A    between atoms: C3_3  and  N1_4 
REMARK    2  A    between atoms: C8_9  and  O1_10 
ROOT
HETATM    1  C1  UNL     1      14.945   5.822  15.086  1.00  0.00     0.013 C 
HETATM    2  C2  UNL     1      16.110   5.644  14.853  1.00  0.00    -0.087 C 
HETATM    3  C3  UNL     1      17.500   5.440  14.542  1.00  0.00     0.365 C 
ENDROOT
BRANCH   3   4
HETATM    4  N1  UNL     1      17.717   4.260  13.728  1.00  0.00     0.101 N 
HETATM    5  C4  UNL     1      16.820   3.180  14.091  1.00  0.00     0.274 C 
HETATM    6  C5  UNL     1      17.128   2.031  13.143  1.00  0.00     0.037 C 
HETATM    7  C6  UNL     1      16.497   2.410  11.819  1.00  0.00     0.014 C 
HETATM    8  C7  UNL     1      17.249   1.800  10.671  1.00  0.00     0.012 C 
HETATM    9  C8  UNL     1      16.379   3.888  11.679  1.00  0.00     0.150 C 
HETATM   10  C9  UNL     1      17.480   4.659  12.350  1.00  0.00     0.305 C 
BRANCH   9  11
HETATM   11  O1  UNL     1      16.483   4.168  10.303  1.00  0.00    -0.393 OA
ATOM     12  H1  UNL     1      17.408   4.289  10.122  1.00  0.00     0.210 HD
ENDBRANCH   9  11
ENDBRANCH   3   4
TORSDOF 2
ENDMDL
