MODEL 1
REMARK VINA RESULT: -5.137162458      0.000      0.000
REMARK  2 active torsions:
REMARK  status: ('A' for Active; 'I' for Inactive)
REMARK    1  A    between atoms: C4_5  and  O1_6 
REMARK    2  A    between atoms: C7_10  and  C8_11 
ROOT
HETATM    1  C1  UNL     1       2.967  -5.515  13.248  1.00  0.00     0.310 C 
HETATM    2  N1  UNL     1       4.042  -5.337  14.166  1.00  0.00     0.089 N 
HETATM    3  C2  UNL     1       3.583  -4.863  15.476  1.00  0.00     0.280 C 
HETATM    4  C3  UNL     1       4.545  -3.764  15.885  1.00  0.00     0.050 C 
HETATM    5  C4  UNL     1       4.129  -2.529  15.121  1.00  0.00     0.126 C 
HETATM    6  C5  UNL     1       4.381  -2.958  13.678  1.00  0.00     0.068 C 
HETATM    7  C6  UNL     1       5.005  -4.350  13.759  1.00  0.00     0.230 C 
HETATM    8  C7  UNL     1       5.773  -4.180  15.086  1.00  0.00     0.041 C 
ENDROOT
BRANCH   5   9
HETATM    9  O1  UNL     1       4.981  -1.498  15.507  1.00  0.00    -0.395 OA
ATOM     10  H1  UNL     1       4.436  -0.761  15.757  1.00  0.00     0.210 HD
ENDBRANCH   5   9
BRANCH   8  11
HETATM   11  C8  UNL     1       6.271  -5.535  15.481  1.00  0.00     0.121 C 
HETATM   12 CL1  UNL     1       7.044  -5.557  17.059  1.00  0.00    -0.130 Cl
ENDBRANCH   8  11
TORSDOF 2
ENDMDL
MODEL 2
REMARK VINA RESULT: -4.970310133      2.537      3.155
REMARK  2 active torsions:
REMARK  status: ('A' for Active; 'I' for Inactive)
REMARK    1  A    between atoms: C4_5  and  O1_6 
REMARK    2  A    between atoms: C7_10  and  C8_11 
ROOT
HETATM    1  C1  UNL     1       5.152  -7.068  13.843  1.00  0.00     0.310 C 
HETATM    2  N1  UNL     1       5.048  -5.682  13.526  1.00  0.00     0.089 N 
HETATM    3  C2  UNL     1       5.840  -4.843  14.430  1.00  0.00     0.280 C 
HETATM    4  C3  UNL     1       4.954  -3.667  14.796  1.00  0.00     0.050 C 
HETATM    5  C4  UNL     1       3.997  -4.169  15.852  1.00  0.00     0.126 C 
HETATM    6  C5  UNL     1       3.206  -5.221  15.079  1.00  0.00     0.068 C 
HETATM    7  C6  UNL     1       3.716  -5.152  13.640  1.00  0.00     0.230 C 
HETATM    8  C7  UNL     1       4.035  -3.645  13.582  1.00  0.00     0.041 C 
ENDROOT
BRANCH   5   9
HETATM    9  O1  UNL     1       3.194  -3.095  16.226  1.00  0.00    -0.395 OA
ATOM     10  H1  UNL     1       2.352  -3.212  15.804  1.00  0.00     0.210 HD
ENDBRANCH   5   9
BRANCH   8  11
HETATM   11  C8  UNL     1       4.787  -3.405  12.310  1.00  0.00     0.121 C 
HETATM   12 CL1  UNL     1       4.477  -1.823  11.609  1.00  0.00    -0.130 Cl
ENDBRANCH   8  11
TORSDOF 2
ENDMDL
MODEL 3
REMARK VINA RESULT: -4.849915361      1.177      1.180
REMARK  2 active torsions:
REMARK  status: ('A' for Active; 'I' for Inactive)
REMARK    1  A    between atoms: C4_5  and  O1_6 
REMARK    2  A    between atoms: C7_10  and  C8_11 
ROOT
HETATM    1  C1  UNL     1       3.658  -6.288  14.241  1.00  0.00     0.310 C 
HETATM    2  N1  UNL     1       4.455  -5.479  15.100  1.00  0.00     0.089 N 
HETATM    3  C2  UNL     1       3.656  -4.497  15.840  1.00  0.00     0.280 C 
HETATM    4  C3  UNL     1       4.422  -3.189  15.765  1.00  0.00     0.050 C 
HETATM    5  C4  UNL     1       4.145  -2.613  14.396  1.00  0.00     0.126 C 
HETATM    6  C5  UNL     1       4.776  -3.661  13.485  1.00  0.00     0.068 C 
HETATM    7  C6  UNL     1       5.434  -4.680  14.413  1.00  0.00     0.230 C 
HETATM    8  C7  UNL     1       5.832  -3.725  15.556  1.00  0.00     0.041 C 
ENDROOT
BRANCH   5   9
HETATM    9  O1  UNL     1       4.814  -1.395  14.318  1.00  0.00    -0.395 OA
ATOM     10  H1  UNL     1       5.191  -1.335  13.449  1.00  0.00     0.210 HD
ENDBRANCH   5   9
BRANCH   8  11
HETATM   11  C8  UNL     1       6.288  -4.576  16.700  1.00  0.00     0.121 C 
HETATM   12 CL1  UNL     1       6.274  -3.731  18.241  1.00  0.00    -0.130 Cl
ENDBRANCH   8  11
TORSDOF 2
ENDMDL
MODEL 4
REMARK VINA RESULT: -4.605816788      1.227      1.274
REMARK  2 active torsions:
REMARK  status: ('A' for Active; 'I' for Inactive)
REMARK    1  A    between atoms: C4_5  and  O1_6 
REMARK    2  A    between atoms: C7_10  and  C8_11 
ROOT
HETATM    1  C1  UNL     1       2.923  -4.403  12.391  1.00  0.00     0.310 C 
HETATM    2  N1  UNL     1       3.925  -4.858  13.296  1.00  0.00     0.089 N 
HETATM    3  C2  UNL     1       3.358  -5.325  14.565  1.00  0.00     0.280 C 
HETATM    4  C3  UNL     1       4.239  -4.744  15.656  1.00  0.00     0.050 C 
HETATM    5  C4  UNL     1       3.817  -3.303  15.821  1.00  0.00     0.126 C 
HETATM    6  C5  UNL     1       4.184  -2.716  14.461  1.00  0.00     0.068 C 
HETATM    7  C6  UNL     1       4.866  -3.844  13.689  1.00  0.00     0.230 C 
HETATM    8  C7  UNL     1       5.535  -4.564  14.877  1.00  0.00     0.041 C 
ENDROOT
BRANCH   5   9
HETATM    9  O1  UNL     1       4.592  -2.760  16.841  1.00  0.00    -0.395 OA
ATOM     10  H1  UNL     1       5.372  -2.396  16.440  1.00  0.00     0.210 HD
ENDBRANCH   5   9
BRANCH   8  11
HETATM   11  C8  UNL     1       6.068  -5.863  14.359  1.00  0.00     0.121 C 
HETATM   12 CL1  UNL     1       6.170  -7.111  15.592  1.00  0.00    -0.130 Cl
ENDBRANCH   8  11
TORSDOF 2
ENDMDL
MODEL 5
REMARK VINA RESULT: -4.599592112      3.675      4.665
REMARK  2 active torsions:
REMARK  status: ('A' for Active; 'I' for Inactive)
REMARK    1  A    between atoms: C4_5  and  O1_6 
REMARK    2  A    between atoms: C7_10  and  C8_11 
ROOT
HETATM    1  C1  UNL     1       4.364  -2.940  14.485  1.00  0.00     0.310 C 
HETATM    2  N1  UNL     1       3.879  -3.604  13.321  1.00  0.00     0.089 N 
HETATM    3  C2  UNL     1       4.957  -4.222  12.543  1.00  0.00     0.280 C 
HETATM    4  C3  UNL     1       4.671  -3.886  11.091  1.00  0.00     0.050 C 
HETATM    5  C4  UNL     1       5.130  -2.462  10.885  1.00  0.00     0.126 C 
HETATM    6  C5  UNL     1       4.189  -1.696  11.811  1.00  0.00     0.068 C 
HETATM    7  C6  UNL     1       3.225  -2.736  12.379  1.00  0.00     0.230 C 
HETATM    8  C7  UNL     1       3.164  -3.681  11.162  1.00  0.00     0.041 C 
ENDROOT
BRANCH   5   9
HETATM    9  O1  UNL     1       4.906  -2.145   9.549  1.00  0.00    -0.395 OA
ATOM     10  H1  UNL     1       4.948  -1.199   9.472  1.00  0.00     0.210 HD
ENDBRANCH   5   9
BRANCH   8  11
HETATM   11  C8  UNL     1       2.446  -4.918  11.603  1.00  0.00     0.121 C 
HETATM   12 CL1  UNL     1       0.696  -4.767  11.532  1.00  0.00    -0.130 Cl
ENDBRANCH   8  11
TORSDOF 2
ENDMDL
