MODEL 1
REMARK VINA RESULT: -6.679117751      0.000      0.000
REMARK  1 active torsions:
REMARK  status: ('A' for Active; 'I' for Inactive)
REMARK    1  A    between atoms: C2_7  and  C3_8 
ROOT
HETATM    1  N1  UNL     1       0.527  50.132  -5.524  1.00  0.00    -0.380 N 
ATOM      2  H11 UNL     1       0.226  49.222  -5.874  1.00  0.00     0.158 HD
ATOM      3  H12 UNL     1      -0.054  50.922  -5.244  1.00  0.00     0.158 HD
HETATM    4  C1  UNL     1       1.789  50.349  -5.403  1.00  0.00     0.136 C 
HETATM    5  N2  UNL     1       2.215  51.638  -4.907  1.00  0.00    -0.344 N 
ATOM      6  H2  UNL     1       1.621  52.441  -5.112  1.00  0.00     0.164 HD
HETATM    7  C2  UNL     1       3.426  51.879  -4.138  1.00  0.00     0.118 C 
HETATM    8  C9  UNL     1       4.573  51.969  -5.164  1.00  0.00     0.056 C 
HETATM    9  C10 UNL     1       4.726  50.792  -6.032  1.00  0.00     0.026 C 
HETATM   10  C11 UNL     1       4.513  49.455  -5.372  1.00  0.00     0.105 C 
HETATM   11  S3  UNL     1       2.813  48.958  -5.897  1.00  0.00    -0.084 SA
HETATM   12  C12 UNL     1       4.319  49.673  -3.883  1.00  0.00     0.028 A 
HETATM   13  C13 UNL     1       4.637  48.752  -2.905  1.00  0.00     0.028 A 
HETATM   14  C14 UNL     1       4.323  49.321  -1.720  1.00  0.00     0.019 A 
HETATM   15  C15 UNL     1       3.824  50.570  -2.000  1.00  0.00     0.094 A 
HETATM   16  N4  UNL     1       3.827  50.769  -3.322  1.00  0.00    -0.332 N 
ENDROOT
BRANCH   7  17
HETATM   17  C3  UNL     1       3.269  53.210  -3.538  1.00  0.00     0.078 C 
HETATM   18  C4  UNL     1       1.983  53.502  -2.821  1.00  0.00     0.086 C 
HETATM   19  S1  UNL     1       2.401  54.693  -1.502  1.00  0.00    -0.139 SA
HETATM   20  C5  UNL     1       3.472  55.897  -2.332  1.00  0.00     0.347 C 
HETATM   21  N3  UNL     1       4.417  55.277  -3.203  1.00  0.00     0.112 N 
HETATM   22  C6  UNL     1       5.154  56.304  -3.897  1.00  0.00     0.348 C 
HETATM   23  C8  UNL     1       3.788  54.418  -4.207  1.00  0.00     0.243 C 
HETATM   24  S2  UNL     1       3.886  56.797  -5.135  1.00  0.00    -0.137 SA
HETATM   25  C7  UNL     1       2.819  55.301  -4.941  1.00  0.00     0.112 C 
ENDBRANCH   7  17
TORSDOF 1
ENDMDL
MODEL 2
REMARK VINA RESULT: -6.572251311      2.699      4.933
REMARK  1 active torsions:
REMARK  status: ('A' for Active; 'I' for Inactive)
REMARK    1  A    between atoms: C2_7  and  C3_8 
ROOT
HETATM    1  N1  UNL     1       4.659  55.078  -3.080  1.00  0.00    -0.380 N 
ATOM      2  H11 UNL     1       5.066  55.296  -2.171  1.00  0.00     0.158 HD
ATOM      3  H12 UNL     1       4.891  55.484  -3.987  1.00  0.00     0.158 HD
HETATM    4  C1  UNL     1       3.738  54.183  -3.134  1.00  0.00     0.136 C 
HETATM    5  N2  UNL     1       3.161  53.874  -4.424  1.00  0.00    -0.344 N 
ATOM      6  H2  UNL     1       3.124  54.623  -5.115  1.00  0.00     0.164 HD
HETATM    7  C2  UNL     1       2.628  52.577  -4.811  1.00  0.00     0.118 C 
HETATM    8  C9  UNL     1       1.201  52.511  -4.232  1.00  0.00     0.056 C 
HETATM    9  C10 UNL     1       1.110  52.704  -2.776  1.00  0.00     0.026 C 
HETATM   10  C11 UNL     1       2.203  52.066  -1.959  1.00  0.00     0.105 C 
HETATM   11  S3  UNL     1       3.329  53.468  -1.538  1.00  0.00    -0.084 SA
HETATM   12  C12 UNL     1       3.079  51.238  -2.879  1.00  0.00     0.028 A 
HETATM   13  C13 UNL     1       3.794  50.122  -2.492  1.00  0.00     0.028 A 
HETATM   14  C14 UNL     1       4.436  49.672  -3.593  1.00  0.00     0.019 A 
HETATM   15  C15 UNL     1       4.100  50.518  -4.622  1.00  0.00     0.094 A 
HETATM   16  N4  UNL     1       3.273  51.468  -4.171  1.00  0.00    -0.332 N 
ENDROOT
BRANCH   7  17
HETATM   17  C3  UNL     1       2.505  52.609  -6.274  1.00  0.00     0.078 C 
HETATM   18  C4  UNL     1       3.617  53.251  -7.051  1.00  0.00     0.086 C 
HETATM   19  S1  UNL     1       3.679  52.381  -8.654  1.00  0.00    -0.139 SA
HETATM   20  C5  UNL     1       1.940  52.269  -9.152  1.00  0.00     0.347 C 
HETATM   21  N3  UNL     1       1.083  51.920  -8.065  1.00  0.00     0.112 N 
HETATM   22  C6  UNL     1      -0.284  51.954  -8.520  1.00  0.00     0.348 C 
HETATM   23  C8  UNL     1       1.203  52.835  -6.929  1.00  0.00     0.243 C 
HETATM   24  S2  UNL     1      -0.548  53.775  -8.536  1.00  0.00    -0.137 SA
HETATM   25  C7  UNL     1       0.908  54.201  -7.481  1.00  0.00     0.112 C 
ENDBRANCH   7  17
TORSDOF 1
ENDMDL
MODEL 3
REMARK VINA RESULT: -6.549463331      2.254      4.072
REMARK  1 active torsions:
REMARK  status: ('A' for Active; 'I' for Inactive)
REMARK    1  A    between atoms: C2_7  and  C3_8 
ROOT
HETATM    1  N1  UNL     1       5.172  48.514  -2.196  1.00  0.00    -0.380 N 
ATOM      2  H11 UNL     1       5.211  47.732  -1.543  1.00  0.00     0.158 HD
ATOM      3  H12 UNL     1       5.841  48.758  -2.926  1.00  0.00     0.158 HD
HETATM    4  C1  UNL     1       4.170  49.316  -2.123  1.00  0.00     0.136 C 
HETATM    5  N2  UNL     1       4.114  50.426  -3.047  1.00  0.00    -0.344 N 
ATOM      6  H2  UNL     1       5.000  50.815  -3.369  1.00  0.00     0.164 HD
HETATM    7  C2  UNL     1       2.892  51.031  -3.555  1.00  0.00     0.118 C 
HETATM    8  C9  UNL     1       2.411  52.005  -2.461  1.00  0.00     0.056 C 
HETATM    9  C10 UNL     1       2.189  51.397  -1.140  1.00  0.00     0.026 C 
HETATM   10  C11 UNL     1       1.570  50.024  -1.143  1.00  0.00     0.105 C 
HETATM   11  S3  UNL     1       2.992  48.887  -0.836  1.00  0.00    -0.084 SA
HETATM   12  C12 UNL     1       1.194  49.663  -2.567  1.00  0.00     0.028 A 
HETATM   13  C13 UNL     1       0.167  48.809  -2.918  1.00  0.00     0.028 A 
HETATM   14  C14 UNL     1       0.154  48.754  -4.269  1.00  0.00     0.019 A 
HETATM   15  C15 UNL     1       1.166  49.571  -4.709  1.00  0.00     0.094 A 
HETATM   16  N4  UNL     1       1.792  50.117  -3.661  1.00  0.00    -0.332 N 
ENDROOT
BRANCH   7  17
HETATM   17  C3  UNL     1       3.289  51.837  -4.715  1.00  0.00     0.078 C 
HETATM   18  C4  UNL     1       4.628  51.556  -5.333  1.00  0.00     0.086 C 
HETATM   19  S1  UNL     1       4.458  51.950  -7.107  1.00  0.00    -0.139 SA
HETATM   20  C5  UNL     1       3.579  53.536  -7.114  1.00  0.00     0.347 C 
HETATM   21  N3  UNL     1       2.516  53.573  -6.162  1.00  0.00     0.112 N 
HETATM   22  C6  UNL     1       1.941  54.895  -6.159  1.00  0.00     0.348 C 
HETATM   23  C8  UNL     1       2.960  53.273  -4.800  1.00  0.00     0.243 C 
HETATM   24  S2  UNL     1       3.234  55.782  -5.198  1.00  0.00    -0.137 SA
HETATM   25  C7  UNL     1       4.039  54.273  -4.500  1.00  0.00     0.112 C 
ENDBRANCH   7  17
TORSDOF 1
ENDMDL
MODEL 4
REMARK VINA RESULT: -6.476838153      1.291      2.710
REMARK  1 active torsions:
REMARK  status: ('A' for Active; 'I' for Inactive)
REMARK    1  A    between atoms: C2_7  and  C3_8 
ROOT
HETATM    1  N1  UNL     1       4.987  49.453  -1.462  1.00  0.00    -0.380 N 
ATOM      2  H11 UNL     1       5.322  48.489  -1.475  1.00  0.00     0.158 HD
ATOM      3  H12 UNL     1       5.248  50.200  -0.819  1.00  0.00     0.158 HD
HETATM    4  C1  UNL     1       4.130  49.810  -2.352  1.00  0.00     0.136 C 
HETATM    5  N2  UNL     1       3.655  51.175  -2.333  1.00  0.00    -0.344 N 
ATOM      6  H2  UNL     1       3.613  51.646  -1.429  1.00  0.00     0.164 HD
HETATM    7  C2  UNL     1       3.232  51.929  -3.502  1.00  0.00     0.118 C 
HETATM    8  C9  UNL     1       1.779  51.498  -3.786  1.00  0.00     0.056 C 
HETATM    9  C10 UNL     1       1.587  50.054  -3.992  1.00  0.00     0.026 C 
HETATM   10  C11 UNL     1       2.665  49.352  -4.774  1.00  0.00     0.105 C 
HETATM   11  S3  UNL     1       3.671  48.493  -3.484  1.00  0.00    -0.084 SA
HETATM   12  C12 UNL     1       3.649  50.387  -5.285  1.00  0.00     0.028 A 
HETATM   13  C13 UNL     1       4.409  50.253  -6.430  1.00  0.00     0.028 A 
HETATM   14  C14 UNL     1       5.145  51.381  -6.541  1.00  0.00     0.019 A 
HETATM   15  C15 UNL     1       4.819  52.174  -5.468  1.00  0.00     0.094 A 
HETATM   16  N4  UNL     1       3.907  51.555  -4.711  1.00  0.00    -0.332 N 
ENDROOT
BRANCH   7  17
HETATM   17  C3  UNL     1       3.198  53.337  -3.088  1.00  0.00     0.078 C 
HETATM   18  C4  UNL     1       2.011  53.800  -2.295  1.00  0.00     0.086 C 
HETATM   19  S1  UNL     1       2.619  55.136  -1.211  1.00  0.00    -0.139 SA
HETATM   20  C5  UNL     1       3.646  56.150  -2.308  1.00  0.00     0.347 C 
HETATM   21  N3  UNL     1       4.464  55.360  -3.172  1.00  0.00     0.112 N 
HETATM   22  C6  UNL     1       5.165  56.237  -4.077  1.00  0.00     0.348 C 
HETATM   23  C8  UNL     1       3.694  54.408  -3.973  1.00  0.00     0.243 C 
HETATM   24  S2  UNL     1       3.793  56.626  -5.239  1.00  0.00    -0.137 SA
HETATM   25  C7  UNL     1       2.691  55.236  -4.725  1.00  0.00     0.112 C 
ENDBRANCH   7  17
TORSDOF 1
ENDMDL
MODEL 5
REMARK VINA RESULT: -6.365957343      2.478      5.618
REMARK  1 active torsions:
REMARK  status: ('A' for Active; 'I' for Inactive)
REMARK    1  A    between atoms: C2_7  and  C3_8 
ROOT
HETATM    1  N1  UNL     1       5.419  52.000  -6.018  1.00  0.00    -0.380 N 
ATOM      2  H11 UNL     1       5.959  52.683  -6.550  1.00  0.00     0.158 HD
ATOM      3  H12 UNL     1       5.664  51.033  -5.804  1.00  0.00     0.158 HD
HETATM    4  C1  UNL     1       4.284  52.365  -5.537  1.00  0.00     0.136 C 
HETATM    5  N2  UNL     1       3.519  51.397  -4.783  1.00  0.00    -0.344 N 
ATOM      6  H2  UNL     1       3.625  50.414  -5.034  1.00  0.00     0.164 HD
HETATM    7  C2  UNL     1       2.610  51.716  -3.694  1.00  0.00     0.118 C 
HETATM    8  C9  UNL     1       1.286  52.148  -4.355  1.00  0.00     0.056 C 
HETATM    9  C10 UNL     1       1.397  53.274  -5.294  1.00  0.00     0.026 C 
HETATM   10  C11 UNL     1       2.343  54.375  -4.893  1.00  0.00     0.105 C 
HETATM   11  S3  UNL     1       3.852  54.067  -5.913  1.00  0.00    -0.084 SA
HETATM   12  C12 UNL     1       2.859  54.088  -3.496  1.00  0.00     0.028 A 
HETATM   13  C13 UNL     1       3.268  55.051  -2.595  1.00  0.00     0.028 A 
HETATM   14  C14 UNL     1       3.646  54.397  -1.474  1.00  0.00     0.019 A 
HETATM   15  C15 UNL     1       3.460  53.058  -1.714  1.00  0.00     0.094 A 
HETATM   16  N4  UNL     1       2.980  52.885  -2.950  1.00  0.00    -0.332 N 
ENDROOT
BRANCH   7  17
HETATM   17  C3  UNL     1       2.357  50.451  -2.992  1.00  0.00     0.078 C 
HETATM   18  C4  UNL     1       3.510  49.811  -2.275  1.00  0.00     0.086 C 
HETATM   19  S1  UNL     1       2.788  48.915  -0.858  1.00  0.00    -0.139 SA
HETATM   20  C5  UNL     1       1.354  48.065  -1.570  1.00  0.00     0.347 C 
HETATM   21  N3  UNL     1       0.622  48.895  -2.473  1.00  0.00     0.112 N 
HETATM   22  C6  UNL     1      -0.433  48.114  -3.069  1.00  0.00     0.348 C 
HETATM   23  C8  UNL     1       1.450  49.431  -3.553  1.00  0.00     0.243 C 
HETATM   24  S2  UNL     1       0.557  47.151  -4.285  1.00  0.00    -0.137 SA
HETATM   25  C7  UNL     1       2.054  48.233  -4.229  1.00  0.00     0.112 C 
ENDBRANCH   7  17
TORSDOF 1
ENDMDL
