MODEL 1
REMARK VINA RESULT: -7.102158769      0.000      0.000
REMARK  6 active torsions:
REMARK  status: ('A' for Active; 'I' for Inactive)
REMARK       I    between atoms: N2_7  and  C4_9 
REMARK    1  A    between atoms: C4_9  and  O3_11 
REMARK    2  A    between atoms: O3_11  and  C5_12 
REMARK    3  A    between atoms: C9_16  and  C10_17 
REMARK    4  A    between atoms: C11_18  and  C12_19 
REMARK    5  A    between atoms: C14_22  and  N3_23 
REMARK    6  A    between atoms: N4_26  and  C15_27 
ROOT
HETATM    1  C1  UNL     1       4.509  49.752  -7.313  1.00  0.00     0.081 C 
HETATM    2  C2  UNL     1       4.526  49.425  -5.861  1.00  0.00     0.095 A 
HETATM    3  O1  UNL     1       4.724  48.232  -5.335  1.00  0.00    -0.239 OA
HETATM    4  N1  UNL     1       4.675  48.304  -4.029  1.00  0.00    -0.243 N 
ATOM      5  H1  UNL     1       4.796  47.524  -3.384  1.00  0.00     0.196 HD
HETATM    6  C3  UNL     1       4.434  49.596  -3.678  1.00  0.00     0.151 A 
HETATM    7  N2  UNL     1       4.310  50.099  -2.496  1.00  0.00    -0.286 N 
ATOM      8  H2  UNL     1       4.128  51.094  -2.370  1.00  0.00     0.172 HD
HETATM    9  C4  UNL     1       4.433  49.240  -1.381  1.00  0.00     0.367 C 
HETATM   10  O2  UNL     1       5.478  48.601  -1.161  1.00  0.00    -0.238 OA
HETATM   11  C9  UNL     1       4.332  50.345  -4.844  1.00  0.00     0.095 A 
ENDROOT
BRANCH  11  12
HETATM   12  C10 UNL     1       4.084  51.755  -4.951  1.00  0.00    -0.053 C 
HETATM   13  C11 UNL     1       3.888  52.956  -5.031  1.00  0.00    -0.042 C 
BRANCH  13  14
HETATM   14  C12 UNL     1       3.668  54.413  -5.107  1.00  0.00     0.099 A 
HETATM   15  C13 UNL     1       4.466  55.245  -4.362  1.00  0.00     0.092 A 
HETATM   16  S1  UNL     1       3.857  56.787  -4.765  1.00  0.00    -0.063 SA
HETATM   17  C14 UNL     1       2.635  56.296  -5.845  1.00  0.00     0.146 A 
HETATM   18  N4  UNL     1       2.746  54.968  -5.852  1.00  0.00    -0.306 N 
BRANCH  17  19
HETATM   19  N3  UNL     1       1.777  57.037  -6.524  1.00  0.00    -0.379 N 
ATOM     20  H32 UNL     1       0.833  57.307  -6.248  1.00  0.00     0.158 HD
ATOM     21  H31 UNL     1       1.890  57.475  -7.438  1.00  0.00     0.158 HD
ENDBRANCH  17  19
BRANCH  18  22
HETATM   22  C15 UNL     1       1.824  54.175  -6.707  1.00  0.00     0.246 C 
HETATM   23 CL1  UNL     1       2.562  53.711  -8.229  1.00  0.00    -0.108 Cl
ENDBRANCH  18  22
ENDBRANCH  13  14
ENDBRANCH  11  12
BRANCH   9  24
HETATM   24  O3  UNL     1       3.367  49.109  -0.517  1.00  0.00    -0.294 OA
BRANCH  24  25
HETATM   25  C5  UNL     1       2.024  49.104  -0.907  1.00  0.00     0.061 C 
HETATM   26  C6  UNL     1       1.770  48.068  -1.963  1.00  0.00     0.046 C 
HETATM   27  C7  UNL     1       1.197  48.759   0.330  1.00  0.00     0.046 C 
HETATM   28  C8  UNL     1       1.596  50.488  -1.346  1.00  0.00     0.046 C 
ENDBRANCH  24  25
ENDBRANCH   9  24
TORSDOF 6
ENDMDL
MODEL 2
REMARK VINA RESULT: -6.661359855      2.075      4.045
REMARK  6 active torsions:
REMARK  status: ('A' for Active; 'I' for Inactive)
REMARK       I    between atoms: N2_7  and  C4_9 
REMARK    1  A    between atoms: C4_9  and  O3_11 
REMARK    2  A    between atoms: O3_11  and  C5_12 
REMARK    3  A    between atoms: C9_16  and  C10_17 
REMARK    4  A    between atoms: C11_18  and  C12_19 
REMARK    5  A    between atoms: C14_22  and  N3_23 
REMARK    6  A    between atoms: N4_26  and  C15_27 
ROOT
HETATM    1  C1  UNL     1       1.826  50.733  -1.114  1.00  0.00     0.081 C 
HETATM    2  C2  UNL     1       2.715  49.956  -2.020  1.00  0.00     0.095 A 
HETATM    3  O1  UNL     1       2.939  48.658  -1.964  1.00  0.00    -0.239 OA
HETATM    4  N1  UNL     1       3.772  48.305  -2.910  1.00  0.00    -0.243 N 
ATOM      5  H1  UNL     1       4.109  47.359  -3.085  1.00  0.00     0.196 HD
HETATM    6  C3  UNL     1       4.112  49.414  -3.619  1.00  0.00     0.151 A 
HETATM    7  N2  UNL     1       4.906  49.509  -4.632  1.00  0.00    -0.286 N 
ATOM      8  H2  UNL     1       5.077  50.411  -5.077  1.00  0.00     0.172 HD
HETATM    9  C4  UNL     1       5.533  48.337  -5.111  1.00  0.00     0.367 C 
HETATM   10  O2  UNL     1       4.872  47.369  -5.531  1.00  0.00    -0.238 OA
HETATM   11  C9  UNL     1       3.443  50.499  -3.066  1.00  0.00     0.095 A 
ENDROOT
BRANCH  11  12
HETATM   12  C10 UNL     1       3.504  51.867  -3.494  1.00  0.00    -0.053 C 
HETATM   13  C11 UNL     1       3.538  53.035  -3.847  1.00  0.00    -0.042 C 
BRANCH  13  14
HETATM   14  C12 UNL     1       3.556  54.450  -4.264  1.00  0.00     0.099 A 
HETATM   15  C13 UNL     1       4.446  55.307  -3.667  1.00  0.00     0.092 A 
HETATM   16  S1  UNL     1       4.107  56.784  -4.449  1.00  0.00    -0.063 SA
HETATM   17  C14 UNL     1       2.866  56.239  -5.481  1.00  0.00     0.146 A 
HETATM   18  N4  UNL     1       2.765  54.945  -5.181  1.00  0.00    -0.306 N 
BRANCH  17  19
HETATM   19  N3  UNL     1       2.165  56.919  -6.370  1.00  0.00    -0.379 N 
ATOM     20  H32 UNL     1       1.710  56.562  -7.210  1.00  0.00     0.158 HD
ATOM     21  H31 UNL     1       1.949  57.916  -6.391  1.00  0.00     0.158 HD
ENDBRANCH  17  19
BRANCH  18  22
HETATM   22  C15 UNL     1       1.762  54.118  -5.904  1.00  0.00     0.246 C 
HETATM   23 CL1  UNL     1       2.378  53.508  -7.429  1.00  0.00    -0.108 Cl
ENDBRANCH  18  22
ENDBRANCH  13  14
ENDBRANCH  11  12
BRANCH   9  24
HETATM   24  O3  UNL     1       6.909  48.267  -5.111  1.00  0.00    -0.294 OA
BRANCH  24  25
HETATM   25  C5  UNL     1       7.660  47.368  -4.346  1.00  0.00     0.061 C 
HETATM   26  C6  UNL     1       7.610  45.987  -4.930  1.00  0.00     0.046 C 
HETATM   27  C7  UNL     1       9.106  47.859  -4.364  1.00  0.00     0.046 C 
HETATM   28  C8  UNL     1       7.206  47.397  -2.902  1.00  0.00     0.046 C 
ENDBRANCH  24  25
ENDBRANCH   9  24
TORSDOF 6
ENDMDL
MODEL 3
REMARK VINA RESULT: -6.602395270      4.189      6.623
REMARK  6 active torsions:
REMARK  status: ('A' for Active; 'I' for Inactive)
REMARK       I    between atoms: N2_7  and  C4_9 
REMARK    1  A    between atoms: C4_9  and  O3_11 
REMARK    2  A    between atoms: O3_11  and  C5_12 
REMARK    3  A    between atoms: C9_16  and  C10_17 
REMARK    4  A    between atoms: C11_18  and  C12_19 
REMARK    5  A    between atoms: C14_22  and  N3_23 
REMARK    6  A    between atoms: N4_26  and  C15_27 
ROOT
HETATM    1  C1  UNL     1       4.627  50.096  -7.569  1.00  0.00     0.081 C 
HETATM    2  C2  UNL     1       4.458  51.376  -6.829  1.00  0.00     0.095 A 
HETATM    3  O1  UNL     1       4.905  52.558  -7.207  1.00  0.00    -0.239 OA
HETATM    4  N1  UNL     1       4.579  53.465  -6.322  1.00  0.00    -0.243 N 
ATOM      5  H1  UNL     1       4.805  54.458  -6.375  1.00  0.00     0.196 HD
HETATM    6  C3  UNL     1       3.889  52.859  -5.319  1.00  0.00     0.151 A 
HETATM    7  N2  UNL     1       3.386  53.388  -4.254  1.00  0.00    -0.286 N 
ATOM      8  H2  UNL     1       2.887  52.815  -3.574  1.00  0.00     0.172 HD
HETATM    9  C4  UNL     1       3.544  54.777  -4.052  1.00  0.00     0.367 C 
HETATM   10  O2  UNL     1       3.091  55.610  -4.859  1.00  0.00    -0.238 OA
HETATM   11  C9  UNL     1       3.794  51.506  -5.620  1.00  0.00     0.095 A 
ENDROOT
BRANCH  11  12
HETATM   12  C10 UNL     1       3.150  50.486  -4.842  1.00  0.00    -0.053 C 
HETATM   13  C11 UNL     1       2.602  49.632  -4.165  1.00  0.00    -0.042 C 
BRANCH  13  14
HETATM   14  C12 UNL     1       1.945  48.613  -3.325  1.00  0.00     0.099 A 
HETATM   15  C13 UNL     1       1.121  47.692  -3.920  1.00  0.00     0.092 A 
HETATM   16  S1  UNL     1       0.609  46.751  -2.593  1.00  0.00    -0.063 SA
HETATM   17  C14 UNL     1       1.460  47.571  -1.366  1.00  0.00     0.146 A 
HETATM   18  N4  UNL     1       2.102  48.532  -2.028  1.00  0.00    -0.306 N 
BRANCH  17  19
HETATM   19  N3  UNL     1       1.490  47.325  -0.068  1.00  0.00    -0.379 N 
ATOM     20  H32 UNL     1       1.072  46.538   0.427  1.00  0.00     0.158 HD
ATOM     21  H31 UNL     1       1.927  47.867   0.678  1.00  0.00     0.158 HD
ENDBRANCH  17  19
BRANCH  18  22
HETATM   22  C15 UNL     1       2.972  49.468  -1.268  1.00  0.00     0.246 C 
HETATM   23 CL1  UNL     1       4.650  48.956  -1.256  1.00  0.00    -0.108 Cl
ENDBRANCH  18  22
ENDBRANCH  13  14
ENDBRANCH  11  12
BRANCH   9  24
HETATM   24  O3  UNL     1       4.217  55.218  -2.933  1.00  0.00    -0.294 OA
BRANCH  24  25
HETATM   25  C5  UNL     1       3.952  54.793  -1.627  1.00  0.00     0.061 C 
HETATM   26  C6  UNL     1       3.677  53.318  -1.582  1.00  0.00     0.046 C 
HETATM   27  C7  UNL     1       5.198  55.089  -0.794  1.00  0.00     0.046 C 
HETATM   28  C8  UNL     1       2.823  55.605  -1.027  1.00  0.00     0.046 C 
ENDBRANCH  24  25
ENDBRANCH   9  24
TORSDOF 6
ENDMDL
MODEL 4
REMARK VINA RESULT: -6.583060971      1.549      1.879
REMARK  6 active torsions:
REMARK  status: ('A' for Active; 'I' for Inactive)
REMARK       I    between atoms: N2_7  and  C4_9 
REMARK    1  A    between atoms: C4_9  and  O3_11 
REMARK    2  A    between atoms: O3_11  and  C5_12 
REMARK    3  A    between atoms: C9_16  and  C10_17 
REMARK    4  A    between atoms: C11_18  and  C12_19 
REMARK    5  A    between atoms: C14_22  and  N3_23 
REMARK    6  A    between atoms: N4_26  and  C15_27 
ROOT
HETATM    1  C1  UNL     1       4.986  48.849  -7.339  1.00  0.00     0.081 C 
HETATM    2  C2  UNL     1       4.936  48.753  -5.854  1.00  0.00     0.095 A 
HETATM    3  O1  UNL     1       5.305  47.716  -5.129  1.00  0.00    -0.239 OA
HETATM    4  N1  UNL     1       5.129  47.971  -3.858  1.00  0.00    -0.243 N 
ATOM      5  H1  UNL     1       5.336  47.336  -3.088  1.00  0.00     0.196 HD
HETATM    6  C3  UNL     1       4.623  49.227  -3.738  1.00  0.00     0.151 A 
HETATM    7  N2  UNL     1       4.305  49.867  -2.663  1.00  0.00    -0.286 N 
ATOM      8  H2  UNL     1       3.931  50.815  -2.712  1.00  0.00     0.172 HD
HETATM    9  C4  UNL     1       4.487  49.226  -1.417  1.00  0.00     0.367 C 
HETATM   10  O2  UNL     1       5.609  48.846  -1.037  1.00  0.00    -0.238 OA
HETATM   11  C9  UNL     1       4.487  49.759  -5.014  1.00  0.00     0.095 A 
ENDROOT
BRANCH  11  12
HETATM   12  C10 UNL     1       3.991  51.060  -5.365  1.00  0.00    -0.053 C 
HETATM   13  C11 UNL     1       3.554  52.162  -5.651  1.00  0.00    -0.042 C 
BRANCH  13  14
HETATM   14  C12 UNL     1       3.002  53.489  -5.985  1.00  0.00     0.099 A 
HETATM   15  C13 UNL     1       2.099  53.594  -7.011  1.00  0.00     0.092 A 
HETATM   16  S1  UNL     1       1.755  55.265  -7.023  1.00  0.00    -0.063 SA
HETATM   17  C14 UNL     1       2.768  55.735  -5.737  1.00  0.00     0.146 A 
HETATM   18  N4  UNL     1       3.327  54.588  -5.352  1.00  0.00    -0.306 N 
BRANCH  17  19
HETATM   19  N3  UNL     1       2.963  56.938  -5.229  1.00  0.00    -0.379 N 
ATOM     20  H32 UNL     1       3.209  57.793  -5.728  1.00  0.00     0.158 HD
ATOM     21  H31 UNL     1       2.907  57.242  -4.256  1.00  0.00     0.158 HD
ENDBRANCH  17  19
BRANCH  18  22
HETATM   22  C15 UNL     1       4.291  54.605  -4.220  1.00  0.00     0.246 C 
HETATM   23 CL1  UNL     1       3.530  54.197  -2.693  1.00  0.00    -0.108 Cl
ENDBRANCH  18  22
ENDBRANCH  13  14
ENDBRANCH  11  12
BRANCH   9  24
HETATM   24  O3  UNL     1       3.392  49.018  -0.606  1.00  0.00    -0.294 OA
BRANCH  24  25
HETATM   25  C5  UNL     1       2.108  49.509  -0.862  1.00  0.00     0.061 C 
HETATM   26  C6  UNL     1       1.384  48.643  -1.852  1.00  0.00     0.046 C 
HETATM   27  C7  UNL     1       1.345  49.489   0.461  1.00  0.00     0.046 C 
HETATM   28  C8  UNL     1       2.174  50.956  -1.306  1.00  0.00     0.046 C 
ENDBRANCH  24  25
ENDBRANCH   9  24
TORSDOF 6
ENDMDL
MODEL 5
REMARK VINA RESULT: -6.538964921      4.702      8.156
REMARK  6 active torsions:
REMARK  status: ('A' for Active; 'I' for Inactive)
REMARK       I    between atoms: N2_7  and  C4_9 
REMARK    1  A    between atoms: C4_9  and  O3_11 
REMARK    2  A    between atoms: O3_11  and  C5_12 
REMARK    3  A    between atoms: C9_16  and  C10_17 
REMARK    4  A    between atoms: C11_18  and  C12_19 
REMARK    5  A    between atoms: C14_22  and  N3_23 
REMARK    6  A    between atoms: N4_26  and  C15_27 
ROOT
HETATM    1  C1  UNL     1       2.768  53.814  -1.842  1.00  0.00     0.081 C 
HETATM    2  C2  UNL     1       2.460  53.976  -3.289  1.00  0.00     0.095 A 
HETATM    3  O1  UNL     1       2.709  55.043  -4.023  1.00  0.00    -0.239 OA
HETATM    4  N1  UNL     1       2.309  54.845  -5.253  1.00  0.00    -0.243 N 
ATOM      5  H1  UNL     1       2.385  55.513  -6.019  1.00  0.00     0.196 HD
HETATM    6  C3  UNL     1       1.774  53.598  -5.336  1.00  0.00     0.151 A 
HETATM    7  N2  UNL     1       1.264  53.008  -6.364  1.00  0.00    -0.286 N 
ATOM      8  H2  UNL     1       0.892  52.061  -6.290  1.00  0.00     0.172 HD
HETATM    9  C4  UNL     1       1.232  53.702  -7.594  1.00  0.00     0.367 C 
HETATM   10  O2  UNL     1       2.275  54.094  -8.150  1.00  0.00    -0.238 OA
HETATM   11  C9  UNL     1       1.857  53.011  -4.079  1.00  0.00     0.095 A 
ENDROOT
BRANCH  11  12
HETATM   12  C10 UNL     1       1.415  51.698  -3.702  1.00  0.00    -0.053 C 
HETATM   13  C11 UNL     1       1.057  50.580  -3.371  1.00  0.00    -0.042 C 
BRANCH  13  14
HETATM   14  C12 UNL     1       0.648  49.222  -2.964  1.00  0.00     0.099 A 
HETATM   15  C13 UNL     1      -0.291  48.559  -3.712  1.00  0.00     0.092 A 
HETATM   16  S1  UNL     1      -0.436  47.076  -2.882  1.00  0.00    -0.063 SA
HETATM   17  C14 UNL     1       0.693  47.376  -1.642  1.00  0.00     0.146 A 
HETATM   18  N4  UNL     1       1.134  48.603  -1.918  1.00  0.00    -0.306 N 
BRANCH  17  19
HETATM   19  N3  UNL     1       1.057  46.594  -0.642  1.00  0.00    -0.379 N 
ATOM     20  H32 UNL     1       0.515  45.850  -0.203  1.00  0.00     0.158 HD
ATOM     21  H31 UNL     1       1.935  46.583  -0.122  1.00  0.00     0.158 HD
ENDBRANCH  17  19
BRANCH  18  22
HETATM   22  C15 UNL     1       2.159  49.214  -1.031  1.00  0.00     0.246 C 
HETATM   23 CL1  UNL     1       1.463  49.865   0.441  1.00  0.00    -0.108 Cl
ENDBRANCH  18  22
ENDBRANCH  13  14
ENDBRANCH  11  12
BRANCH   9  24
HETATM   24  O3  UNL     1       0.014  53.951  -8.190  1.00  0.00    -0.294 OA
BRANCH  24  25
HETATM   25  C5  UNL     1      -0.558  53.159  -9.190  1.00  0.00     0.061 C 
HETATM   26  C6  UNL     1      -1.492  52.139  -8.606  1.00  0.00     0.046 C 
HETATM   27  C7  UNL     1      -1.354  54.090 -10.103  1.00  0.00     0.046 C 
HETATM   28  C8  UNL     1       0.521  52.527 -10.044  1.00  0.00     0.046 C 
ENDBRANCH  24  25
ENDBRANCH   9  24
TORSDOF 6
ENDMDL
