MODEL 1
REMARK VINA RESULT: -7.951081791      0.000      0.000
REMARK  4 active torsions:
REMARK  status: ('A' for Active; 'I' for Inactive)
REMARK    1  A    between atoms: C2_2  and  N8_21 
REMARK    2  A    between atoms: N1_3  and  N2_5 
REMARK    3  A    between atoms: C3_6  and  N3_7 
REMARK    4  A    between atoms: N8_21  and  N9_23 
REMARK       I    between atoms: N9_23  and  C7_25 
REMARK       I    between atoms: C7_25  and  N10_26 
REMARK       I    between atoms: C7_25  and  N11_30 
ROOT
HETATM    1  C1  UNL     1      14.836  -7.394  14.396  1.00  0.00     0.092 C 
HETATM    2  C2  UNL     1      13.753  -7.684  13.446  1.00  0.00     0.107 C 
HETATM    3  N1  UNL     1      12.570  -7.288  13.674  1.00  0.00    -0.265 N 
ATOM      4  H1  UNL     1      12.402  -6.765  14.533  1.00  0.00     0.189 HD
ENDROOT
BRANCH   3   5
HETATM    5  N2  UNL     1      11.481  -7.518  12.829  1.00  0.00    -0.065 N 
HETATM    6  C3  UNL     1      11.114  -6.542  11.979  1.00  0.00     0.702 A 
HETATM    7  N4  UNL     1      10.058  -6.723  11.136  1.00  0.00    -0.152 N 
HETATM    8  C4  UNL     1       9.349  -7.869  11.119  1.00  0.00     0.291 A 
ATOM      9  H4  UNL     1       9.797  -5.969  10.500  1.00  0.00     0.187 HD
HETATM   10  O1  UNL     1       8.373  -8.028  10.335  1.00  0.00    -0.265 OA
HETATM   11  C5  UNL     1       9.704  -8.882  11.978  1.00  0.00     0.162 A 
HETATM   12  N5  UNL     1       9.207 -10.113  12.196  1.00  0.00    -0.276 N 
HETATM   13  C6  UNL     1      10.783  -8.658  12.818  1.00  0.00     0.192 A 
HETATM   14  N6  UNL     1       9.960 -10.638  13.147  1.00  0.00    -0.020 NA
ATOM     15  H5  UNL     1       8.414 -10.549  11.726  1.00  0.00     0.184 HD
HETATM   16  N7  UNL     1      10.902  -9.792  13.532  1.00  0.00    -0.265 N 
ATOM     17  H7  UNL     1      11.603  -9.971  14.252  1.00  0.00     0.186 HD
BRANCH   6  18
HETATM   18  N3  UNL     1      11.785  -5.431  11.980  1.00  0.00    -0.233 N 
ATOM     19  H32 UNL     1      12.177  -5.055  12.843  1.00  0.00     0.174 HD
ATOM     20  H31 UNL     1      11.914  -4.938  11.097  1.00  0.00     0.174 HD
ENDBRANCH   6  18
ENDBRANCH   3   5
BRANCH   2  21
HETATM   21  N8  UNL     1      14.040  -8.412  12.269  1.00  0.00    -0.289 N 
ATOM     22  H8  UNL     1      13.347  -9.042  11.866  1.00  0.00     0.188 HD
BRANCH  21  23
HETATM   23  N9  UNL     1      15.273  -8.252  11.676  1.00  0.00    -0.283 N 
HETATM   24  C7  UNL     1      16.008  -9.463  11.486  1.00  0.00     0.494 C 
HETATM   25  N10 UNL     1      17.273  -9.124  10.856  1.00  0.00    -0.032 N 
HETATM   26  N11 UNL     1      16.273 -10.068  12.767  1.00  0.00    -0.032 N 
ATOM     27 3H10 UNL     1      17.154  -8.594   9.992  1.00  0.00     0.279 HD
ATOM     28 2H10 UNL     1      17.798  -8.421  11.376  1.00  0.00     0.279 HD
ATOM     29 1H10 UNL     1      17.797  -9.988  10.721  1.00  0.00     0.279 HD
ATOM     30 3H11 UNL     1      16.742  -9.427  13.408  1.00  0.00     0.279 HD
ATOM     31 2H11 UNL     1      15.420 -10.215  13.308  1.00  0.00     0.279 HD
ATOM     32 1H11 UNL     1      16.797 -10.932  12.632  1.00  0.00     0.279 HD
ATOM     33  H9  UNL     1      15.633  -7.341  11.393  1.00  0.00     0.184 HD
ENDBRANCH  21  23
ENDBRANCH   2  21
TORSDOF 4
ENDMDL
MODEL 2
REMARK VINA RESULT: -7.926495119      1.474      2.168
REMARK  4 active torsions:
REMARK  status: ('A' for Active; 'I' for Inactive)
REMARK    1  A    between atoms: C2_2  and  N8_21 
REMARK    2  A    between atoms: N1_3  and  N2_5 
REMARK    3  A    between atoms: C3_6  and  N3_7 
REMARK    4  A    between atoms: N8_21  and  N9_23 
REMARK       I    between atoms: N9_23  and  C7_25 
REMARK       I    between atoms: C7_25  and  N10_26 
REMARK       I    between atoms: C7_25  and  N11_30 
ROOT
HETATM    1  C1  UNL     1      12.631  -5.142  12.794  1.00  0.00     0.092 C 
HETATM    2  C2  UNL     1      11.872  -6.300  12.301  1.00  0.00     0.107 C 
HETATM    3  N1  UNL     1      10.604  -6.305  12.336  1.00  0.00    -0.265 N 
ATOM      4  H1  UNL     1      10.137  -5.481  12.716  1.00  0.00     0.189 HD
ENDROOT
BRANCH   3   5
HETATM    5  N2  UNL     1       9.803  -7.359  11.891  1.00  0.00    -0.065 N 
HETATM    6  C3  UNL     1       8.914  -7.118  10.911  1.00  0.00     0.702 A 
HETATM    7  N4  UNL     1       8.112  -8.117  10.446  1.00  0.00    -0.152 N 
HETATM    8  C4  UNL     1       8.176  -9.369  10.940  1.00  0.00     0.291 A 
ATOM      9  H4  UNL     1       7.445  -7.911   9.702  1.00  0.00     0.187 HD
HETATM   10  O1  UNL     1       7.430 -10.288  10.502  1.00  0.00    -0.265 OA
HETATM   11  C5  UNL     1       9.077  -9.642  11.942  1.00  0.00     0.162 A 
HETATM   12  N5  UNL     1       9.373 -10.763  12.625  1.00  0.00    -0.276 N 
HETATM   13  C6  UNL     1       9.873  -8.599  12.387  1.00  0.00     0.192 A 
HETATM   14  N6  UNL     1      10.328 -10.422  13.472  1.00  0.00    -0.020 NA
ATOM     15  H5  UNL     1       8.947 -11.683  12.514  1.00  0.00     0.184 HD
HETATM   16  N7  UNL     1      10.641  -9.142  13.348  1.00  0.00    -0.265 N 
ATOM     17  H7  UNL     1      11.349  -8.648  13.893  1.00  0.00     0.186 HD
BRANCH   6  18
HETATM   18  N3  UNL     1       8.838  -5.918  10.422  1.00  0.00    -0.233 N 
ATOM     19  H32 UNL     1       8.990  -5.100  11.012  1.00  0.00     0.174 HD
ATOM     20  H31 UNL     1       8.623  -5.807   9.431  1.00  0.00     0.174 HD
ENDBRANCH   6  18
ENDBRANCH   3   5
BRANCH   2  21
HETATM   21  N8  UNL     1      12.568  -7.416  11.782  1.00  0.00    -0.289 N 
ATOM     22  H8  UNL     1      12.066  -8.168  11.312  1.00  0.00     0.188 HD
BRANCH  21  23
HETATM   23  N9  UNL     1      13.937  -7.467  11.925  1.00  0.00    -0.283 N 
HETATM   24  C7  UNL     1      14.441  -8.702  12.438  1.00  0.00     0.494 C 
HETATM   25  N10 UNL     1      15.887  -8.592  12.526  1.00  0.00    -0.032 N 
HETATM   26  N11 UNL     1      13.909  -8.924  13.758  1.00  0.00    -0.032 N 
ATOM     27 3H10 UNL     1      16.318  -8.327  11.640  1.00  0.00     0.279 HD
ATOM     28 2H10 UNL     1      16.190  -7.785  13.072  1.00  0.00     0.279 HD
ATOM     29 1H10 UNL     1      16.247  -9.474  12.892  1.00  0.00     0.279 HD
ATOM     30 3H11 UNL     1      14.092  -8.141  14.386  1.00  0.00     0.279 HD
ATOM     31 2H11 UNL     1      12.889  -8.887  13.774  1.00  0.00     0.279 HD
ATOM     32 1H11 UNL     1      14.268  -9.806  14.124  1.00  0.00     0.279 HD
ATOM     33  H9  UNL     1      14.544  -6.684  11.682  1.00  0.00     0.184 HD
ENDBRANCH  21  23
ENDBRANCH   2  21
TORSDOF 4
ENDMDL
MODEL 3
REMARK VINA RESULT: -7.391059790      2.464      5.286
REMARK  4 active torsions:
REMARK  status: ('A' for Active; 'I' for Inactive)
REMARK    1  A    between atoms: C2_2  and  N8_21 
REMARK    2  A    between atoms: N1_3  and  N2_5 
REMARK    3  A    between atoms: C3_6  and  N3_7 
REMARK    4  A    between atoms: N8_21  and  N9_23 
REMARK       I    between atoms: N9_23  and  C7_25 
REMARK       I    between atoms: C7_25  and  N10_26 
REMARK       I    between atoms: C7_25  and  N11_30 
ROOT
HETATM    1  C1  UNL     1       8.771  -5.562  11.211  1.00  0.00     0.092 C 
HETATM    2  C2  UNL     1       9.820  -6.564  11.448  1.00  0.00     0.107 C 
HETATM    3  N1  UNL     1      10.802  -6.304  12.207  1.00  0.00    -0.265 N 
ATOM      4  H1  UNL     1      10.834  -5.382  12.642  1.00  0.00     0.189 HD
ENDROOT
BRANCH   3   5
HETATM    5  N2  UNL     1      11.842  -7.193  12.489  1.00  0.00    -0.065 N 
HETATM    6  C3  UNL     1      13.108  -6.756  12.367  1.00  0.00     0.702 A 
HETATM    7  N4  UNL     1      14.154  -7.589  12.632  1.00  0.00    -0.152 N 
HETATM    8  C4  UNL     1      13.966  -8.865  13.022  1.00  0.00     0.291 A 
ATOM      9  H4  UNL     1      15.106  -7.236  12.533  1.00  0.00     0.187 HD
HETATM   10  O1  UNL     1      14.940  -9.629  13.265  1.00  0.00    -0.265 OA
HETATM   11  C5  UNL     1      12.681  -9.337  13.154  1.00  0.00     0.162 A 
HETATM   12  N5  UNL     1      12.178 -10.531  13.515  1.00  0.00    -0.276 N 
HETATM   13  C6  UNL     1      11.647  -8.458  12.875  1.00  0.00     0.192 A 
HETATM   14  N6  UNL     1      10.865 -10.395  13.462  1.00  0.00    -0.020 NA
ATOM     15  H5  UNL     1      12.701 -11.367  13.776  1.00  0.00     0.184 HD
HETATM   16  N7  UNL     1      10.526  -9.173  13.084  1.00  0.00    -0.265 N 
ATOM     17  H7  UNL     1       9.572  -8.829  12.969  1.00  0.00     0.186 HD
BRANCH   6  18
HETATM   18  N3  UNL     1      13.309  -5.529  11.993  1.00  0.00    -0.233 N 
ATOM     19  H32 UNL     1      13.964  -5.310  11.242  1.00  0.00     0.174 HD
ATOM     20  H31 UNL     1      12.797  -4.784  12.466  1.00  0.00     0.174 HD
ENDBRANCH   6  18
ENDBRANCH   3   5
BRANCH   2  21
HETATM   21  N8  UNL     1       9.726  -7.827  10.821  1.00  0.00    -0.289 N 
ATOM     22  H8  UNL     1      10.491  -8.499  10.889  1.00  0.00     0.188 HD
BRANCH  21  23
HETATM   23  N9  UNL     1       8.582  -8.135  10.118  1.00  0.00    -0.283 N 
HETATM   24  C7  UNL     1       7.635  -8.932  10.832  1.00  0.00     0.494 C 
HETATM   25  N10 UNL     1       6.498  -9.165   9.958  1.00  0.00    -0.032 N 
HETATM   26  N11 UNL     1       8.233 -10.199  11.168  1.00  0.00    -0.032 N 
ATOM     27 3H10 UNL     1       6.095  -8.301   9.596  1.00  0.00     0.279 HD
ATOM     28 2H10 UNL     1       6.765  -9.577   9.063  1.00  0.00     0.279 HD
ATOM     29 1H10 UNL     1       5.822  -9.734  10.468  1.00  0.00     0.279 HD
ATOM     30 3H11 UNL     1       8.604 -10.681  10.349  1.00  0.00     0.279 HD
ATOM     31 2H11 UNL     1       9.109 -10.089  11.680  1.00  0.00     0.279 HD
ATOM     32 1H11 UNL     1       7.557 -10.768  11.678  1.00  0.00     0.279 HD
ATOM     33  H9  UNL     1       8.424  -7.819   9.161  1.00  0.00     0.184 HD
ENDBRANCH  21  23
ENDBRANCH   2  21
TORSDOF 4
ENDMDL
MODEL 4
REMARK VINA RESULT: -7.302227427      2.119      4.205
REMARK  4 active torsions:
REMARK  status: ('A' for Active; 'I' for Inactive)
REMARK    1  A    between atoms: C2_2  and  N8_21 
REMARK    2  A    between atoms: N1_3  and  N2_5 
REMARK    3  A    between atoms: C3_6  and  N3_7 
REMARK    4  A    between atoms: N8_21  and  N9_23 
REMARK       I    between atoms: N9_23  and  C7_25 
REMARK       I    between atoms: C7_25  and  N10_26 
REMARK       I    between atoms: C7_25  and  N11_30 
ROOT
HETATM    1  C1  UNL     1      14.395  -7.336  12.922  1.00  0.00     0.092 C 
HETATM    2  C2  UNL     1      12.945  -7.563  12.848  1.00  0.00     0.107 C 
HETATM    3  N1  UNL     1      12.481  -8.593  12.272  1.00  0.00    -0.265 N 
ATOM      4  H1  UNL     1      13.147  -9.251  11.867  1.00  0.00     0.189 HD
ENDROOT
BRANCH   3   5
HETATM    5  N2  UNL     1      11.121  -8.889  12.156  1.00  0.00    -0.065 N 
HETATM    6  C3  UNL     1      10.650  -9.990  12.769  1.00  0.00     0.702 A 
HETATM    7  N4  UNL     1       9.330 -10.317  12.682  1.00  0.00    -0.152 N 
HETATM    8  C4  UNL     1       8.454  -9.564  11.989  1.00  0.00     0.291 A 
ATOM      9  H4  UNL     1       8.995 -11.157  13.154  1.00  0.00     0.187 HD
HETATM   10  O1  UNL     1       7.233  -9.874  11.914  1.00  0.00    -0.265 OA
HETATM   11  C5  UNL     1       8.909  -8.433  11.353  1.00  0.00     0.162 A 
HETATM   12  N5  UNL     1       8.300  -7.498  10.601  1.00  0.00    -0.276 N 
HETATM   13  C6  UNL     1      10.258  -8.136  11.466  1.00  0.00     0.192 A 
HETATM   14  N6  UNL     1       9.247  -6.643  10.258  1.00  0.00    -0.020 NA
ATOM     15  H5  UNL     1       7.312  -7.458  10.349  1.00  0.00     0.184 HD
HETATM   16  N7  UNL     1      10.418  -7.002  10.760  1.00  0.00    -0.265 N 
ATOM     17  H7  UNL     1      11.298  -6.500  10.632  1.00  0.00     0.186 HD
BRANCH   6  18
HETATM   18  N3  UNL     1      11.479 -10.729  13.442  1.00  0.00    -0.233 N 
ATOM     19  H32 UNL     1      12.481 -10.700  13.253  1.00  0.00     0.174 HD
ATOM     20  H31 UNL     1      11.108 -11.341  14.168  1.00  0.00     0.174 HD
ENDBRANCH   6  18
ENDBRANCH   3   5
BRANCH   2  21
HETATM   21  N8  UNL     1      12.066  -6.621  13.428  1.00  0.00    -0.289 N 
ATOM     22  H8  UNL     1      11.134  -6.901  13.736  1.00  0.00     0.188 HD
BRANCH  21  23
HETATM   23  N9  UNL     1      12.490  -5.318  13.570  1.00  0.00    -0.283 N 
HETATM   24  C7  UNL     1      11.583  -4.334  13.070  1.00  0.00     0.494 C 
HETATM   25  N10 UNL     1      12.174  -3.025  13.293  1.00  0.00    -0.032 N 
HETATM   26  N11 UNL     1      11.400  -4.527  11.653  1.00  0.00    -0.032 N 
ATOM     27 3H10 UNL     1      12.429  -2.869  14.268  1.00  0.00     0.279 HD
ATOM     28 2H10 UNL     1      13.108  -2.940  12.893  1.00  0.00     0.279 HD
ATOM     29 1H10 UNL     1      11.525  -2.323  12.936  1.00  0.00     0.279 HD
ATOM     30 3H11 UNL     1      12.285  -4.530  11.146  1.00  0.00     0.279 HD
ATOM     31 2H11 UNL     1      11.101  -5.477  11.429  1.00  0.00     0.279 HD
ATOM     32 1H11 UNL     1      10.751  -3.825  11.296  1.00  0.00     0.279 HD
ATOM     33  H9  UNL     1      13.383  -5.074  13.999  1.00  0.00     0.184 HD
ENDBRANCH  21  23
ENDBRANCH   2  21
TORSDOF 4
ENDMDL
MODEL 5
REMARK VINA RESULT: -7.257187648      2.244      4.856
REMARK  4 active torsions:
REMARK  status: ('A' for Active; 'I' for Inactive)
REMARK    1  A    between atoms: C2_2  and  N8_21 
REMARK    2  A    between atoms: N1_3  and  N2_5 
REMARK    3  A    between atoms: C3_6  and  N3_7 
REMARK    4  A    between atoms: N8_21  and  N9_23 
REMARK       I    between atoms: N9_23  and  C7_25 
REMARK       I    between atoms: C7_25  and  N10_26 
REMARK       I    between atoms: C7_25  and  N11_30 
ROOT
HETATM    1  C1  UNL     1      11.816  -3.882  13.205  1.00  0.00     0.092 C 
HETATM    2  C2  UNL     1      11.898  -5.285  12.773  1.00  0.00     0.107 C 
HETATM    3  N1  UNL     1      12.505  -6.144  13.481  1.00  0.00    -0.265 N 
ATOM      4  H1  UNL     1      12.930  -5.827  14.352  1.00  0.00     0.189 HD
ENDROOT
BRANCH   3   5
HETATM    5  N2  UNL     1      12.633  -7.495  13.149  1.00  0.00    -0.065 N 
HETATM    6  C3  UNL     1      13.867  -8.025  13.086  1.00  0.00     0.702 A 
HETATM    7  N4  UNL     1      14.038  -9.339  12.767  1.00  0.00    -0.152 N 
HETATM    8  C4  UNL     1      12.994 -10.150  12.506  1.00  0.00     0.291 A 
ATOM      9  H4  UNL     1      14.984  -9.720  12.724  1.00  0.00     0.187 HD
HETATM   10  O1  UNL     1      13.162 -11.366  12.211  1.00  0.00    -0.265 OA
HETATM   11  C5  UNL     1      11.722  -9.633  12.564  1.00  0.00     0.162 A 
HETATM   12  N5  UNL     1      10.505 -10.171  12.361  1.00  0.00    -0.276 N 
HETATM   13  C6  UNL     1      11.591  -8.293  12.892  1.00  0.00     0.192 A 
HETATM   14  N6  UNL     1       9.644  -9.189  12.559  1.00  0.00    -0.020 NA
ATOM     15  H5  UNL     1      10.293 -11.136  12.108  1.00  0.00     0.184 HD
HETATM   16  N7  UNL     1      10.265  -8.065  12.875  1.00  0.00    -0.265 N 
ATOM     17  H7  UNL     1       9.813  -7.171  13.073  1.00  0.00     0.186 HD
BRANCH   6  18
HETATM   18  N3  UNL     1      14.886  -7.260  13.334  1.00  0.00    -0.233 N 
ATOM     19  H32 UNL     1      15.045  -6.407  12.798  1.00  0.00     0.174 HD
ATOM     20  H31 UNL     1      15.528  -7.528  14.080  1.00  0.00     0.174 HD
ENDBRANCH   6  18
ENDBRANCH   3   5
BRANCH   2  21
HETATM   21  N8  UNL     1      11.290  -5.672  11.557  1.00  0.00    -0.289 N 
ATOM     22  H8  UNL     1      11.676  -6.439  11.006  1.00  0.00     0.188 HD
BRANCH  21  23
HETATM   23  N9  UNL     1      10.168  -4.996  11.132  1.00  0.00    -0.283 N 
HETATM   24  C7  UNL     1       8.966  -5.768  11.134  1.00  0.00     0.494 C 
HETATM   25  N10 UNL     1       7.886  -4.917  10.664  1.00  0.00    -0.032 N 
HETATM   26  N11 UNL     1       9.110  -6.881  10.230  1.00  0.00    -0.032 N 
ATOM     27 3H10 UNL     1       7.802  -4.053  11.200  1.00  0.00     0.279 HD
ATOM     28 2H10 UNL     1       8.083  -4.495   9.756  1.00  0.00     0.279 HD
ATOM     29 1H10 UNL     1       7.028  -5.468  10.666  1.00  0.00     0.279 HD
ATOM     30 3H11 UNL     1       9.377  -6.584   9.291  1.00  0.00     0.279 HD
ATOM     31 2H11 UNL     1       9.932  -7.447  10.442  1.00  0.00     0.279 HD
ATOM     32 1H11 UNL     1       8.252  -7.433  10.232  1.00  0.00     0.279 HD
ATOM     33  H9  UNL     1      10.193  -4.019  10.839  1.00  0.00     0.184 HD
ENDBRANCH  21  23
ENDBRANCH   2  21
TORSDOF 4
ENDMDL
