MODEL 1
REMARK VINA RESULT: -7.525158435      0.000      0.000
REMARK  7 active torsions:
REMARK  status: ('A' for Active; 'I' for Inactive)
REMARK    1  A    between atoms: C3_3  and  N1_4 
REMARK    2  A    between atoms: N1_4  and  C5_6 
REMARK    3  A    between atoms: C5_6  and  C6_7 
REMARK    4  A    between atoms: C7_8  and  C8_9 
REMARK    5  A    between atoms: C8_9  and  N2_10 
REMARK    6  A    between atoms: C12_14  and  C13_15 
REMARK    7  A    between atoms: C13_15  and  N3_16 
ROOT
HETATM    1  C1  UNL     1      39.543  22.827  11.736  1.00  0.00     0.013 C 
HETATM    2  C2  UNL     1      38.610  22.149  11.386  1.00  0.00    -0.087 C 
HETATM    3  C3  UNL     1      37.454  21.330  10.960  1.00  0.00     0.365 C 
ENDROOT
BRANCH   3   4
HETATM    4  N1  UNL     1      37.885  20.437   9.938  1.00  0.00     0.105 N 
HETATM    5  C4  UNL     1      38.916  19.523  10.284  1.00  0.00     0.312 C 
BRANCH   4   6
HETATM    6  C5  UNL     1      36.843  19.758   9.228  1.00  0.00     0.366 C 
BRANCH   6   7
HETATM    7  C6  UNL     1      35.719  20.708   9.111  1.00  0.00    -0.075 C 
HETATM    8  C7  UNL     1      34.800  21.488   8.987  1.00  0.00    -0.077 C 
BRANCH   8   9
HETATM    9  C8  UNL     1      33.711  22.426   8.810  1.00  0.00     0.330 C 
BRANCH   9  10
HETATM   10  N2  UNL     1      32.554  21.860   8.147  1.00  0.00    -0.060 N 
HETATM   11  C9  UNL     1      32.888  21.093   6.980  1.00  0.00     0.273 C 
HETATM   12  C10 UNL     1      31.570  22.828   7.788  1.00  0.00     0.239 C 
HETATM   13  C11 UNL     1      30.300  22.454   8.549  1.00  0.00     0.039 C 
HETATM   14  C12 UNL     1      30.960  21.845   9.811  1.00  0.00     0.051 C 
HETATM   15  C15 UNL     1      31.961  20.946   9.125  1.00  0.00     0.247 C 
BRANCH  14  16
HETATM   16  C13 UNL     1      29.957  21.096  10.613  1.00  0.00     0.061 C 
BRANCH  16  17
HETATM   17  N3  UNL     1      30.484  20.366  11.693  1.00  0.00    -0.406 N 
HETATM   18  C14 UNL     1      30.306  18.964  11.738  1.00  0.00     0.145 C 
ATOM     19  H3  UNL     1      30.992  20.844  12.439  1.00  0.00     0.158 HD
ENDBRANCH  16  17
ENDBRANCH  14  16
ENDBRANCH   9  10
ENDBRANCH   8   9
ENDBRANCH   6   7
ENDBRANCH   4   6
ENDBRANCH   3   4
TORSDOF 7
ENDMDL
MODEL 2
REMARK VINA RESULT: -7.513982620      0.806      1.113
REMARK  7 active torsions:
REMARK  status: ('A' for Active; 'I' for Inactive)
REMARK    1  A    between atoms: C3_3  and  N1_4 
REMARK    2  A    between atoms: N1_4  and  C5_6 
REMARK    3  A    between atoms: C5_6  and  C6_7 
REMARK    4  A    between atoms: C7_8  and  C8_9 
REMARK    5  A    between atoms: C8_9  and  N2_10 
REMARK    6  A    between atoms: C12_14  and  C13_15 
REMARK    7  A    between atoms: C13_15  and  N3_16 
ROOT
HETATM    1  C1  UNL     1      39.607  22.841  11.755  1.00  0.00     0.013 C 
HETATM    2  C2  UNL     1      38.686  22.152  11.394  1.00  0.00    -0.087 C 
HETATM    3  C3  UNL     1      37.543  21.321  10.953  1.00  0.00     0.365 C 
ENDROOT
BRANCH   3   4
HETATM    4  N1  UNL     1      38.022  20.349  10.030  1.00  0.00     0.105 N 
HETATM    5  C4  UNL     1      39.030  19.464  10.500  1.00  0.00     0.312 C 
BRANCH   4   6
HETATM    6  C5  UNL     1      37.015  19.616   9.322  1.00  0.00     0.366 C 
BRANCH   6   7
HETATM    7  C6  UNL     1      35.905  20.556   9.069  1.00  0.00    -0.075 C 
HETATM    8  C7  UNL     1      34.997  21.338   8.886  1.00  0.00    -0.077 C 
BRANCH   8   9
HETATM    9  C8  UNL     1      33.912  22.279   8.699  1.00  0.00     0.330 C 
BRANCH   9  10
HETATM   10  N2  UNL     1      32.747  21.707   8.057  1.00  0.00    -0.060 N 
HETATM   11  C9  UNL     1      33.074  20.765   7.024  1.00  0.00     0.273 C 
HETATM   12  C10 UNL     1      31.855  22.680   7.519  1.00  0.00     0.239 C 
HETATM   13  C11 UNL     1      30.528  22.502   8.253  1.00  0.00     0.039 C 
HETATM   14  C12 UNL     1      31.084  22.030   9.619  1.00  0.00     0.051 C 
HETATM   15  C15 UNL     1      32.044  20.979   9.115  1.00  0.00     0.247 C 
BRANCH  14  16
HETATM   16  C13 UNL     1      29.993  21.468  10.459  1.00  0.00     0.061 C 
BRANCH  16  17
HETATM   17  N3  UNL     1      30.011  21.874  11.806  1.00  0.00    -0.406 N 
HETATM   18  C14 UNL     1      30.014  23.253  12.117  1.00  0.00     0.145 C 
ATOM     19  H3  UNL     1      30.022  21.178  12.552  1.00  0.00     0.158 HD
ENDBRANCH  16  17
ENDBRANCH  14  16
ENDBRANCH   9  10
ENDBRANCH   8   9
ENDBRANCH   6   7
ENDBRANCH   4   6
ENDBRANCH   3   4
TORSDOF 7
ENDMDL
MODEL 3
REMARK VINA RESULT: -7.133432519      2.062      4.208
REMARK  7 active torsions:
REMARK  status: ('A' for Active; 'I' for Inactive)
REMARK    1  A    between atoms: C3_3  and  N1_4 
REMARK    2  A    between atoms: N1_4  and  C5_6 
REMARK    3  A    between atoms: C5_6  and  C6_7 
REMARK    4  A    between atoms: C7_8  and  C8_9 
REMARK    5  A    between atoms: C8_9  and  N2_10 
REMARK    6  A    between atoms: C12_14  and  C13_15 
REMARK    7  A    between atoms: C13_15  and  N3_16 
ROOT
HETATM    1  C1  UNL     1      39.579  22.823  11.795  1.00  0.00     0.013 C 
HETATM    2  C2  UNL     1      38.682  22.112  11.420  1.00  0.00    -0.087 C 
HETATM    3  C3  UNL     1      37.567  21.253  10.961  1.00  0.00     0.365 C 
ENDROOT
BRANCH   3   4
HETATM    4  N1  UNL     1      38.095  20.254  10.093  1.00  0.00     0.105 N 
HETATM    5  C4  UNL     1      38.931  19.271  10.687  1.00  0.00     0.312 C 
BRANCH   4   6
HETATM    6  C5  UNL     1      37.149  19.633   9.215  1.00  0.00     0.366 C 
BRANCH   6   7
HETATM    7  C6  UNL     1      35.998  20.550   9.112  1.00  0.00    -0.075 C 
HETATM    8  C7  UNL     1      35.039  21.288   9.045  1.00  0.00    -0.077 C 
BRANCH   8   9
HETATM    9  C8  UNL     1      33.875  22.147   8.979  1.00  0.00     0.330 C 
BRANCH   9  10
HETATM   10  N2  UNL     1      32.912  21.751   7.973  1.00  0.00    -0.060 N 
HETATM   11  C9  UNL     1      31.701  21.214   8.526  1.00  0.00     0.273 C 
HETATM   12  C10 UNL     1      33.429  20.821   7.022  1.00  0.00     0.239 C 
HETATM   13  C11 UNL     1      33.349  21.507   5.661  1.00  0.00     0.039 C 
HETATM   14  C12 UNL     1      33.563  22.968   6.127  1.00  0.00     0.051 C 
HETATM   15  C15 UNL     1      32.568  22.985   7.263  1.00  0.00     0.247 C 
BRANCH  14  16
HETATM   16  C13 UNL     1      33.218  23.918   5.036  1.00  0.00     0.061 C 
BRANCH  16  17
HETATM   17  N3  UNL     1      34.179  24.022   4.014  1.00  0.00    -0.406 N 
HETATM   18  C14 UNL     1      34.944  25.206   3.896  1.00  0.00     0.145 C 
ATOM     19  H3  UNL     1      34.323  23.250   3.362  1.00  0.00     0.158 HD
ENDBRANCH  16  17
ENDBRANCH  14  16
ENDBRANCH   9  10
ENDBRANCH   8   9
ENDBRANCH   6   7
ENDBRANCH   4   6
ENDBRANCH   3   4
TORSDOF 7
ENDMDL
MODEL 4
REMARK VINA RESULT: -7.105191593      2.230      4.434
REMARK  7 active torsions:
REMARK  status: ('A' for Active; 'I' for Inactive)
REMARK    1  A    between atoms: C3_3  and  N1_4 
REMARK    2  A    between atoms: N1_4  and  C5_6 
REMARK    3  A    between atoms: C5_6  and  C6_7 
REMARK    4  A    between atoms: C7_8  and  C8_9 
REMARK    5  A    between atoms: C8_9  and  N2_10 
REMARK    6  A    between atoms: C12_14  and  C13_15 
REMARK    7  A    between atoms: C13_15  and  N3_16 
ROOT
HETATM    1  C1  UNL     1      39.225  18.800  11.076  1.00  0.00     0.013 C 
HETATM    2  C2  UNL     1      38.490  19.656  10.654  1.00  0.00    -0.087 C 
HETATM    3  C3  UNL     1      37.577  20.695  10.126  1.00  0.00     0.365 C 
ENDROOT
BRANCH   3   4
HETATM    4  N1  UNL     1      37.428  21.709  11.114  1.00  0.00     0.105 N 
HETATM    5  C4  UNL     1      38.623  22.256  11.653  1.00  0.00     0.312 C 
BRANCH   4   6
HETATM    6  C5  UNL     1      36.508  22.759  10.791  1.00  0.00     0.366 C 
BRANCH   6   7
HETATM    7  C6  UNL     1      35.484  22.169   9.906  1.00  0.00    -0.075 C 
HETATM    8  C7  UNL     1      34.663  21.671   9.167  1.00  0.00    -0.077 C 
BRANCH   8   9
HETATM    9  C8  UNL     1      33.706  21.065   8.265  1.00  0.00     0.330 C 
BRANCH   9  10
HETATM   10  N2  UNL     1      32.541  21.887   8.011  1.00  0.00    -0.060 N 
HETATM   11  C9  UNL     1      31.843  22.266   9.207  1.00  0.00     0.273 C 
HETATM   12  C10 UNL     1      31.608  21.295   7.109  1.00  0.00     0.239 C 
HETATM   13  C11 UNL     1      31.520  22.229   5.905  1.00  0.00     0.039 C 
HETATM   14  C12 UNL     1      32.972  22.767   5.926  1.00  0.00     0.051 C 
HETATM   15  C15 UNL     1      33.060  23.109   7.394  1.00  0.00     0.247 C 
BRANCH  14  16
HETATM   16  C13 UNL     1      33.099  23.956   5.041  1.00  0.00     0.061 C 
BRANCH  16  17
HETATM   17  N3  UNL     1      34.166  23.904   4.125  1.00  0.00    -0.406 N 
HETATM   18  C14 UNL     1      34.963  25.054   3.920  1.00  0.00     0.145 C 
ATOM     19  H3  UNL     1      34.362  23.043   3.613  1.00  0.00     0.158 HD
ENDBRANCH  16  17
ENDBRANCH  14  16
ENDBRANCH   9  10
ENDBRANCH   8   9
ENDBRANCH   6   7
ENDBRANCH   4   6
ENDBRANCH   3   4
TORSDOF 7
ENDMDL
MODEL 5
REMARK VINA RESULT: -7.104802911      0.744      1.675
REMARK  7 active torsions:
REMARK  status: ('A' for Active; 'I' for Inactive)
REMARK    1  A    between atoms: C3_3  and  N1_4 
REMARK    2  A    between atoms: N1_4  and  C5_6 
REMARK    3  A    between atoms: C5_6  and  C6_7 
REMARK    4  A    between atoms: C7_8  and  C8_9 
REMARK    5  A    between atoms: C8_9  and  N2_10 
REMARK    6  A    between atoms: C12_14  and  C13_15 
REMARK    7  A    between atoms: C13_15  and  N3_16 
ROOT
HETATM    1  C1  UNL     1      39.530  17.764  11.745  1.00  0.00     0.013 C 
HETATM    2  C2  UNL     1      39.367  18.832  11.212  1.00  0.00    -0.087 C 
HETATM    3  C3  UNL     1      39.182  20.141  10.547  1.00  0.00     0.365 C 
ENDROOT
BRANCH   3   4
HETATM    4  N1  UNL     1      37.791  20.448  10.534  1.00  0.00     0.105 N 
HETATM    5  C4  UNL     1      37.432  21.789  10.838  1.00  0.00     0.312 C 
BRANCH   4   6
HETATM    6  C5  UNL     1      37.066  19.992   9.386  1.00  0.00     0.366 C 
BRANCH   6   7
HETATM    7  C6  UNL     1      35.874  20.854   9.266  1.00  0.00    -0.075 C 
HETATM    8  C7  UNL     1      34.904  21.571   9.143  1.00  0.00    -0.077 C 
BRANCH   8   9
HETATM    9  C8  UNL     1      33.762  22.444   8.974  1.00  0.00     0.330 C 
BRANCH   9  10
HETATM   10  N2  UNL     1      32.659  21.833   8.262  1.00  0.00    -0.060 N 
HETATM   11  C9  UNL     1      33.079  21.020   7.155  1.00  0.00     0.273 C 
HETATM   12  C10 UNL     1      31.689  22.769   7.796  1.00  0.00     0.239 C 
HETATM   13  C11 UNL     1      30.376  22.410   8.487  1.00  0.00     0.039 C 
HETATM   14  C12 UNL     1      30.958  21.866   9.816  1.00  0.00     0.051 C 
HETATM   15  C15 UNL     1      32.013  20.953   9.238  1.00  0.00     0.247 C 
BRANCH  14  16
HETATM   16  C13 UNL     1      29.912  21.138  10.582  1.00  0.00     0.061 C 
BRANCH  16  17
HETATM   17  N3  UNL     1      30.332  20.627  11.824  1.00  0.00    -0.406 N 
HETATM   18  C14 UNL     1      30.306  19.231  12.046  1.00  0.00     0.145 C 
ATOM     19  H3  UNL     1      30.654  21.259  12.558  1.00  0.00     0.158 HD
ENDBRANCH  16  17
ENDBRANCH  14  16
ENDBRANCH   9  10
ENDBRANCH   8   9
ENDBRANCH   6   7
ENDBRANCH   4   6
ENDBRANCH   3   4
TORSDOF 7
ENDMDL
