MODEL 1
REMARK VINA RESULT: -6.393876747      0.000      0.000
REMARK  6 active torsions:
REMARK  status: ('A' for Active; 'I' for Inactive)
REMARK    1  A    between atoms: C3_3  and  N1_4 
REMARK    2  A    between atoms: N1_4  and  C4_5 
REMARK    3  A    between atoms: C4_5  and  C5_6 
REMARK    4  A    between atoms: C5_6  and  N2_7 
REMARK    5  A    between atoms: N2_7  and  C8_10 
REMARK    6  A    between atoms: C8_10  and  O1_12 
ROOT
HETATM    1  C1  UNL     1      29.571  20.610  11.257  1.00  0.00     0.013 C 
HETATM    2  C2  UNL     1      29.288  20.217  12.363  1.00  0.00    -0.089 C 
HETATM    3  C3  UNL     1      28.965  19.728  13.721  1.00  0.00     0.330 C 
ENDROOT
BRANCH   3   4
HETATM    4  N1  UNL     1      28.257  20.718  14.490  1.00  0.00    -0.052 N 
HETATM    5  C10 UNL     1      28.151  20.283  15.862  1.00  0.00     0.264 C 
HETATM    6  C11 UNL     1      27.610  18.899  15.911  1.00  0.00     0.195 C 
HETATM    7  O2  UNL     1      26.435  18.812  15.218  1.00  0.00    -0.388 OA
HETATM    8  C12 UNL     1      25.926  19.972  14.709  1.00  0.00     0.195 C 
HETATM    9  C13 UNL     1      26.914  20.812  13.957  1.00  0.00     0.264 C 
BRANCH   4  10
HETATM   10  C4  UNL     1      28.936  21.992  14.508  1.00  0.00     0.266 C 
BRANCH  10  11
HETATM   11  C5  UNL     1      30.128  21.992  15.436  1.00  0.00     0.267 C 
BRANCH  11  12
HETATM   12  N2  UNL     1      30.735  23.281  15.557  1.00  0.00    -0.048 N 
HETATM   13  C6  UNL     1      31.852  23.416  14.610  1.00  0.00     0.275 C 
HETATM   14  C7  UNL     1      29.793  24.326  15.208  1.00  0.00     0.275 C 
BRANCH  12  15
HETATM   15  C8  UNL     1      31.280  23.425  16.869  1.00  0.00     0.318 C 
HETATM   16  C9  UNL     1      32.738  23.814  16.879  1.00  0.00     0.071 C 
BRANCH  15  17
HETATM   17  O1  UNL     1      31.173  22.246  17.617  1.00  0.00    -0.370 OA
ATOM     18  H1  UNL     1      31.879  22.155  18.246  1.00  0.00     0.212 HD
ENDBRANCH  15  17
ENDBRANCH  12  15
ENDBRANCH  11  12
ENDBRANCH  10  11
ENDBRANCH   4  10
ENDBRANCH   3   4
TORSDOF 6
ENDMDL
MODEL 2
REMARK VINA RESULT: -6.358437206      1.949      3.438
REMARK  6 active torsions:
REMARK  status: ('A' for Active; 'I' for Inactive)
REMARK    1  A    between atoms: C3_3  and  N1_4 
REMARK    2  A    between atoms: N1_4  and  C4_5 
REMARK    3  A    between atoms: C4_5  and  C5_6 
REMARK    4  A    between atoms: C5_6  and  N2_7 
REMARK    5  A    between atoms: N2_7  and  C8_10 
REMARK    6  A    between atoms: C8_10  and  O1_12 
ROOT
HETATM    1  C1  UNL     1      29.390  20.140  18.214  1.00  0.00     0.013 C 
HETATM    2  C2  UNL     1      28.795  19.942  17.183  1.00  0.00    -0.089 C 
HETATM    3  C3  UNL     1      28.044  19.701  15.931  1.00  0.00     0.330 C 
ENDROOT
BRANCH   3   4
HETATM    4  N1  UNL     1      28.442  20.607  14.887  1.00  0.00    -0.052 N 
HETATM    5  C10 UNL     1      27.311  21.405  14.479  1.00  0.00     0.264 C 
HETATM    6  C11 UNL     1      26.152  20.523  14.181  1.00  0.00     0.195 C 
HETATM    7  O2  UNL     1      26.496  19.560  13.274  1.00  0.00    -0.388 OA
HETATM    8  C12 UNL     1      27.752  19.627  12.741  1.00  0.00     0.195 C 
HETATM    9  C13 UNL     1      28.848  19.812  13.746  1.00  0.00     0.264 C 
BRANCH   4  10
HETATM   10  C4  UNL     1      29.469  21.526  15.315  1.00  0.00     0.266 C 
BRANCH  10  11
HETATM   11  C5  UNL     1      30.351  21.972  14.172  1.00  0.00     0.267 C 
BRANCH  11  12
HETATM   12  N2  UNL     1      30.730  23.347  14.269  1.00  0.00    -0.048 N 
HETATM   13  C6  UNL     1      29.790  24.082  15.129  1.00  0.00     0.275 C 
HETATM   14  C7  UNL     1      32.027  23.477  14.901  1.00  0.00     0.275 C 
BRANCH  12  15
HETATM   15  C8  UNL     1      30.667  23.947  12.975  1.00  0.00     0.318 C 
HETATM   16  C9  UNL     1      29.971  23.092  11.945  1.00  0.00     0.071 C 
BRANCH  15  17
HETATM   17  O1  UNL     1      31.940  24.236  12.465  1.00  0.00    -0.370 OA
ATOM     18  H1  UNL     1      31.918  24.941  11.829  1.00  0.00     0.212 HD
ENDBRANCH  15  17
ENDBRANCH  12  15
ENDBRANCH  11  12
ENDBRANCH  10  11
ENDBRANCH   4  10
ENDBRANCH   3   4
TORSDOF 6
ENDMDL
MODEL 3
REMARK VINA RESULT: -6.288165183      1.060      1.211
REMARK  6 active torsions:
REMARK  status: ('A' for Active; 'I' for Inactive)
REMARK    1  A    between atoms: C3_3  and  N1_4 
REMARK    2  A    between atoms: N1_4  and  C4_5 
REMARK    3  A    between atoms: C4_5  and  C5_6 
REMARK    4  A    between atoms: C5_6  and  N2_7 
REMARK    5  A    between atoms: N2_7  and  C8_10 
REMARK    6  A    between atoms: C8_10  and  O1_12 
ROOT
HETATM    1  C1  UNL     1      29.584  20.407  11.357  1.00  0.00     0.013 C 
HETATM    2  C2  UNL     1      29.178  19.849  12.347  1.00  0.00    -0.089 C 
HETATM    3  C3  UNL     1      28.703  19.151  13.562  1.00  0.00     0.330 C 
ENDROOT
BRANCH   3   4
HETATM    4  N1  UNL     1      28.215  20.076  14.551  1.00  0.00    -0.052 N 
HETATM    5  C10 UNL     1      27.799  19.352  15.729  1.00  0.00     0.264 C 
HETATM    6  C11 UNL     1      26.878  18.250  15.345  1.00  0.00     0.195 C 
HETATM    7  O2  UNL     1      25.836  18.726  14.601  1.00  0.00    -0.388 OA
HETATM    8  C12 UNL     1      25.760  20.079  14.429  1.00  0.00     0.195 C 
HETATM    9  C13 UNL     1      27.043  20.728  14.004  1.00  0.00     0.264 C 
BRANCH   4  10
HETATM   10  C4  UNL     1      29.225  21.016  14.974  1.00  0.00     0.266 C 
BRANCH  10  11
HETATM   11  C5  UNL     1      28.820  22.448  14.712  1.00  0.00     0.267 C 
BRANCH  11  12
HETATM   12  N2  UNL     1      29.916  23.360  14.813  1.00  0.00    -0.048 N 
HETATM   13  C6  UNL     1      30.517  23.594  13.491  1.00  0.00     0.275 C 
HETATM   14  C7  UNL     1      29.463  24.656  15.276  1.00  0.00     0.275 C 
BRANCH  12  15
HETATM   15  C8  UNL     1      30.932  22.787  15.637  1.00  0.00     0.318 C 
HETATM   16  C9  UNL     1      31.259  23.613  16.857  1.00  0.00     0.071 C 
BRANCH  15  17
HETATM   17  O1  UNL     1      32.134  22.603  14.942  1.00  0.00    -0.370 OA
ATOM     18  H1  UNL     1      32.889  22.633  15.518  1.00  0.00     0.212 HD
ENDBRANCH  15  17
ENDBRANCH  12  15
ENDBRANCH  11  12
ENDBRANCH  10  11
ENDBRANCH   4  10
ENDBRANCH   3   4
TORSDOF 6
ENDMDL
MODEL 4
REMARK VINA RESULT: -6.265896309      1.543      5.244
REMARK  6 active torsions:
REMARK  status: ('A' for Active; 'I' for Inactive)
REMARK    1  A    between atoms: C3_3  and  N1_4 
REMARK    2  A    between atoms: N1_4  and  C4_5 
REMARK    3  A    between atoms: C4_5  and  C5_6 
REMARK    4  A    between atoms: C5_6  and  N2_7 
REMARK    5  A    between atoms: N2_7  and  C8_10 
REMARK    6  A    between atoms: C8_10  and  O1_12 
ROOT
HETATM    1  C1  UNL     1      29.588  20.964  11.422  1.00  0.00     0.013 C 
HETATM    2  C2  UNL     1      29.887  20.841  12.585  1.00  0.00    -0.089 C 
HETATM    3  C3  UNL     1      30.276  20.696  14.005  1.00  0.00     0.330 C 
ENDROOT
BRANCH   3   4
HETATM    4  N1  UNL     1      29.391  21.423  14.877  1.00  0.00    -0.052 N 
HETATM    5  C10 UNL     1      29.630  22.840  14.741  1.00  0.00     0.264 C 
HETATM    6  C11 UNL     1      31.082  23.123  14.889  1.00  0.00     0.195 C 
HETATM    7  O2  UNL     1      31.562  22.599  16.056  1.00  0.00    -0.388 OA
HETATM    8  C12 UNL     1      30.656  22.021  16.899  1.00  0.00     0.195 C 
HETATM    9  C13 UNL     1      29.718  21.055  16.240  1.00  0.00     0.264 C 
BRANCH   4  10
HETATM   10  C4  UNL     1      28.001  21.202  14.562  1.00  0.00     0.266 C 
BRANCH  10  11
HETATM   11  C5  UNL     1      27.446  19.976  15.250  1.00  0.00     0.267 C 
BRANCH  11  12
HETATM   12  N2  UNL     1      26.706  19.132  14.364  1.00  0.00    -0.048 N 
HETATM   13  C6  UNL     1      25.385  18.821  14.931  1.00  0.00     0.275 C 
HETATM   14  C7  UNL     1      26.448  19.808  13.109  1.00  0.00     0.275 C 
BRANCH  12  15
HETATM   15  C8  UNL     1      27.396  17.891  14.208  1.00  0.00     0.318 C 
HETATM   16  C9  UNL     1      28.155  17.781  12.909  1.00  0.00     0.071 C 
BRANCH  15  17
HETATM   17  O1  UNL     1      26.526  16.794  14.261  1.00  0.00    -0.370 OA
ATOM     18  H1  UNL     1      25.745  16.931  13.739  1.00  0.00     0.212 HD
ENDBRANCH  15  17
ENDBRANCH  12  15
ENDBRANCH  11  12
ENDBRANCH  10  11
ENDBRANCH   4  10
ENDBRANCH   3   4
TORSDOF 6
ENDMDL
MODEL 5
REMARK VINA RESULT: -6.250900269      1.512      2.711
REMARK  6 active torsions:
REMARK  status: ('A' for Active; 'I' for Inactive)
REMARK    1  A    between atoms: C3_3  and  N1_4 
REMARK    2  A    between atoms: N1_4  and  C4_5 
REMARK    3  A    between atoms: C4_5  and  C5_6 
REMARK    4  A    between atoms: C5_6  and  N2_7 
REMARK    5  A    between atoms: N2_7  and  C8_10 
REMARK    6  A    between atoms: C8_10  and  O1_12 
ROOT
HETATM    1  C1  UNL     1      29.935  20.519  17.751  1.00  0.00     0.013 C 
HETATM    2  C2  UNL     1      29.050  20.174  17.006  1.00  0.00    -0.089 C 
HETATM    3  C3  UNL     1      27.950  19.754  16.111  1.00  0.00     0.330 C 
ENDROOT
BRANCH   3   4
HETATM    4  N1  UNL     1      27.973  20.472  14.863  1.00  0.00    -0.052 N 
HETATM    5  C10 UNL     1      26.627  20.627  14.366  1.00  0.00     0.264 C 
HETATM    6  C11 UNL     1      25.938  19.309  14.357  1.00  0.00     0.195 C 
HETATM    7  O2  UNL     1      26.671  18.384  13.669  1.00  0.00    -0.388 OA
HETATM    8  C12 UNL     1      27.805  18.824  13.047  1.00  0.00     0.195 C 
HETATM    9  C13 UNL     1      28.701  19.665  13.906  1.00  0.00     0.264 C 
BRANCH   4  10
HETATM   10  C4  UNL     1      28.523  21.799  15.000  1.00  0.00     0.266 C 
BRANCH  10  11
HETATM   11  C5  UNL     1      29.621  22.070  13.999  1.00  0.00     0.267 C 
BRANCH  11  12
HETATM   12  N2  UNL     1      30.291  23.311  14.234  1.00  0.00    -0.048 N 
HETATM   13  C6  UNL     1      30.727  23.911  12.965  1.00  0.00     0.275 C 
HETATM   14  C7  UNL     1      29.390  24.273  14.837  1.00  0.00     0.275 C 
BRANCH  12  15
HETATM   15  C8  UNL     1      31.467  23.073  15.009  1.00  0.00     0.318 C 
HETATM   16  C9  UNL     1      31.406  23.664  16.397  1.00  0.00     0.071 C 
BRANCH  15  17
HETATM   17  O1  UNL     1      32.615  23.595  14.399  1.00  0.00    -0.370 OA
ATOM     18  H1  UNL     1      32.805  23.169  13.572  1.00  0.00     0.212 HD
ENDBRANCH  15  17
ENDBRANCH  12  15
ENDBRANCH  11  12
ENDBRANCH  10  11
ENDBRANCH   4  10
ENDBRANCH   3   4
TORSDOF 6
ENDMDL
