MODEL 1
REMARK VINA RESULT: -6.692421916      0.000      0.000
REMARK  3 active torsions:
REMARK  status: ('A' for Active; 'I' for Inactive)
REMARK    1  A    between atoms: C2_2  and  N1_4 
REMARK    2  A    between atoms: N1_4  and  S1_6 
REMARK    3  A    between atoms: S1_6  and  N2_8 
REMARK       I    between atoms: N3_11  and  C6_12 
ROOT
HETATM    1  N2  UNL     1      32.621  -1.185  79.662  1.00  0.00    -0.213 NA
HETATM    2  C4  UNL     1      32.177   0.149  79.908  1.00  0.00     0.126 C 
HETATM    3  C5  UNL     1      31.231   0.676  78.870  1.00  0.00     0.141 C 
HETATM    4  N3  UNL     1      31.723   0.489  77.522  1.00  0.00    -0.354 N 
HETATM    5  C6  UNL     1      31.371   1.407  76.496  1.00  0.00     0.184 C 
HETATM    6  N4  UNL     1      32.097   1.535  75.449  1.00  0.00    -0.374 N 
ATOM      7  H41 UNL     1      31.845   2.194  74.713  1.00  0.00     0.158 HD
ATOM      8  H42 UNL     1      32.939   0.966  75.359  1.00  0.00     0.158 HD
HETATM    9  N5  UNL     1      30.203   2.197  76.621  1.00  0.00    -0.064 NA
HETATM   10  C7  UNL     1      32.575  -0.654  77.271  1.00  0.00     0.141 C 
HETATM   11  C8  UNL     1      32.279  -1.670  78.357  1.00  0.00     0.126 C 
ENDROOT
BRANCH   1  12
HETATM   12  S1  UNL     1      34.307  -1.398  80.047  1.00  0.00     0.193 S 
HETATM   13  O1  UNL     1      34.433  -1.571  81.568  1.00  0.00    -0.218 OA
BRANCH  12  14
HETATM   14  N1  UNL     1      35.019  -2.734  79.210  1.00  0.00    -0.324 N 
ATOM     15  H1  UNL     1      34.774  -3.708  79.390  1.00  0.00     0.171 HD
BRANCH  14  16
HETATM   16  C2  UNL     1      36.001  -2.322  78.225  1.00  0.00     0.083 C 
HETATM   17  C1  UNL     1      36.224  -0.832  78.226  1.00  0.00     0.032 C 
HETATM   18  C3  UNL     1      35.439  -2.738  76.860  1.00  0.00     0.032 C 
ENDBRANCH  14  16
ENDBRANCH  12  14
ENDBRANCH   1  12
TORSDOF 3
ENDMDL
MODEL 2
REMARK VINA RESULT: -6.392762418      1.548      1.736
REMARK  3 active torsions:
REMARK  status: ('A' for Active; 'I' for Inactive)
REMARK    1  A    between atoms: C2_2  and  N1_4 
REMARK    2  A    between atoms: N1_4  and  S1_6 
REMARK    3  A    between atoms: S1_6  and  N2_8 
REMARK       I    between atoms: N3_11  and  C6_12 
ROOT
HETATM    1  N2  UNL     1      32.796  -1.558  79.281  1.00  0.00    -0.213 NA
HETATM    2  C4  UNL     1      32.586  -0.221  79.732  1.00  0.00     0.126 C 
HETATM    3  C5  UNL     1      31.449   0.480  79.050  1.00  0.00     0.141 C 
HETATM    4  N3  UNL     1      31.521   0.381  77.607  1.00  0.00    -0.354 N 
HETATM    5  C6  UNL     1      30.997   1.418  76.790  1.00  0.00     0.184 C 
HETATM    6  N4  UNL     1      31.409   1.583  75.589  1.00  0.00    -0.374 N 
ATOM      7  H41 UNL     1      31.034   2.327  75.002  1.00  0.00     0.158 HD
ATOM      8  H42 UNL     1      32.125   0.955  75.222  1.00  0.00     0.158 HD
HETATM    9  N5  UNL     1      30.003   2.290  77.298  1.00  0.00    -0.064 NA
HETATM   10  C7  UNL     1      32.139  -0.802  77.045  1.00  0.00     0.141 C 
HETATM   11  C8  UNL     1      32.051  -1.887  78.100  1.00  0.00     0.126 C 
ENDROOT
BRANCH   1  12
HETATM   12  S1  UNL     1      34.488  -1.950  79.148  1.00  0.00     0.193 S 
HETATM   13  O1  UNL     1      34.664  -2.927  77.977  1.00  0.00    -0.218 OA
BRANCH  12  14
HETATM   14  N1  UNL     1      35.483  -0.550  78.943  1.00  0.00    -0.324 N 
ATOM     15  H1  UNL     1      35.835   0.011  79.718  1.00  0.00     0.171 HD
BRANCH  14  16
HETATM   16  C2  UNL     1      35.764  -0.260  77.549  1.00  0.00     0.083 C 
HETATM   17  C1  UNL     1      37.230  -0.021  77.296  1.00  0.00     0.032 C 
HETATM   18  C3  UNL     1      34.989   1.019  77.213  1.00  0.00     0.032 C 
ENDBRANCH  14  16
ENDBRANCH  12  14
ENDBRANCH   1  12
TORSDOF 3
ENDMDL
MODEL 3
REMARK VINA RESULT: -6.316448619      2.548      5.176
REMARK  3 active torsions:
REMARK  status: ('A' for Active; 'I' for Inactive)
REMARK    1  A    between atoms: C2_2  and  N1_4 
REMARK    2  A    between atoms: N1_4  and  S1_6 
REMARK    3  A    between atoms: S1_6  and  N2_8 
REMARK       I    between atoms: N3_11  and  C6_12 
ROOT
HETATM    1  N2  UNL     1      35.016  -1.422  78.099  1.00  0.00    -0.213 NA
HETATM    2  C4  UNL     1      34.851  -1.970  79.406  1.00  0.00     0.126 C 
HETATM    3  C5  UNL     1      34.554  -3.440  79.417  1.00  0.00     0.141 C 
HETATM    4  N3  UNL     1      33.475  -3.796  78.521  1.00  0.00    -0.354 N 
HETATM    5  C6  UNL     1      32.635  -4.903  78.814  1.00  0.00     0.184 C 
HETATM    6  N4  UNL     1      31.457  -4.987  78.318  1.00  0.00    -0.374 N 
ATOM      7  H41 UNL     1      30.854  -5.782  78.529  1.00  0.00     0.158 HD
ATOM      8  H42 UNL     1      31.126  -4.243  77.705  1.00  0.00     0.158 HD
HETATM    9  N5  UNL     1      33.094  -5.938  79.666  1.00  0.00    -0.064 NA
HETATM   10  C7  UNL     1      33.293  -2.987  77.333  1.00  0.00     0.141 C 
HETATM   11  C8  UNL     1      34.624  -2.318  77.050  1.00  0.00     0.126 C 
ENDROOT
BRANCH   1  12
HETATM   12  S1  UNL     1      34.293   0.156  77.950  1.00  0.00     0.193 S 
HETATM   13  O1  UNL     1      35.410   1.170  77.665  1.00  0.00    -0.218 OA
BRANCH  12  14
HETATM   14  N1  UNL     1      33.072   0.219  76.727  1.00  0.00    -0.324 N 
ATOM     15  H1  UNL     1      33.262   0.089  75.733  1.00  0.00     0.171 HD
BRANCH  14  16
HETATM   16  C2  UNL     1      31.749   0.476  77.265  1.00  0.00     0.083 C 
HETATM   17  C1  UNL     1      31.251   1.857  76.927  1.00  0.00     0.032 C 
HETATM   18  C3  UNL     1      31.874   0.353  78.787  1.00  0.00     0.032 C 
ENDBRANCH  14  16
ENDBRANCH  12  14
ENDBRANCH   1  12
TORSDOF 3
ENDMDL
MODEL 4
REMARK VINA RESULT: -6.001719576      2.625      5.165
REMARK  3 active torsions:
REMARK  status: ('A' for Active; 'I' for Inactive)
REMARK    1  A    between atoms: C2_2  and  N1_4 
REMARK    2  A    between atoms: N1_4  and  S1_6 
REMARK    3  A    between atoms: S1_6  and  N2_8 
REMARK       I    between atoms: N3_11  and  C6_12 
ROOT
HETATM    1  N2  UNL     1      35.508  -1.485  77.946  1.00  0.00    -0.213 NA
HETATM    2  C4  UNL     1      35.140  -1.878  79.268  1.00  0.00     0.126 C 
HETATM    3  C5  UNL     1      34.740  -3.318  79.384  1.00  0.00     0.141 C 
HETATM    4  N3  UNL     1      33.760  -3.705  78.392  1.00  0.00    -0.354 N 
HETATM    5  C6  UNL     1      32.812  -4.723  78.679  1.00  0.00     0.184 C 
HETATM    6  N4  UNL     1      31.703  -4.791  78.041  1.00  0.00    -0.374 N 
ATOM      7  H41 UNL     1      31.023  -5.522  78.247  1.00  0.00     0.158 HD
ATOM      8  H42 UNL     1      31.507  -4.098  77.318  1.00  0.00     0.158 HD
HETATM    9  N5  UNL     1      33.084  -5.685  79.682  1.00  0.00    -0.064 NA
HETATM   10  C7  UNL     1      33.788  -3.019  77.117  1.00  0.00     0.141 C 
HETATM   11  C8  UNL     1      35.189  -2.464  76.948  1.00  0.00     0.126 C 
ENDROOT
BRANCH   1  12
HETATM   12  S1  UNL     1      34.926   0.108  77.547  1.00  0.00     0.193 S 
HETATM   13  O1  UNL     1      35.765   0.647  76.379  1.00  0.00    -0.218 OA
BRANCH  12  14
HETATM   14  N1  UNL     1      33.240   0.125  77.160  1.00  0.00    -0.324 N 
ATOM     15  H1  UNL     1      32.860  -0.230  76.283  1.00  0.00     0.171 HD
BRANCH  14  16
HETATM   16  C2  UNL     1      32.426   0.697  78.215  1.00  0.00     0.083 C 
HETATM   17  C1  UNL     1      31.858  -0.352  79.135  1.00  0.00     0.032 C 
HETATM   18  C3  UNL     1      31.269   1.423  77.518  1.00  0.00     0.032 C 
ENDBRANCH  14  16
ENDBRANCH  12  14
ENDBRANCH   1  12
TORSDOF 3
ENDMDL
MODEL 5
REMARK VINA RESULT: -5.984377911      2.192      3.263
REMARK  3 active torsions:
REMARK  status: ('A' for Active; 'I' for Inactive)
REMARK    1  A    between atoms: C2_2  and  N1_4 
REMARK    2  A    between atoms: N1_4  and  S1_6 
REMARK    3  A    between atoms: S1_6  and  N2_8 
REMARK       I    between atoms: N3_11  and  C6_12 
ROOT
HETATM    1  N2  UNL     1      32.931  -1.066  79.838  1.00  0.00    -0.213 NA
HETATM    2  C4  UNL     1      32.131   0.115  79.872  1.00  0.00     0.126 C 
HETATM    3  C5  UNL     1      31.414   0.400  78.586  1.00  0.00     0.141 C 
HETATM    4  N3  UNL     1      32.293   0.352  77.436  1.00  0.00    -0.354 N 
HETATM    5  C6  UNL     1      32.032   1.163  76.300  1.00  0.00     0.184 C 
HETATM    6  N4  UNL     1      32.969   1.475  75.484  1.00  0.00    -0.374 N 
ATOM      7  H41 UNL     1      32.782   2.058  74.668  1.00  0.00     0.158 HD
ATOM      8  H42 UNL     1      33.913   1.132  75.662  1.00  0.00     0.158 HD
HETATM    9  N5  UNL     1      30.722   1.640  76.052  1.00  0.00    -0.064 NA
HETATM   10  C7  UNL     1      33.429  -0.544  77.497  1.00  0.00     0.141 C 
HETATM   11  C8  UNL     1      33.093  -1.610  78.521  1.00  0.00     0.126 C 
ENDROOT
BRANCH   1  12
HETATM   12  S1  UNL     1      34.442  -0.861  80.680  1.00  0.00     0.193 S 
HETATM   13  O1  UNL     1      35.165   0.353  80.079  1.00  0.00    -0.218 OA
BRANCH  12  14
HETATM   14  N1  UNL     1      34.235  -0.676  82.387  1.00  0.00    -0.324 N 
ATOM     15  H1  UNL     1      34.225  -1.458  83.042  1.00  0.00     0.171 HD
BRANCH  14  16
HETATM   16  C2  UNL     1      34.078   0.710  82.788  1.00  0.00     0.083 C 
HETATM   17  C1  UNL     1      35.139   1.149  83.763  1.00  0.00     0.032 C 
HETATM   18  C3  UNL     1      32.709   0.806  83.470  1.00  0.00     0.032 C 
ENDBRANCH  14  16
ENDBRANCH  12  14
ENDBRANCH   1  12
TORSDOF 3
ENDMDL
