MODEL 1
REMARK VINA RESULT: -10.277758093      0.000      0.000
REMARK  7 active torsions:
REMARK  status: ('A' for Active; 'I' for Inactive)
REMARK    1  A    between atoms: N1_4  and  C4_5 
REMARK    2  A    between atoms: C4_5  and  C5_6 
REMARK       I    between atoms: C5_6  and  N2_8 
REMARK    3  A    between atoms: N2_8  and  N3_10 
REMARK    4  A    between atoms: N3_10  and  C6_12 
REMARK    5  A    between atoms: C8_17  and  N6_18 
REMARK    6  A    between atoms: N6_18  and  N7_20 
REMARK    7  A    between atoms: C10_26  and  C11_27 
ROOT
HETATM    1  C6  UNL     1      27.036  73.344  -2.300  1.00  0.00     0.185 A 
HETATM    2  C7  UNL     1      28.383  73.043  -2.351  1.00  0.00     0.165 A 
HETATM    3  N4  UNL     1      29.096  72.940  -3.579  1.00  0.00    -0.078 NA
HETATM    4  N5  UNL     1      29.110  72.815  -1.230  1.00  0.00    -0.324 N 
ATOM      5  H5  UNL     1      30.103  72.595  -1.304  1.00  0.00     0.169 HD
HETATM    6  C8  UNL     1      28.527  72.879  -0.029  1.00  0.00     0.168 A 
HETATM    7  C9  UNL     1      27.187  73.177   0.044  1.00  0.00     0.176 A 
HETATM    8  N8  UNL     1      26.325  73.311   1.069  1.00  0.00    -0.322 N 
ATOM      9  H8  UNL     1      26.575  73.200   2.052  1.00  0.00     0.169 HD
HETATM   10  C10 UNL     1      25.092  73.611   0.626  1.00  0.00     0.132 A 
HETATM   11  N9  UNL     1      25.210  73.662  -0.708  1.00  0.00    -0.275 N 
ATOM     12  H9  UNL     1      24.445  73.868  -1.351  1.00  0.00     0.189 HD
HETATM   13  N10 UNL     1      26.450  73.407  -1.074  1.00  0.00    -0.213 N 
ENDROOT
BRANCH   1  14
HETATM   14  N3  UNL     1      26.288  73.601  -3.479  1.00  0.00    -0.279 N 
ATOM     15  H3  UNL     1      25.911  72.782  -3.956  1.00  0.00     0.189 HD
BRANCH  14  16
HETATM   16  N2  UNL     1      26.009  74.813  -4.054  1.00  0.00    -0.267 N 
HETATM   17  C5  UNL     1      26.475  75.246  -5.322  1.00  0.00     0.254 C 
HETATM   18  O1  UNL     1      27.194  74.478  -6.006  1.00  0.00    -0.270 OA
ATOM     19  H2  UNL     1      25.419  75.456  -3.527  1.00  0.00     0.190 HD
BRANCH  17  20
HETATM   20  C4  UNL     1      26.150  76.575  -5.883  1.00  0.00     0.237 C 
BRANCH  20  21
HETATM   21  N1  UNL     1      27.142  77.566  -5.588  1.00  0.00    -0.300 N 
HETATM   22  C3  UNL     1      28.008  77.894  -6.566  1.00  0.00     0.108 A 
HETATM   23  C2  UNL     1      28.988  78.844  -6.378  1.00  0.00     0.022 A 
HETATM   24  C1  UNL     1      29.936  79.208  -7.464  1.00  0.00     0.056 C 
HETATM   25  C18 UNL     1      29.049  79.448  -5.147  1.00  0.00     0.256 A 
HETATM   26  N11 UNL     1      28.188  79.120  -4.173  1.00  0.00    -0.275 N 
HETATM   27  O3  UNL     1      29.922  80.328  -4.911  1.00  0.00    -0.267 OA
HETATM   28  C17 UNL     1      27.234  78.172  -4.405  1.00  0.00     0.329 A 
ATOM     29  H11 UNL     1      28.246  79.577  -3.262  1.00  0.00     0.173 HD
HETATM   30  O2  UNL     1      26.424  77.866  -3.477  1.00  0.00    -0.246 OA
ENDBRANCH  20  21
ENDBRANCH  17  20
ENDBRANCH  14  16
ENDBRANCH   1  14
BRANCH   6  31
HETATM   31  N6  UNL     1      29.224  72.667   1.019  1.00  0.00    -0.289 N 
ATOM     32  H6  UNL     1      29.322  71.700   1.331  1.00  0.00     0.188 HD
BRANCH  31  33
HETATM   33  N7  UNL     1      29.860  73.653   1.771  1.00  0.00    -0.344 N 
ATOM     34  H72 UNL     1      30.665  74.105   1.337  1.00  0.00     0.176 HD
ATOM     35  H71 UNL     1      29.581  73.947   2.706  1.00  0.00     0.176 HD
ENDBRANCH  31  33
ENDBRANCH   6  31
BRANCH  10  36
HETATM   36  C11 UNL     1      23.933  73.830   1.486  1.00  0.00     0.009 A 
HETATM   37  C12 UNL     1      22.649  73.540   1.074  1.00  0.00     0.015 A 
HETATM   38  C13 UNL     1      21.548  73.755   1.879  1.00  0.00     0.001 A 
HETATM   39  C14 UNL     1      21.696  74.274   3.139  1.00  0.00     0.000 A 
HETATM   40  C15 UNL     1      22.978  74.582   3.593  1.00  0.00     0.001 A 
HETATM   41  C16 UNL     1      24.066  74.351   2.752  1.00  0.00     0.015 A 
ENDBRANCH  10  36
TORSDOF 7
ENDMDL
MODEL 2
REMARK VINA RESULT: -10.022820274      1.212      1.653
REMARK  7 active torsions:
REMARK  status: ('A' for Active; 'I' for Inactive)
REMARK    1  A    between atoms: N1_4  and  C4_5 
REMARK    2  A    between atoms: C4_5  and  C5_6 
REMARK       I    between atoms: C5_6  and  N2_8 
REMARK    3  A    between atoms: N2_8  and  N3_10 
REMARK    4  A    between atoms: N3_10  and  C6_12 
REMARK    5  A    between atoms: C8_17  and  N6_18 
REMARK    6  A    between atoms: N6_18  and  N7_20 
REMARK    7  A    between atoms: C10_26  and  C11_27 
ROOT
HETATM    1  C6  UNL     1      27.422  73.069  -3.377  1.00  0.00     0.185 A 
HETATM    2  C7  UNL     1      28.740  72.765  -3.097  1.00  0.00     0.165 A 
HETATM    3  N4  UNL     1      29.743  72.717  -4.106  1.00  0.00    -0.078 NA
HETATM    4  N5  UNL     1      29.159  72.480  -1.841  1.00  0.00    -0.324 N 
ATOM      5  H5  UNL     1      30.140  72.259  -1.669  1.00  0.00     0.169 HD
HETATM    6  C8  UNL     1      28.289  72.489  -0.826  1.00  0.00     0.168 A 
HETATM    7  C9  UNL     1      26.972  72.790  -1.082  1.00  0.00     0.176 A 
HETATM    8  N8  UNL     1      25.877  72.878  -0.305  1.00  0.00    -0.322 N 
ATOM      9  H8  UNL     1      25.869  72.719   0.702  1.00  0.00     0.169 HD
HETATM   10  C10 UNL     1      24.795  73.205  -1.033  1.00  0.00     0.132 A 
HETATM   11  N9  UNL     1      25.248  73.318  -2.289  1.00  0.00    -0.275 N 
ATOM     12  H9  UNL     1      24.671  73.559  -3.095  1.00  0.00     0.189 HD
HETATM   13  N10 UNL     1      26.543  73.076  -2.339  1.00  0.00    -0.213 N 
ENDROOT
BRANCH   1  14
HETATM   14  N3  UNL     1      26.996  73.386  -4.693  1.00  0.00    -0.279 N 
ATOM     15  H3  UNL     1      26.683  72.600  -5.263  1.00  0.00     0.189 HD
BRANCH  14  16
HETATM   16  N2  UNL     1      26.954  74.617  -5.293  1.00  0.00    -0.267 N 
HETATM   17  C5  UNL     1      25.819  75.466  -5.348  1.00  0.00     0.254 C 
HETATM   18  O1  UNL     1      24.751  75.095  -4.802  1.00  0.00    -0.270 OA
ATOM     19  H2  UNL     1      27.810  74.950  -5.737  1.00  0.00     0.190 HD
BRANCH  17  20
HETATM   20  C4  UNL     1      25.834  76.779  -6.025  1.00  0.00     0.237 C 
BRANCH  20  21
HETATM   21  N1  UNL     1      26.914  77.618  -5.597  1.00  0.00    -0.300 N 
HETATM   22  C3  UNL     1      27.819  77.992  -6.521  1.00  0.00     0.108 A 
HETATM   23  C2  UNL     1      28.885  78.807  -6.205  1.00  0.00     0.022 A 
HETATM   24  C1  UNL     1      29.877  79.222  -7.231  1.00  0.00     0.056 C 
HETATM   25  C18 UNL     1      28.990  79.225  -4.901  1.00  0.00     0.256 A 
HETATM   26  N11 UNL     1      28.089  78.852  -3.981  1.00  0.00    -0.275 N 
HETATM   27  O3  UNL     1      29.941  79.974  -4.547  1.00  0.00    -0.267 OA
HETATM   28  C17 UNL     1      27.050  78.043  -4.341  1.00  0.00     0.329 A 
ATOM     29  H11 UNL     1      28.180  79.170  -3.016  1.00  0.00     0.173 HD
HETATM   30  O2  UNL     1      26.204  77.692  -3.464  1.00  0.00    -0.246 OA
ENDBRANCH  20  21
ENDBRANCH  17  20
ENDBRANCH  14  16
ENDBRANCH   1  14
BRANCH   6  31
HETATM   31  N6  UNL     1      28.698  72.223   0.354  1.00  0.00    -0.289 N 
ATOM     32  H6  UNL     1      28.677  71.248   0.651  1.00  0.00     0.188 HD
BRANCH  31  33
HETATM   33  N7  UNL     1      29.170  73.164   1.269  1.00  0.00    -0.344 N 
ATOM     34  H72 UNL     1      30.145  73.445   1.167  1.00  0.00     0.176 HD
ATOM     35  H71 UNL     1      28.617  73.581   2.017  1.00  0.00     0.176 HD
ENDBRANCH  31  33
ENDBRANCH   6  31
BRANCH  10  36
HETATM   36  C11 UNL     1      23.454  73.388  -0.487  1.00  0.00     0.009 A 
HETATM   37  C12 UNL     1      23.208  73.379   0.871  1.00  0.00     0.015 A 
HETATM   38  C13 UNL     1      21.940  73.541   1.393  1.00  0.00     0.001 A 
HETATM   39  C14 UNL     1      20.862  73.720   0.566  1.00  0.00     0.000 A 
HETATM   40  C15 UNL     1      21.069  73.735  -0.812  1.00  0.00     0.001 A 
HETATM   41  C16 UNL     1      22.363  73.568  -1.304  1.00  0.00     0.015 A 
ENDBRANCH  10  36
TORSDOF 7
ENDMDL
MODEL 3
REMARK VINA RESULT: -9.947623381      3.508      4.632
REMARK  7 active torsions:
REMARK  status: ('A' for Active; 'I' for Inactive)
REMARK    1  A    between atoms: N1_4  and  C4_5 
REMARK    2  A    between atoms: C4_5  and  C5_6 
REMARK       I    between atoms: C5_6  and  N2_8 
REMARK    3  A    between atoms: N2_8  and  N3_10 
REMARK    4  A    between atoms: N3_10  and  C6_12 
REMARK    5  A    between atoms: C8_17  and  N6_18 
REMARK    6  A    between atoms: N6_18  and  N7_20 
REMARK    7  A    between atoms: C10_26  and  C11_27 
ROOT
HETATM    1  C6  UNL     1      28.012  72.743  -6.248  1.00  0.00     0.185 A 
HETATM    2  C7  UNL     1      28.345  71.646  -7.020  1.00  0.00     0.165 A 
HETATM    3  N4  UNL     1      28.045  71.571  -8.410  1.00  0.00    -0.078 NA
HETATM    4  N5  UNL     1      28.972  70.565  -6.497  1.00  0.00    -0.324 N 
ATOM      5  H5  UNL     1      29.204  69.772  -7.095  1.00  0.00     0.169 HD
HETATM    6  C8  UNL     1      29.287  70.536  -5.198  1.00  0.00     0.168 A 
HETATM    7  C9  UNL     1      28.964  71.617  -4.412  1.00  0.00     0.176 A 
HETATM    8  N8  UNL     1      29.134  71.893  -3.106  1.00  0.00    -0.322 N 
ATOM      9  H8  UNL     1      29.583  71.268  -2.437  1.00  0.00     0.169 HD
HETATM   10  C10 UNL     1      28.635  73.103  -2.800  1.00  0.00     0.132 A 
HETATM   11  N9  UNL     1      28.148  73.576  -3.956  1.00  0.00    -0.275 N 
ATOM     12  H9  UNL     1      27.696  74.483  -4.068  1.00  0.00     0.189 HD
HETATM   13  N10 UNL     1      28.335  72.705  -4.928  1.00  0.00    -0.213 N 
ENDROOT
BRANCH   1  14
HETATM   14  N3  UNL     1      27.374  73.879  -6.811  1.00  0.00    -0.279 N 
ATOM     15  H3  UNL     1      26.834  73.714  -7.661  1.00  0.00     0.189 HD
BRANCH  14  16
HETATM   16  N2  UNL     1      27.392  75.170  -6.353  1.00  0.00    -0.267 N 
HETATM   17  C5  UNL     1      26.247  75.954  -6.058  1.00  0.00     0.254 C 
HETATM   18  O1  UNL     1      25.106  75.451  -6.206  1.00  0.00    -0.270 OA
ATOM     19  H2  UNL     1      28.305  75.603  -6.212  1.00  0.00     0.190 HD
BRANCH  17  20
HETATM   20  C4  UNL     1      26.333  77.349  -5.579  1.00  0.00     0.237 C 
BRANCH  20  21
HETATM   21  N1  UNL     1      27.510  78.027  -6.037  1.00  0.00    -0.300 N 
HETATM   22  C3  UNL     1      27.625  78.254  -7.359  1.00  0.00     0.108 A 
HETATM   23  C2  UNL     1      28.715  78.908  -7.891  1.00  0.00     0.022 A 
HETATM   24  C1  UNL     1      28.834  79.162  -9.350  1.00  0.00     0.056 C 
HETATM   25  C18 UNL     1      29.687  79.324  -7.014  1.00  0.00     0.256 A 
HETATM   26  N11 UNL     1      29.572  79.097  -5.698  1.00  0.00    -0.275 N 
HETATM   27  O3  UNL     1      30.709  79.930  -7.436  1.00  0.00    -0.267 OA
HETATM   28  C17 UNL     1      28.474  78.443  -5.217  1.00  0.00     0.329 A 
ATOM     29  H11 UNL     1      30.303  79.411  -5.058  1.00  0.00     0.173 HD
HETATM   30  O2  UNL     1      28.374  78.230  -3.970  1.00  0.00    -0.246 OA
ENDBRANCH  20  21
ENDBRANCH  17  20
ENDBRANCH  14  16
ENDBRANCH   1  14
BRANCH   6  31
HETATM   31  N6  UNL     1      29.881  69.513  -4.718  1.00  0.00    -0.289 N 
ATOM     32  H6  UNL     1      29.521  69.126  -3.845  1.00  0.00     0.188 HD
BRANCH  31  33
HETATM   33  N7  UNL     1      30.983  68.884  -5.294  1.00  0.00    -0.344 N 
ATOM     34  H72 UNL     1      31.653  68.463  -4.650  1.00  0.00     0.176 HD
ATOM     35  H71 UNL     1      31.161  68.817  -6.296  1.00  0.00     0.176 HD
ENDBRANCH  31  33
ENDBRANCH   6  31
BRANCH  10  36
HETATM   36  C11 UNL     1      28.671  73.702  -1.469  1.00  0.00     0.009 A 
HETATM   37  C12 UNL     1      29.228  73.051  -0.388  1.00  0.00     0.015 A 
HETATM   38  C13 UNL     1      29.256  73.607   0.876  1.00  0.00     0.001 A 
HETATM   39  C14 UNL     1      28.721  74.849   1.104  1.00  0.00     0.000 A 
HETATM   40  C15 UNL     1      28.148  75.539   0.036  1.00  0.00     0.001 A 
HETATM   41  C16 UNL     1      28.139  74.945  -1.226  1.00  0.00     0.015 A 
ENDBRANCH  10  36
TORSDOF 7
ENDMDL
MODEL 4
REMARK VINA RESULT: -9.909869154      2.625      3.848
REMARK  7 active torsions:
REMARK  status: ('A' for Active; 'I' for Inactive)
REMARK    1  A    between atoms: N1_4  and  C4_5 
REMARK    2  A    between atoms: C4_5  and  C5_6 
REMARK       I    between atoms: C5_6  and  N2_8 
REMARK    3  A    between atoms: N2_8  and  N3_10 
REMARK    4  A    between atoms: N3_10  and  C6_12 
REMARK    5  A    between atoms: C8_17  and  N6_18 
REMARK    6  A    between atoms: N6_18  and  N7_20 
REMARK    7  A    between atoms: C10_26  and  C11_27 
ROOT
HETATM    1  C6  UNL     1      26.575  74.151  -1.221  1.00  0.00     0.185 A 
HETATM    2  C7  UNL     1      27.227  73.986  -0.013  1.00  0.00     0.165 A 
HETATM    3  N4  UNL     1      28.621  74.228   0.140  1.00  0.00    -0.078 NA
HETATM    4  N5  UNL     1      26.577  73.571   1.101  1.00  0.00    -0.324 N 
ATOM      5  H5  UNL     1      27.089  73.459   1.977  1.00  0.00     0.169 HD
HETATM    6  C8  UNL     1      25.268  73.308   1.055  1.00  0.00     0.168 A 
HETATM    7  C9  UNL     1      24.600  73.465  -0.137  1.00  0.00     0.176 A 
HETATM    8  N8  UNL     1      23.319  73.286  -0.508  1.00  0.00    -0.322 N 
ATOM      9  H8  UNL     1      22.574  72.975   0.115  1.00  0.00     0.169 HD
HETATM   10  C10 UNL     1      23.150  73.573  -1.811  1.00  0.00     0.132 A 
HETATM   11  N9  UNL     1      24.366  73.937  -2.242  1.00  0.00    -0.275 N 
ATOM     12  H9  UNL     1      24.582  74.219  -3.198  1.00  0.00     0.189 HD
HETATM   13  N10 UNL     1      25.243  73.880  -1.260  1.00  0.00    -0.213 N 
ENDROOT
BRANCH   1  14
HETATM   14  N3  UNL     1      27.260  74.605  -2.377  1.00  0.00    -0.279 N 
ATOM     15  H3  UNL     1      28.124  74.115  -2.607  1.00  0.00     0.189 HD
BRANCH  14  16
HETATM   16  N2  UNL     1      26.904  75.622  -3.224  1.00  0.00    -0.267 N 
HETATM   17  C5  UNL     1      26.912  77.003  -2.898  1.00  0.00     0.254 C 
HETATM   18  O1  UNL     1      27.281  77.360  -1.753  1.00  0.00    -0.270 OA
ATOM     19  H2  UNL     1      26.609  75.365  -4.166  1.00  0.00     0.190 HD
BRANCH  17  20
HETATM   20  C4  UNL     1      26.502  78.053  -3.854  1.00  0.00     0.237 C 
BRANCH  20  21
HETATM   21  N1  UNL     1      27.478  78.292  -4.876  1.00  0.00    -0.300 N 
HETATM   22  C3  UNL     1      28.356  79.294  -4.680  1.00  0.00     0.108 A 
HETATM   23  C2  UNL     1      29.336  79.591  -5.602  1.00  0.00     0.022 A 
HETATM   24  C1  UNL     1      30.307  80.694  -5.377  1.00  0.00     0.056 C 
HETATM   25  C18 UNL     1      29.385  78.819  -6.737  1.00  0.00     0.256 A 
HETATM   26  N11 UNL     1      28.511  77.822  -6.932  1.00  0.00    -0.275 N 
HETATM   27  O3  UNL     1      30.260  79.038  -7.619  1.00  0.00    -0.267 OA
HETATM   28  C17 UNL     1      27.556  77.566  -5.991  1.00  0.00     0.329 A 
ATOM     29  H11 UNL     1      28.559  77.257  -7.781  1.00  0.00     0.173 HD
HETATM   30  O2  UNL     1      26.730  76.622  -6.184  1.00  0.00    -0.246 OA
ENDBRANCH  20  21
ENDBRANCH  17  20
ENDBRANCH  14  16
ENDBRANCH   1  14
BRANCH   6  31
HETATM   31  N6  UNL     1      24.666  72.921   2.113  1.00  0.00    -0.289 N 
ATOM     32  H6  UNL     1      24.724  71.931   2.352  1.00  0.00     0.188 HD
BRANCH  31  33
HETATM   33  N7  UNL     1      23.938  73.748   2.966  1.00  0.00    -0.344 N 
ATOM     34  H72 UNL     1      23.171  73.310   3.476  1.00  0.00     0.176 HD
ATOM     35  H71 UNL     1      24.117  74.741   3.113  1.00  0.00     0.176 HD
ENDBRANCH  31  33
ENDBRANCH   6  31
BRANCH  10  36
HETATM   36  C11 UNL     1      21.877  73.489  -2.519  1.00  0.00     0.009 A 
HETATM   37  C12 UNL     1      20.671  73.716  -1.889  1.00  0.00     0.015 A 
HETATM   38  C13 UNL     1      19.463  73.628  -2.551  1.00  0.00     0.001 A 
HETATM   39  C14 UNL     1      19.418  73.307  -3.882  1.00  0.00     0.000 A 
HETATM   40  C15 UNL     1      20.616  73.069  -4.556  1.00  0.00     0.001 A 
HETATM   41  C16 UNL     1      21.817  73.167  -3.854  1.00  0.00     0.015 A 
ENDBRANCH  10  36
TORSDOF 7
ENDMDL
MODEL 5
REMARK VINA RESULT: -9.825133783      5.311      8.224
REMARK  7 active torsions:
REMARK  status: ('A' for Active; 'I' for Inactive)
REMARK    1  A    between atoms: N1_4  and  C4_5 
REMARK    2  A    between atoms: C4_5  and  C5_6 
REMARK       I    between atoms: C5_6  and  N2_8 
REMARK    3  A    between atoms: N2_8  and  N3_10 
REMARK    4  A    between atoms: N3_10  and  C6_12 
REMARK    5  A    between atoms: C8_17  and  N6_18 
REMARK    6  A    between atoms: N6_18  and  N7_20 
REMARK    7  A    between atoms: C10_26  and  C11_27 
ROOT
HETATM    1  C6  UNL     1      28.125  72.113  -5.835  1.00  0.00     0.185 A 
HETATM    2  C7  UNL     1      27.692  72.660  -7.029  1.00  0.00     0.165 A 
HETATM    3  N4  UNL     1      27.659  71.915  -8.241  1.00  0.00    -0.078 NA
HETATM    4  N5  UNL     1      27.282  73.947  -7.120  1.00  0.00    -0.324 N 
ATOM      5  H5  UNL     1      26.968  74.320  -8.017  1.00  0.00     0.169 HD
HETATM    6  C8  UNL     1      27.286  74.731  -6.037  1.00  0.00     0.168 A 
HETATM    7  C9  UNL     1      27.712  74.207  -4.839  1.00  0.00     0.176 A 
HETATM    8  N8  UNL     1      27.838  74.717  -3.600  1.00  0.00    -0.322 N 
ATOM      9  H8  UNL     1      27.603  75.675  -3.344  1.00  0.00     0.169 HD
HETATM   10  C10 UNL     1      28.312  73.794  -2.745  1.00  0.00     0.132 A 
HETATM   11  N9  UNL     1      28.479  72.691  -3.488  1.00  0.00    -0.275 N 
ATOM     12  H9  UNL     1      28.830  71.801  -3.135  1.00  0.00     0.189 HD
HETATM   13  N10 UNL     1      28.127  72.917  -4.738  1.00  0.00    -0.213 N 
ENDROOT
BRANCH   1  14
HETATM   14  N3  UNL     1      28.533  70.757  -5.746  1.00  0.00    -0.279 N 
ATOM     15  H3  UNL     1      27.829  70.098  -5.413  1.00  0.00     0.189 HD
BRANCH  14  16
HETATM   16  N2  UNL     1      29.757  70.222  -6.052  1.00  0.00    -0.267 N 
HETATM   17  C5  UNL     1      30.463  69.279  -5.261  1.00  0.00     0.254 C 
HETATM   18  O1  UNL     1      29.947  68.869  -4.192  1.00  0.00    -0.270 OA
ATOM     19  H2  UNL     1      30.197  70.528  -6.919  1.00  0.00     0.190 HD
BRANCH  17  20
HETATM   20  C4  UNL     1      31.789  68.750  -5.640  1.00  0.00     0.237 C 
BRANCH  20  21
HETATM   21  N1  UNL     1      31.909  68.490  -7.044  1.00  0.00    -0.300 N 
HETATM   22  C3  UNL     1      32.071  69.546  -7.863  1.00  0.00     0.108 A 
HETATM   23  C2  UNL     1      32.207  69.393  -9.226  1.00  0.00     0.022 A 
HETATM   24  C1  UNL     1      32.392  70.561 -10.125  1.00  0.00     0.056 C 
HETATM   25  C18 UNL     1      32.169  68.112  -9.720  1.00  0.00     0.256 A 
HETATM   26  N11 UNL     1      32.007  67.061  -8.905  1.00  0.00    -0.275 N 
HETATM   27  O3  UNL     1      32.289  67.904 -10.959  1.00  0.00    -0.267 OA
HETATM   28  C17 UNL     1      31.876  67.262  -7.561  1.00  0.00     0.329 A 
ATOM     29  H11 UNL     1      31.981  66.115  -9.286  1.00  0.00     0.173 HD
HETATM   30  O2  UNL     1      31.720  66.262  -6.796  1.00  0.00    -0.246 OA
ENDBRANCH  20  21
ENDBRANCH  17  20
ENDBRANCH  14  16
ENDBRANCH   1  14
BRANCH   6  31
HETATM   31  N6  UNL     1      26.893  75.942  -6.135  1.00  0.00    -0.289 N 
ATOM     32  H6  UNL     1      25.910  76.135  -5.943  1.00  0.00     0.188 HD
BRANCH  31  33
HETATM   33  N7  UNL     1      27.704  77.020  -6.484  1.00  0.00    -0.344 N 
ATOM     34  H72 UNL     1      28.653  76.796  -6.781  1.00  0.00     0.176 HD
ATOM     35  H71 UNL     1      27.417  77.999  -6.463  1.00  0.00     0.176 HD
ENDBRANCH  31  33
ENDBRANCH   6  31
BRANCH  10  36
HETATM   36  C11 UNL     1      28.552  74.027  -1.324  1.00  0.00     0.009 A 
HETATM   37  C12 UNL     1      28.155  75.189  -0.696  1.00  0.00     0.015 A 
HETATM   38  C13 UNL     1      28.389  75.420   0.646  1.00  0.00     0.001 A 
HETATM   39  C14 UNL     1      29.035  74.486   1.413  1.00  0.00     0.000 A 
HETATM   40  C15 UNL     1      29.453  73.299   0.814  1.00  0.00     0.001 A 
HETATM   41  C16 UNL     1      29.200  73.100  -0.543  1.00  0.00     0.015 A 
ENDBRANCH  10  36
TORSDOF 7
ENDMDL
