MODEL 1
REMARK VINA RESULT: -8.988429240      0.000      0.000
REMARK  7 active torsions:
REMARK  status: ('A' for Active; 'I' for Inactive)
REMARK    1  A    between atoms: N3_8  and  C4_10 
REMARK    2  A    between atoms: C4_10  and  C5_11 
REMARK    3  A    between atoms: C5_11  and  C6_12 
REMARK    4  A    between atoms: C6_12  and  S1_13 
REMARK    5  A    between atoms: S1_13  and  C7_14 
REMARK    6  A    between atoms: N6_20  and  N7_21 
REMARK    7  A    between atoms: C11_30  and  N10_31 
ROOT
HETATM    1  C1  UNL     1      22.679  73.365  -4.698  1.00  0.00     0.165 C 
HETATM    2  N1  UNL     1      23.813  73.187  -3.837  1.00  0.00    -0.229 N 
ATOM      3  H1  UNL     1      24.713  72.945  -4.251  1.00  0.00     0.177 HD
HETATM    4  C2  UNL     1      23.732  73.324  -2.559  1.00  0.00     0.706 A 
HETATM    5  N2  UNL     1      24.886  73.138  -1.740  1.00  0.00    -0.021 N 
ATOM      6  H2  UNL     1      25.779  72.894  -2.169  1.00  0.00     0.203 HD
HETATM    7  C3  UNL     1      24.797  73.290  -0.327  1.00  0.00     0.717 A 
HETATM    8  N3  UNL     1      25.814  73.128   0.415  1.00  0.00    -0.224 N 
ATOM      9  H3  UNL     1      25.660  73.256   1.416  1.00  0.00     0.177 HD
HETATM   10  N8  UNL     1      23.543  73.630   0.260  1.00  0.00     0.064 N 
HETATM   11  C9  UNL     1      23.601  73.753   1.680  1.00  0.00     0.315 C 
HETATM   12  O1  UNL     1      24.698  73.423   2.182  1.00  0.00    -0.264 OA
HETATM   13  C10 UNL     1      22.564  74.203   2.599  1.00  0.00     0.164 A 
HETATM   14  N9  UNL     1      22.729  74.438   3.914  1.00  0.00    -0.182 N 
ATOM     15  H9  UNL     1      23.601  74.327   4.431  1.00  0.00     0.184 HD
HETATM   16  C11 UNL     1      21.542  74.848   4.443  1.00  0.00     0.680 A 
HETATM   17  N11 UNL     1      20.610  74.881   3.485  1.00  0.00    -0.173 N 
ATOM     18  H11 UNL     1      19.631  75.149   3.588  1.00  0.00     0.186 HD
HETATM   19  C13 UNL     1      21.237  74.482   2.336  1.00  0.00     0.169 A 
HETATM   20  N12 UNL     1      20.621  74.374   1.069  1.00  0.00    -0.269 N 
ATOM     21  H12 UNL     1      19.608  74.494   1.079  1.00  0.00     0.189 HD
HETATM   22  N13 UNL     1      21.159  74.132  -0.185  1.00  0.00    -0.129 N 
ATOM     23  H13 UNL     1      20.500  74.209  -0.959  1.00  0.00     0.205 HD
HETATM   24  C14 UNL     1      22.370  73.823  -0.527  1.00  0.00     0.735 A 
HETATM   25  N14 UNL     1      22.493  73.662  -1.950  1.00  0.00    -0.019 N 
ATOM     26  H14 UNL     1      21.670  73.793  -2.539  1.00  0.00     0.203 HD
ENDROOT
BRANCH   8  27
HETATM   27  C4  UNL     1      27.145  72.791   0.028  1.00  0.00     0.139 C 
BRANCH  27  28
HETATM   28  C5  UNL     1      28.131  73.519   0.950  1.00  0.00     0.031 C 
BRANCH  28  29
HETATM   29  C6  UNL     1      29.216  74.070   0.077  1.00  0.00     0.084 C 
BRANCH  29  30
HETATM   30  S1  UNL     1      28.779  74.103  -1.624  1.00  0.00    -0.091 SA
BRANCH  30  31
HETATM   31  C7  UNL     1      28.005  75.563  -2.246  1.00  0.00     0.181 A 
HETATM   32  N4  UNL     1      27.270  76.345  -1.395  1.00  0.00    -0.277 N 
HETATM   33  N5  UNL     1      26.828  77.376  -2.069  1.00  0.00    -0.292 N 
ATOM     34  H4  UNL     1      27.098  76.157  -0.407  1.00  0.00     0.189 HD
HETATM   35  C8  UNL     1      27.253  77.287  -3.330  1.00  0.00     0.225 A 
ATOM     36  H5  UNL     1      26.251  78.128  -1.691  1.00  0.00     0.187 HD
HETATM   37  N6  UNL     1      27.980  76.158  -3.420  1.00  0.00    -0.234 N 
BRANCH  37  38
HETATM   38  N7  UNL     1      28.632  75.701  -4.573  1.00  0.00    -0.336 N 
ATOM     39  H72 UNL     1      29.463  76.121  -4.988  1.00  0.00     0.177 HD
ATOM     40  H71 UNL     1      28.361  74.883  -5.117  1.00  0.00     0.177 HD
ENDBRANCH  37  38
ENDBRANCH  30  31
ENDBRANCH  29  30
ENDBRANCH  28  29
ENDBRANCH  27  28
ENDBRANCH   8  27
BRANCH  16  41
HETATM   41  N10 UNL     1      21.406  75.147   5.680  1.00  0.00    -0.230 N 
HETATM   42  C12 UNL     1      20.738  76.312   6.202  1.00  0.00     0.165 C 
ATOM     43  H10 UNL     1      21.809  74.501   6.360  1.00  0.00     0.177 HD
ENDBRANCH  16  41
TORSDOF 7
ENDMDL
MODEL 2
REMARK VINA RESULT: -8.946383540      0.856      1.377
REMARK  7 active torsions:
REMARK  status: ('A' for Active; 'I' for Inactive)
REMARK    1  A    between atoms: N3_8  and  C4_10 
REMARK    2  A    between atoms: C4_10  and  C5_11 
REMARK    3  A    between atoms: C5_11  and  C6_12 
REMARK    4  A    between atoms: C6_12  and  S1_13 
REMARK    5  A    between atoms: S1_13  and  C7_14 
REMARK    6  A    between atoms: N6_20  and  N7_21 
REMARK    7  A    between atoms: C11_30  and  N10_31 
ROOT
HETATM    1  C1  UNL     1      22.798  73.168  -4.769  1.00  0.00     0.165 C 
HETATM    2  N1  UNL     1      23.968  73.063  -3.945  1.00  0.00    -0.229 N 
ATOM      3  H1  UNL     1      24.864  72.854  -4.384  1.00  0.00     0.177 HD
HETATM    4  C2  UNL     1      23.923  73.225  -2.668  1.00  0.00     0.706 A 
HETATM    5  N2  UNL     1      25.111  73.111  -1.885  1.00  0.00    -0.021 N 
ATOM      6  H2  UNL     1      25.999  72.899  -2.339  1.00  0.00     0.203 HD
HETATM    7  C3  UNL     1      25.062  73.290  -0.473  1.00  0.00     0.717 A 
HETATM    8  N3  UNL     1      26.109  73.193   0.237  1.00  0.00    -0.224 N 
ATOM      9  H3  UNL     1      25.983  73.336   1.239  1.00  0.00     0.177 HD
HETATM   10  N8  UNL     1      23.813  73.585   0.149  1.00  0.00     0.064 N 
HETATM   11  C9  UNL     1      23.913  73.742   1.563  1.00  0.00     0.315 C 
HETATM   12  O1  UNL     1      25.039  73.476   2.034  1.00  0.00    -0.264 OA
HETATM   13  C10 UNL     1      22.886  74.164   2.508  1.00  0.00     0.164 A 
HETATM   14  N9  UNL     1      23.084  74.436   3.811  1.00  0.00    -0.182 N 
ATOM     15  H9  UNL     1      23.977  74.378   4.300  1.00  0.00     0.184 HD
HETATM   16  C11 UNL     1      21.896  74.803   4.372  1.00  0.00     0.680 A 
HETATM   17  N11 UNL     1      20.933  74.771   3.445  1.00  0.00    -0.173 N 
ATOM     18  H11 UNL     1      19.947  74.995   3.577  1.00  0.00     0.186 HD
HETATM   19  C13 UNL     1      21.540  74.375   2.284  1.00  0.00     0.169 A 
HETATM   20  N12 UNL     1      20.887  74.210   1.042  1.00  0.00    -0.269 N 
ATOM     21  H12 UNL     1      19.871  74.283   1.084  1.00  0.00     0.189 HD
HETATM   22  N13 UNL     1      21.395  73.966  -0.225  1.00  0.00    -0.129 N 
ATOM     23  H13 UNL     1      20.707  73.995  -0.977  1.00  0.00     0.205 HD
HETATM   24  C14 UNL     1      22.607  73.706  -0.602  1.00  0.00     0.735 A 
HETATM   25  N14 UNL     1      22.690  73.518  -2.024  1.00  0.00    -0.019 N 
ATOM     26  H14 UNL     1      21.843  73.598  -2.587  1.00  0.00     0.203 HD
ENDROOT
BRANCH   8  27
HETATM   27  C4  UNL     1      27.441  72.910  -0.189  1.00  0.00     0.139 C 
BRANCH  27  28
HETATM   28  C5  UNL     1      28.115  74.219  -0.618  1.00  0.00     0.031 C 
BRANCH  28  29
HETATM   29  C6  UNL     1      28.865  73.925  -1.881  1.00  0.00     0.084 C 
BRANCH  29  30
HETATM   30  S1  UNL     1      28.011  74.445  -3.325  1.00  0.00    -0.091 SA
BRANCH  30  31
HETATM   31  C7  UNL     1      28.051  76.163  -3.731  1.00  0.00     0.181 A 
HETATM   32  N4  UNL     1      28.630  76.558  -4.909  1.00  0.00    -0.277 N 
HETATM   33  N5  UNL     1      28.511  77.858  -5.005  1.00  0.00    -0.292 N 
ATOM     34  H4  UNL     1      29.077  75.945  -5.591  1.00  0.00     0.189 HD
HETATM   35  C8  UNL     1      27.873  78.318  -3.928  1.00  0.00     0.225 A 
ATOM     36  H5  UNL     1      28.851  78.428  -5.780  1.00  0.00     0.187 HD
HETATM   37  N6  UNL     1      27.597  77.254  -3.152  1.00  0.00    -0.234 N 
BRANCH  37  38
HETATM   38  N7  UNL     1      26.908  77.295  -1.932  1.00  0.00    -0.336 N 
ATOM     39  H72 UNL     1      27.329  77.174  -1.011  1.00  0.00     0.177 HD
ATOM     40  H71 UNL     1      25.909  77.470  -1.826  1.00  0.00     0.177 HD
ENDBRANCH  37  38
ENDBRANCH  30  31
ENDBRANCH  29  30
ENDBRANCH  28  29
ENDBRANCH  27  28
ENDBRANCH   8  27
BRANCH  16  41
HETATM   41  N10 UNL     1      21.788  75.123   5.606  1.00  0.00    -0.230 N 
HETATM   42  C12 UNL     1      21.012  76.217   6.132  1.00  0.00     0.165 C 
ATOM     43  H10 UNL     1      22.299  74.552   6.280  1.00  0.00     0.177 HD
ENDBRANCH  16  41
TORSDOF 7
ENDMDL
MODEL 3
REMARK VINA RESULT: -8.821534137      3.217      5.634
REMARK  7 active torsions:
REMARK  status: ('A' for Active; 'I' for Inactive)
REMARK    1  A    between atoms: N3_8  and  C4_10 
REMARK    2  A    between atoms: C4_10  and  C5_11 
REMARK    3  A    between atoms: C5_11  and  C6_12 
REMARK    4  A    between atoms: C6_12  and  S1_13 
REMARK    5  A    between atoms: S1_13  and  C7_14 
REMARK    6  A    between atoms: N6_20  and  N7_21 
REMARK    7  A    between atoms: C11_30  and  N10_31 
ROOT
HETATM    1  C1  UNL     1      30.613  73.048   2.914  1.00  0.00     0.165 C 
HETATM    2  N1  UNL     1      30.614  72.925   1.484  1.00  0.00    -0.229 N 
ATOM      3  H1  UNL     1      31.498  72.752   1.004  1.00  0.00     0.177 HD
HETATM    4  C2  UNL     1      29.536  73.024   0.786  1.00  0.00     0.706 A 
HETATM    5  N2  UNL     1      29.582  72.896  -0.634  1.00  0.00    -0.021 N 
ATOM      6  H2  UNL     1      30.474  72.726  -1.099  1.00  0.00     0.203 HD
HETATM    7  C3  UNL     1      28.390  73.004  -1.406  1.00  0.00     0.717 A 
HETATM    8  N3  UNL     1      28.414  72.892  -2.669  1.00  0.00    -0.224 N 
ATOM      9  H3  UNL     1      27.515  72.984  -3.142  1.00  0.00     0.177 HD
HETATM   10  N8  UNL     1      27.151  73.243  -0.742  1.00  0.00     0.064 N 
HETATM   11  C9  UNL     1      26.042  73.326  -1.636  1.00  0.00     0.315 C 
HETATM   12  O1  UNL     1      26.351  73.301  -2.847  1.00  0.00    -0.264 OA
HETATM   13  C10 UNL     1      24.623  73.434  -1.321  1.00  0.00     0.164 A 
HETATM   14  N9  UNL     1      23.614  73.359  -2.208  1.00  0.00    -0.182 N 
ATOM     15  H9  UNL     1      23.718  73.219  -3.213  1.00  0.00     0.184 HD
HETATM   16  C11 UNL     1      22.431  73.500  -1.546  1.00  0.00     0.680 A 
HETATM   17  N11 UNL     1      22.663  73.666  -0.240  1.00  0.00    -0.173 N 
ATOM     18  H11 UNL     1      21.969  73.795   0.496  1.00  0.00     0.186 HD
HETATM   19  C13 UNL     1      24.023  73.626  -0.092  1.00  0.00     0.169 A 
HETATM   20  N12 UNL     1      24.710  73.758   1.136  1.00  0.00    -0.269 N 
ATOM     21  H12 UNL     1      24.121  74.022   1.926  1.00  0.00     0.189 HD
HETATM   22  N13 UNL     1      26.050  73.590   1.449  1.00  0.00    -0.129 N 
ATOM     23  H13 UNL     1      26.271  73.644   2.443  1.00  0.00     0.205 HD
HETATM   24  C14 UNL     1      27.067  73.377   0.675  1.00  0.00     0.735 A 
HETATM   25  N14 UNL     1      28.288  73.262   1.424  1.00  0.00    -0.019 N 
ATOM     26  H14 UNL     1      28.259  73.354   2.440  1.00  0.00     0.203 HD
ENDROOT
BRANCH   8  27
HETATM   27  C4  UNL     1      29.540  72.653  -3.513  1.00  0.00     0.139 C 
BRANCH  27  28
HETATM   28  C5  UNL     1      29.348  73.418  -4.828  1.00  0.00     0.031 C 
BRANCH  28  29
HETATM   29  C6  UNL     1      29.061  74.843  -4.462  1.00  0.00     0.084 C 
BRANCH  29  30
HETATM   30  S1  UNL     1      28.839  75.880  -5.861  1.00  0.00    -0.091 SA
BRANCH  30  31
HETATM   31  C7  UNL     1      29.372  77.558  -5.735  1.00  0.00     0.181 A 
HETATM   32  N4  UNL     1      30.294  78.036  -6.630  1.00  0.00    -0.277 N 
HETATM   33  N5  UNL     1      30.505  79.300  -6.360  1.00  0.00    -0.292 N 
ATOM     34  H4  UNL     1      30.738  77.500  -7.375  1.00  0.00     0.189 HD
HETATM   35  C8  UNL     1      29.750  79.656  -5.320  1.00  0.00     0.225 A 
ATOM     36  H5  UNL     1      31.145  79.914  -6.864  1.00  0.00     0.187 HD
HETATM   37  N6  UNL     1      29.056  78.565  -4.948  1.00  0.00    -0.234 N 
BRANCH  37  38
HETATM   38  N7  UNL     1      28.121  78.513  -3.905  1.00  0.00    -0.336 N 
ATOM     39  H72 UNL     1      28.295  78.795  -2.941  1.00  0.00     0.177 HD
ATOM     40  H71 UNL     1      27.153  78.206  -3.997  1.00  0.00     0.177 HD
ENDBRANCH  37  38
ENDBRANCH  30  31
ENDBRANCH  29  30
ENDBRANCH  28  29
ENDBRANCH  27  28
ENDBRANCH   8  27
BRANCH  16  41
HETATM   41  N10 UNL     1      21.300  73.464  -2.144  1.00  0.00    -0.230 N 
HETATM   42  C12 UNL     1      20.058  73.994  -1.641  1.00  0.00     0.165 C 
ATOM     43  H10 UNL     1      21.275  73.018  -3.062  1.00  0.00     0.177 HD
ENDBRANCH  16  41
TORSDOF 7
ENDMDL
MODEL 4
REMARK VINA RESULT: -8.735244577      2.756      6.795
REMARK  7 active torsions:
REMARK  status: ('A' for Active; 'I' for Inactive)
REMARK    1  A    between atoms: N3_8  and  C4_10 
REMARK    2  A    between atoms: C4_10  and  C5_11 
REMARK    3  A    between atoms: C5_11  and  C6_12 
REMARK    4  A    between atoms: C6_12  and  S1_13 
REMARK    5  A    between atoms: S1_13  and  C7_14 
REMARK    6  A    between atoms: N6_20  and  N7_21 
REMARK    7  A    between atoms: C11_30  and  N10_31 
ROOT
HETATM    1  C1  UNL     1      24.965  72.557  -7.517  1.00  0.00     0.165 C 
HETATM    2  N1  UNL     1      24.131  72.760  -6.367  1.00  0.00    -0.229 N 
ATOM      3  H1  UNL     1      23.119  72.801  -6.493  1.00  0.00     0.177 HD
HETATM    4  C2  UNL     1      24.616  72.892  -5.181  1.00  0.00     0.706 A 
HETATM    5  N2  UNL     1      23.750  73.093  -4.066  1.00  0.00    -0.021 N 
ATOM      6  H2  UNL     1      22.740  73.133  -4.209  1.00  0.00     0.203 HD
HETATM    7  C3  UNL     1      24.286  73.238  -2.755  1.00  0.00     0.717 A 
HETATM    8  N3  UNL     1      23.530  73.416  -1.752  1.00  0.00    -0.224 N 
ATOM      9  H3  UNL     1      23.998  73.511  -0.851  1.00  0.00     0.177 HD
HETATM   10  N8  UNL     1      25.699  73.181  -2.570  1.00  0.00     0.064 N 
HETATM   11  C9  UNL     1      26.095  73.337  -1.209  1.00  0.00     0.315 C 
HETATM   12  O1  UNL     1      25.160  73.621  -0.428  1.00  0.00    -0.264 OA
HETATM   13  C10 UNL     1      27.425  73.212  -0.626  1.00  0.00     0.164 A 
HETATM   14  N9  UNL     1      27.710  73.225   0.690  1.00  0.00    -0.182 N 
ATOM     15  H9  UNL     1      27.029  73.327   1.442  1.00  0.00     0.184 HD
HETATM   16  C11 UNL     1      29.055  73.080   0.853  1.00  0.00     0.680 A 
HETATM   17  N11 UNL     1      29.644  72.972  -0.342  1.00  0.00    -0.173 N 
ATOM     18  H11 UNL     1      30.640  72.854  -0.528  1.00  0.00     0.186 HD
HETATM   19  C13 UNL     1      28.638  73.053  -1.266  1.00  0.00     0.169 A 
HETATM   20  N12 UNL     1      28.814  72.982  -2.667  1.00  0.00    -0.269 N 
ATOM     21  H12 UNL     1      29.786  72.993  -2.973  1.00  0.00     0.189 HD
HETATM   22  N13 UNL     1      27.888  72.900  -3.695  1.00  0.00    -0.129 N 
ATOM     23  H13 UNL     1      28.285  72.752  -4.623  1.00  0.00     0.205 HD
HETATM   24  C14 UNL     1      26.595  72.981  -3.661  1.00  0.00     0.735 A 
HETATM   25  N14 UNL     1      26.021  72.839  -4.972  1.00  0.00    -0.019 N 
ATOM     26  H14 UNL     1      26.638  72.696  -5.771  1.00  0.00     0.203 HD
ENDROOT
BRANCH   8  27
HETATM   27  C4  UNL     1      22.106  73.501  -1.726  1.00  0.00     0.139 C 
BRANCH  27  28
HETATM   28  C5  UNL     1      21.698  74.813  -1.043  1.00  0.00     0.031 C 
BRANCH  28  29
HETATM   29  C6  UNL     1      20.660  74.464  -0.020  1.00  0.00     0.084 C 
BRANCH  29  30
HETATM   30  S1  UNL     1      21.326  73.639   1.380  1.00  0.00    -0.091 SA
BRANCH  30  31
HETATM   31  C7  UNL     1      22.663  74.414   2.234  1.00  0.00     0.181 A 
HETATM   32  N4  UNL     1      23.950  74.122   1.865  1.00  0.00    -0.277 N 
HETATM   33  N5  UNL     1      24.758  74.834   2.609  1.00  0.00    -0.292 N 
ATOM     34  H4  UNL     1      24.230  73.464   1.137  1.00  0.00     0.189 HD
HETATM   35  C8  UNL     1      24.036  75.578   3.448  1.00  0.00     0.225 A 
ATOM     36  H5  UNL     1      25.777  74.822   2.556  1.00  0.00     0.187 HD
HETATM   37  N6  UNL     1      22.742  75.304   3.200  1.00  0.00    -0.234 N 
BRANCH  37  38
HETATM   38  N7  UNL     1      21.648  75.894   3.847  1.00  0.00    -0.336 N 
ATOM     39  H72 UNL     1      21.005  75.415   4.477  1.00  0.00     0.177 HD
ATOM     40  H71 UNL     1      21.383  76.876   3.778  1.00  0.00     0.177 HD
ENDBRANCH  37  38
ENDBRANCH  30  31
ENDBRANCH  29  30
ENDBRANCH  28  29
ENDBRANCH  27  28
ENDBRANCH   8  27
BRANCH  16  41
HETATM   41  N10 UNL     1      29.609  73.052   2.007  1.00  0.00    -0.230 N 
HETATM   42  C12 UNL     1      30.972  72.679   2.283  1.00  0.00     0.165 C 
ATOM     43  H10 UNL     1      29.031  73.319   2.805  1.00  0.00     0.177 HD
ENDBRANCH  16  41
TORSDOF 7
ENDMDL
MODEL 5
REMARK VINA RESULT: -8.723155016      3.134      5.573
REMARK  7 active torsions:
REMARK  status: ('A' for Active; 'I' for Inactive)
REMARK    1  A    between atoms: N3_8  and  C4_10 
REMARK    2  A    between atoms: C4_10  and  C5_11 
REMARK    3  A    between atoms: C5_11  and  C6_12 
REMARK    4  A    between atoms: C6_12  and  S1_13 
REMARK    5  A    between atoms: S1_13  and  C7_14 
REMARK    6  A    between atoms: N6_20  and  N7_21 
REMARK    7  A    between atoms: C11_30  and  N10_31 
ROOT
HETATM    1  C1  UNL     1      30.028  73.077   1.847  1.00  0.00     0.165 C 
HETATM    2  N1  UNL     1      29.895  73.291   0.435  1.00  0.00    -0.229 N 
ATOM      3  H1  UNL     1      30.736  73.312  -0.142  1.00  0.00     0.177 HD
HETATM    4  C2  UNL     1      28.749  73.455  -0.130  1.00  0.00     0.706 A 
HETATM    5  N2  UNL     1      28.662  73.666  -1.538  1.00  0.00    -0.021 N 
ATOM      6  H2  UNL     1      29.513  73.687  -2.101  1.00  0.00     0.203 HD
HETATM    7  C3  UNL     1      27.395  73.847  -2.162  1.00  0.00     0.717 A 
HETATM    8  N3  UNL     1      27.301  74.035  -3.413  1.00  0.00    -0.224 N 
ATOM      9  H3  UNL     1      26.355  74.156  -3.776  1.00  0.00     0.177 HD
HETATM   10  N8  UNL     1      26.214  73.816  -1.363  1.00  0.00     0.064 N 
HETATM   11  C9  UNL     1      25.019  74.008  -2.118  1.00  0.00     0.315 C 
HETATM   12  O1  UNL     1      25.208  74.293  -3.320  1.00  0.00    -0.264 OA
HETATM   13  C10 UNL     1      23.635  73.916  -1.672  1.00  0.00     0.164 A 
HETATM   14  N9  UNL     1      22.550  73.962  -2.467  1.00  0.00    -0.182 N 
ATOM     15  H9  UNL     1      22.562  74.069  -3.481  1.00  0.00     0.184 HD
HETATM   16  C11 UNL     1      21.431  73.841  -1.697  1.00  0.00     0.680 A 
HETATM   17  N11 UNL     1      21.781  73.718  -0.413  1.00  0.00    -0.173 N 
ATOM     18  H11 UNL     1      21.156  73.612   0.386  1.00  0.00     0.186 HD
HETATM   19  C13 UNL     1      23.148  73.763  -0.389  1.00  0.00     0.169 A 
HETATM   20  N12 UNL     1      23.944  73.665   0.775  1.00  0.00    -0.269 N 
ATOM     21  H12 UNL     1      23.420  73.686   1.650  1.00  0.00     0.189 HD
HETATM   22  N13 UNL     1      25.317  73.546   0.929  1.00  0.00    -0.129 N 
ATOM     23  H13 UNL     1      25.630  73.386   1.886  1.00  0.00     0.205 HD
HETATM   24  C14 UNL     1      26.263  73.608   0.047  1.00  0.00     0.735 A 
HETATM   25  N14 UNL     1      27.557  73.429   0.646  1.00  0.00    -0.019 N 
ATOM     26  H14 UNL     1      27.623  73.279   1.652  1.00  0.00     0.203 HD
ENDROOT
BRANCH   8  27
HETATM   27  C4  UNL     1      28.350  74.098  -4.378  1.00  0.00     0.139 C 
BRANCH  27  28
HETATM   28  C5  UNL     1      28.886  75.533  -4.437  1.00  0.00     0.031 C 
BRANCH  28  29
HETATM   29  C6  UNL     1      27.726  76.415  -4.786  1.00  0.00     0.084 C 
BRANCH  29  30
HETATM   30  S1  UNL     1      28.043  78.116  -4.490  1.00  0.00    -0.091 SA
BRANCH  30  31
HETATM   31  C7  UNL     1      29.322  78.891  -5.430  1.00  0.00     0.181 A 
HETATM   32  N4  UNL     1      30.206  79.725  -4.796  1.00  0.00    -0.277 N 
HETATM   33  N5  UNL     1      31.073  80.148  -5.682  1.00  0.00    -0.292 N 
ATOM     34  H4  UNL     1      30.190  79.973  -3.808  1.00  0.00     0.189 HD
HETATM   35  C8  UNL     1      30.779  79.614  -6.868  1.00  0.00     0.225 A 
ATOM     36  H5  UNL     1      31.848  80.784  -5.495  1.00  0.00     0.187 HD
HETATM   37  N6  UNL     1      29.693  78.839  -6.692  1.00  0.00    -0.234 N 
BRANCH  37  38
HETATM   38  N7  UNL     1      29.071  78.074  -7.687  1.00  0.00    -0.336 N 
ATOM     39  H72 UNL     1      28.066  77.923  -7.775  1.00  0.00     0.177 HD
ATOM     40  H71 UNL     1      29.551  77.598  -8.450  1.00  0.00     0.177 HD
ENDBRANCH  37  38
ENDBRANCH  30  31
ENDBRANCH  29  30
ENDBRANCH  28  29
ENDBRANCH  27  28
ENDBRANCH   8  27
BRANCH  16  41
HETATM   41  N10 UNL     1      20.251  73.847  -2.193  1.00  0.00    -0.230 N 
HETATM   42  C12 UNL     1      19.879  73.371  -3.500  1.00  0.00     0.165 C 
ATOM     43  H10 UNL     1      19.505  74.223  -1.608  1.00  0.00     0.177 HD
ENDBRANCH  16  41
TORSDOF 7
ENDMDL
