MODEL 1
REMARK VINA RESULT: -7.991776017      0.000      0.000
REMARK  6 active torsions:
REMARK  status: ('A' for Active; 'I' for Inactive)
REMARK    1  A    between atoms: C2_2  and  N1_3 
REMARK    2  A    between atoms: C4_5  and  C5_6 
REMARK    3  A    between atoms: C6_7  and  C7_8 
REMARK    4  A    between atoms: C7_8  and  C8_9 
REMARK    5  A    between atoms: C8_9  and  O1_11 
REMARK    6  A    between atoms: C8_9  and  C10_13 
ROOT
HETATM    1  N1  UNL     1     -71.088 -53.952 -71.176  1.00  0.00    -0.342 N 
HETATM    2  C3  UNL     1     -71.102 -52.618 -71.197  1.00  0.00     0.113 A 
HETATM    3  C4  UNL     1     -71.992 -51.865 -71.936  1.00  0.00     0.034 A 
HETATM    4  C14 UNL     1     -72.911 -52.565 -72.691  1.00  0.00     0.033 A 
HETATM    5  C15 UNL     1     -72.930 -53.942 -72.699  1.00  0.00    -0.011 A 
HETATM    6  C16 UNL     1     -71.995 -54.607 -71.921  1.00  0.00     0.109 A 
HETATM    7  N2  UNL     1     -72.208 -56.003 -72.090  1.00  0.00    -0.375 N 
ATOM      8  H2  UNL     1     -71.538 -56.733 -71.850  1.00  0.00     0.161 HD
HETATM    9  C17 UNL     1     -73.516 -56.229 -72.650  1.00  0.00     0.126 C 
HETATM   10  C18 UNL     1     -73.778 -54.936 -73.392  1.00  0.00     0.062 C 
ENDROOT
BRANCH   3  11
HETATM   11  C5  UNL     1     -71.960 -50.419 -71.918  1.00  0.00    -0.066 C 
HETATM   12  C6  UNL     1     -71.953 -49.212 -71.897  1.00  0.00    -0.098 C 
BRANCH  12  13
HETATM   13  C7  UNL     1     -71.953 -47.735 -71.847  1.00  0.00     0.132 C 
BRANCH  13  14
HETATM   14  C8  UNL     1     -70.520 -47.302 -72.021  1.00  0.00     0.071 C 
HETATM   15  C9  UNL     1     -69.599 -48.420 -72.381  1.00  0.00     0.047 C 
BRANCH  14  16
HETATM   16  O1  UNL     1     -70.109 -46.680 -70.826  1.00  0.00    -0.389 OA
ATOM     17  H1  UNL     1     -69.223 -46.969 -70.637  1.00  0.00     0.210 HD
ENDBRANCH  14  16
BRANCH  14  18
HETATM   18  C10 UNL     1     -70.527 -46.202 -73.077  1.00  0.00    -0.020 C 
HETATM   19  C11 UNL     1     -69.760 -45.022 -72.531  1.00  0.00     0.017 C 
HETATM   20  C12 UNL     1     -71.932 -45.757 -73.345  1.00  0.00     0.017 C 
HETATM   21  C13 UNL     1     -69.916 -46.755 -74.333  1.00  0.00     0.017 C 
ENDBRANCH  14  18
ENDBRANCH  13  14
ENDBRANCH  12  13
ENDBRANCH   3  11
BRANCH   1  22
HETATM   22  C2  UNL     1     -70.141 -54.719 -70.390  1.00  0.00     0.125 C 
HETATM   23  C1  UNL     1     -68.913 -55.051 -71.222  1.00  0.00     0.027 C 
ENDBRANCH   1  22
TORSDOF 6
ENDMDL
MODEL 2
REMARK VINA RESULT: -7.972069582      0.640      1.167
REMARK  6 active torsions:
REMARK  status: ('A' for Active; 'I' for Inactive)
REMARK    1  A    between atoms: C2_2  and  N1_3 
REMARK    2  A    between atoms: C4_5  and  C5_6 
REMARK    3  A    between atoms: C6_7  and  C7_8 
REMARK    4  A    between atoms: C7_8  and  C8_9 
REMARK    5  A    between atoms: C8_9  and  O1_11 
REMARK    6  A    between atoms: C8_9  and  C10_13 
ROOT
HETATM    1  N1  UNL     1     -71.126 -53.776 -71.186  1.00  0.00    -0.342 N 
HETATM    2  C3  UNL     1     -71.087 -52.445 -71.263  1.00  0.00     0.113 A 
HETATM    3  C4  UNL     1     -71.909 -51.693 -72.077  1.00  0.00     0.034 A 
HETATM    4  C14 UNL     1     -72.818 -52.391 -72.847  1.00  0.00     0.033 A 
HETATM    5  C15 UNL     1     -72.891 -53.765 -72.798  1.00  0.00    -0.011 A 
HETATM    6  C16 UNL     1     -72.021 -54.429 -71.947  1.00  0.00     0.109 A 
HETATM    7  N2  UNL     1     -72.281 -55.822 -72.067  1.00  0.00    -0.375 N 
ATOM      8  H2  UNL     1     -71.652 -56.565 -71.763  1.00  0.00     0.161 HD
HETATM    9  C17 UNL     1     -73.568 -56.024 -72.682  1.00  0.00     0.126 C 
HETATM   10  C18 UNL     1     -73.743 -54.757 -73.490  1.00  0.00     0.062 C 
ENDROOT
BRANCH   3  11
HETATM   11  C5  UNL     1     -71.821 -50.249 -72.119  1.00  0.00    -0.066 C 
HETATM   12  C6  UNL     1     -71.765 -49.044 -72.167  1.00  0.00    -0.098 C 
BRANCH  12  13
HETATM   13  C7  UNL     1     -71.720 -47.568 -72.217  1.00  0.00     0.132 C 
BRANCH  13  14
HETATM   14  C8  UNL     1     -70.321 -47.198 -72.640  1.00  0.00     0.071 C 
HETATM   15  C9  UNL     1     -69.896 -47.841 -73.918  1.00  0.00     0.047 C 
BRANCH  14  16
HETATM   16  O1  UNL     1     -69.447 -47.543 -71.591  1.00  0.00    -0.389 OA
ATOM     17  H1  UNL     1     -68.557 -47.441 -71.907  1.00  0.00     0.210 HD
ENDBRANCH  14  16
BRANCH  14  18
HETATM   18  C10 UNL     1     -70.285 -45.675 -72.722  1.00  0.00    -0.020 C 
HETATM   19  C11 UNL     1     -71.676 -45.191 -73.054  1.00  0.00     0.017 C 
HETATM   20  C12 UNL     1     -69.368 -45.242 -73.824  1.00  0.00     0.017 C 
HETATM   21  C13 UNL     1     -69.791 -45.148 -71.405  1.00  0.00     0.017 C 
ENDBRANCH  14  18
ENDBRANCH  13  14
ENDBRANCH  12  13
ENDBRANCH   3  11
BRANCH   1  22
HETATM   22  C2  UNL     1     -70.249 -54.543 -70.321  1.00  0.00     0.125 C 
HETATM   23  C1  UNL     1     -68.955 -54.875 -71.046  1.00  0.00     0.027 C 
ENDBRANCH   1  22
TORSDOF 6
ENDMDL
MODEL 3
REMARK VINA RESULT: -7.881450899      0.972      2.643
REMARK  6 active torsions:
REMARK  status: ('A' for Active; 'I' for Inactive)
REMARK    1  A    between atoms: C2_2  and  N1_3 
REMARK    2  A    between atoms: C4_5  and  C5_6 
REMARK    3  A    between atoms: C6_7  and  C7_8 
REMARK    4  A    between atoms: C7_8  and  C8_9 
REMARK    5  A    between atoms: C8_9  and  O1_11 
REMARK    6  A    between atoms: C8_9  and  C10_13 
ROOT
HETATM    1  N1  UNL     1     -72.526 -53.804 -72.384  1.00  0.00    -0.342 N 
HETATM    2  C3  UNL     1     -72.527 -52.474 -72.486  1.00  0.00     0.113 A 
HETATM    3  C4  UNL     1     -71.630 -51.648 -71.839  1.00  0.00     0.034 A 
HETATM    4  C14 UNL     1     -70.686 -52.267 -71.044  1.00  0.00     0.033 A 
HETATM    5  C15 UNL     1     -70.651 -53.637 -70.911  1.00  0.00    -0.011 A 
HETATM    6  C16 UNL     1     -71.595 -54.379 -71.603  1.00  0.00     0.109 A 
HETATM    7  N2  UNL     1     -71.362 -55.752 -71.313  1.00  0.00    -0.375 N 
ATOM      8  H2  UNL     1     -72.029 -56.507 -71.470  1.00  0.00     0.161 HD
HETATM    9  C17 UNL     1     -70.040 -55.914 -70.764  1.00  0.00     0.126 C 
HETATM   10  C18 UNL     1     -69.777 -54.556 -70.149  1.00  0.00     0.062 C 
ENDROOT
BRANCH   3  11
HETATM   11  C5  UNL     1     -71.679 -50.210 -71.987  1.00  0.00    -0.066 C 
HETATM   12  C6  UNL     1     -71.700 -49.008 -72.104  1.00  0.00    -0.098 C 
BRANCH  12  13
HETATM   13  C7  UNL     1     -71.705 -47.539 -72.259  1.00  0.00     0.132 C 
BRANCH  13  14
HETATM   14  C8  UNL     1     -70.306 -47.148 -72.665  1.00  0.00     0.071 C 
HETATM   15  C9  UNL     1     -69.858 -47.778 -73.942  1.00  0.00     0.047 C 
BRANCH  14  16
HETATM   16  O1  UNL     1     -69.439 -47.489 -71.608  1.00  0.00    -0.389 OA
ATOM     17  H1  UNL     1     -68.884 -46.738 -71.432  1.00  0.00     0.210 HD
ENDBRANCH  14  16
BRANCH  14  18
HETATM   18  C10 UNL     1     -70.288 -45.625 -72.738  1.00  0.00    -0.020 C 
HETATM   19  C11 UNL     1     -71.687 -45.155 -73.056  1.00  0.00     0.017 C 
HETATM   20  C12 UNL     1     -69.384 -45.175 -73.843  1.00  0.00     0.017 C 
HETATM   21  C13 UNL     1     -69.790 -45.100 -71.421  1.00  0.00     0.017 C 
ENDBRANCH  14  18
ENDBRANCH  13  14
ENDBRANCH  12  13
ENDBRANCH   3  11
BRANCH   1  22
HETATM   22  C2  UNL     1     -73.481 -54.649 -73.075  1.00  0.00     0.125 C 
HETATM   23  C1  UNL     1     -73.427 -54.389 -74.572  1.00  0.00     0.027 C 
ENDBRANCH   1  22
TORSDOF 6
ENDMDL
MODEL 4
REMARK VINA RESULT: -7.634231094      1.294      2.845
REMARK  6 active torsions:
REMARK  status: ('A' for Active; 'I' for Inactive)
REMARK    1  A    between atoms: C2_2  and  N1_3 
REMARK    2  A    between atoms: C4_5  and  C5_6 
REMARK    3  A    between atoms: C6_7  and  C7_8 
REMARK    4  A    between atoms: C7_8  and  C8_9 
REMARK    5  A    between atoms: C8_9  and  O1_11 
REMARK    6  A    between atoms: C8_9  and  C10_13 
ROOT
HETATM    1  N1  UNL     1     -72.518 -54.088 -72.294  1.00  0.00    -0.342 N 
HETATM    2  C3  UNL     1     -72.772 -52.827 -72.648  1.00  0.00     0.113 A 
HETATM    3  C4  UNL     1     -72.061 -51.736 -72.190  1.00  0.00     0.034 A 
HETATM    4  C14 UNL     1     -71.029 -52.000 -71.312  1.00  0.00     0.033 A 
HETATM    5  C15 UNL     1     -70.734 -53.286 -70.921  1.00  0.00    -0.011 A 
HETATM    6  C16 UNL     1     -71.507 -54.314 -71.438  1.00  0.00     0.109 A 
HETATM    7  N2  UNL     1     -71.019 -55.535 -70.896  1.00  0.00    -0.375 N 
ATOM      8  H2  UNL     1     -71.527 -56.420 -70.892  1.00  0.00     0.161 HD
HETATM    9  C17 UNL     1     -69.700 -55.333 -70.355  1.00  0.00     0.126 C 
HETATM   10  C18 UNL     1     -69.712 -53.858 -70.017  1.00  0.00     0.062 C 
ENDROOT
BRANCH   3  11
HETATM   11  C5  UNL     1     -72.383 -50.389 -72.610  1.00  0.00    -0.066 C 
HETATM   12  C6  UNL     1     -72.635 -49.266 -72.973  1.00  0.00    -0.098 C 
BRANCH  12  13
HETATM   13  C7  UNL     1     -72.945 -47.900 -73.443  1.00  0.00     0.132 C 
BRANCH  13  14
HETATM   14  C8  UNL     1     -71.848 -47.009 -72.917  1.00  0.00     0.071 C 
HETATM   15  C9  UNL     1     -71.560 -47.211 -71.467  1.00  0.00     0.047 C 
BRANCH  14  16
HETATM   16  O1  UNL     1     -72.217 -45.674 -73.173  1.00  0.00    -0.389 OA
ATOM     17  H1  UNL     1     -71.436 -45.137 -73.102  1.00  0.00     0.210 HD
ENDBRANCH  14  16
BRANCH  14  18
HETATM   18  C10 UNL     1     -70.625 -47.273 -73.789  1.00  0.00    -0.020 C 
HETATM   19  C11 UNL     1     -69.659 -48.122 -72.997  1.00  0.00     0.017 C 
HETATM   20  C12 UNL     1     -69.943 -45.983 -74.121  1.00  0.00     0.017 C 
HETATM   21  C13 UNL     1     -71.086 -47.950 -75.049  1.00  0.00     0.017 C 
ENDBRANCH  14  18
ENDBRANCH  13  14
ENDBRANCH  12  13
ENDBRANCH   3  11
BRANCH   1  22
HETATM   22  C2  UNL     1     -73.282 -55.216 -72.791  1.00  0.00     0.125 C 
HETATM   23  C1  UNL     1     -73.871 -54.894 -74.155  1.00  0.00     0.027 C 
ENDBRANCH   1  22
TORSDOF 6
ENDMDL
MODEL 5
REMARK VINA RESULT: -7.594978783      1.291      1.725
REMARK  6 active torsions:
REMARK  status: ('A' for Active; 'I' for Inactive)
REMARK    1  A    between atoms: C2_2  and  N1_3 
REMARK    2  A    between atoms: C4_5  and  C5_6 
REMARK    3  A    between atoms: C6_7  and  C7_8 
REMARK    4  A    between atoms: C7_8  and  C8_9 
REMARK    5  A    between atoms: C8_9  and  O1_11 
REMARK    6  A    between atoms: C8_9  and  C10_13 
ROOT
HETATM    1  N1  UNL     1     -71.389 -53.324 -71.326  1.00  0.00    -0.342 N 
HETATM    2  C3  UNL     1     -71.529 -52.067 -71.751  1.00  0.00     0.113 A 
HETATM    3  C4  UNL     1     -72.311 -51.698 -72.827  1.00  0.00     0.034 A 
HETATM    4  C14 UNL     1     -72.975 -52.714 -73.484  1.00  0.00     0.033 A 
HETATM    5  C15 UNL     1     -72.856 -54.025 -73.078  1.00  0.00    -0.011 A 
HETATM    6  C16 UNL     1     -72.048 -54.293 -71.985  1.00  0.00     0.109 A 
HETATM    7  N2  UNL     1     -72.082 -55.697 -71.757  1.00  0.00    -0.375 N 
ATOM      8  H2  UNL     1     -71.409 -56.217 -71.194  1.00  0.00     0.161 HD
HETATM    9  C17 UNL     1     -73.211 -56.271 -72.442  1.00  0.00     0.126 C 
HETATM   10  C18 UNL     1     -73.435 -55.292 -73.574  1.00  0.00     0.062 C 
ENDROOT
BRANCH   3  11
HETATM   11  C5  UNL     1     -72.426 -50.316 -73.243  1.00  0.00    -0.066 C 
HETATM   12  C6  UNL     1     -72.501 -49.163 -73.592  1.00  0.00    -0.098 C 
BRANCH  12  13
HETATM   13  C7  UNL     1     -72.578 -47.757 -74.039  1.00  0.00     0.132 C 
BRANCH  13  14
HETATM   14  C8  UNL     1     -71.845 -46.940 -73.005  1.00  0.00     0.071 C 
HETATM   15  C9  UNL     1     -72.075 -47.405 -71.605  1.00  0.00     0.047 C 
BRANCH  14  16
HETATM   16  O1  UNL     1     -72.241 -45.596 -73.157  1.00  0.00    -0.389 OA
ATOM     17  H1  UNL     1     -71.458 -45.076 -73.297  1.00  0.00     0.210 HD
ENDBRANCH  14  16
BRANCH  14  18
HETATM   18  C10 UNL     1     -70.370 -46.981 -73.390  1.00  0.00    -0.020 C 
HETATM   19  C11 UNL     1     -69.902 -45.562 -73.605  1.00  0.00     0.017 C 
HETATM   20  C12 UNL     1     -70.196 -47.727 -74.677  1.00  0.00     0.017 C 
HETATM   21  C13 UNL     1     -69.619 -47.675 -72.289  1.00  0.00     0.017 C 
ENDBRANCH  14  18
ENDBRANCH  13  14
ENDBRANCH  12  13
ENDBRANCH   3  11
BRANCH   1  22
HETATM   22  C2  UNL     1     -70.561 -53.685 -70.191  1.00  0.00     0.125 C 
HETATM   23  C1  UNL     1     -69.721 -52.496 -69.753  1.00  0.00     0.027 C 
ENDBRANCH   1  22
TORSDOF 6
ENDMDL
