MODEL 1
REMARK VINA RESULT: -8.850663023      0.000      0.000
REMARK  11 active torsions:
REMARK  status: ('A' for Active; 'I' for Inactive)
REMARK    1  A    between atoms: C2_2  and  C5_5 
REMARK    2  A    between atoms: C5_5  and  C6_6 
REMARK    3  A    between atoms: N1_8  and  C8_9 
REMARK    4  A    between atoms: C9_12  and  N3_13 
REMARK    5  A    between atoms: N3_13  and  O1_15 
REMARK    6  A    between atoms: O1_15  and  C10_16 
REMARK    7  A    between atoms: C10_16  and  C11_17 
REMARK    8  A    between atoms: C11_17  and  O2_18 
REMARK    9  A    between atoms: O2_18  and  N4_19 
REMARK   10  A    between atoms: C12_24  and  N6_25 
REMARK   11  A    between atoms: N6_25  and  O3_27 
ROOT
HETATM    1  C8  UNL     1      15.134 -47.978   9.201  1.00  0.00     0.721 A 
HETATM    2  N2  UNL     1      15.462 -49.115   9.842  1.00  0.00    -0.019 N 
ATOM      3  H2  UNL     1      15.513 -49.989   9.319  1.00  0.00     0.203 HD
HETATM    4  C9  UNL     1      15.723 -49.118  11.162  1.00  0.00     0.731 A 
HETATM    5  N5  UNL     1      15.669 -47.991  11.895  1.00  0.00    -0.018 N 
ATOM      6  H5  UNL     1      15.869 -48.003  12.896  1.00  0.00     0.203 HD
HETATM    7  C12 UNL     1      15.343 -46.848  11.266  1.00  0.00     0.731 A 
HETATM    8  N7  UNL     1      15.084 -46.854   9.947  1.00  0.00    -0.019 N 
ATOM      9  H7  UNL     1      14.839 -45.975   9.492  1.00  0.00     0.203 HD
ENDROOT
BRANCH   1  10
HETATM   10  N1  UNL     1      14.851 -47.937   7.803  1.00  0.00    -0.105 N 
HETATM   11  C7  UNL     1      15.385 -47.048   6.981  1.00  0.00     0.137 A 
HETATM   12  C6  UNL     1      15.112 -46.995   5.585  1.00  0.00     0.046 A 
HETATM   13  C14 UNL     1      14.254 -47.918   5.086  1.00  0.00     0.260 A 
HETATM   14  N8  UNL     1      13.713 -48.829   5.957  1.00  0.00    -0.274 N 
HETATM   15  O5  UNL     1      13.887 -48.035   3.885  1.00  0.00    -0.267 OA
HETATM   16  C13 UNL     1      14.006 -48.832   7.262  1.00  0.00     0.347 A 
ATOM     17  H8  UNL     1      13.064 -49.529   5.597  1.00  0.00     0.173 HD
HETATM   18  O4  UNL     1      13.496 -49.686   8.064  1.00  0.00    -0.245 OA
BRANCH  12  19
HETATM   19  C5  UNL     1      15.792 -45.951   4.846  1.00  0.00     0.000 C 
BRANCH  19  20
HETATM   20  C2  UNL     1      15.288 -44.589   4.699  1.00  0.00    -0.033 C 
HETATM   21  C1  UNL     1      16.492 -43.790   4.042  1.00  0.00     0.018 C 
HETATM   22  C3  UNL     1      15.058 -43.812   5.975  1.00  0.00     0.018 C 
HETATM   23  C4  UNL     1      14.178 -44.370   3.710  1.00  0.00     0.018 C 
ENDBRANCH  19  20
ENDBRANCH  12  19
ENDBRANCH   1  10
BRANCH   4  24
HETATM   24  N3  UNL     1      16.039 -50.214  11.788  1.00  0.00    -0.095 N 
ATOM     25  H3  UNL     1      16.280 -50.164  12.778  1.00  0.00     0.213 HD
BRANCH  24  26
HETATM   26  O1  UNL     1      16.059 -51.431  11.162  1.00  0.00    -0.264 OA
BRANCH  26  27
HETATM   27  C10 UNL     1      17.058 -52.402  11.439  1.00  0.00     0.230 C 
BRANCH  27  28
HETATM   28  C11 UNL     1      16.386 -53.676  11.911  1.00  0.00     0.229 C 
BRANCH  28  29
HETATM   29  O2  UNL     1      17.386 -54.645  12.014  1.00  0.00    -0.285 OA
BRANCH  29  30
HETATM   30  N4  UNL     1      17.960 -54.905  10.823  1.00  0.00    -0.311 N 
ATOM     31  H42 UNL     1      17.430 -55.011   9.959  1.00  0.00     0.184 HD
ATOM     32  H41 UNL     1      18.975 -54.981  10.898  1.00  0.00     0.184 HD
ENDBRANCH  29  30
ENDBRANCH  28  29
ENDBRANCH  27  28
ENDBRANCH  26  27
ENDBRANCH  24  26
ENDBRANCH   4  24
BRANCH   7  33
HETATM   33  N6  UNL     1      15.287 -45.744  11.964  1.00  0.00    -0.098 N 
ATOM     34  H6  UNL     1      15.216 -44.846  11.487  1.00  0.00     0.213 HD
BRANCH  33  35
HETATM   35  O3  UNL     1      15.324 -45.789  13.333  1.00  0.00    -0.276 OA
ATOM     36  H3  UNL     1      15.210 -44.995  13.842  1.00  0.00     0.245 HD
ENDBRANCH  33  35
ENDBRANCH   7  33
TORSDOF 11
ENDMDL
MODEL 2
REMARK VINA RESULT: -8.315948947      1.219      1.500
REMARK  11 active torsions:
REMARK  status: ('A' for Active; 'I' for Inactive)
REMARK    1  A    between atoms: C2_2  and  C5_5 
REMARK    2  A    between atoms: C5_5  and  C6_6 
REMARK    3  A    between atoms: N1_8  and  C8_9 
REMARK    4  A    between atoms: C9_12  and  N3_13 
REMARK    5  A    between atoms: N3_13  and  O1_15 
REMARK    6  A    between atoms: O1_15  and  C10_16 
REMARK    7  A    between atoms: C10_16  and  C11_17 
REMARK    8  A    between atoms: C11_17  and  O2_18 
REMARK    9  A    between atoms: O2_18  and  N4_19 
REMARK   10  A    between atoms: C12_24  and  N6_25 
REMARK   11  A    between atoms: N6_25  and  O3_27 
ROOT
HETATM    1  C8  UNL     1      15.220 -48.168   9.593  1.00  0.00     0.721 A 
HETATM    2  N2  UNL     1      15.607 -49.453   9.698  1.00  0.00    -0.019 N 
ATOM      3  H2  UNL     1      15.588 -50.051   8.873  1.00  0.00     0.203 HD
HETATM    4  C9  UNL     1      16.019 -49.960  10.875  1.00  0.00     0.731 A 
HETATM    5  N5  UNL     1      16.062 -49.210  11.991  1.00  0.00    -0.018 N 
ATOM      6  H5  UNL     1      16.376 -49.603  12.879  1.00  0.00     0.203 HD
HETATM    7  C12 UNL     1      15.678 -47.925  11.899  1.00  0.00     0.731 A 
HETATM    8  N7  UNL     1      15.268 -47.426  10.719  1.00  0.00    -0.019 N 
ATOM      9  H7  UNL     1      14.982 -46.448  10.674  1.00  0.00     0.203 HD
ENDROOT
BRANCH   1  10
HETATM   10  N1  UNL     1      14.779 -47.597   8.362  1.00  0.00    -0.105 N 
HETATM   11  C7  UNL     1      15.144 -46.394   7.949  1.00  0.00     0.137 A 
HETATM   12  C6  UNL     1      14.712 -45.810   6.725  1.00  0.00     0.046 A 
HETATM   13  C14 UNL     1      13.878 -46.545   5.950  1.00  0.00     0.260 A 
HETATM   14  N8  UNL     1      13.512 -47.789   6.399  1.00  0.00    -0.274 N 
HETATM   15  O5  UNL     1      13.388 -46.206   4.838  1.00  0.00    -0.267 OA
HETATM   16  C13 UNL     1      13.950 -48.288   7.560  1.00  0.00     0.347 A 
ATOM     17  H8  UNL     1      12.884 -48.354   5.826  1.00  0.00     0.173 HD
HETATM   18  O4  UNL     1      13.603 -49.447   7.967  1.00  0.00    -0.245 OA
BRANCH  12  19
HETATM   19  C5  UNL     1      15.219 -44.484   6.442  1.00  0.00     0.000 C 
BRANCH  19  20
HETATM   20  C2  UNL     1      16.106 -44.165   5.327  1.00  0.00    -0.033 C 
HETATM   21  C1  UNL     1      17.003 -42.969   5.863  1.00  0.00     0.018 C 
HETATM   22  C3  UNL     1      15.464 -43.550   4.105  1.00  0.00     0.018 C 
HETATM   23  C4  UNL     1      17.135 -45.195   4.952  1.00  0.00     0.018 C 
ENDBRANCH  19  20
ENDBRANCH  12  19
ENDBRANCH   1  10
BRANCH   4  24
HETATM   24  N3  UNL     1      16.394 -51.201  10.984  1.00  0.00    -0.095 N 
ATOM     25  H3  UNL     1      17.249 -51.502  10.516  1.00  0.00     0.213 HD
BRANCH  24  26
HETATM   26  O1  UNL     1      15.678 -52.117  11.708  1.00  0.00    -0.264 OA
BRANCH  26  27
HETATM   27  C10 UNL     1      16.020 -53.496  11.722  1.00  0.00     0.230 C 
BRANCH  27  28
HETATM   28  C11 UNL     1      17.531 -53.625  11.736  1.00  0.00     0.229 C 
BRANCH  28  29
HETATM   29  O2  UNL     1      17.856 -54.428  12.831  1.00  0.00    -0.285 OA
BRANCH  29  30
HETATM   30  N4  UNL     1      17.066 -55.517  12.911  1.00  0.00    -0.311 N 
ATOM     31  H42 UNL     1      16.058 -55.466  13.059  1.00  0.00     0.184 HD
ATOM     32  H41 UNL     1      17.597 -56.381  12.806  1.00  0.00     0.184 HD
ENDBRANCH  29  30
ENDBRANCH  28  29
ENDBRANCH  27  28
ENDBRANCH  26  27
ENDBRANCH  24  26
ENDBRANCH   4  24
BRANCH   7  33
HETATM   33  N6  UNL     1      15.714 -47.182  12.974  1.00  0.00    -0.098 N 
ATOM     34  H6  UNL     1      16.065 -47.572  13.848  1.00  0.00     0.213 HD
BRANCH  33  35
HETATM   35  O3  UNL     1      15.283 -45.882  12.932  1.00  0.00    -0.276 OA
ATOM     36  H3  UNL     1      15.402 -45.313  13.683  1.00  0.00     0.245 HD
ENDBRANCH  33  35
ENDBRANCH   7  33
TORSDOF 11
ENDMDL
MODEL 3
REMARK VINA RESULT: -6.824860483      2.180      3.155
REMARK  11 active torsions:
REMARK  status: ('A' for Active; 'I' for Inactive)
REMARK    1  A    between atoms: C2_2  and  C5_5 
REMARK    2  A    between atoms: C5_5  and  C6_6 
REMARK    3  A    between atoms: N1_8  and  C8_9 
REMARK    4  A    between atoms: C9_12  and  N3_13 
REMARK    5  A    between atoms: N3_13  and  O1_15 
REMARK    6  A    between atoms: O1_15  and  C10_16 
REMARK    7  A    between atoms: C10_16  and  C11_17 
REMARK    8  A    between atoms: C11_17  and  O2_18 
REMARK    9  A    between atoms: O2_18  and  N4_19 
REMARK   10  A    between atoms: C12_24  and  N6_25 
REMARK   11  A    between atoms: N6_25  and  O3_27 
ROOT
HETATM    1  C8  UNL     1      15.167 -46.482   8.171  1.00  0.00     0.721 A 
HETATM    2  N2  UNL     1      15.262 -47.821   8.257  1.00  0.00    -0.019 N 
ATOM      3  H2  UNL     1      15.295 -48.378   7.404  1.00  0.00     0.203 HD
HETATM    4  C9  UNL     1      15.314 -48.439   9.452  1.00  0.00     0.731 A 
HETATM    5  N5  UNL     1      15.274 -47.749  10.607  1.00  0.00    -0.018 N 
ATOM      6  H5  UNL     1      15.314 -48.226  11.508  1.00  0.00     0.203 HD
HETATM    7  C12 UNL     1      15.179 -46.409  10.533  1.00  0.00     0.731 A 
HETATM    8  N7  UNL     1      15.128 -45.800   9.336  1.00  0.00    -0.019 N 
ATOM      9  H7  UNL     1      15.057 -44.784   9.306  1.00  0.00     0.203 HD
ENDROOT
BRANCH   1  10
HETATM   10  N1  UNL     1      15.110 -45.794   6.923  1.00  0.00    -0.105 N 
HETATM   11  C7  UNL     1      14.866 -46.399   5.772  1.00  0.00     0.137 A 
HETATM   12  C6  UNL     1      14.806 -45.726   4.519  1.00  0.00     0.046 A 
HETATM   13  C14 UNL     1      15.015 -44.387   4.525  1.00  0.00     0.260 A 
HETATM   14  N8  UNL     1      15.267 -43.781   5.730  1.00  0.00    -0.274 N 
HETATM   15  O5  UNL     1      15.004 -43.619   3.525  1.00  0.00    -0.267 OA
HETATM   16  C13 UNL     1      15.311 -44.464   6.879  1.00  0.00     0.347 A 
ATOM     17  H8  UNL     1      15.427 -42.774   5.750  1.00  0.00     0.173 HD
HETATM   18  O4  UNL     1      15.546 -43.890   7.994  1.00  0.00    -0.245 OA
BRANCH  12  19
HETATM   19  C5  UNL     1      14.525 -46.557   3.367  1.00  0.00     0.000 C 
BRANCH  19  20
HETATM   20  C2  UNL     1      14.506 -48.016   3.393  1.00  0.00    -0.033 C 
HETATM   21  C1  UNL     1      14.805 -48.445   1.893  1.00  0.00     0.018 C 
HETATM   22  C3  UNL     1      13.166 -48.671   3.642  1.00  0.00     0.018 C 
HETATM   23  C4  UNL     1      15.607 -48.705   4.150  1.00  0.00     0.018 C 
ENDBRANCH  19  20
ENDBRANCH  12  19
ENDBRANCH   1  10
BRANCH   4  24
HETATM   24  N3  UNL     1      15.404 -49.734   9.543  1.00  0.00    -0.095 N 
ATOM     25  H3  UNL     1      14.845 -50.312   8.916  1.00  0.00     0.213 HD
BRANCH  24  26
HETATM   26  O1  UNL     1      16.226 -50.345  10.452  1.00  0.00    -0.264 OA
BRANCH  26  27
HETATM   27  C10 UNL     1      15.743 -51.326  11.359  1.00  0.00     0.230 C 
BRANCH  27  28
HETATM   28  C11 UNL     1      16.832 -52.354  11.594  1.00  0.00     0.229 C 
BRANCH  28  29
HETATM   29  O2  UNL     1      16.192 -53.562  11.876  1.00  0.00    -0.285 OA
BRANCH  29  30
HETATM   30  N4  UNL     1      16.889 -54.308  12.756  1.00  0.00    -0.311 N 
ATOM     31  H42 UNL     1      17.446 -53.907  13.510  1.00  0.00     0.184 HD
ATOM     32  H41 UNL     1      16.788 -55.307  12.573  1.00  0.00     0.184 HD
ENDBRANCH  29  30
ENDBRANCH  28  29
ENDBRANCH  27  28
ENDBRANCH  26  27
ENDBRANCH  24  26
ENDBRANCH   4  24
BRANCH   7  33
HETATM   33  N6  UNL     1      15.140 -45.724  11.646  1.00  0.00    -0.098 N 
ATOM     34  H6  UNL     1      14.520 -44.918  11.724  1.00  0.00     0.213 HD
BRANCH  33  35
HETATM   35  O3  UNL     1      15.927 -46.083  12.708  1.00  0.00    -0.276 OA
ATOM     36  H3  UNL     1      16.645 -46.694  12.588  1.00  0.00     0.245 HD
ENDBRANCH  33  35
ENDBRANCH   7  33
TORSDOF 11
ENDMDL
MODEL 4
REMARK VINA RESULT: -6.624269622      2.600      4.913
REMARK  11 active torsions:
REMARK  status: ('A' for Active; 'I' for Inactive)
REMARK    1  A    between atoms: C2_2  and  C5_5 
REMARK    2  A    between atoms: C5_5  and  C6_6 
REMARK    3  A    between atoms: N1_8  and  C8_9 
REMARK    4  A    between atoms: C9_12  and  N3_13 
REMARK    5  A    between atoms: N3_13  and  O1_15 
REMARK    6  A    between atoms: O1_15  and  C10_16 
REMARK    7  A    between atoms: C10_16  and  C11_17 
REMARK    8  A    between atoms: C11_17  and  O2_18 
REMARK    9  A    between atoms: O2_18  and  N4_19 
REMARK   10  A    between atoms: C12_24  and  N6_25 
REMARK   11  A    between atoms: N6_25  and  O3_27 
ROOT
HETATM    1  C8  UNL     1      14.534 -46.765   6.539  1.00  0.00     0.721 A 
HETATM    2  N2  UNL     1      15.133 -46.865   7.740  1.00  0.00    -0.019 N 
ATOM      3  H2  UNL     1      15.821 -46.165   8.017  1.00  0.00     0.203 HD
HETATM    4  C9  UNL     1      14.839 -47.873   8.581  1.00  0.00     0.731 A 
HETATM    5  N5  UNL     1      13.938 -48.820   8.261  1.00  0.00    -0.018 N 
ATOM      6  H5  UNL     1      13.722 -49.581   8.905  1.00  0.00     0.203 HD
HETATM    7  C12 UNL     1      13.333 -48.731   7.063  1.00  0.00     0.731 A 
HETATM    8  N7  UNL     1      13.633 -47.720   6.229  1.00  0.00    -0.019 N 
ATOM      9  H7  UNL     1      13.160 -47.673   5.326  1.00  0.00     0.203 HD
ENDROOT
BRANCH   1  10
HETATM   10  N1  UNL     1      14.821 -45.709   5.622  1.00  0.00    -0.105 N 
HETATM   11  C7  UNL     1      16.031 -45.199   5.460  1.00  0.00     0.137 A 
HETATM   12  C6  UNL     1      16.333 -44.146   4.550  1.00  0.00     0.046 A 
HETATM   13  C14 UNL     1      15.308 -43.651   3.815  1.00  0.00     0.260 A 
HETATM   14  N8  UNL     1      14.062 -44.196   4.000  1.00  0.00    -0.274 N 
HETATM   15  O5  UNL     1      15.371 -42.724   2.962  1.00  0.00    -0.267 OA
HETATM   16  C13 UNL     1      13.836 -45.186   4.871  1.00  0.00     0.347 A 
ATOM     17  H8  UNL     1      13.280 -43.833   3.455  1.00  0.00     0.173 HD
HETATM   18  O4  UNL     1      12.672 -45.685   5.035  1.00  0.00    -0.245 OA
BRANCH  12  19
HETATM   19  C5  UNL     1      17.716 -43.720   4.511  1.00  0.00     0.000 C 
BRANCH  19  20
HETATM   20  C2  UNL     1      18.318 -42.800   5.471  1.00  0.00    -0.033 C 
HETATM   21  C1  UNL     1      17.230 -42.655   6.619  1.00  0.00     0.018 C 
HETATM   22  C3  UNL     1      18.490 -41.368   5.021  1.00  0.00     0.018 C 
HETATM   23  C4  UNL     1      19.521 -43.289   6.229  1.00  0.00     0.018 C 
ENDBRANCH  19  20
ENDBRANCH  12  19
ENDBRANCH   1  10
BRANCH   4  24
HETATM   24  N3  UNL     1      15.415 -47.977   9.743  1.00  0.00    -0.095 N 
ATOM     25  H3  UNL     1      15.820 -47.143  10.169  1.00  0.00     0.213 HD
BRANCH  24  26
HETATM   26  O1  UNL     1      15.495 -49.168  10.413  1.00  0.00    -0.264 OA
BRANCH  26  27
HETATM   27  C10 UNL     1      15.758 -49.229  11.808  1.00  0.00     0.230 C 
BRANCH  27  28
HETATM   28  C11 UNL     1      16.169 -47.852  12.289  1.00  0.00     0.229 C 
BRANCH  28  29
HETATM   29  O2  UNL     1      15.020 -47.241  12.792  1.00  0.00    -0.285 OA
BRANCH  29  30
HETATM   30  N4  UNL     1      15.261 -45.985  13.217  1.00  0.00    -0.311 N 
ATOM     31  H42 UNL     1      16.107 -45.468  12.980  1.00  0.00     0.184 HD
ATOM     32  H41 UNL     1      14.501 -45.625  13.795  1.00  0.00     0.184 HD
ENDBRANCH  29  30
ENDBRANCH  28  29
ENDBRANCH  27  28
ENDBRANCH  26  27
ENDBRANCH  24  26
ENDBRANCH   4  24
BRANCH   7  33
HETATM   33  N6  UNL     1      12.455 -49.643   6.737  1.00  0.00    -0.098 N 
ATOM     34  H6  UNL     1      12.117 -49.702   5.777  1.00  0.00     0.213 HD
BRANCH  33  35
HETATM   35  O3  UNL     1      11.986 -50.520   7.679  1.00  0.00    -0.276 OA
ATOM     36  H3  UNL     1      11.247 -50.285   8.228  1.00  0.00     0.245 HD
ENDBRANCH  33  35
ENDBRANCH   7  33
TORSDOF 11
ENDMDL
MODEL 5
REMARK VINA RESULT: -6.543339250      2.572      4.350
REMARK  11 active torsions:
REMARK  status: ('A' for Active; 'I' for Inactive)
REMARK    1  A    between atoms: C2_2  and  C5_5 
REMARK    2  A    between atoms: C5_5  and  C6_6 
REMARK    3  A    between atoms: N1_8  and  C8_9 
REMARK    4  A    between atoms: C9_12  and  N3_13 
REMARK    5  A    between atoms: N3_13  and  O1_15 
REMARK    6  A    between atoms: O1_15  and  C10_16 
REMARK    7  A    between atoms: C10_16  and  C11_17 
REMARK    8  A    between atoms: C11_17  and  O2_18 
REMARK    9  A    between atoms: O2_18  and  N4_19 
REMARK   10  A    between atoms: C12_24  and  N6_25 
REMARK   11  A    between atoms: N6_25  and  O3_27 
ROOT
HETATM    1  C8  UNL     1      15.037 -46.401   7.099  1.00  0.00     0.721 A 
HETATM    2  N2  UNL     1      14.798 -45.961   8.348  1.00  0.00    -0.019 N 
ATOM      3  H2  UNL     1      14.570 -44.979   8.500  1.00  0.00     0.203 HD
HETATM    4  C9  UNL     1      14.854 -46.798   9.401  1.00  0.00     0.731 A 
HETATM    5  N5  UNL     1      15.150 -48.102   9.253  1.00  0.00    -0.018 N 
ATOM      6  H5  UNL     1      15.190 -48.728  10.058  1.00  0.00     0.203 HD
HETATM    7  C12 UNL     1      15.391 -48.553   8.009  1.00  0.00     0.731 A 
HETATM    8  N7  UNL     1      15.332 -47.711   6.962  1.00  0.00    -0.019 N 
ATOM      9  H7  UNL     1      15.518 -48.076   6.029  1.00  0.00     0.203 HD
ENDROOT
BRANCH   1  10
HETATM   10  N1  UNL     1      14.986 -45.544   5.959  1.00  0.00    -0.105 N 
HETATM   11  C7  UNL     1      15.965 -44.717   5.629  1.00  0.00     0.137 A 
HETATM   12  C6  UNL     1      15.928 -43.856   4.496  1.00  0.00     0.046 A 
HETATM   13  C14 UNL     1      14.817 -43.899   3.722  1.00  0.00     0.260 A 
HETATM   14  N8  UNL     1      13.814 -44.763   4.084  1.00  0.00    -0.274 N 
HETATM   15  O5  UNL     1      14.595 -43.219   2.683  1.00  0.00    -0.267 OA
HETATM   16  C13 UNL     1      13.903 -45.551   5.161  1.00  0.00     0.347 A 
ATOM     17  H8  UNL     1      12.971 -44.806   3.511  1.00  0.00     0.173 HD
HETATM   18  O4  UNL     1      12.963 -46.352   5.489  1.00  0.00    -0.245 OA
BRANCH  12  19
HETATM   19  C5  UNL     1      17.096 -43.023   4.295  1.00  0.00     0.000 C 
BRANCH  19  20
HETATM   20  C2  UNL     1      17.824 -42.359   5.371  1.00  0.00    -0.033 C 
HETATM   21  C1  UNL     1      19.118 -43.254   5.586  1.00  0.00     0.018 C 
HETATM   22  C3  UNL     1      17.189 -42.396   6.742  1.00  0.00     0.018 C 
HETATM   23  C4  UNL     1      18.414 -41.009   5.071  1.00  0.00     0.018 C 
ENDBRANCH  19  20
ENDBRANCH  12  19
ENDBRANCH   1  10
BRANCH   4  24
HETATM   24  N3  UNL     1      14.625 -46.380  10.612  1.00  0.00    -0.095 N 
ATOM     25  H3  UNL     1      13.667 -46.166  10.887  1.00  0.00     0.213 HD
BRANCH  24  26
HETATM   26  O1  UNL     1      15.629 -46.218  11.529  1.00  0.00    -0.264 OA
BRANCH  26  27
HETATM   27  C10 UNL     1      15.646 -46.930  12.758  1.00  0.00     0.230 C 
BRANCH  27  28
HETATM   28  C11 UNL     1      16.322 -48.269  12.538  1.00  0.00     0.229 C 
BRANCH  28  29
HETATM   29  O2  UNL     1      15.342 -49.143  12.063  1.00  0.00    -0.285 OA
BRANCH  29  30
HETATM   30  N4  UNL     1      15.870 -50.302  11.623  1.00  0.00    -0.311 N 
ATOM     31  H42 UNL     1      16.215 -51.031  12.247  1.00  0.00     0.184 HD
ATOM     32  H41 UNL     1      15.879 -50.355  10.604  1.00  0.00     0.184 HD
ENDBRANCH  29  30
ENDBRANCH  28  29
ENDBRANCH  27  28
ENDBRANCH  26  27
ENDBRANCH  24  26
ENDBRANCH   4  24
BRANCH   7  33
HETATM   33  N6  UNL     1      15.679 -49.818   7.848  1.00  0.00    -0.098 N 
ATOM     34  H6  UNL     1      14.929 -50.501   7.749  1.00  0.00     0.213 HD
BRANCH  33  35
HETATM   35  O3  UNL     1      16.985 -50.231   7.811  1.00  0.00    -0.276 OA
ATOM     36  H3  UNL     1      17.231 -51.076   8.167  1.00  0.00     0.245 HD
ENDBRANCH  33  35
ENDBRANCH   7  33
TORSDOF 11
ENDMDL
