MODEL 1
REMARK VINA RESULT: -9.925081696      0.000      0.000
REMARK  8 active torsions:
REMARK  status: ('A' for Active; 'I' for Inactive)
REMARK    1  A    between atoms: N2_7  and  C4_8 
REMARK    2  A    between atoms: C4_8  and  C5_9 
REMARK    3  A    between atoms: C5_9  and  N3_10 
REMARK    4  A    between atoms: N3_10  and  S1_12 
REMARK    5  A    between atoms: S1_12  and  N4_15 
REMARK       I    between atoms: N4_15  and  C6_17 
REMARK    6  A    between atoms: C6_17  and  C7_19 
REMARK    7  A    between atoms: C8_25  and  N7_26 
REMARK    8  A    between atoms: C9_29  and  N8_30 
ROOT
HETATM    1  S1  UNL     1      14.945 -47.240   4.555  1.00  0.00     0.321 S 
HETATM    2  O2  UNL     1      14.946 -47.430   3.057  1.00  0.00    -0.182 OA
HETATM    3  O3  UNL     1      13.582 -46.640   4.876  1.00  0.00    -0.182 OA
ENDROOT
BRANCH   1   4
HETATM    4  N3  UNL     1      15.195 -48.714   5.372  1.00  0.00    -0.301 N 
ATOM      5  H3  UNL     1      14.968 -49.641   5.013  1.00  0.00     0.173 HD
BRANCH   4   6
HETATM    6  C5  UNL     1      15.784 -48.426   6.666  1.00  0.00     0.154 C 
BRANCH   6   7
HETATM    7  C4  UNL     1      14.870 -48.846   7.794  1.00  0.00     0.156 C 
BRANCH   7   8
HETATM    8  N2  UNL     1      15.011 -47.899   8.870  1.00  0.00    -0.277 N 
HETATM    9  C3  UNL     1      14.846 -46.547   8.763  1.00  0.00     0.328 A 
HETATM   10  N1  UNL     1      15.082 -45.968   9.949  1.00  0.00    -0.309 N 
HETATM   11  O1  UNL     1      14.524 -45.969   7.710  1.00  0.00    -0.246 OA
HETATM   12  C2  UNL     1      15.400 -46.922  10.838  1.00  0.00     0.060 A 
ATOM     13  H1  UNL     1      15.029 -44.968  10.144  1.00  0.00     0.170 HD
HETATM   14  C1  UNL     1      15.763 -46.744  12.281  1.00  0.00     0.072 C 
HETATM   15  C9  UNL     1      15.349 -48.117  10.144  1.00  0.00     0.202 A 
BRANCH  15  16
HETATM   16  N8  UNL     1      15.632 -49.382  10.752  1.00  0.00    -0.096 N 
HETATM   17  O6  UNL     1      16.281 -50.279  10.129  1.00  0.00    -0.530 OA
HETATM   18  O7  UNL     1      15.247 -49.745  12.010  1.00  0.00    -0.530 OA
ENDBRANCH  15  16
ENDBRANCH   7   8
ENDBRANCH   6   7
ENDBRANCH   4   6
ENDBRANCH   1   4
BRANCH   1  19
HETATM   19  N4  UNL     1      16.162 -46.098   4.976  1.00  0.00    -0.232 N 
HETATM   20  C6  UNL     1      16.140 -44.780   4.406  1.00  0.00     0.288 C 
HETATM   21  O4  UNL     1      15.257 -44.427   3.614  1.00  0.00    -0.265 OA
ATOM     22  H4  UNL     1      16.899 -46.358   5.631  1.00  0.00     0.183 HD
BRANCH  20  23
HETATM   23  C7  UNL     1      17.196 -43.846   4.783  1.00  0.00     0.170 A 
HETATM   24  N5  UNL     1      18.336 -43.611   4.082  1.00  0.00    -0.232 N 
HETATM   25  O5  UNL     1      19.029 -42.722   4.725  1.00  0.00    -0.155 OA
ATOM     26  H5  UNL     1      18.602 -44.057   3.204  1.00  0.00     0.197 HD
HETATM   27  N6  UNL     1      18.437 -42.344   5.799  1.00  0.00    -0.224 N 
HETATM   28  C8  UNL     1      17.285 -43.017   5.884  1.00  0.00     0.155 A 
ATOM     29  H6  UNL     1      18.783 -41.656   6.467  1.00  0.00     0.198 HD
BRANCH  28  30
HETATM   30  N7  UNL     1      16.437 -42.902   6.824  1.00  0.00    -0.382 N 
ATOM     31  H72 UNL     1      15.671 -43.550   7.007  1.00  0.00     0.157 HD
ATOM     32  H71 UNL     1      16.391 -42.159   7.521  1.00  0.00     0.157 HD
ENDBRANCH  28  30
ENDBRANCH  20  23
ENDBRANCH   1  19
TORSDOF 8
ENDMDL
MODEL 2
REMARK VINA RESULT: -9.794232733      1.662      2.153
REMARK  8 active torsions:
REMARK  status: ('A' for Active; 'I' for Inactive)
REMARK    1  A    between atoms: N2_7  and  C4_8 
REMARK    2  A    between atoms: C4_8  and  C5_9 
REMARK    3  A    between atoms: C5_9  and  N3_10 
REMARK    4  A    between atoms: N3_10  and  S1_12 
REMARK    5  A    between atoms: S1_12  and  N4_15 
REMARK       I    between atoms: N4_15  and  C6_17 
REMARK    6  A    between atoms: C6_17  and  C7_19 
REMARK    7  A    between atoms: C8_25  and  N7_26 
REMARK    8  A    between atoms: C9_29  and  N8_30 
ROOT
HETATM    1  S1  UNL     1      15.185 -46.949   5.118  1.00  0.00     0.321 S 
HETATM    2  O2  UNL     1      15.704 -48.346   4.874  1.00  0.00    -0.182 OA
HETATM    3  O3  UNL     1      14.251 -46.666   3.948  1.00  0.00    -0.182 OA
ENDROOT
BRANCH   1   4
HETATM    4  N3  UNL     1      14.377 -46.835   6.614  1.00  0.00    -0.301 N 
ATOM      5  H3  UNL     1      13.378 -46.970   6.764  1.00  0.00     0.173 HD
BRANCH   4   6
HETATM    6  C5  UNL     1      15.353 -46.514   7.637  1.00  0.00     0.154 C 
BRANCH   6   7
HETATM    7  C4  UNL     1      14.685 -46.189   8.954  1.00  0.00     0.156 C 
BRANCH   7   8
HETATM    8  N2  UNL     1      15.078 -47.182   9.921  1.00  0.00    -0.277 N 
HETATM    9  C3  UNL     1      15.395 -46.935  11.227  1.00  0.00     0.328 A 
HETATM   10  N1  UNL     1      15.744 -48.079  11.831  1.00  0.00    -0.309 N 
HETATM   11  O1  UNL     1      15.355 -45.806  11.748  1.00  0.00    -0.246 OA
HETATM   12  C2  UNL     1      15.661 -49.079  10.940  1.00  0.00     0.060 A 
ATOM     13  H1  UNL     1      16.026 -48.175  12.807  1.00  0.00     0.170 HD
HETATM   14  C1  UNL     1      15.976 -50.528  11.158  1.00  0.00     0.072 C 
HETATM   15  C9  UNL     1      15.244 -48.497   9.757  1.00  0.00     0.202 A 
BRANCH  15  16
HETATM   16  N8  UNL     1      15.038 -49.244   8.553  1.00  0.00    -0.096 N 
HETATM   17  O6  UNL     1      16.020 -49.701   7.889  1.00  0.00    -0.530 OA
HETATM   18  O7  UNL     1      13.819 -49.526   8.010  1.00  0.00    -0.530 OA
ENDBRANCH  15  16
ENDBRANCH   7   8
ENDBRANCH   6   7
ENDBRANCH   4   6
ENDBRANCH   1   4
BRANCH   1  19
HETATM   19  N4  UNL     1      16.501 -45.843   5.052  1.00  0.00    -0.232 N 
HETATM   20  C6  UNL     1      16.272 -44.440   5.260  1.00  0.00     0.288 C 
HETATM   21  O4  UNL     1      15.144 -43.992   5.496  1.00  0.00    -0.265 OA
ATOM     22  H4  UNL     1      17.444 -46.183   4.865  1.00  0.00     0.183 HD
BRANCH  20  23
HETATM   23  C7  UNL     1      17.416 -43.535   5.187  1.00  0.00     0.170 A 
HETATM   24  N5  UNL     1      18.346 -43.510   4.196  1.00  0.00    -0.232 N 
HETATM   25  O5  UNL     1      19.203 -42.576   4.473  1.00  0.00    -0.155 OA
ATOM     26  H5  UNL     1      18.366 -44.119   3.378  1.00  0.00     0.197 HD
HETATM   27  N6  UNL     1      18.916 -41.977   5.570  1.00  0.00    -0.224 N 
HETATM   28  C8  UNL     1      17.805 -42.538   6.059  1.00  0.00     0.155 A 
ATOM     29  H6  UNL     1      19.439 -41.211   5.993  1.00  0.00     0.198 HD
BRANCH  28  30
HETATM   30  N7  UNL     1      17.228 -42.200   7.140  1.00  0.00    -0.382 N 
ATOM     31  H72 UNL     1      16.303 -42.513   7.434  1.00  0.00     0.157 HD
ATOM     32  H71 UNL     1      17.592 -41.577   7.861  1.00  0.00     0.157 HD
ENDBRANCH  28  30
ENDBRANCH  20  23
ENDBRANCH   1  19
TORSDOF 8
ENDMDL
MODEL 3
REMARK VINA RESULT: -9.764120246      0.796      1.254
REMARK  8 active torsions:
REMARK  status: ('A' for Active; 'I' for Inactive)
REMARK    1  A    between atoms: N2_7  and  C4_8 
REMARK    2  A    between atoms: C4_8  and  C5_9 
REMARK    3  A    between atoms: C5_9  and  N3_10 
REMARK    4  A    between atoms: N3_10  and  S1_12 
REMARK    5  A    between atoms: S1_12  and  N4_15 
REMARK       I    between atoms: N4_15  and  C6_17 
REMARK    6  A    between atoms: C6_17  and  C7_19 
REMARK    7  A    between atoms: C8_25  and  N7_26 
REMARK    8  A    between atoms: C9_29  and  N8_30 
ROOT
HETATM    1  S1  UNL     1      14.863 -47.289   4.772  1.00  0.00     0.321 S 
HETATM    2  O2  UNL     1      15.173 -47.299   3.294  1.00  0.00    -0.182 OA
HETATM    3  O3  UNL     1      13.385 -46.935   4.863  1.00  0.00    -0.182 OA
ENDROOT
BRANCH   1   4
HETATM    4  N3  UNL     1      15.198 -48.797   5.491  1.00  0.00    -0.301 N 
ATOM      5  H3  UNL     1      15.034 -49.710   5.067  1.00  0.00     0.173 HD
BRANCH   4   6
HETATM    6  C5  UNL     1      15.755 -48.562   6.809  1.00  0.00     0.154 C 
BRANCH   6   7
HETATM    7  C4  UNL     1      14.775 -48.940   7.897  1.00  0.00     0.156 C 
BRANCH   7   8
HETATM    8  N2  UNL     1      14.955 -48.036   9.005  1.00  0.00    -0.277 N 
HETATM    9  C3  UNL     1      14.764 -46.684   8.965  1.00  0.00     0.328 A 
HETATM   10  N1  UNL     1      15.051 -46.153  10.162  1.00  0.00    -0.309 N 
HETATM   11  O1  UNL     1      14.381 -46.068   7.955  1.00  0.00    -0.246 OA
HETATM   12  C2  UNL     1      15.428 -47.138  10.992  1.00  0.00     0.060 A 
ATOM     13  H1  UNL     1      14.992 -45.163  10.402  1.00  0.00     0.170 HD
HETATM   14  C1  UNL     1      15.860 -47.015  12.422  1.00  0.00     0.072 C 
HETATM   15  C9  UNL     1      15.360 -48.303  10.250  1.00  0.00     0.202 A 
BRANCH  15  16
HETATM   16  N8  UNL     1      15.693 -49.587  10.788  1.00  0.00    -0.096 N 
HETATM   17  O6  UNL     1      16.436 -50.394  10.147  1.00  0.00    -0.530 OA
HETATM   18  O7  UNL     1      15.262 -50.063  11.992  1.00  0.00    -0.530 OA
ENDBRANCH  15  16
ENDBRANCH   7   8
ENDBRANCH   6   7
ENDBRANCH   4   6
ENDBRANCH   1   4
BRANCH   1  19
HETATM   19  N4  UNL     1      15.776 -46.040   5.527  1.00  0.00    -0.232 N 
HETATM   20  C6  UNL     1      15.599 -44.674   5.121  1.00  0.00     0.288 C 
HETATM   21  O4  UNL     1      14.795 -44.356   4.236  1.00  0.00    -0.265 OA
ATOM     22  H4  UNL     1      16.443 -46.271   6.264  1.00  0.00     0.183 HD
BRANCH  20  23
HETATM   23  C7  UNL     1      16.400 -43.647   5.781  1.00  0.00     0.170 A 
HETATM   24  N5  UNL     1      16.106 -43.051   6.967  1.00  0.00    -0.232 N 
HETATM   25  O5  UNL     1      17.045 -42.196   7.232  1.00  0.00    -0.155 OA
ATOM     26  H5  UNL     1      15.289 -43.243   7.547  1.00  0.00     0.197 HD
HETATM   27  N6  UNL     1      17.943 -42.178   6.316  1.00  0.00    -0.224 N 
HETATM   28  C8  UNL     1      17.588 -43.068   5.383  1.00  0.00     0.155 A 
ATOM     29  H6  UNL     1      18.777 -41.591   6.301  1.00  0.00     0.198 HD
BRANCH  28  30
HETATM   30  N7  UNL     1      18.243 -43.318   4.322  1.00  0.00    -0.382 N 
ATOM     31  H72 UNL     1      18.594 -44.236   4.052  1.00  0.00     0.157 HD
ATOM     32  H71 UNL     1      18.512 -42.653   3.597  1.00  0.00     0.157 HD
ENDBRANCH  28  30
ENDBRANCH  20  23
ENDBRANCH   1  19
TORSDOF 8
ENDMDL
MODEL 4
REMARK VINA RESULT: -9.378835903      1.134      1.316
REMARK  8 active torsions:
REMARK  status: ('A' for Active; 'I' for Inactive)
REMARK    1  A    between atoms: N2_7  and  C4_8 
REMARK    2  A    between atoms: C4_8  and  C5_9 
REMARK    3  A    between atoms: C5_9  and  N3_10 
REMARK    4  A    between atoms: N3_10  and  S1_12 
REMARK    5  A    between atoms: S1_12  and  N4_15 
REMARK       I    between atoms: N4_15  and  C6_17 
REMARK    6  A    between atoms: C6_17  and  C7_19 
REMARK    7  A    between atoms: C8_25  and  N7_26 
REMARK    8  A    between atoms: C9_29  and  N8_30 
ROOT
HETATM    1  S1  UNL     1      14.936 -46.943   3.989  1.00  0.00     0.321 S 
HETATM    2  O2  UNL     1      15.378 -48.384   4.075  1.00  0.00    -0.182 OA
HETATM    3  O3  UNL     1      14.598 -46.721   2.521  1.00  0.00    -0.182 OA
ENDROOT
BRANCH   1   4
HETATM    4  N3  UNL     1      13.598 -46.640   4.999  1.00  0.00    -0.301 N 
ATOM      5  H3  UNL     1      12.916 -45.891   4.878  1.00  0.00     0.173 HD
BRANCH   4   6
HETATM    6  C5  UNL     1      13.592 -47.627   6.061  1.00  0.00     0.154 C 
BRANCH   6   7
HETATM    7  C4  UNL     1      14.981 -47.844   6.620  1.00  0.00     0.156 C 
BRANCH   7   8
HETATM    8  N2  UNL     1      15.045 -47.239   7.926  1.00  0.00    -0.277 N 
HETATM    9  C3  UNL     1      15.052 -45.897   8.179  1.00  0.00     0.328 A 
HETATM   10  N1  UNL     1      15.150 -45.687   9.499  1.00  0.00    -0.309 N 
HETATM   11  O1  UNL     1      14.975 -45.025   7.295  1.00  0.00    -0.246 OA
HETATM   12  C2  UNL     1      15.208 -46.875  10.121  1.00  0.00     0.060 A 
ATOM     13  H1  UNL     1      15.177 -44.775   9.956  1.00  0.00     0.170 HD
HETATM   14  C1  UNL     1      15.344 -47.133  11.591  1.00  0.00     0.072 C 
HETATM   15  C9  UNL     1      15.141 -47.828   9.121  1.00  0.00     0.202 A 
BRANCH  15  16
HETATM   16  N8  UNL     1      15.178 -49.235   9.384  1.00  0.00    -0.096 N 
HETATM   17  O6  UNL     1      14.331 -50.023   8.861  1.00  0.00    -0.530 OA
HETATM   18  O7  UNL     1      16.085 -49.851  10.196  1.00  0.00    -0.530 OA
ENDBRANCH  15  16
ENDBRANCH   7   8
ENDBRANCH   6   7
ENDBRANCH   4   6
ENDBRANCH   1   4
BRANCH   1  19
HETATM   19  N4  UNL     1      16.258 -45.925   4.411  1.00  0.00    -0.232 N 
HETATM   20  C6  UNL     1      16.100 -44.497   4.395  1.00  0.00     0.288 C 
HETATM   21  O4  UNL     1      15.026 -43.964   4.091  1.00  0.00    -0.265 OA
ATOM     22  H4  UNL     1      17.154 -46.335   4.671  1.00  0.00     0.183 HD
BRANCH  20  23
HETATM   23  C7  UNL     1      17.249 -43.671   4.751  1.00  0.00     0.170 A 
HETATM   24  N5  UNL     1      18.379 -43.520   4.010  1.00  0.00    -0.232 N 
HETATM   25  O5  UNL     1      19.172 -42.713   4.645  1.00  0.00    -0.155 OA
ATOM     26  H5  UNL     1      18.569 -43.965   3.112  1.00  0.00     0.197 HD
HETATM   27  N6  UNL     1      18.658 -42.313   5.750  1.00  0.00    -0.224 N 
HETATM   28  C8  UNL     1      17.454 -42.883   5.866  1.00  0.00     0.155 A 
ATOM     29  H6  UNL     1      19.089 -41.675   6.419  1.00  0.00     0.198 HD
BRANCH  28  30
HETATM   30  N7  UNL     1      16.656 -42.717   6.842  1.00  0.00    -0.382 N 
ATOM     31  H72 UNL     1      16.196 -41.838   7.081  1.00  0.00     0.157 HD
ATOM     32  H71 UNL     1      16.362 -43.419   7.520  1.00  0.00     0.157 HD
ENDBRANCH  28  30
ENDBRANCH  20  23
ENDBRANCH   1  19
TORSDOF 8
ENDMDL
MODEL 5
REMARK VINA RESULT: -9.353574387      1.173      2.604
REMARK  8 active torsions:
REMARK  status: ('A' for Active; 'I' for Inactive)
REMARK    1  A    between atoms: N2_7  and  C4_8 
REMARK    2  A    between atoms: C4_8  and  C5_9 
REMARK    3  A    between atoms: C5_9  and  N3_10 
REMARK    4  A    between atoms: N3_10  and  S1_12 
REMARK    5  A    between atoms: S1_12  and  N4_15 
REMARK       I    between atoms: N4_15  and  C6_17 
REMARK    6  A    between atoms: C6_17  and  C7_19 
REMARK    7  A    between atoms: C8_25  and  N7_26 
REMARK    8  A    between atoms: C9_29  and  N8_30 
ROOT
HETATM    1  S1  UNL     1      14.623 -47.468   5.164  1.00  0.00     0.321 S 
HETATM    2  O2  UNL     1      14.929 -47.589   3.690  1.00  0.00    -0.182 OA
HETATM    3  O3  UNL     1      13.155 -47.069   5.230  1.00  0.00    -0.182 OA
ENDROOT
BRANCH   1   4
HETATM    4  N3  UNL     1      14.917 -48.932   5.986  1.00  0.00    -0.301 N 
ATOM      5  H3  UNL     1      14.658 -49.863   5.658  1.00  0.00     0.173 HD
BRANCH   4   6
HETATM    6  C5  UNL     1      15.600 -48.630   7.229  1.00  0.00     0.154 C 
BRANCH   6   7
HETATM    7  C4  UNL     1      15.175 -49.571   8.334  1.00  0.00     0.156 C 
BRANCH   7   8
HETATM    8  N2  UNL     1      15.392 -48.916   9.598  1.00  0.00    -0.277 N 
HETATM    9  C3  UNL     1      15.813 -49.526  10.746  1.00  0.00     0.328 A 
HETATM   10  N1  UNL     1      15.879 -48.626  11.737  1.00  0.00    -0.309 N 
HETATM   11  O1  UNL     1      16.087 -50.736  10.826  1.00  0.00    -0.246 OA
HETATM   12  C2  UNL     1      15.507 -47.429  11.258  1.00  0.00     0.060 A 
ATOM     13  H1  UNL     1      16.165 -48.819  12.698  1.00  0.00     0.170 HD
HETATM   14  C1  UNL     1      15.406 -46.135  12.007  1.00  0.00     0.072 C 
HETATM   15  C9  UNL     1      15.209 -47.633   9.923  1.00  0.00     0.202 A 
BRANCH  15  16
HETATM   16  N8  UNL     1      14.765 -46.583   9.057  1.00  0.00    -0.096 N 
HETATM   17  O6  UNL     1      13.778 -46.751   8.275  1.00  0.00    -0.530 OA
HETATM   18  O7  UNL     1      15.335 -45.346   8.978  1.00  0.00    -0.530 OA
ENDBRANCH  15  16
ENDBRANCH   7   8
ENDBRANCH   6   7
ENDBRANCH   4   6
ENDBRANCH   1   4
BRANCH   1  19
HETATM   19  N4  UNL     1      15.571 -46.196   5.831  1.00  0.00    -0.232 N 
HETATM   20  C6  UNL     1      15.416 -44.853   5.345  1.00  0.00     0.288 C 
HETATM   21  O4  UNL     1      14.607 -44.572   4.453  1.00  0.00    -0.265 OA
ATOM     22  H4  UNL     1      16.242 -46.396   6.572  1.00  0.00     0.183 HD
BRANCH  20  23
HETATM   23  C7  UNL     1      16.247 -43.806   5.933  1.00  0.00     0.170 A 
HETATM   24  N5  UNL     1      15.978 -43.131   7.081  1.00  0.00    -0.232 N 
HETATM   25  O5  UNL     1      16.939 -42.282   7.283  1.00  0.00    -0.155 OA
ATOM     26  H5  UNL     1      15.163 -43.267   7.680  1.00  0.00     0.197 HD
HETATM   27  N6  UNL     1      17.827 -42.341   6.360  1.00  0.00    -0.224 N 
HETATM   28  C8  UNL     1      17.443 -43.279   5.488  1.00  0.00     0.155 A 
ATOM     29  H6  UNL     1      18.673 -41.775   6.301  1.00  0.00     0.198 HD
BRANCH  28  30
HETATM   30  N7  UNL     1      18.080 -43.610   4.439  1.00  0.00    -0.382 N 
ATOM     31  H72 UNL     1      17.668 -43.729   3.514  1.00  0.00     0.157 HD
ATOM     32  H71 UNL     1      19.079 -43.804   4.364  1.00  0.00     0.157 HD
ENDBRANCH  28  30
ENDBRANCH  20  23
ENDBRANCH   1  19
TORSDOF 8
ENDMDL
