MODEL 1
REMARK VINA RESULT: -8.870178383      0.000      0.000
REMARK  5 active torsions:
REMARK  status: ('A' for Active; 'I' for Inactive)
REMARK    1  A    between atoms: C11_13  and  N2_14 
REMARK    2  A    between atoms: C12_16  and  C13_17 
REMARK    3  A    between atoms: C13_17  and  S1_18 
REMARK    4  A    between atoms: S1_18  and  C14_19 
REMARK    5  A    between atoms: N3_25  and  N4_26 
REMARK       I    between atoms: N4_26  and  C17_28 
REMARK       I    between atoms: C17_28  and  N5_30 
ROOT
HETATM    1  C1  UNL     1       0.678 -12.917  -4.793  1.00  0.00     0.010 C 
HETATM    2  C2  UNL     1       0.456 -11.731  -5.739  1.00  0.00    -0.018 C 
HETATM    3  C3  UNL     1      -0.189 -10.630  -4.907  1.00  0.00     0.008 C 
HETATM    4  C4  UNL     1       0.928 -10.114  -3.991  1.00  0.00     0.056 C 
HETATM    5  C5  UNL     1       1.716  -9.125  -4.827  1.00  0.00     0.126 C 
HETATM    6  C6  UNL     1       1.859  -9.690  -6.198  1.00  0.00     0.056 C 
HETATM    7  C7  UNL     1       1.788 -11.215  -6.206  1.00  0.00     0.008 C 
HETATM    8  N1  UNL     1       0.980  -7.876  -4.770  1.00  0.00    -0.360 N 
ATOM      9  H1  UNL     1       0.301  -7.548  -5.456  1.00  0.00     0.162 HD
HETATM   10  C8  UNL     1       1.373  -7.191  -3.589  1.00  0.00     0.059 A 
HETATM   11  C9  UNL     1       0.780  -6.187  -2.837  1.00  0.00     0.034 A 
HETATM   12  C10 UNL     1       1.413  -5.705  -1.710  1.00  0.00     0.032 A 
HETATM   13  C11 UNL     1       2.634  -6.250  -1.362  1.00  0.00     0.034 A 
HETATM   14  C15 UNL     1       3.227  -7.258  -2.121  1.00  0.00     0.063 A 
HETATM   15  C16 UNL     1       2.606  -7.742  -3.241  1.00  0.00     0.082 A 
HETATM   16  N3  UNL     1       2.953  -8.745  -4.197  1.00  0.00    -0.257 N 
ENDROOT
BRANCH  16  17
HETATM   17  N4  UNL     1       4.229  -9.251  -4.467  1.00  0.00    -0.246 N 
HETATM   18  C17 UNL     1       4.792 -10.329  -3.747  1.00  0.00     0.337 C 
HETATM   19  O1  UNL     1       4.101 -10.841  -2.832  1.00  0.00    -0.245 OA
HETATM   20  N5  UNL     1       6.068 -10.846  -4.005  1.00  0.00    -0.333 N 
HETATM   21  C18 UNL     1       6.977 -10.365  -5.015  1.00  0.00     0.127 C 
HETATM   22  C22 UNL     1       6.582 -11.981  -3.214  1.00  0.00     0.127 C 
HETATM   23  C19 UNL     1       8.360 -10.205  -4.413  1.00  0.00     0.020 C 
HETATM   24  C20 UNL     1       8.931 -11.523  -3.944  1.00  0.00     0.003 C 
HETATM   25  C21 UNL     1       7.832 -12.554  -3.861  1.00  0.00     0.020 C 
ATOM     26  H4  UNL     1       4.776  -8.824  -5.214  1.00  0.00     0.192 HD
ENDBRANCH  16  17
BRANCH  13  27
HETATM   27  N2  UNL     1       3.283  -5.770  -0.217  1.00  0.00    -0.369 N 
HETATM   28  C12 UNL     1       4.412  -5.187  -0.165  1.00  0.00     0.071 C 
ATOM     29  H2  UNL     1       2.798  -5.902   0.670  1.00  0.00     0.165 HD
BRANCH  28  30
HETATM   30  C13 UNL     1       5.279  -4.898  -1.340  1.00  0.00     0.127 C 
BRANCH  30  31
HETATM   31  S1  UNL     1       6.860  -5.759  -1.230  1.00  0.00    -0.051 SA
BRANCH  31  32
HETATM   32  C14 UNL     1       6.751  -7.383  -2.058  1.00  0.00     0.443 C 
HETATM   33  F1  UNL     1       6.289  -7.271  -3.333  1.00  0.00    -0.160 F 
HETATM   34  F2  UNL     1       5.913  -8.215  -1.339  1.00  0.00    -0.160 F 
HETATM   35  F3  UNL     1       8.030  -7.946  -2.090  1.00  0.00    -0.160 F 
ENDBRANCH  31  32
ENDBRANCH  30  31
ENDBRANCH  28  30
ENDBRANCH  13  27
TORSDOF 5
ENDMDL
MODEL 2
REMARK VINA RESULT: -8.646004740      2.779      6.123
REMARK  5 active torsions:
REMARK  status: ('A' for Active; 'I' for Inactive)
REMARK    1  A    between atoms: C11_13  and  N2_14 
REMARK    2  A    between atoms: C12_16  and  C13_17 
REMARK    3  A    between atoms: C13_17  and  S1_18 
REMARK    4  A    between atoms: S1_18  and  C14_19 
REMARK    5  A    between atoms: N3_25  and  N4_26 
REMARK       I    between atoms: N4_26  and  C17_28 
REMARK       I    between atoms: C17_28  and  N5_30 
ROOT
HETATM    1  C1  UNL     1       1.369  -9.830  -6.189  1.00  0.00     0.010 C 
HETATM    2  C2  UNL     1       0.719 -10.779  -5.176  1.00  0.00    -0.018 C 
HETATM    3  C3  UNL     1       1.444 -12.113  -5.310  1.00  0.00     0.008 C 
HETATM    4  C4  UNL     1       2.830 -11.878  -4.696  1.00  0.00     0.056 C 
HETATM    5  C5  UNL     1       2.647 -12.041  -3.200  1.00  0.00     0.126 C 
HETATM    6  C6  UNL     1       1.365 -11.384  -2.818  1.00  0.00     0.056 C 
HETATM    7  C7  UNL     1       0.974 -10.270  -3.786  1.00  0.00     0.008 C 
HETATM    8  N1  UNL     1       2.685 -13.469  -2.945  1.00  0.00    -0.360 N 
ATOM      9  H1  UNL     1       1.877 -14.086  -2.869  1.00  0.00     0.162 HD
HETATM   10  C8  UNL     1       4.046 -13.853  -2.819  1.00  0.00     0.059 A 
HETATM   11  C9  UNL     1       4.699 -15.072  -2.940  1.00  0.00     0.034 A 
HETATM   12  C10 UNL     1       6.064 -15.143  -2.759  1.00  0.00     0.032 A 
HETATM   13  C11 UNL     1       6.746 -13.979  -2.459  1.00  0.00     0.034 A 
HETATM   14  C15 UNL     1       6.087 -12.757  -2.338  1.00  0.00     0.063 A 
HETATM   15  C16 UNL     1       4.732 -12.677  -2.516  1.00  0.00     0.082 A 
HETATM   16  N3  UNL     1       3.798 -11.598  -2.460  1.00  0.00    -0.257 N 
ENDROOT
BRANCH  16  17
HETATM   17  N4  UNL     1       3.967 -10.366  -1.817  1.00  0.00    -0.246 N 
HETATM   18  C17 UNL     1       4.245  -9.170  -2.515  1.00  0.00     0.337 C 
HETATM   19  O1  UNL     1       4.340  -9.236  -3.766  1.00  0.00    -0.245 OA
HETATM   20  N5  UNL     1       4.417  -7.931  -1.886  1.00  0.00    -0.333 N 
HETATM   21  C18 UNL     1       4.342  -7.696  -0.466  1.00  0.00     0.127 C 
HETATM   22  C22 UNL     1       4.697  -6.724  -2.688  1.00  0.00     0.127 C 
HETATM   23  C19 UNL     1       5.523  -6.849  -0.032  1.00  0.00     0.020 C 
HETATM   24  C20 UNL     1       5.506  -5.481  -0.673  1.00  0.00     0.003 C 
HETATM   25  C21 UNL     1       4.545  -5.475  -1.836  1.00  0.00     0.020 C 
ATOM     26  H4  UNL     1       3.885 -10.331  -0.801  1.00  0.00     0.192 HD
ENDBRANCH  16  17
BRANCH  13  27
HETATM   27  N2  UNL     1       8.134 -14.040  -2.276  1.00  0.00    -0.369 N 
HETATM   28  C12 UNL     1       9.031 -13.700  -3.110  1.00  0.00     0.071 C 
ATOM     29  H2  UNL     1       8.459 -14.394  -1.377  1.00  0.00     0.165 HD
BRANCH  28  30
HETATM   30  C13 UNL     1       8.771 -13.162  -4.472  1.00  0.00     0.127 C 
BRANCH  30  31
HETATM   31  S1  UNL     1       8.730 -11.359  -4.481  1.00  0.00    -0.051 SA
BRANCH  31  32
HETATM   32  C14 UNL     1       7.241 -10.768  -5.357  1.00  0.00     0.443 C 
HETATM   33  F1  UNL     1       6.124 -11.440  -4.966  1.00  0.00    -0.160 F 
HETATM   34  F2  UNL     1       7.413 -10.920  -6.719  1.00  0.00    -0.160 F 
HETATM   35  F3  UNL     1       7.074  -9.409  -5.070  1.00  0.00    -0.160 F 
ENDBRANCH  31  32
ENDBRANCH  30  31
ENDBRANCH  28  30
ENDBRANCH  13  27
TORSDOF 5
ENDMDL
MODEL 3
REMARK VINA RESULT: -8.499909485      1.427      1.597
REMARK  5 active torsions:
REMARK  status: ('A' for Active; 'I' for Inactive)
REMARK    1  A    between atoms: C11_13  and  N2_14 
REMARK    2  A    between atoms: C12_16  and  C13_17 
REMARK    3  A    between atoms: C13_17  and  S1_18 
REMARK    4  A    between atoms: S1_18  and  C14_19 
REMARK    5  A    between atoms: N3_25  and  N4_26 
REMARK       I    between atoms: N4_26  and  C17_28 
REMARK       I    between atoms: C17_28  and  N5_30 
ROOT
HETATM    1  C1  UNL     1       1.018 -12.947  -4.552  1.00  0.00     0.010 C 
HETATM    2  C2  UNL     1       0.796 -11.765  -5.503  1.00  0.00    -0.018 C 
HETATM    3  C3  UNL     1       0.177 -10.651  -4.668  1.00  0.00     0.008 C 
HETATM    4  C4  UNL     1       1.314 -10.141  -3.775  1.00  0.00     0.056 C 
HETATM    5  C5  UNL     1       2.100  -9.167  -4.630  1.00  0.00     0.126 C 
HETATM    6  C6  UNL     1       2.215  -9.745  -5.999  1.00  0.00     0.056 C 
HETATM    7  C7  UNL     1       2.125 -11.268  -5.995  1.00  0.00     0.008 C 
HETATM    8  N1  UNL     1       1.380  -7.910  -4.571  1.00  0.00    -0.360 N 
ATOM      9  H1  UNL     1       0.693  -7.579  -5.249  1.00  0.00     0.162 HD
HETATM   10  C8  UNL     1       1.800  -7.220  -3.402  1.00  0.00     0.059 A 
HETATM   11  C9  UNL     1       1.230  -6.204  -2.649  1.00  0.00     0.034 A 
HETATM   12  C10 UNL     1       1.886  -5.722  -1.535  1.00  0.00     0.032 A 
HETATM   13  C11 UNL     1       3.107  -6.278  -1.203  1.00  0.00     0.034 A 
HETATM   14  C15 UNL     1       3.676  -7.299  -1.963  1.00  0.00     0.063 A 
HETATM   15  C16 UNL     1       3.032  -7.783  -3.070  1.00  0.00     0.082 A 
HETATM   16  N3  UNL     1       3.351  -8.797  -4.024  1.00  0.00    -0.257 N 
ENDROOT
BRANCH  16  17
HETATM   17  N4  UNL     1       4.617  -9.321  -4.310  1.00  0.00    -0.246 N 
HETATM   18  C17 UNL     1       5.153 -10.441  -3.635  1.00  0.00     0.337 C 
HETATM   19  O1  UNL     1       4.446 -10.975  -2.744  1.00  0.00    -0.245 OA
HETATM   20  N5  UNL     1       6.417 -10.975  -3.909  1.00  0.00    -0.333 N 
HETATM   21  C18 UNL     1       7.342 -10.472  -4.895  1.00  0.00     0.127 C 
HETATM   22  C22 UNL     1       6.902 -12.153  -3.166  1.00  0.00     0.127 C 
HETATM   23  C19 UNL     1       8.725 -10.369  -4.281  1.00  0.00     0.020 C 
HETATM   24  C20 UNL     1       9.264 -11.718  -3.866  1.00  0.00     0.003 C 
HETATM   25  C21 UNL     1       8.142 -12.727  -3.831  1.00  0.00     0.020 C 
ATOM     26  H4  UNL     1       5.177  -8.875  -5.037  1.00  0.00     0.192 HD
ENDBRANCH  16  17
BRANCH  13  27
HETATM   27  N2  UNL     1       3.780  -5.798  -0.072  1.00  0.00    -0.369 N 
HETATM   28  C12 UNL     1       4.883  -5.166  -0.049  1.00  0.00     0.071 C 
ATOM     29  H2  UNL     1       3.337  -5.973   0.830  1.00  0.00     0.165 HD
BRANCH  28  30
HETATM   30  C13 UNL     1       5.689  -4.811  -1.248  1.00  0.00     0.127 C 
BRANCH  30  31
HETATM   31  S1  UNL     1       7.197  -5.794  -1.355  1.00  0.00    -0.051 SA
BRANCH  31  32
HETATM   32  C14 UNL     1       8.663  -4.711  -1.245  1.00  0.00     0.443 C 
HETATM   33  F1  UNL     1       9.728  -5.356  -0.697  1.00  0.00    -0.160 F 
HETATM   34  F2  UNL     1       8.361  -3.598  -0.486  1.00  0.00    -0.160 F 
HETATM   35  F3  UNL     1       9.002  -4.300  -2.538  1.00  0.00    -0.160 F 
ENDBRANCH  31  32
ENDBRANCH  30  31
ENDBRANCH  28  30
ENDBRANCH  13  27
TORSDOF 5
ENDMDL
MODEL 4
REMARK VINA RESULT: -8.436094207      3.761      6.705
REMARK  5 active torsions:
REMARK  status: ('A' for Active; 'I' for Inactive)
REMARK    1  A    between atoms: C11_13  and  N2_14 
REMARK    2  A    between atoms: C12_16  and  C13_17 
REMARK    3  A    between atoms: C13_17  and  S1_18 
REMARK    4  A    between atoms: S1_18  and  C14_19 
REMARK    5  A    between atoms: N3_25  and  N4_26 
REMARK       I    between atoms: N4_26  and  C17_28 
REMARK       I    between atoms: C17_28  and  N5_30 
ROOT
HETATM    1  C1  UNL     1       1.427  -9.679  -6.239  1.00  0.00     0.010 C 
HETATM    2  C2  UNL     1       0.748 -10.629  -5.244  1.00  0.00    -0.018 C 
HETATM    3  C3  UNL     1       1.449 -11.974  -5.387  1.00  0.00     0.008 C 
HETATM    4  C4  UNL     1       2.832 -11.774  -4.756  1.00  0.00     0.056 C 
HETATM    5  C5  UNL     1       2.630 -11.951  -3.264  1.00  0.00     0.126 C 
HETATM    6  C6  UNL     1       1.357 -11.274  -2.888  1.00  0.00     0.056 C 
HETATM    7  C7  UNL     1       0.998 -10.142  -3.846  1.00  0.00     0.008 C 
HETATM    8  N1  UNL     1       2.638 -13.383  -3.026  1.00  0.00    -0.360 N 
ATOM      9  H1  UNL     1       1.818 -13.985  -2.966  1.00  0.00     0.162 HD
HETATM   10  C8  UNL     1       3.991 -13.795  -2.891  1.00  0.00     0.059 A 
HETATM   11  C9  UNL     1       4.621 -15.025  -3.020  1.00  0.00     0.034 A 
HETATM   12  C10 UNL     1       5.983 -15.124  -2.826  1.00  0.00     0.032 A 
HETATM   13  C11 UNL     1       6.683 -13.977  -2.504  1.00  0.00     0.034 A 
HETATM   14  C15 UNL     1       6.046 -12.744  -2.375  1.00  0.00     0.063 A 
HETATM   15  C16 UNL     1       4.695 -12.636  -2.566  1.00  0.00     0.082 A 
HETATM   16  N3  UNL     1       3.782 -11.540  -2.506  1.00  0.00    -0.257 N 
ENDROOT
BRANCH  16  17
HETATM   17  N4  UNL     1       3.967 -10.320  -1.846  1.00  0.00    -0.246 N 
HETATM   18  C17 UNL     1       4.325  -9.131  -2.522  1.00  0.00     0.337 C 
HETATM   19  O1  UNL     1       4.477  -9.194  -3.767  1.00  0.00    -0.245 OA
HETATM   20  N5  UNL     1       4.515  -7.904  -1.875  1.00  0.00    -0.333 N 
HETATM   21  C18 UNL     1       4.381  -7.675  -0.458  1.00  0.00     0.127 C 
HETATM   22  C22 UNL     1       4.880  -6.704  -2.653  1.00  0.00     0.127 C 
HETATM   23  C19 UNL     1       5.572  -6.877   0.038  1.00  0.00     0.020 C 
HETATM   24  C20 UNL     1       5.639  -5.506  -0.592  1.00  0.00     0.003 C 
HETATM   25  C21 UNL     1       4.735  -5.455  -1.800  1.00  0.00     0.020 C 
ATOM     26  H4  UNL     1       3.838 -10.287  -0.835  1.00  0.00     0.192 HD
ENDBRANCH  16  17
BRANCH  13  27
HETATM   27  N2  UNL     1       8.067 -14.067  -2.308  1.00  0.00    -0.369 N 
HETATM   28  C12 UNL     1       8.980 -13.613  -3.068  1.00  0.00     0.071 C 
ATOM     29  H2  UNL     1       8.377 -14.549  -1.463  1.00  0.00     0.165 HD
BRANCH  28  30
HETATM   30  C13 UNL     1       8.743 -12.882  -4.342  1.00  0.00     0.127 C 
BRANCH  30  31
HETATM   31  S1  UNL     1      10.277 -12.612  -5.251  1.00  0.00    -0.051 SA
BRANCH  31  32
HETATM   32  C14 UNL     1      10.684 -14.085  -6.251  1.00  0.00     0.443 C 
HETATM   33  F1  UNL     1      11.655 -13.822  -7.167  1.00  0.00    -0.160 F 
HETATM   34  F2  UNL     1       9.550 -14.532  -6.901  1.00  0.00    -0.160 F 
HETATM   35  F3  UNL     1      11.138 -15.088  -5.388  1.00  0.00    -0.160 F 
ENDBRANCH  31  32
ENDBRANCH  30  31
ENDBRANCH  28  30
ENDBRANCH  13  27
TORSDOF 5
ENDMDL
MODEL 5
REMARK VINA RESULT: -8.420216005      3.002      5.839
REMARK  5 active torsions:
REMARK  status: ('A' for Active; 'I' for Inactive)
REMARK    1  A    between atoms: C11_13  and  N2_14 
REMARK    2  A    between atoms: C12_16  and  C13_17 
REMARK    3  A    between atoms: C13_17  and  S1_18 
REMARK    4  A    between atoms: S1_18  and  C14_19 
REMARK    5  A    between atoms: N3_25  and  N4_26 
REMARK       I    between atoms: N4_26  and  C17_28 
REMARK       I    between atoms: C17_28  and  N5_30 
ROOT
HETATM    1  C1  UNL     1       7.549  -5.887  -1.732  1.00  0.00     0.010 C 
HETATM    2  C2  UNL     1       6.337  -5.832  -0.795  1.00  0.00    -0.018 C 
HETATM    3  C3  UNL     1       5.163  -5.346  -1.637  1.00  0.00     0.008 C 
HETATM    4  C4  UNL     1       4.815  -6.524  -2.555  1.00  0.00     0.056 C 
HETATM    5  C5  UNL     1       3.938  -7.442  -1.726  1.00  0.00     0.126 C 
HETATM    6  C6  UNL     1       4.508  -7.505  -0.350  1.00  0.00     0.056 C 
HETATM    7  C7  UNL     1       6.007  -7.222  -0.331  1.00  0.00     0.008 C 
HETATM    8  N1  UNL     1       2.600  -6.887  -1.793  1.00  0.00    -0.360 N 
ATOM      9  H1  UNL     1       2.175  -6.260  -1.110  1.00  0.00     0.162 HD
HETATM   10  C8  UNL     1       1.985  -7.371  -2.978  1.00  0.00     0.059 A 
HETATM   11  C9  UNL     1       0.914  -6.924  -3.738  1.00  0.00     0.034 A 
HETATM   12  C10 UNL     1       0.533  -7.617  -4.868  1.00  0.00     0.032 A 
HETATM   13  C11 UNL     1       1.245  -8.751  -5.211  1.00  0.00     0.034 A 
HETATM   14  C15 UNL     1       2.320  -9.198  -4.444  1.00  0.00     0.063 A 
HETATM   15  C16 UNL     1       2.704  -8.516  -3.321  1.00  0.00     0.082 A 
HETATM   16  N3  UNL     1       3.739  -8.719  -2.357  1.00  0.00    -0.257 N 
ENDROOT
BRANCH  16  17
HETATM   17  N4  UNL     1       4.415  -9.913  -2.082  1.00  0.00    -0.246 N 
HETATM   18  C17 UNL     1       5.465 -10.402  -2.892  1.00  0.00     0.337 C 
HETATM   19  O1  UNL     1       5.789  -9.721  -3.897  1.00  0.00    -0.245 OA
HETATM   20  N5  UNL     1       6.150 -11.594  -2.631  1.00  0.00    -0.333 N 
HETATM   21  C18 UNL     1       5.892 -12.483  -1.525  1.00  0.00     0.127 C 
HETATM   22  C22 UNL     1       7.242 -12.033  -3.521  1.00  0.00     0.127 C 
HETATM   23  C19 UNL     1       5.826 -13.911  -2.030  1.00  0.00     0.020 C 
HETATM   24  C20 UNL     1       7.141 -14.365  -2.621  1.00  0.00     0.003 C 
HETATM   25  C21 UNL     1       8.024 -13.169  -2.882  1.00  0.00     0.020 C 
ATOM     26  H4  UNL     1       4.139 -10.453  -1.262  1.00  0.00     0.192 HD
ENDBRANCH  16  17
BRANCH  13  27
HETATM   27  N2  UNL     1       0.869  -9.461  -6.358  1.00  0.00    -0.369 N 
HETATM   28  C12 UNL     1       0.383 -10.635  -6.408  1.00  0.00     0.071 C 
ATOM     29  H2  UNL     1       0.998  -8.984  -7.251  1.00  0.00     0.165 HD
BRANCH  28  30
HETATM   30  C13 UNL     1       0.117 -11.498  -5.225  1.00  0.00     0.127 C 
BRANCH  30  31
HETATM   31  S1  UNL     1       1.163 -12.967  -5.223  1.00  0.00    -0.051 SA
BRANCH  31  32
HETATM   32  C14 UNL     1       2.414 -12.847  -3.899  1.00  0.00     0.443 C 
HETATM   33  F1  UNL     1       2.003 -12.037  -2.886  1.00  0.00    -0.160 F 
HETATM   34  F2  UNL     1       3.598 -12.362  -4.421  1.00  0.00    -0.160 F 
HETATM   35  F3  UNL     1       2.637 -14.130  -3.388  1.00  0.00    -0.160 F 
ENDBRANCH  31  32
ENDBRANCH  30  31
ENDBRANCH  28  30
ENDBRANCH  13  27
TORSDOF 5
ENDMDL
