MODEL 1
REMARK VINA RESULT: -8.052117057      0.000      0.000
REMARK  7 active torsions:
REMARK  status: ('A' for Active; 'I' for Inactive)
REMARK    1  A    between atoms: C3_3  and  N1_4 
REMARK    2  A    between atoms: N1_4  and  C4_5 
REMARK    3  A    between atoms: N1_4  and  C12_13 
REMARK    4  A    between atoms: C4_5  and  C5_6 
REMARK    5  A    between atoms: C12_13  and  C13_14 
REMARK    6  A    between atoms: N2_16  and  C15_17 
REMARK    7  A    between atoms: C15_17  and  C16_18 
ROOT
HETATM    1  C1  UNL     1      10.677 -44.000   0.993  1.00  0.00     0.014 C 
HETATM    2  C2  UNL     1      11.343 -44.977   1.281  1.00  0.00    -0.098 C 
HETATM    3  C3  UNL     1      12.160 -46.148   1.639  1.00  0.00     0.215 C 
ENDROOT
BRANCH   3   4
HETATM    4  N1  UNL     1      12.710 -45.953   2.925  1.00  0.00    -0.373 N 
BRANCH   4   5
HETATM    5  C4  UNL     1      14.114 -45.750   3.011  1.00  0.00     0.161 C 
BRANCH   5   6
HETATM    6  C5  UNL     1      14.577 -44.366   2.982  1.00  0.00    -0.040 A 
HETATM    7  C6  UNL     1      14.577 -43.587   4.108  1.00  0.00     0.009 A 
HETATM    8  C7  UNL     1      15.014 -42.266   4.108  1.00  0.00     0.007 A 
HETATM    9  C8  UNL     1      15.468 -41.723   2.913  1.00  0.00    -0.062 A 
HETATM   10  C9  UNL     1      15.938 -40.315   2.897  1.00  0.00     0.048 C 
HETATM   11  C10 UNL     1      15.484 -42.477   1.756  1.00  0.00     0.007 A 
HETATM   12  C11 UNL     1      15.042 -43.782   1.800  1.00  0.00     0.009 A 
ENDBRANCH   5   6
ENDBRANCH   4   5
BRANCH   4  13
HETATM   13  C12 UNL     1      12.097 -46.587   4.025  1.00  0.00     0.119 C 
BRANCH  13  14
HETATM   14  C13 UNL     1      11.938 -45.640   5.149  1.00  0.00     0.081 A 
HETATM   15  C14 UNL     1      12.511 -45.674   6.400  1.00  0.00     0.144 A 
HETATM   16  N2  UNL     1      12.097 -44.607   7.116  1.00  0.00    -0.283 N 
HETATM   17  N4  UNL     1      11.289 -43.920   6.349  1.00  0.00    -0.240 N 
HETATM   18  N5  UNL     1      11.172 -44.507   5.170  1.00  0.00    -0.284 N 
ATOM     19  H4  UNL     1      10.819 -43.057   6.622  1.00  0.00     0.208 HD
ATOM     20  H5  UNL     1      10.600 -44.168   4.397  1.00  0.00     0.188 HD
BRANCH  16  21
HETATM   21  C15 UNL     1      12.483 -44.290   8.496  1.00  0.00     0.189 C 
BRANCH  21  22
HETATM   22  C16 UNL     1      11.997 -42.949   8.885  1.00  0.00    -0.023 A 
HETATM   23  C17 UNL     1      12.803 -41.835   8.818  1.00  0.00     0.015 A 
HETATM   24  C18 UNL     1      12.318 -40.601   9.185  1.00  0.00     0.075 A 
HETATM   25  C19 UNL     1      11.017 -40.486   9.623  1.00  0.00     0.245 A 
HETATM   26  O1  UNL     1      10.571 -39.351   9.962  1.00  0.00    -0.268 OA
HETATM   27  N3  UNL     1      10.224 -41.583   9.690  1.00  0.00    -0.333 N 
HETATM   28  C20 UNL     1      10.702 -42.783   9.330  1.00  0.00     0.100 A 
ATOM     29  H3  UNL     1       9.260 -41.496  10.014  1.00  0.00     0.168 HD
ENDBRANCH  21  22
ENDBRANCH  16  21
ENDBRANCH  13  14
ENDBRANCH   4  13
ENDBRANCH   3   4
TORSDOF 7
ENDMDL
MODEL 2
REMARK VINA RESULT: -7.983987977      3.453      7.511
REMARK  7 active torsions:
REMARK  status: ('A' for Active; 'I' for Inactive)
REMARK    1  A    between atoms: C3_3  and  N1_4 
REMARK    2  A    between atoms: N1_4  and  C4_5 
REMARK    3  A    between atoms: N1_4  and  C12_13 
REMARK    4  A    between atoms: C4_5  and  C5_6 
REMARK    5  A    between atoms: C12_13  and  C13_14 
REMARK    6  A    between atoms: N2_16  and  C15_17 
REMARK    7  A    between atoms: C15_17  and  C16_18 
ROOT
HETATM    1  C1  UNL     1      14.312 -40.396   5.095  1.00  0.00     0.014 C 
HETATM    2  C2  UNL     1      14.445 -41.440   5.705  1.00  0.00    -0.098 C 
HETATM    3  C3  UNL     1      14.599 -42.696   6.458  1.00  0.00     0.215 C 
ENDROOT
BRANCH   3   4
HETATM    4  N1  UNL     1      13.570 -42.787   7.421  1.00  0.00    -0.373 N 
BRANCH   4   5
HETATM    5  C4  UNL     1      13.540 -41.798   8.441  1.00  0.00     0.161 C 
BRANCH   5   6
HETATM    6  C5  UNL     1      12.223 -41.307   8.837  1.00  0.00    -0.040 A 
HETATM    7  C6  UNL     1      11.781 -41.408  10.130  1.00  0.00     0.009 A 
HETATM    8  C7  UNL     1      10.532 -40.948  10.534  1.00  0.00     0.007 A 
HETATM    9  C8  UNL     1       9.706 -40.363   9.582  1.00  0.00    -0.062 A 
HETATM   10  C9  UNL     1       8.370 -39.867   9.999  1.00  0.00     0.048 C 
HETATM   11  C10 UNL     1      10.116 -40.243   8.270  1.00  0.00     0.007 A 
HETATM   12  C11 UNL     1      11.362 -40.712   7.910  1.00  0.00     0.009 A 
ENDBRANCH   5   6
ENDBRANCH   4   5
BRANCH   4  13
HETATM   13  C12 UNL     1      13.081 -44.062   7.768  1.00  0.00     0.119 C 
BRANCH  13  14
HETATM   14  C13 UNL     1      12.513 -44.742   6.584  1.00  0.00     0.081 A 
HETATM   15  C14 UNL     1      12.935 -45.895   5.961  1.00  0.00     0.144 A 
HETATM   16  N2  UNL     1      12.125 -46.166   4.915  1.00  0.00    -0.283 N 
HETATM   17  N4  UNL     1      11.222 -45.219   4.873  1.00  0.00    -0.240 N 
HETATM   18  N5  UNL     1      11.424 -44.355   5.854  1.00  0.00    -0.284 N 
ATOM     19  H4  UNL     1      10.472 -45.157   4.185  1.00  0.00     0.208 HD
ATOM     20  H5  UNL     1      10.856 -43.528   6.037  1.00  0.00     0.188 HD
BRANCH  16  21
HETATM   21  C15 UNL     1      12.248 -47.307   4.000  1.00  0.00     0.189 C 
BRANCH  21  22
HETATM   22  C16 UNL     1      13.620 -47.403   3.458  1.00  0.00    -0.023 A 
HETATM   23  C17 UNL     1      14.156 -46.421   2.656  1.00  0.00     0.015 A 
HETATM   24  C18 UNL     1      15.437 -46.541   2.169  1.00  0.00     0.075 A 
HETATM   25  C19 UNL     1      16.183 -47.654   2.490  1.00  0.00     0.245 A 
HETATM   26  O1  UNL     1      17.361 -47.764   2.042  1.00  0.00    -0.268 OA
HETATM   27  N3  UNL     1      15.655 -48.621   3.279  1.00  0.00    -0.333 N 
HETATM   28  C20 UNL     1      14.405 -48.498   3.750  1.00  0.00     0.100 A 
ATOM     29  H3  UNL     1      16.209 -49.444   3.516  1.00  0.00     0.168 HD
ENDBRANCH  21  22
ENDBRANCH  16  21
ENDBRANCH  13  14
ENDBRANCH   4  13
ENDBRANCH   3   4
TORSDOF 7
ENDMDL
MODEL 3
REMARK VINA RESULT: -7.830595698      1.081      1.301
REMARK  7 active torsions:
REMARK  status: ('A' for Active; 'I' for Inactive)
REMARK    1  A    between atoms: C3_3  and  N1_4 
REMARK    2  A    between atoms: N1_4  and  C4_5 
REMARK    3  A    between atoms: N1_4  and  C12_13 
REMARK    4  A    between atoms: C4_5  and  C5_6 
REMARK    5  A    between atoms: C12_13  and  C13_14 
REMARK    6  A    between atoms: N2_16  and  C15_17 
REMARK    7  A    between atoms: C15_17  and  C16_18 
ROOT
HETATM    1  C1  UNL     1      10.530 -43.946   0.940  1.00  0.00     0.014 C 
HETATM    2  C2  UNL     1      11.557 -44.558   1.166  1.00  0.00    -0.098 C 
HETATM    3  C3  UNL     1      12.805 -45.285   1.453  1.00  0.00     0.215 C 
ENDROOT
BRANCH   3   4
HETATM    4  N1  UNL     1      13.176 -45.057   2.796  1.00  0.00    -0.373 N 
BRANCH   4   5
HETATM    5  C4  UNL     1      14.405 -44.383   3.029  1.00  0.00     0.161 C 
BRANCH   5   6
HETATM    6  C5  UNL     1      14.318 -43.039   3.591  1.00  0.00    -0.040 A 
HETATM    7  C6  UNL     1      14.828 -42.745   4.828  1.00  0.00     0.009 A 
HETATM    8  C7  UNL     1      14.760 -41.473   5.386  1.00  0.00     0.007 A 
HETATM    9  C8  UNL     1      14.147 -40.465   4.653  1.00  0.00    -0.062 A 
HETATM   10  C9  UNL     1      14.066 -39.102   5.235  1.00  0.00     0.048 C 
HETATM   11  C10 UNL     1      13.621 -40.721   3.402  1.00  0.00     0.007 A 
HETATM   12  C11 UNL     1      13.710 -41.996   2.885  1.00  0.00     0.009 A 
ENDBRANCH   5   6
ENDBRANCH   4   5
BRANCH   4  13
HETATM   13  C12 UNL     1      12.773 -45.987   3.776  1.00  0.00     0.119 C 
BRANCH  13  14
HETATM   14  C13 UNL     1      12.297 -45.290   4.990  1.00  0.00     0.081 A 
HETATM   15  C14 UNL     1      12.800 -45.337   6.270  1.00  0.00     0.144 A 
HETATM   16  N2  UNL     1      12.064 -44.541   7.075  1.00  0.00    -0.283 N 
HETATM   17  N4  UNL     1      11.126 -44.008   6.334  1.00  0.00    -0.240 N 
HETATM   18  N5  UNL     1      11.236 -44.433   5.086  1.00  0.00    -0.284 N 
ATOM     19  H4  UNL     1      10.414 -43.359   6.670  1.00  0.00     0.208 HD
ATOM     20  H5  UNL     1      10.625 -44.163   4.316  1.00  0.00     0.188 HD
BRANCH  16  21
HETATM   21  C15 UNL     1      12.281 -44.325   8.510  1.00  0.00     0.189 C 
BRANCH  21  22
HETATM   22  C16 UNL     1      11.860 -42.964   8.908  1.00  0.00    -0.023 A 
HETATM   23  C17 UNL     1      12.703 -41.882   8.801  1.00  0.00     0.015 A 
HETATM   24  C18 UNL     1      12.280 -40.629   9.178  1.00  0.00     0.075 A 
HETATM   25  C19 UNL     1      11.003 -40.463   9.668  1.00  0.00     0.245 A 
HETATM   26  O1  UNL     1      10.613 -39.311  10.016  1.00  0.00    -0.268 OA
HETATM   27  N3  UNL     1      10.173 -41.529   9.774  1.00  0.00    -0.333 N 
HETATM   28  C20 UNL     1      10.592 -42.749   9.404  1.00  0.00     0.100 A 
ATOM     29  H3  UNL     1       9.228 -41.405  10.137  1.00  0.00     0.168 HD
ENDBRANCH  21  22
ENDBRANCH  16  21
ENDBRANCH  13  14
ENDBRANCH   4  13
ENDBRANCH   3   4
TORSDOF 7
ENDMDL
MODEL 4
REMARK VINA RESULT: -7.777257812      3.575      6.906
REMARK  7 active torsions:
REMARK  status: ('A' for Active; 'I' for Inactive)
REMARK    1  A    between atoms: C3_3  and  N1_4 
REMARK    2  A    between atoms: N1_4  and  C4_5 
REMARK    3  A    between atoms: N1_4  and  C12_13 
REMARK    4  A    between atoms: C4_5  and  C5_6 
REMARK    5  A    between atoms: C12_13  and  C13_14 
REMARK    6  A    between atoms: N2_16  and  C15_17 
REMARK    7  A    between atoms: C15_17  and  C16_18 
ROOT
HETATM    1  C1  UNL     1      11.006 -41.926   7.254  1.00  0.00     0.014 C 
HETATM    2  C2  UNL     1      11.496 -43.019   7.468  1.00  0.00    -0.098 C 
HETATM    3  C3  UNL     1      12.084 -44.347   7.708  1.00  0.00     0.215 C 
ENDROOT
BRANCH   3   4
HETATM    4  N1  UNL     1      12.587 -44.858   6.492  1.00  0.00    -0.373 N 
BRANCH   4   5
HETATM    5  C4  UNL     1      13.985 -44.741   6.262  1.00  0.00     0.161 C 
BRANCH   5   6
HETATM    6  C5  UNL     1      14.414 -43.657   5.384  1.00  0.00    -0.040 A 
HETATM    7  C6  UNL     1      14.504 -42.366   5.832  1.00  0.00     0.009 A 
HETATM    8  C7  UNL     1      14.912 -41.314   5.018  1.00  0.00     0.007 A 
HETATM    9  C8  UNL     1      15.240 -41.594   3.698  1.00  0.00    -0.062 A 
HETATM   10  C9  UNL     1      15.677 -40.482   2.816  1.00  0.00     0.048 C 
HETATM   11  C10 UNL     1      15.163 -42.882   3.209  1.00  0.00     0.007 A 
HETATM   12  C11 UNL     1      14.754 -43.896   4.049  1.00  0.00     0.009 A 
ENDBRANCH   5   6
ENDBRANCH   4   5
BRANCH   4  13
HETATM   13  C12 UNL     1      11.758 -44.827   5.352  1.00  0.00     0.119 C 
BRANCH  13  14
HETATM   14  C13 UNL     1      11.787 -46.130   4.652  1.00  0.00     0.081 A 
HETATM   15  C14 UNL     1      12.287 -46.434   3.406  1.00  0.00     0.144 A 
HETATM   16  N2  UNL     1      12.113 -47.750   3.159  1.00  0.00    -0.283 N 
HETATM   17  N4  UNL     1      11.524 -48.264   4.209  1.00  0.00    -0.240 N 
HETATM   18  N5  UNL     1      11.315 -47.326   5.117  1.00  0.00    -0.284 N 
ATOM     19  H4  UNL     1      11.264 -49.245   4.311  1.00  0.00     0.208 HD
ATOM     20  H5  UNL     1      10.872 -47.472   6.024  1.00  0.00     0.188 HD
BRANCH  16  21
HETATM   21  C15 UNL     1      12.510 -48.459   1.937  1.00  0.00     0.189 C 
BRANCH  21  22
HETATM   22  C16 UNL     1      13.969 -48.359   1.719  1.00  0.00    -0.023 A 
HETATM   23  C17 UNL     1      14.498 -47.753   0.602  1.00  0.00     0.015 A 
HETATM   24  C18 UNL     1      15.861 -47.675   0.431  1.00  0.00     0.075 A 
HETATM   25  C19 UNL     1      16.696 -48.210   1.388  1.00  0.00     0.245 A 
HETATM   26  O1  UNL     1      17.950 -48.139   1.230  1.00  0.00    -0.268 OA
HETATM   27  N3  UNL     1      16.175 -48.806   2.487  1.00  0.00    -0.333 N 
HETATM   28  C20 UNL     1      14.845 -48.879   2.648  1.00  0.00     0.100 A 
ATOM     29  H3  UNL     1      16.795 -49.201   3.195  1.00  0.00     0.168 HD
ENDBRANCH  21  22
ENDBRANCH  16  21
ENDBRANCH  13  14
ENDBRANCH   4  13
ENDBRANCH   3   4
TORSDOF 7
ENDMDL
MODEL 5
REMARK VINA RESULT: -7.758836530      3.288      7.245
REMARK  7 active torsions:
REMARK  status: ('A' for Active; 'I' for Inactive)
REMARK    1  A    between atoms: C3_3  and  N1_4 
REMARK    2  A    between atoms: N1_4  and  C4_5 
REMARK    3  A    between atoms: N1_4  and  C12_13 
REMARK    4  A    between atoms: C4_5  and  C5_6 
REMARK    5  A    between atoms: C12_13  and  C13_14 
REMARK    6  A    between atoms: N2_16  and  C15_17 
REMARK    7  A    between atoms: C15_17  and  C16_18 
ROOT
HETATM    1  C1  UNL     1      12.871 -38.394   4.040  1.00  0.00     0.014 C 
HETATM    2  C2  UNL     1      13.168 -39.039   5.028  1.00  0.00    -0.098 C 
HETATM    3  C3  UNL     1      13.515 -39.831   6.219  1.00  0.00     0.215 C 
ENDROOT
BRANCH   3   4
HETATM    4  N1  UNL     1      13.245 -41.194   5.963  1.00  0.00    -0.373 N 
BRANCH   4   5
HETATM    5  C4  UNL     1      11.900 -41.630   6.099  1.00  0.00     0.161 C 
BRANCH   5   6
HETATM    6  C5  UNL     1      11.177 -41.163   7.278  1.00  0.00    -0.040 A 
HETATM    7  C6  UNL     1      10.182 -40.227   7.184  1.00  0.00     0.009 A 
HETATM    8  C7  UNL     1       9.478 -39.766   8.291  1.00  0.00     0.007 A 
HETATM    9  C8  UNL     1       9.802 -40.281   9.540  1.00  0.00    -0.062 A 
HETATM   10  C9  UNL     1       9.059 -39.799  10.731  1.00  0.00     0.048 C 
HETATM   11  C10 UNL     1      10.799 -41.227   9.675  1.00  0.00     0.007 A 
HETATM   12  C11 UNL     1      11.473 -41.657   8.552  1.00  0.00     0.009 A 
ENDBRANCH   5   6
ENDBRANCH   4   5
BRANCH   4  13
HETATM   13  C12 UNL     1      14.246 -42.145   6.245  1.00  0.00     0.119 C 
BRANCH  13  14
HETATM   14  C13 UNL     1      14.498 -43.001   5.065  1.00  0.00     0.081 A 
HETATM   15  C14 UNL     1      14.298 -44.355   4.917  1.00  0.00     0.144 A 
HETATM   16  N2  UNL     1      14.655 -44.731   3.671  1.00  0.00    -0.283 N 
HETATM   17  N4  UNL     1      15.067 -43.657   3.048  1.00  0.00    -0.240 N 
HETATM   18  N5  UNL     1      14.986 -42.608   3.850  1.00  0.00    -0.284 N 
ATOM     19  H4  UNL     1      15.401 -43.632   2.085  1.00  0.00     0.208 HD
ATOM     20  H5  UNL     1      15.247 -41.654   3.600  1.00  0.00     0.188 HD
BRANCH  16  21
HETATM   21  C15 UNL     1      14.593 -46.094   3.128  1.00  0.00     0.189 C 
BRANCH  21  22
HETATM   22  C16 UNL     1      13.263 -46.695   3.365  1.00  0.00    -0.023 A 
HETATM   23  C17 UNL     1      12.131 -46.229   2.735  1.00  0.00     0.015 A 
HETATM   24  C18 UNL     1      10.909 -46.812   2.976  1.00  0.00     0.075 A 
HETATM   25  C19 UNL     1      10.823 -47.869   3.856  1.00  0.00     0.245 A 
HETATM   26  O1  UNL     1       9.699 -48.404   4.078  1.00  0.00    -0.268 OA
HETATM   27  N3  UNL     1      11.937 -48.328   4.476  1.00  0.00    -0.333 N 
HETATM   28  C20 UNL     1      13.126 -47.755   4.236  1.00  0.00     0.100 A 
ATOM     29  H3  UNL     1      11.872 -49.110   5.127  1.00  0.00     0.168 HD
ENDBRANCH  21  22
ENDBRANCH  16  21
ENDBRANCH  13  14
ENDBRANCH   4  13
ENDBRANCH   3   4
TORSDOF 7
ENDMDL
