MODEL 1
REMARK VINA RESULT: -6.037174654      0.000      0.000
REMARK  4 active torsions:
REMARK  status: ('A' for Active; 'I' for Inactive)
REMARK    1  A    between atoms: C2_5  and  N3_6 
REMARK    2  A    between atoms: C3_11  and  C4_12 
REMARK       I    between atoms: C4_12  and  N5_14 
REMARK    3  A    between atoms: N5_14  and  N6_16 
REMARK    4  A    between atoms: C5_19  and  C6_20 
ROOT
HETATM    1  C1  UNL     1     -29.637  -0.152  27.348  1.00  0.00     0.179 C 
HETATM    2  N1  UNL     1     -28.200  -0.067  27.211  1.00  0.00    -0.275 N 
HETATM    3  N2  UNL     1     -27.499  -1.136  26.835  1.00  0.00    -0.130 N 
ATOM      4  H2  UNL     1     -27.992  -2.013  26.669  1.00  0.00     0.206 HD
HETATM    5  C2  UNL     1     -26.178  -1.102  26.669  1.00  0.00     0.691 A 
HETATM    6  N4  UNL     1     -25.481   0.026  26.876  1.00  0.00    -0.183 N 
ATOM      7  H4  UNL     1     -24.470   0.044  26.747  1.00  0.00     0.184 HD
HETATM    8  C3  UNL     1     -26.159   1.156  27.267  1.00  0.00     0.151 A 
HETATM    9  C5  UNL     1     -27.515   1.094  27.428  1.00  0.00     0.148 A 
ENDROOT
BRANCH   8  10
HETATM   10  C4  UNL     1     -25.367   2.334  27.496  1.00  0.00     0.289 C 
HETATM   11  O1  UNL     1     -24.515   2.495  28.412  1.00  0.00    -0.264 OA
HETATM   12  N5  UNL     1     -25.525   3.481  26.622  1.00  0.00    -0.271 N 
ATOM     13  H5  UNL     1     -26.197   3.437  25.857  1.00  0.00     0.189 HD
BRANCH  12  14
HETATM   14  N6  UNL     1     -24.772   4.650  26.807  1.00  0.00    -0.342 N 
ATOM     15  H62 UNL     1     -24.256   4.759  27.681  1.00  0.00     0.176 HD
ATOM     16  H61 UNL     1     -24.735   5.377  26.093  1.00  0.00     0.176 HD
ENDBRANCH  12  14
ENDBRANCH   8  10
BRANCH   9  17
HETATM   17  C6  UNL     1     -28.279   2.244  27.847  1.00  0.00     0.285 C 
HETATM   18  N7  UNL     1     -28.874   3.132  26.883  1.00  0.00    -0.056 NA
HETATM   19  O2  UNL     1     -28.507   2.585  29.057  1.00  0.00    -0.269 OA
ENDBRANCH   9  17
BRANCH   5  20
HETATM   20  N3  UNL     1     -25.508  -2.147  26.303  1.00  0.00    -0.233 N 
ATOM     21  H32 UNL     1     -26.046  -2.964  26.016  1.00  0.00     0.174 HD
ATOM     22  H31 UNL     1     -24.488  -2.159  26.299  1.00  0.00     0.174 HD
ENDBRANCH   5  20
TORSDOF 4
ENDMDL
MODEL 2
REMARK VINA RESULT: -5.744252649      2.348      3.814
REMARK  4 active torsions:
REMARK  status: ('A' for Active; 'I' for Inactive)
REMARK    1  A    between atoms: C2_5  and  N3_6 
REMARK    2  A    between atoms: C3_11  and  C4_12 
REMARK       I    between atoms: C4_12  and  N5_14 
REMARK    3  A    between atoms: N5_14  and  N6_16 
REMARK    4  A    between atoms: C5_19  and  C6_20 
ROOT
HETATM    1  C1  UNL     1     -28.878  -1.588  24.529  1.00  0.00     0.179 C 
HETATM    2  N1  UNL     1     -28.849  -0.346  25.269  1.00  0.00    -0.275 N 
HETATM    3  N2  UNL     1     -29.762   0.595  25.033  1.00  0.00    -0.130 N 
ATOM      4  H2  UNL     1     -30.463   0.430  24.311  1.00  0.00     0.206 HD
HETATM    5  C2  UNL     1     -29.793   1.744  25.706  1.00  0.00     0.691 A 
HETATM    6  N4  UNL     1     -28.894   2.012  26.665  1.00  0.00    -0.183 N 
ATOM      7  H4  UNL     1     -28.925   2.894  27.176  1.00  0.00     0.184 HD
HETATM    8  C3  UNL     1     -27.930   1.073  26.944  1.00  0.00     0.151 A 
HETATM    9  C5  UNL     1     -27.921  -0.099  26.240  1.00  0.00     0.148 A 
ENDROOT
BRANCH   8  10
HETATM   10  C4  UNL     1     -26.977   1.414  27.965  1.00  0.00     0.289 C 
HETATM   11  O1  UNL     1     -27.184   1.417  29.209  1.00  0.00    -0.264 OA
HETATM   12  N5  UNL     1     -25.631   1.801  27.585  1.00  0.00    -0.271 N 
ATOM     13  H5  UNL     1     -25.379   1.828  26.598  1.00  0.00     0.189 HD
BRANCH  12  14
HETATM   14  N6  UNL     1     -24.668   2.138  28.548  1.00  0.00    -0.342 N 
ATOM     15  H62 UNL     1     -23.795   1.611  28.564  1.00  0.00     0.176 HD
ATOM     16  H61 UNL     1     -24.829   2.890  29.219  1.00  0.00     0.176 HD
ENDBRANCH  12  14
ENDBRANCH   8  10
BRANCH   9  17
HETATM   17  C6  UNL     1     -26.928  -1.117  26.481  1.00  0.00     0.285 C 
HETATM   18  N7  UNL     1     -25.616  -1.028  25.897  1.00  0.00    -0.056 NA
HETATM   19  O2  UNL     1     -27.089  -2.155  27.208  1.00  0.00    -0.269 OA
ENDBRANCH   9  17
BRANCH   5  20
HETATM   20  N3  UNL     1     -30.686   2.651  25.469  1.00  0.00    -0.233 N 
ATOM     21  H32 UNL     1     -30.356   3.538  25.088  1.00  0.00     0.174 HD
ATOM     22  H31 UNL     1     -31.677   2.492  25.652  1.00  0.00     0.174 HD
ENDBRANCH   5  20
TORSDOF 4
ENDMDL
MODEL 3
REMARK VINA RESULT: -5.321244002      2.230      3.906
REMARK  4 active torsions:
REMARK  status: ('A' for Active; 'I' for Inactive)
REMARK    1  A    between atoms: C2_5  and  N3_6 
REMARK    2  A    between atoms: C3_11  and  C4_12 
REMARK       I    between atoms: C4_12  and  N5_14 
REMARK    3  A    between atoms: N5_14  and  N6_16 
REMARK    4  A    between atoms: C5_19  and  C6_20 
ROOT
HETATM    1  C1  UNL     1     -27.890  -3.392  25.688  1.00  0.00     0.179 C 
HETATM    2  N1  UNL     1     -28.593  -2.316  26.351  1.00  0.00    -0.275 N 
HETATM    3  N2  UNL     1     -29.879  -2.454  26.672  1.00  0.00    -0.130 N 
ATOM      4  H2  UNL     1     -30.357  -3.321  26.424  1.00  0.00     0.206 HD
HETATM    5  C2  UNL     1     -30.563  -1.503  27.305  1.00  0.00     0.691 A 
HETATM    6  N4  UNL     1     -29.982  -0.345  27.653  1.00  0.00    -0.183 N 
ATOM      7  H4  UNL     1     -30.513   0.378  28.139  1.00  0.00     0.184 HD
HETATM    8  C3  UNL     1     -28.657  -0.153  27.342  1.00  0.00     0.151 A 
HETATM    9  C5  UNL     1     -27.977  -1.147  26.693  1.00  0.00     0.148 A 
ENDROOT
BRANCH   8  10
HETATM   10  C4  UNL     1     -28.085   1.111  27.717  1.00  0.00     0.289 C 
HETATM   11  O1  UNL     1     -27.661   1.430  28.861  1.00  0.00    -0.264 OA
HETATM   12  N5  UNL     1     -27.960   2.161  26.724  1.00  0.00    -0.271 N 
ATOM     13  H5  UNL     1     -28.282   1.989  25.772  1.00  0.00     0.189 HD
BRANCH  12  14
HETATM   14  N6  UNL     1     -27.405   3.409  27.045  1.00  0.00    -0.342 N 
ATOM     15  H62 UNL     1     -28.004   4.233  26.990  1.00  0.00     0.176 HD
ATOM     16  H61 UNL     1     -26.429   3.500  27.327  1.00  0.00     0.176 HD
ENDBRANCH  12  14
ENDBRANCH   8  10
BRANCH   9  17
HETATM   17  C6  UNL     1     -26.589  -0.998  26.331  1.00  0.00     0.285 C 
HETATM   18  N7  UNL     1     -26.205  -0.308  25.128  1.00  0.00    -0.056 NA
HETATM   19  O2  UNL     1     -25.594  -1.434  27.003  1.00  0.00    -0.269 OA
ENDBRANCH   9  17
BRANCH   5  20
HETATM   20  N3  UNL     1     -31.811  -1.650  27.614  1.00  0.00    -0.233 N 
ATOM     21  H32 UNL     1     -32.491  -1.532  26.862  1.00  0.00     0.174 HD
ATOM     22  H31 UNL     1     -32.109  -1.873  28.564  1.00  0.00     0.174 HD
ENDBRANCH   5  20
TORSDOF 4
ENDMDL
MODEL 4
REMARK VINA RESULT: -5.181726762      2.159      3.807
REMARK  4 active torsions:
REMARK  status: ('A' for Active; 'I' for Inactive)
REMARK    1  A    between atoms: C2_5  and  N3_6 
REMARK    2  A    between atoms: C3_11  and  C4_12 
REMARK       I    between atoms: C4_12  and  N5_14 
REMARK    3  A    between atoms: N5_14  and  N6_16 
REMARK    4  A    between atoms: C5_19  and  C6_20 
ROOT
HETATM    1  C1  UNL     1     -28.158  -2.842  25.062  1.00  0.00     0.179 C 
HETATM    2  N1  UNL     1     -28.653  -1.809  25.945  1.00  0.00    -0.275 N 
HETATM    3  N2  UNL     1     -29.926  -1.820  26.340  1.00  0.00    -0.130 N 
ATOM      4  H2  UNL     1     -30.542  -2.555  25.993  1.00  0.00     0.206 HD
HETATM    5  C2  UNL     1     -30.423  -0.907  27.172  1.00  0.00     0.691 A 
HETATM    6  N4  UNL     1     -29.656   0.081  27.658  1.00  0.00    -0.183 N 
ATOM      7  H4  UNL     1     -30.045   0.776  28.295  1.00  0.00     0.184 HD
HETATM    8  C3  UNL     1     -28.336   0.137  27.278  1.00  0.00     0.151 A 
HETATM    9  C5  UNL     1     -27.851  -0.814  26.424  1.00  0.00     0.148 A 
ENDROOT
BRANCH   8  10
HETATM   10  C4  UNL     1     -27.560   1.225  27.807  1.00  0.00     0.289 C 
HETATM   11  O1  UNL     1     -27.133   1.333  28.989  1.00  0.00    -0.264 OA
HETATM   12  N5  UNL     1     -27.205   2.336  26.944  1.00  0.00    -0.271 N 
ATOM     13  H5  UNL     1     -27.513   2.331  25.972  1.00  0.00     0.189 HD
BRANCH  12  14
HETATM   14  N6  UNL     1     -26.447   3.417  27.418  1.00  0.00    -0.342 N 
ATOM     15  H62 UNL     1     -26.232   3.456  28.414  1.00  0.00     0.176 HD
ATOM     16  H61 UNL     1     -26.115   4.149  26.790  1.00  0.00     0.176 HD
ENDBRANCH  12  14
ENDBRANCH   8  10
BRANCH   9  17
HETATM   17  C6  UNL     1     -26.478  -0.800  25.982  1.00  0.00     0.285 C 
HETATM   18  N7  UNL     1     -25.478  -1.603  26.637  1.00  0.00    -0.056 NA
HETATM   19  O2  UNL     1     -26.017  -0.117  25.006  1.00  0.00    -0.269 OA
ENDBRANCH   9  17
BRANCH   5  20
HETATM   20  N3  UNL     1     -31.661  -0.929  27.551  1.00  0.00    -0.233 N 
ATOM     21  H32 UNL     1     -31.902  -1.569  28.307  1.00  0.00     0.174 HD
ATOM     22  H31 UNL     1     -32.368  -0.335  27.116  1.00  0.00     0.174 HD
ENDBRANCH   5  20
TORSDOF 4
ENDMDL
MODEL 5
REMARK VINA RESULT: -5.181202074      1.745      3.624
REMARK  4 active torsions:
REMARK  status: ('A' for Active; 'I' for Inactive)
REMARK    1  A    between atoms: C2_5  and  N3_6 
REMARK    2  A    between atoms: C3_11  and  C4_12 
REMARK       I    between atoms: C4_12  and  N5_14 
REMARK    3  A    between atoms: N5_14  and  N6_16 
REMARK    4  A    between atoms: C5_19  and  C6_20 
ROOT
HETATM    1  C1  UNL     1     -25.285   1.828  28.378  1.00  0.00     0.179 C 
HETATM    2  N1  UNL     1     -26.061   0.876  27.614  1.00  0.00    -0.275 N 
HETATM    3  N2  UNL     1     -25.503  -0.259  27.195  1.00  0.00    -0.130 N 
ATOM      4  H2  UNL     1     -24.520  -0.430  27.406  1.00  0.00     0.206 HD
HETATM    5  C2  UNL     1     -26.182  -1.178  26.511  1.00  0.00     0.691 A 
HETATM    6  N4  UNL     1     -27.477  -1.002  26.206  1.00  0.00    -0.183 N 
ATOM      7  H4  UNL     1     -27.990  -1.711  25.683  1.00  0.00     0.184 HD
HETATM    8  C3  UNL     1     -28.097   0.155  26.615  1.00  0.00     0.151 A 
HETATM    9  C5  UNL     1     -27.378   1.082  27.318  1.00  0.00     0.148 A 
ENDROOT
BRANCH   8  10
HETATM   10  C4  UNL     1     -29.479   0.308  26.248  1.00  0.00     0.289 C 
HETATM   11  O1  UNL     1     -30.473  -0.164  26.864  1.00  0.00    -0.264 OA
HETATM   12  N5  UNL     1     -29.822   1.068  25.060  1.00  0.00    -0.271 N 
ATOM     13  H5  UNL     1     -29.078   1.482  24.500  1.00  0.00     0.189 HD
BRANCH  12  14
HETATM   14  N6  UNL     1     -31.157   1.245  24.667  1.00  0.00    -0.342 N 
ATOM     15  H62 UNL     1     -31.346   1.822  23.847  1.00  0.00     0.176 HD
ATOM     16  H61 UNL     1     -31.925   0.812  25.181  1.00  0.00     0.176 HD
ENDBRANCH  12  14
ENDBRANCH   8  10
BRANCH   9  17
HETATM   17  C6  UNL     1     -27.972   2.318  27.763  1.00  0.00     0.285 C 
HETATM   18  N7  UNL     1     -28.247   3.386  26.838  1.00  0.00    -0.056 NA
HETATM   19  O2  UNL     1     -28.310   2.590  28.965  1.00  0.00    -0.269 OA
ENDBRANCH   9  17
BRANCH   5  20
HETATM   20  N3  UNL     1     -25.630  -2.278  26.110  1.00  0.00    -0.233 N 
ATOM     21  H32 UNL     1     -25.251  -2.895  26.829  1.00  0.00     0.174 HD
ATOM     22  H31 UNL     1     -25.572  -2.523  25.122  1.00  0.00     0.174 HD
ENDBRANCH   5  20
TORSDOF 4
ENDMDL
