MODEL 1
REMARK VINA RESULT: -5.246597002      0.000      0.000
REMARK  4 active torsions:
REMARK  status: ('A' for Active; 'I' for Inactive)
REMARK    1  A    between atoms: C2_2  and  N1_3 
REMARK    2  A    between atoms: C2_2  and  C3_7 
REMARK       I    between atoms: C3_7  and  N2_9 
REMARK    3  A    between atoms: N3_11  and  N4_13 
REMARK    4  A    between atoms: N6_21  and  N7_22 
ROOT
HETATM    1  C3  UNL     1      -8.179 -18.720  48.869  1.00  0.00     0.274 C 
HETATM    2  O1  UNL     1      -8.297 -18.305  47.679  1.00  0.00    -0.269 OA
HETATM    3  N2  UNL     1      -9.284 -19.331  49.509  1.00  0.00    -0.175 N 
HETATM    4  C4  UNL     1     -10.545 -19.534  48.938  1.00  0.00     0.231 C 
HETATM    5  N3  UNL     1     -11.107 -18.748  48.052  1.00  0.00    -0.276 N 
ATOM      6  H3  UNL     1     -10.605 -17.916  47.741  1.00  0.00     0.189 HD
HETATM    7  N5  UNL     1     -11.179 -20.708  49.419  1.00  0.00    -0.237 N 
ATOM      8  H5  UNL     1     -12.042 -21.135  49.082  1.00  0.00     0.183 HD
HETATM    9  S1  UNL     1     -10.164 -21.252  50.701  1.00  0.00     0.341 S 
HETATM   10  O2  UNL     1      -9.331 -22.418  50.316  1.00  0.00    -0.185 OA
HETATM   11  O3  UNL     1     -10.986 -21.468  51.914  1.00  0.00    -0.185 OA
HETATM   12  N6  UNL     1      -9.195 -19.799  50.832  1.00  0.00     0.001 NA
ENDROOT
BRANCH   1  13
HETATM   13  C2  UNL     1      -6.859 -18.526  49.507  1.00  0.00     0.272 C 
HETATM   14  C1  UNL     1      -5.920 -17.774  48.599  1.00  0.00     0.050 C 
BRANCH  13  15
HETATM   15  N1  UNL     1      -6.234 -19.795  49.827  1.00  0.00    -0.067 N 
ATOM     16  H13 UNL     1      -5.714 -20.191  49.044  1.00  0.00     0.275 HD
ATOM     17  H12 UNL     1      -5.452 -19.701  50.474  1.00  0.00     0.275 HD
ATOM     18  H11 UNL     1      -6.963 -20.418  50.174  1.00  0.00     0.275 HD
ENDBRANCH  13  15
ENDBRANCH   1  13
BRANCH  12  19
HETATM   19  N7  UNL     1      -9.907 -18.915  51.689  1.00  0.00    -0.330 NA
ATOM     20  H72 UNL     1      -9.652 -17.969  51.404  1.00  0.00     0.173 HD
ATOM     21  H71 UNL     1      -9.484 -18.936  52.617  1.00  0.00     0.173 HD
ENDBRANCH  12  19
BRANCH   5  22
HETATM   22  N4  UNL     1     -12.364 -19.011  47.525  1.00  0.00    -0.342 N 
ATOM     23  H42 UNL     1     -13.122 -19.216  48.176  1.00  0.00     0.176 HD
ATOM     24  H41 UNL     1     -12.543 -19.002  46.522  1.00  0.00     0.176 HD
ENDBRANCH   5  22
TORSDOF 4
ENDMDL
MODEL 2
REMARK VINA RESULT: -5.046284367      3.721      4.704
REMARK  4 active torsions:
REMARK  status: ('A' for Active; 'I' for Inactive)
REMARK    1  A    between atoms: C2_2  and  N1_3 
REMARK    2  A    between atoms: C2_2  and  C3_7 
REMARK       I    between atoms: C3_7  and  N2_9 
REMARK    3  A    between atoms: N3_11  and  N4_13 
REMARK    4  A    between atoms: N6_21  and  N7_22 
ROOT
HETATM    1  C3  UNL     1     -11.233 -20.441  48.584  1.00  0.00     0.274 C 
HETATM    2  O1  UNL     1     -10.366 -19.573  48.275  1.00  0.00    -0.269 OA
HETATM    3  N2  UNL     1     -12.348 -20.649  47.737  1.00  0.00    -0.175 N 
HETATM    4  C4  UNL     1     -12.600 -19.967  46.542  1.00  0.00     0.231 C 
HETATM    5  N3  UNL     1     -12.264 -18.723  46.299  1.00  0.00    -0.276 N 
ATOM      6  H3  UNL     1     -11.781 -18.191  47.023  1.00  0.00     0.189 HD
HETATM    7  N5  UNL     1     -13.271 -20.771  45.586  1.00  0.00    -0.237 N 
ATOM      8  H5  UNL     1     -13.466 -20.549  44.610  1.00  0.00     0.183 HD
HETATM    9  S1  UNL     1     -13.684 -22.207  46.444  1.00  0.00     0.341 S 
HETATM   10  O2  UNL     1     -12.803 -23.351  46.103  1.00  0.00    -0.185 OA
HETATM   11  O3  UNL     1     -15.129 -22.480  46.269  1.00  0.00    -0.185 OA
HETATM   12  N6  UNL     1     -13.336 -21.599  48.050  1.00  0.00     0.001 NA
ENDROOT
BRANCH   1  13
HETATM   13  C2  UNL     1     -11.000 -21.186  49.841  1.00  0.00     0.272 C 
HETATM   14  C1  UNL     1      -9.628 -20.904  50.396  1.00  0.00     0.050 C 
BRANCH  13  15
HETATM   15  N1  UNL     1     -11.103 -22.618  49.634  1.00  0.00    -0.067 N 
ATOM     16  H13 UNL     1     -10.558 -23.157  50.307  1.00  0.00     0.275 HD
ATOM     17  H12 UNL     1     -12.022 -22.989  49.877  1.00  0.00     0.275 HD
ATOM     18  H11 UNL     1     -10.841 -22.809  48.667  1.00  0.00     0.275 HD
ENDBRANCH  13  15
ENDBRANCH   1  13
BRANCH  12  19
HETATM   19  N7  UNL     1     -14.509 -20.926  48.490  1.00  0.00    -0.330 NA
ATOM     20  H72 UNL     1     -15.035 -21.597  49.050  1.00  0.00     0.173 HD
ATOM     21  H71 UNL     1     -15.148 -20.818  47.703  1.00  0.00     0.173 HD
ENDBRANCH  12  19
BRANCH   5  22
HETATM   22  N4  UNL     1     -12.545 -18.107  45.087  1.00  0.00    -0.342 N 
ATOM     23  H42 UNL     1     -12.810 -18.700  44.300  1.00  0.00     0.176 HD
ATOM     24  H41 UNL     1     -12.493 -17.096  44.968  1.00  0.00     0.176 HD
ENDBRANCH   5  22
TORSDOF 4
ENDMDL
MODEL 3
REMARK VINA RESULT: -4.973784394      3.790      6.354
REMARK  4 active torsions:
REMARK  status: ('A' for Active; 'I' for Inactive)
REMARK    1  A    between atoms: C2_2  and  N1_3 
REMARK    2  A    between atoms: C2_2  and  C3_7 
REMARK       I    between atoms: C3_7  and  N2_9 
REMARK    3  A    between atoms: N3_11  and  N4_13 
REMARK    4  A    between atoms: N6_21  and  N7_22 
ROOT
HETATM    1  C3  UNL     1     -13.198 -22.332  47.940  1.00  0.00     0.274 C 
HETATM    2  O1  UNL     1     -12.378 -23.027  48.608  1.00  0.00    -0.269 OA
HETATM    3  N2  UNL     1     -13.023 -20.929  47.859  1.00  0.00    -0.175 N 
HETATM    4  C4  UNL     1     -11.993 -20.202  48.465  1.00  0.00     0.231 C 
HETATM    5  N3  UNL     1     -11.419 -20.512  49.602  1.00  0.00    -0.276 N 
ATOM      6  H3  UNL     1     -11.732 -21.344  50.102  1.00  0.00     0.189 HD
HETATM    7  N5  UNL     1     -11.614 -19.063  47.711  1.00  0.00    -0.237 N 
ATOM      8  H5  UNL     1     -10.822 -18.440  47.875  1.00  0.00     0.183 HD
HETATM    9  S1  UNL     1     -12.788 -18.965  46.455  1.00  0.00     0.341 S 
HETATM   10  O2  UNL     1     -12.266 -19.431  45.146  1.00  0.00    -0.185 OA
HETATM   11  O3  UNL     1     -13.362 -17.600  46.428  1.00  0.00    -0.185 OA
HETATM   12  N6  UNL     1     -13.916 -20.123  47.131  1.00  0.00     0.001 NA
ENDROOT
BRANCH   1  13
HETATM   13  C2  UNL     1     -14.300 -23.066  47.281  1.00  0.00     0.272 C 
HETATM   14  C1  UNL     1     -14.020 -23.270  45.814  1.00  0.00     0.050 C 
BRANCH  13  15
HETATM   15  N1  UNL     1     -15.555 -22.347  47.391  1.00  0.00    -0.067 N 
ATOM     16  H13 UNL     1     -15.427 -21.345  47.536  1.00  0.00     0.275 HD
ATOM     17  H12 UNL     1     -16.060 -22.291  46.506  1.00  0.00     0.275 HD
ATOM     18  H11 UNL     1     -16.099 -22.789  48.131  1.00  0.00     0.275 HD
ENDBRANCH  13  15
ENDBRANCH   1  13
BRANCH  12  19
HETATM   19  N7  UNL     1     -14.738 -19.401  48.040  1.00  0.00    -0.330 NA
ATOM     20  H72 UNL     1     -14.117 -18.786  48.566  1.00  0.00     0.173 HD
ATOM     21  H71 UNL     1     -15.039 -20.026  48.788  1.00  0.00     0.173 HD
ENDBRANCH  12  19
BRANCH   5  22
HETATM   22  N4  UNL     1     -10.400 -19.744  50.147  1.00  0.00    -0.342 N 
ATOM     23  H42 UNL     1      -9.802 -20.174  50.853  1.00  0.00     0.176 HD
ATOM     24  H41 UNL     1     -10.237 -18.779  49.862  1.00  0.00     0.176 HD
ENDBRANCH   5  22
TORSDOF 4
ENDMDL
MODEL 4
REMARK VINA RESULT: -4.748162703      4.894      5.996
REMARK  4 active torsions:
REMARK  status: ('A' for Active; 'I' for Inactive)
REMARK    1  A    between atoms: C2_2  and  N1_3 
REMARK    2  A    between atoms: C2_2  and  C3_7 
REMARK       I    between atoms: C3_7  and  N2_9 
REMARK    3  A    between atoms: N3_11  and  N4_13 
REMARK    4  A    between atoms: N6_21  and  N7_22 
ROOT
HETATM    1  C3  UNL     1     -14.122 -19.467  47.145  1.00  0.00     0.274 C 
HETATM    2  O1  UNL     1     -15.214 -18.829  47.174  1.00  0.00    -0.269 OA
HETATM    3  N2  UNL     1     -14.125 -20.868  47.352  1.00  0.00    -0.175 N 
HETATM    4  C4  UNL     1     -15.258 -21.652  47.592  1.00  0.00     0.231 C 
HETATM    5  N3  UNL     1     -16.331 -21.251  48.230  1.00  0.00    -0.276 N 
ATOM      6  H3  UNL     1     -16.364 -20.296  48.589  1.00  0.00     0.189 HD
HETATM    7  N5  UNL     1     -15.137 -22.962  47.063  1.00  0.00    -0.237 N 
ATOM      8  H5  UNL     1     -15.858 -23.682  47.006  1.00  0.00     0.183 HD
HETATM    9  S1  UNL     1     -13.500 -23.066  46.539  1.00  0.00     0.341 S 
HETATM   10  O2  UNL     1     -13.363 -22.959  45.065  1.00  0.00    -0.185 OA
HETATM   11  O3  UNL     1     -12.878 -24.279  47.118  1.00  0.00    -0.185 OA
HETATM   12  N6  UNL     1     -12.932 -21.612  47.333  1.00  0.00     0.001 NA
ENDROOT
BRANCH   1  13
HETATM   13  C2  UNL     1     -12.900 -18.673  46.890  1.00  0.00     0.272 C 
HETATM   14  C1  UNL     1     -12.353 -18.941  45.512  1.00  0.00     0.050 C 
BRANCH  13  15
HETATM   15  N1  UNL     1     -11.855 -18.988  47.845  1.00  0.00    -0.067 N 
ATOM     16  H13 UNL     1     -12.022 -19.864  48.341  1.00  0.00     0.275 HD
ATOM     17  H12 UNL     1     -10.976 -19.251  47.400  1.00  0.00     0.275 HD
ATOM     18  H11 UNL     1     -11.759 -18.189  48.471  1.00  0.00     0.275 HD
ENDBRANCH  13  15
ENDBRANCH   1  13
BRANCH  12  19
HETATM   19  N7  UNL     1     -12.594 -21.984  48.663  1.00  0.00    -0.330 NA
ATOM     20  H72 UNL     1     -13.468 -22.002  49.190  1.00  0.00     0.173 HD
ATOM     21  H71 UNL     1     -12.130 -21.200  49.122  1.00  0.00     0.173 HD
ENDBRANCH  12  19
BRANCH   5  22
HETATM   22  N4  UNL     1     -17.423 -22.083  48.433  1.00  0.00    -0.342 N 
ATOM     23  H42 UNL     1     -17.705 -22.697  47.668  1.00  0.00     0.176 HD
ATOM     24  H41 UNL     1     -17.938 -22.096  49.312  1.00  0.00     0.176 HD
ENDBRANCH   5  22
TORSDOF 4
ENDMDL
MODEL 5
REMARK VINA RESULT: -4.658552802      1.735      2.130
REMARK  4 active torsions:
REMARK  status: ('A' for Active; 'I' for Inactive)
REMARK    1  A    between atoms: C2_2  and  N1_3 
REMARK    2  A    between atoms: C2_2  and  C3_7 
REMARK       I    between atoms: C3_7  and  N2_9 
REMARK    3  A    between atoms: N3_11  and  N4_13 
REMARK    4  A    between atoms: N6_21  and  N7_22 
ROOT
HETATM    1  C3  UNL     1      -9.940 -19.291  48.448  1.00  0.00     0.274 C 
HETATM    2  O1  UNL     1     -10.435 -19.286  47.283  1.00  0.00    -0.269 OA
HETATM    3  N2  UNL     1     -10.324 -20.298  49.366  1.00  0.00    -0.175 N 
HETATM    4  C4  UNL     1     -11.229 -21.333  49.107  1.00  0.00     0.231 C 
HETATM    5  N3  UNL     1     -12.263 -21.246  48.305  1.00  0.00    -0.276 N 
ATOM      6  H3  UNL     1     -12.441 -20.366  47.821  1.00  0.00     0.189 HD
HETATM    7  N5  UNL     1     -10.916 -22.522  49.813  1.00  0.00    -0.237 N 
ATOM      8  H5  UNL     1     -11.348 -23.440  49.712  1.00  0.00     0.183 HD
HETATM    9  S1  UNL     1      -9.642 -22.067  50.880  1.00  0.00     0.341 S 
HETATM   10  O2  UNL     1      -8.314 -22.541  50.419  1.00  0.00    -0.185 OA
HETATM   11  O3  UNL     1      -9.990 -22.482  52.259  1.00  0.00    -0.185 OA
HETATM   12  N6  UNL     1      -9.801 -20.335  50.671  1.00  0.00     0.001 NA
ENDROOT
BRANCH   1  13
HETATM   13  C2  UNL     1      -8.975 -18.215  48.759  1.00  0.00     0.272 C 
HETATM   14  C1  UNL     1      -7.575 -18.757  48.886  1.00  0.00     0.050 C 
BRANCH  13  15
HETATM   15  N1  UNL     1      -9.303 -17.555  50.009  1.00  0.00    -0.067 N 
ATOM     16  H13 UNL     1      -8.478 -17.299  50.551  1.00  0.00     0.275 HD
ATOM     17  H12 UNL     1      -9.674 -16.614  49.876  1.00  0.00     0.275 HD
ATOM     18  H11 UNL     1      -9.941 -18.164  50.520  1.00  0.00     0.275 HD
ENDBRANCH  13  15
ENDBRANCH   1  13
BRANCH  12  19
HETATM   19  N7  UNL     1     -10.803 -19.908  51.586  1.00  0.00    -0.330 NA
ATOM     20  H72 UNL     1     -11.446 -20.693  51.698  1.00  0.00     0.173 HD
ATOM     21  H71 UNL     1     -11.420 -19.243  51.121  1.00  0.00     0.173 HD
ENDBRANCH  12  19
BRANCH   5  22
HETATM   22  N4  UNL     1     -13.123 -22.315  48.093  1.00  0.00    -0.342 N 
ATOM     23  H42 UNL     1     -12.822 -23.051  47.454  1.00  0.00     0.176 HD
ATOM     24  H41 UNL     1     -14.030 -22.380  48.553  1.00  0.00     0.176 HD
ENDBRANCH   5  22
TORSDOF 4
ENDMDL
