MODEL 1
REMARK VINA RESULT: -5.626393983      0.000      0.000
REMARK  8 active torsions:
REMARK  status: ('A' for Active; 'I' for Inactive)
REMARK    1  A    between atoms: N1_1  and  N2_4 
REMARK       I    between atoms: N2_4  and  C1_6 
REMARK       I    between atoms: C1_6  and  N3_7 
REMARK       I    between atoms: C1_6  and  N10_28 
REMARK    2  A    between atoms: N3_7  and  C2_9 
REMARK    3  A    between atoms: C2_9  and  C3_10 
REMARK    4  A    between atoms: C3_10  and  N4_11 
REMARK    5  A    between atoms: C6_16  and  N6_17 
REMARK    6  A    between atoms: N6_17  and  N7_19 
REMARK    7  A    between atoms: N10_28  and  N11_30 
REMARK       I    between atoms: C9_32  and  N13_34 
REMARK    8  A    between atoms: N13_34  and  N14_36 
ROOT
HETATM    1  N2  UNL     1      14.658  22.804  78.681  1.00  0.00    -0.138 N 
ATOM      2  H2  UNL     1      14.417  23.048  77.720  1.00  0.00     0.205 HD
HETATM    3  C1  UNL     1      15.114  21.635  78.943  1.00  0.00     0.706 C 
HETATM    4  N3  UNL     1      15.447  21.311  80.285  1.00  0.00    -0.222 N 
ATOM      5  H3  UNL     1      14.824  20.722  80.838  1.00  0.00     0.177 HD
HETATM    6  N10 UNL     1      15.301  20.647  77.945  1.00  0.00    -0.129 N 
ATOM      7  H10 UNL     1      16.144  20.075  77.983  1.00  0.00     0.205 HD
ENDROOT
BRANCH   4   8
HETATM    8  C2  UNL     1      16.656  21.813  80.856  1.00  0.00     0.158 C 
BRANCH   8   9
HETATM    9  C3  UNL     1      17.364  20.701  81.572  1.00  0.00     0.151 C 
BRANCH   9  10
HETATM   10  N4  UNL     1      18.578  20.344  80.904  1.00  0.00    -0.326 N 
HETATM   11  C4  UNL     1      19.796  20.867  81.077  1.00  0.00     0.185 A 
HETATM   12  N5  UNL     1      20.653  20.247  80.254  1.00  0.00    -0.346 N 
HETATM   13  C5  UNL     1      20.010  19.312  79.533  1.00  0.00     0.123 A 
ATOM     14  H5  UNL     1      21.650  20.455  80.184  1.00  0.00     0.167 HD
HETATM   15  C6  UNL     1      20.437  18.424  78.570  1.00  0.00     0.151 A 
HETATM   16  C8  UNL     1      18.698  19.378  79.950  1.00  0.00     0.140 A 
HETATM   17  N8  UNL     1      19.513  17.609  78.040  1.00  0.00    -0.336 N 
HETATM   18  C7  UNL     1      18.215  17.643  78.423  1.00  0.00     0.183 A 
ATOM     19  H8  UNL     1      19.798  16.939  77.325  1.00  0.00     0.168 HD
HETATM   20  N9  UNL     1      17.836  18.525  79.367  1.00  0.00    -0.336 N 
ATOM     21  H9  UNL     1      16.857  18.548  79.652  1.00  0.00     0.168 HD
BRANCH  15  22
HETATM   22  N6  UNL     1      21.659  18.353  78.173  1.00  0.00    -0.290 N 
ATOM     23  H6  UNL     1      22.278  19.161  78.244  1.00  0.00     0.188 HD
BRANCH  22  24
HETATM   24  N7  UNL     1      22.116  17.151  77.647  1.00  0.00    -0.344 N 
ATOM     25  H72 UNL     1      21.690  16.272  77.943  1.00  0.00     0.176 HD
ATOM     26  H71 UNL     1      22.877  17.175  76.968  1.00  0.00     0.176 HD
ENDBRANCH  22  24
ENDBRANCH  15  22
ENDBRANCH   9  10
ENDBRANCH   8   9
ENDBRANCH   4   8
BRANCH   1  27
HETATM   27  N1  UNL     1      14.490  23.746  79.696  1.00  0.00    -0.331 N 
ATOM     28  H12 UNL     1      13.608  23.761  80.208  1.00  0.00     0.177 HD
ATOM     29  H11 UNL     1      15.234  24.408  79.920  1.00  0.00     0.177 HD
ENDBRANCH   1  27
BRANCH   6  30
HETATM   30  N11 UNL     1      14.390  20.421  76.915  1.00  0.00    -0.258 N 
HETATM   31  C9  UNL     1      14.168  19.227  76.499  1.00  0.00     0.227 C 
HETATM   32  N12 UNL     1      14.869  18.154  77.109  1.00  0.00    -0.060 NA
HETATM   33  N13 UNL     1      13.231  19.058  75.449  1.00  0.00    -0.212 N 
ATOM     34  H13 UNL     1      13.460  18.403  74.701  1.00  0.00     0.196 HD
ATOM     35  H11 UNL     1      13.898  21.206  76.490  1.00  0.00     0.190 HD
BRANCH  33  36
HETATM   36  N14 UNL     1      12.017  19.733  75.378  1.00  0.00    -0.036 N 
HETATM   37  O1  UNL     1      11.452  19.831  74.272  1.00  0.00    -0.516 OA
HETATM   38  O2  UNL     1      11.391  20.304  76.459  1.00  0.00    -0.516 OA
ENDBRANCH  33  36
ENDBRANCH   6  30
TORSDOF 8
ENDMDL
MODEL 2
REMARK VINA RESULT: -5.574050123      3.833      7.670
REMARK  8 active torsions:
REMARK  status: ('A' for Active; 'I' for Inactive)
REMARK    1  A    between atoms: N1_1  and  N2_4 
REMARK       I    between atoms: N2_4  and  C1_6 
REMARK       I    between atoms: C1_6  and  N3_7 
REMARK       I    between atoms: C1_6  and  N10_28 
REMARK    2  A    between atoms: N3_7  and  C2_9 
REMARK    3  A    between atoms: C2_9  and  C3_10 
REMARK    4  A    between atoms: C3_10  and  N4_11 
REMARK    5  A    between atoms: C6_16  and  N6_17 
REMARK    6  A    between atoms: N6_17  and  N7_19 
REMARK    7  A    between atoms: N10_28  and  N11_30 
REMARK       I    between atoms: C9_32  and  N13_34 
REMARK    8  A    between atoms: N13_34  and  N14_36 
ROOT
HETATM    1  N2  UNL     1      15.563  22.294  79.971  1.00  0.00    -0.138 N 
ATOM      2  H2  UNL     1      15.876  22.923  80.710  1.00  0.00     0.205 HD
HETATM    3  C1  UNL     1      16.083  21.127  79.869  1.00  0.00     0.706 C 
HETATM    4  N3  UNL     1      15.636  20.262  78.835  1.00  0.00    -0.222 N 
ATOM      5  H3  UNL     1      16.209  20.119  78.003  1.00  0.00     0.177 HD
HETATM    6  N10 UNL     1      17.090  20.660  80.748  1.00  0.00    -0.129 N 
ATOM      7  H10 UNL     1      17.037  19.696  81.078  1.00  0.00     0.205 HD
ENDROOT
BRANCH   4   8
HETATM    8  C2  UNL     1      14.379  19.594  78.964  1.00  0.00     0.158 C 
BRANCH   8   9
HETATM    9  C3  UNL     1      13.584  19.790  77.707  1.00  0.00     0.151 C 
BRANCH   9  10
HETATM   10  N4  UNL     1      13.390  18.551  77.017  1.00  0.00    -0.326 N 
HETATM   11  C4  UNL     1      13.628  17.314  77.466  1.00  0.00     0.185 A 
HETATM   12  N5  UNL     1      13.311  16.437  76.502  1.00  0.00    -0.346 N 
HETATM   13  C5  UNL     1      12.864  17.086  75.413  1.00  0.00     0.123 A 
ATOM     14  H5  UNL     1      13.398  15.424  76.583  1.00  0.00     0.167 HD
HETATM   15  C6  UNL     1      12.423  16.646  74.184  1.00  0.00     0.151 A 
HETATM   16  C8  UNL     1      12.916  18.423  75.746  1.00  0.00     0.140 A 
HETATM   17  N8  UNL     1      12.038  17.582  73.304  1.00  0.00    -0.336 N 
HETATM   18  C7  UNL     1      12.075  18.904  73.593  1.00  0.00     0.183 A 
ATOM     19  H8  UNL     1      11.706  17.287  72.385  1.00  0.00     0.168 HD
HETATM   20  N9  UNL     1      12.512  19.295  74.805  1.00  0.00    -0.336 N 
ATOM     21  H9  UNL     1      12.539  20.292  75.018  1.00  0.00     0.168 HD
BRANCH  15  22
HETATM   22  N6  UNL     1      12.369  15.401  73.863  1.00  0.00    -0.290 N 
ATOM     23  H6  UNL     1      11.555  14.835  74.103  1.00  0.00     0.188 HD
BRANCH  22  24
HETATM   24  N7  UNL     1      13.445  14.845  73.180  1.00  0.00    -0.344 N 
ATOM     25  H72 UNL     1      14.368  15.273  73.255  1.00  0.00     0.176 HD
ATOM     26  H71 UNL     1      13.284  14.012  72.614  1.00  0.00     0.176 HD
ENDBRANCH  22  24
ENDBRANCH  15  22
ENDBRANCH   9  10
ENDBRANCH   8   9
ENDBRANCH   4   8
BRANCH   1  27
HETATM   27  N1  UNL     1      14.573  22.712  79.081  1.00  0.00    -0.331 N 
ATOM     28  H12 UNL     1      14.784  23.474  78.436  1.00  0.00     0.177 HD
ATOM     29  H11 UNL     1      13.656  22.266  79.076  1.00  0.00     0.177 HD
ENDBRANCH   1  27
BRANCH   6  30
HETATM   30  N11 UNL     1      18.149  21.453  81.186  1.00  0.00    -0.258 N 
HETATM   31  C9  UNL     1      19.359  21.124  80.912  1.00  0.00     0.227 C 
HETATM   32  N12 UNL     1      19.588  19.943  80.161  1.00  0.00    -0.060 NA
HETATM   33  N13 UNL     1      20.395  21.970  81.383  1.00  0.00    -0.212 N 
ATOM     34  H13 UNL     1      21.228  21.534  81.780  1.00  0.00     0.196 HD
ATOM     35  H11 UNL     1      17.962  22.298  81.726  1.00  0.00     0.190 HD
BRANCH  33  36
HETATM   36  N14 UNL     1      20.343  23.360  81.336  1.00  0.00    -0.036 N 
HETATM   37  O1  UNL     1      21.181  24.011  81.988  1.00  0.00    -0.516 OA
HETATM   38  O2  UNL     1      19.418  24.069  80.609  1.00  0.00    -0.516 OA
ENDBRANCH  33  36
ENDBRANCH   6  30
TORSDOF 8
ENDMDL
MODEL 3
REMARK VINA RESULT: -5.516447457      4.003      6.816
REMARK  8 active torsions:
REMARK  status: ('A' for Active; 'I' for Inactive)
REMARK    1  A    between atoms: N1_1  and  N2_4 
REMARK       I    between atoms: N2_4  and  C1_6 
REMARK       I    between atoms: C1_6  and  N3_7 
REMARK       I    between atoms: C1_6  and  N10_28 
REMARK    2  A    between atoms: N3_7  and  C2_9 
REMARK    3  A    between atoms: C2_9  and  C3_10 
REMARK    4  A    between atoms: C3_10  and  N4_11 
REMARK    5  A    between atoms: C6_16  and  N6_17 
REMARK    6  A    between atoms: N6_17  and  N7_19 
REMARK    7  A    between atoms: N10_28  and  N11_30 
REMARK       I    between atoms: C9_32  and  N13_34 
REMARK    8  A    between atoms: N13_34  and  N14_36 
ROOT
HETATM    1  N2  UNL     1      11.410  19.095  73.799  1.00  0.00    -0.138 N 
ATOM      2  H2  UNL     1      10.549  18.962  73.268  1.00  0.00     0.205 HD
HETATM    3  C1  UNL     1      11.381  19.751  74.900  1.00  0.00     0.706 C 
HETATM    4  N3  UNL     1      12.587  19.927  75.628  1.00  0.00    -0.222 N 
ATOM      5  H3  UNL     1      13.073  20.823  75.606  1.00  0.00     0.177 HD
HETATM    6  N10 UNL     1      10.191  20.312  75.423  1.00  0.00    -0.129 N 
ATOM      7  H10 UNL     1      10.023  20.243  76.427  1.00  0.00     0.205 HD
ENDROOT
BRANCH   4   8
HETATM    8  C2  UNL     1      13.118  18.842  76.393  1.00  0.00     0.158 C 
BRANCH   8   9
HETATM    9  C3  UNL     1      12.982  19.153  77.854  1.00  0.00     0.151 C 
BRANCH   9  10
HETATM   10  N4  UNL     1      13.894  20.182  78.252  1.00  0.00    -0.326 N 
HETATM   11  C4  UNL     1      15.231  20.147  78.237  1.00  0.00     0.185 A 
HETATM   12  N5  UNL     1      15.699  21.318  78.691  1.00  0.00    -0.346 N 
HETATM   13  C5  UNL     1      14.678  22.133  79.009  1.00  0.00     0.123 A 
ATOM     14  H5  UNL     1      16.686  21.556  78.782  1.00  0.00     0.167 HD
HETATM   15  C6  UNL     1      14.634  23.417  79.508  1.00  0.00     0.151 A 
HETATM   16  C8  UNL     1      13.540  21.409  78.728  1.00  0.00     0.140 A 
HETATM   17  N8  UNL     1      13.420  23.949  79.716  1.00  0.00    -0.336 N 
HETATM   18  C7  UNL     1      12.279  23.269  79.453  1.00  0.00     0.183 A 
ATOM     19  H8  UNL     1      13.355  24.899  80.084  1.00  0.00     0.168 HD
HETATM   20  N9  UNL     1      12.363  22.017  78.966  1.00  0.00    -0.336 N 
ATOM     21  H9  UNL     1      11.501  21.508  78.770  1.00  0.00     0.168 HD
BRANCH  15  22
HETATM   22  N6  UNL     1      15.690  24.103  79.773  1.00  0.00    -0.290 N 
ATOM     23  H6  UNL     1      16.458  23.694  80.305  1.00  0.00     0.188 HD
BRANCH  22  24
HETATM   24  N7  UNL     1      15.760  25.414  79.317  1.00  0.00    -0.344 N 
ATOM     25  H72 UNL     1      14.944  25.844  78.881  1.00  0.00     0.176 HD
ATOM     26  H71 UNL     1      16.637  25.923  79.431  1.00  0.00     0.176 HD
ENDBRANCH  22  24
ENDBRANCH  15  22
ENDBRANCH   9  10
ENDBRANCH   8   9
ENDBRANCH   4   8
BRANCH   1  27
HETATM   27  N1  UNL     1      12.606  18.559  73.321  1.00  0.00    -0.331 N 
ATOM     28  H12 UNL     1      13.278  19.184  72.876  1.00  0.00     0.177 HD
ATOM     29  H11 UNL     1      12.804  17.562  73.414  1.00  0.00     0.177 HD
ENDBRANCH   1  27
BRANCH   6  30
HETATM   30  N11 UNL     1       9.238  20.954  74.634  1.00  0.00    -0.258 N 
HETATM   31  C9  UNL     1       7.996  20.912  74.957  1.00  0.00     0.227 C 
HETATM   32  N12 UNL     1       7.623  20.201  76.127  1.00  0.00    -0.060 NA
HETATM   33  N13 UNL     1       7.073  21.584  74.116  1.00  0.00    -0.212 N 
ATOM     34  H13 UNL     1       6.193  21.116  73.899  1.00  0.00     0.196 HD
ATOM     35  H11 UNL     1       9.528  21.459  73.797  1.00  0.00     0.190 HD
BRANCH  33  36
HETATM   36  N14 UNL     1       7.297  22.843  73.570  1.00  0.00    -0.036 N 
HETATM   37  O1  UNL     1       6.643  23.183  72.566  1.00  0.00    -0.516 OA
HETATM   38  O2  UNL     1       8.202  23.748  74.070  1.00  0.00    -0.516 OA
ENDBRANCH  33  36
ENDBRANCH   6  30
TORSDOF 8
ENDMDL
MODEL 4
REMARK VINA RESULT: -5.500153525      3.761      7.518
REMARK  8 active torsions:
REMARK  status: ('A' for Active; 'I' for Inactive)
REMARK    1  A    between atoms: N1_1  and  N2_4 
REMARK       I    between atoms: N2_4  and  C1_6 
REMARK       I    between atoms: C1_6  and  N3_7 
REMARK       I    between atoms: C1_6  and  N10_28 
REMARK    2  A    between atoms: N3_7  and  C2_9 
REMARK    3  A    between atoms: C2_9  and  C3_10 
REMARK    4  A    between atoms: C3_10  and  N4_11 
REMARK    5  A    between atoms: C6_16  and  N6_17 
REMARK    6  A    between atoms: N6_17  and  N7_19 
REMARK    7  A    between atoms: N10_28  and  N11_30 
REMARK       I    between atoms: C9_32  and  N13_34 
REMARK    8  A    between atoms: N13_34  and  N14_36 
ROOT
HETATM    1  N2  UNL     1      16.702  16.088  79.459  1.00  0.00    -0.138 N 
ATOM      2  H2  UNL     1      17.216  15.497  78.806  1.00  0.00     0.205 HD
HETATM    3  C1  UNL     1      16.767  17.364  79.346  1.00  0.00     0.706 C 
HETATM    4  N3  UNL     1      16.045  18.173  80.263  1.00  0.00    -0.222 N 
ATOM      5  H3  UNL     1      16.534  18.647  81.022  1.00  0.00     0.177 HD
HETATM    6  N10 UNL     1      17.531  18.003  78.340  1.00  0.00    -0.129 N 
ATOM      7  H10 UNL     1      17.131  18.816  77.870  1.00  0.00     0.205 HD
ENDROOT
BRANCH   4   8
HETATM    8  C2  UNL     1      14.631  18.321  80.117  1.00  0.00     0.158 C 
BRANCH   8   9
HETATM    9  C3  UNL     1      14.325  19.710  79.641  1.00  0.00     0.151 C 
BRANCH   9  10
HETATM   10  N4  UNL     1      14.081  19.733  78.231  1.00  0.00    -0.326 N 
HETATM   11  C4  UNL     1      14.867  20.225  77.268  1.00  0.00     0.185 A 
HETATM   12  N5  UNL     1      14.264  20.046  76.084  1.00  0.00    -0.346 N 
HETATM   13  C5  UNL     1      13.079  19.436  76.255  1.00  0.00     0.123 A 
ATOM     14  H5  UNL     1      14.649  20.331  75.183  1.00  0.00     0.167 HD
HETATM   15  C6  UNL     1      12.101  19.038  75.370  1.00  0.00     0.151 A 
HETATM   16  C8  UNL     1      12.969  19.240  77.615  1.00  0.00     0.140 A 
HETATM   17  N8  UNL     1      11.016  18.442  75.887  1.00  0.00    -0.336 N 
HETATM   18  C7  UNL     1      10.871  18.233  77.216  1.00  0.00     0.183 A 
ATOM     19  H8  UNL     1      10.274  18.136  75.256  1.00  0.00     0.168 HD
HETATM   20  N9  UNL     1      11.848  18.636  78.050  1.00  0.00    -0.336 N 
ATOM     21  H9  UNL     1      11.735  18.477  79.051  1.00  0.00     0.168 HD
BRANCH  15  22
HETATM   22  N6  UNL     1      12.192  19.215  74.098  1.00  0.00    -0.290 N 
ATOM     23  H6  UNL     1      11.661  19.952  73.635  1.00  0.00     0.188 HD
BRANCH  22  24
HETATM   24  N7  UNL     1      13.030  18.378  73.371  1.00  0.00    -0.344 N 
ATOM     25  H72 UNL     1      13.670  17.751  73.860  1.00  0.00     0.176 HD
ATOM     26  H71 UNL     1      12.986  18.410  72.353  1.00  0.00     0.176 HD
ENDBRANCH  22  24
ENDBRANCH  15  22
ENDBRANCH   9  10
ENDBRANCH   8   9
ENDBRANCH   4   8
BRANCH   1  27
HETATM   27  N1  UNL     1      15.936  15.501  80.466  1.00  0.00    -0.331 N 
ATOM     28  H12 UNL     1      15.224  16.065  80.931  1.00  0.00     0.177 HD
ATOM     29  H11 UNL     1      16.085  14.528  80.733  1.00  0.00     0.177 HD
ENDBRANCH   1  27
BRANCH   6  30
HETATM   30  N11 UNL     1      18.802  17.576  77.959  1.00  0.00    -0.258 N 
HETATM   31  C9  UNL     1      19.846  18.102  78.487  1.00  0.00     0.227 C 
HETATM   32  N12 UNL     1      19.675  19.122  79.459  1.00  0.00    -0.060 NA
HETATM   33  N13 UNL     1      21.112  17.627  78.061  1.00  0.00    -0.212 N 
ATOM     34  H13 UNL     1      21.850  18.310  77.893  1.00  0.00     0.196 HD
ATOM     35  H11 UNL     1      18.902  16.842  77.258  1.00  0.00     0.190 HD
BRANCH  33  36
HETATM   36  N14 UNL     1      21.406  16.282  77.858  1.00  0.00    -0.036 N 
HETATM   37  O1  UNL     1      22.487  15.837  78.289  1.00  0.00    -0.516 OA
HETATM   38  O2  UNL     1      20.574  15.403  77.209  1.00  0.00    -0.516 OA
ENDBRANCH  33  36
ENDBRANCH   6  30
TORSDOF 8
ENDMDL
MODEL 5
REMARK VINA RESULT: -5.490977786      2.100      2.836
REMARK  8 active torsions:
REMARK  status: ('A' for Active; 'I' for Inactive)
REMARK    1  A    between atoms: N1_1  and  N2_4 
REMARK       I    between atoms: N2_4  and  C1_6 
REMARK       I    between atoms: C1_6  and  N3_7 
REMARK       I    between atoms: C1_6  and  N10_28 
REMARK    2  A    between atoms: N3_7  and  C2_9 
REMARK    3  A    between atoms: C2_9  and  C3_10 
REMARK    4  A    between atoms: C3_10  and  N4_11 
REMARK    5  A    between atoms: C6_16  and  N6_17 
REMARK    6  A    between atoms: N6_17  and  N7_19 
REMARK    7  A    between atoms: N10_28  and  N11_30 
REMARK       I    between atoms: C9_32  and  N13_34 
REMARK    8  A    between atoms: N13_34  and  N14_36 
ROOT
HETATM    1  N2  UNL     1      15.347  20.451  78.074  1.00  0.00    -0.138 N 
ATOM      2  H2  UNL     1      15.301  20.720  77.091  1.00  0.00     0.205 HD
HETATM    3  C1  UNL     1      15.267  19.213  78.397  1.00  0.00     0.706 C 
HETATM    4  N3  UNL     1      15.334  18.854  79.769  1.00  0.00    -0.222 N 
ATOM      5  H3  UNL     1      14.485  18.595  80.272  1.00  0.00     0.177 HD
HETATM    6  N10 UNL     1      15.116  18.182  77.438  1.00  0.00    -0.129 N 
ATOM      7  H10 UNL     1      15.648  17.321  77.563  1.00  0.00     0.205 HD
ENDROOT
BRANCH   4   8
HETATM    8  C2  UNL     1      16.594  18.856  80.442  1.00  0.00     0.158 C 
BRANCH   8   9
HETATM    9  C3  UNL     1      17.123  17.454  80.508  1.00  0.00     0.151 C 
BRANCH   9  10
HETATM   10  N4  UNL     1      18.210  17.266  79.598  1.00  0.00    -0.326 N 
HETATM   11  C4  UNL     1      18.829  18.189  78.854  1.00  0.00     0.185 A 
HETATM   12  N5  UNL     1      19.794  17.592  78.140  1.00  0.00    -0.346 N 
HETATM   13  C5  UNL     1      19.821  16.274  78.406  1.00  0.00     0.123 A 
ATOM     14  H5  UNL     1      20.419  18.068  77.489  1.00  0.00     0.167 HD
HETATM   15  C6  UNL     1      20.611  15.247  77.939  1.00  0.00     0.151 A 
HETATM   16  C8  UNL     1      18.817  16.075  79.329  1.00  0.00     0.140 A 
HETATM   17  N8  UNL     1      20.366  14.020  78.424  1.00  0.00    -0.336 N 
HETATM   18  C7  UNL     1      19.389  13.784  79.331  1.00  0.00     0.183 A 
ATOM     19  H8  UNL     1      20.936  13.239  78.098  1.00  0.00     0.168 HD
HETATM   20  N9  UNL     1      18.637  14.814  79.763  1.00  0.00    -0.336 N 
ATOM     21  H9  UNL     1      17.902  14.631  80.446  1.00  0.00     0.168 HD
BRANCH  15  22
HETATM   22  N6  UNL     1      21.552  15.421  77.078  1.00  0.00    -0.290 N 
ATOM     23  H6  UNL     1      21.416  15.167  76.099  1.00  0.00     0.188 HD
BRANCH  22  24
HETATM   24  N7  UNL     1      22.756  15.963  77.512  1.00  0.00    -0.344 N 
ATOM     25  H72 UNL     1      22.847  16.293  78.473  1.00  0.00     0.176 HD
ATOM     26  H71 UNL     1      23.531  16.017  76.851  1.00  0.00     0.176 HD
ENDBRANCH  22  24
ENDBRANCH  15  22
ENDBRANCH   9  10
ENDBRANCH   8   9
ENDBRANCH   4   8
BRANCH   1  27
HETATM   27  N1  UNL     1      15.496  21.433  79.053  1.00  0.00    -0.331 N 
ATOM     28  H12 UNL     1      14.948  21.358  79.910  1.00  0.00     0.177 HD
ATOM     29  H11 UNL     1      16.140  22.213  78.914  1.00  0.00     0.177 HD
ENDBRANCH   1  27
BRANCH   6  30
HETATM   30  N11 UNL     1      14.275  18.287  76.331  1.00  0.00    -0.258 N 
HETATM   31  C9  UNL     1      13.243  17.529  76.229  1.00  0.00     0.227 C 
HETATM   32  N12 UNL     1      12.985  16.591  77.261  1.00  0.00    -0.060 NA
HETATM   33  N13 UNL     1      12.425  17.681  75.081  1.00  0.00    -0.212 N 
ATOM     34  H13 UNL     1      12.079  16.838  74.623  1.00  0.00     0.196 HD
ATOM     35  H11 UNL     1      14.480  18.967  75.600  1.00  0.00     0.190 HD
BRANCH  33  36
HETATM   36  N14 UNL     1      12.066  18.913  74.543  1.00  0.00    -0.036 N 
HETATM   37  O1  UNL     1      11.911  19.003  73.311  1.00  0.00    -0.516 OA
HETATM   38  O2  UNL     1      11.867  20.049  75.290  1.00  0.00    -0.516 OA
ENDBRANCH  33  36
ENDBRANCH   6  30
TORSDOF 8
ENDMDL
