MODEL 1
REMARK VINA RESULT: -7.404494896      0.000      0.000
REMARK  8 active torsions:
REMARK  status: ('A' for Active; 'I' for Inactive)
REMARK    1  A    between atoms: N1_6  and  C6_7 
REMARK    2  A    between atoms: C6_7  and  C7_8 
REMARK    3  A    between atoms: C7_8  and  N2_9 
REMARK       I    between atoms: N2_9  and  C8_11 
REMARK    4  A    between atoms: C8_11  and  C9_13 
REMARK       I    between atoms: N3_17  and  C13_18 
REMARK    5  A    between atoms: C13_18  and  C14_20 
REMARK    6  A    between atoms: C17_23  and  C18_24 
REMARK       I    between atoms: C18_24  and  N4_26 
REMARK    7  A    between atoms: N4_26  and  C19_28 
REMARK    8  A    between atoms: C19_28  and  C22_31 
ROOT
HETATM    1  C9  UNL     1       4.494   7.980  25.030  1.00  0.00     0.179 C 
HETATM    2  C10 UNL     1       3.643   9.155  25.455  1.00  0.00     0.037 C 
HETATM    3  C11 UNL     1       3.045   9.715  24.192  1.00  0.00     0.022 C 
HETATM    4  C12 UNL     1       3.504   8.787  23.097  1.00  0.00     0.127 C 
HETATM    5  N3  UNL     1       3.871   7.585  23.792  1.00  0.00    -0.338 N 
HETATM    6  C13 UNL     1       3.650   6.263  23.348  1.00  0.00     0.224 C 
HETATM    7  O2  UNL     1       4.004   5.259  24.070  1.00  0.00    -0.273 OA
ENDROOT
BRANCH   6   8
HETATM    8  C14 UNL     1       3.011   5.949  22.043  1.00  0.00     0.078 C 
HETATM    9  C15 UNL     1       4.008   6.198  20.934  1.00  0.00     0.015 C 
HETATM   10  C16 UNL     1       5.227   5.339  21.243  1.00  0.00     0.015 C 
HETATM   11  C17 UNL     1       4.821   3.905  21.264  1.00  0.00     0.078 C 
HETATM   12  C23 UNL     1       3.336   3.686  21.024  1.00  0.00     0.015 C 
HETATM   13  C24 UNL     1       2.534   4.521  22.001  1.00  0.00     0.015 C 
BRANCH  11  14
HETATM   14  C18 UNL     1       5.529   3.201  20.148  1.00  0.00     0.222 C 
HETATM   15  O3  UNL     1       5.048   2.171  19.617  1.00  0.00    -0.273 OA
HETATM   16  N4  UNL     1       6.766   3.709  19.688  1.00  0.00    -0.347 N 
ATOM     17  H4  UNL     1       7.140   4.549  20.129  1.00  0.00     0.163 HD
BRANCH  16  18
HETATM   18  C19 UNL     1       7.519   3.100  18.628  1.00  0.00     0.084 C 
HETATM   19  C20 UNL     1       6.729   3.113  17.345  1.00  0.00     0.044 C 
HETATM   20  C21 UNL     1       8.779   3.952  18.432  1.00  0.00     0.044 C 
BRANCH  18  21
HETATM   21  C22 UNL     1       7.905   1.710  18.998  1.00  0.00     0.380 C 
HETATM   22  F1  UNL     1       7.331   0.781  18.123  1.00  0.00    -0.212 F 
HETATM   23  F2  UNL     1       9.278   1.570  18.943  1.00  0.00    -0.212 F 
ENDBRANCH  18  21
ENDBRANCH  16  18
ENDBRANCH  11  14
ENDBRANCH   6   8
BRANCH   1  24
HETATM   24  C8  UNL     1       5.904   8.403  24.838  1.00  0.00     0.240 C 
HETATM   25  N2  UNL     1       6.878   7.584  24.223  1.00  0.00    -0.358 N 
ATOM     26  H2  UNL     1       6.578   6.664  23.900  1.00  0.00     0.162 HD
HETATM   27  O1  UNL     1       6.258   9.539  25.238  1.00  0.00    -0.271 OA
BRANCH  25  28
HETATM   28  C7  UNL     1       8.262   7.940  24.014  1.00  0.00     0.152 C 
BRANCH  28  29
HETATM   29  C6  UNL     1       8.531   8.558  22.688  1.00  0.00     0.292 C 
BRANCH  29  30
HETATM   30  N1  UNL     1       7.622   8.179  21.633  1.00  0.00     0.094 N 
HETATM   31  C2  UNL     1       8.358   7.803  20.428  1.00  0.00     0.219 C 
HETATM   32  C1  UNL     1       7.401   7.286  19.396  1.00  0.00     0.043 C 
HETATM   33  C3  UNL     1       8.953   9.105  19.973  1.00  0.00     0.037 C 
HETATM   34  C4  UNL     1       7.923  10.123  20.384  1.00  0.00     0.032 C 
HETATM   35  C5  UNL     1       6.908   9.325  21.172  1.00  0.00     0.273 C 
ENDBRANCH  29  30
ENDBRANCH  28  29
ENDBRANCH  25  28
ENDBRANCH   1  24
TORSDOF 8
ENDMDL
MODEL 2
REMARK VINA RESULT: -7.290325189      0.746      1.188
REMARK  8 active torsions:
REMARK  status: ('A' for Active; 'I' for Inactive)
REMARK    1  A    between atoms: N1_6  and  C6_7 
REMARK    2  A    between atoms: C6_7  and  C7_8 
REMARK    3  A    between atoms: C7_8  and  N2_9 
REMARK       I    between atoms: N2_9  and  C8_11 
REMARK    4  A    between atoms: C8_11  and  C9_13 
REMARK       I    between atoms: N3_17  and  C13_18 
REMARK    5  A    between atoms: C13_18  and  C14_20 
REMARK    6  A    between atoms: C17_23  and  C18_24 
REMARK       I    between atoms: C18_24  and  N4_26 
REMARK    7  A    between atoms: N4_26  and  C19_28 
REMARK    8  A    between atoms: C19_28  and  C22_31 
ROOT
HETATM    1  C9  UNL     1       4.564   8.026  24.946  1.00  0.00     0.179 C 
HETATM    2  C10 UNL     1       3.718   9.220  25.328  1.00  0.00     0.037 C 
HETATM    3  C11 UNL     1       3.142   9.750  24.042  1.00  0.00     0.022 C 
HETATM    4  C12 UNL     1       3.607   8.790  22.978  1.00  0.00     0.127 C 
HETATM    5  N3  UNL     1       3.953   7.604  23.711  1.00  0.00    -0.338 N 
HETATM    6  C13 UNL     1       3.726   6.272  23.299  1.00  0.00     0.224 C 
HETATM    7  O2  UNL     1       4.061   5.285  24.054  1.00  0.00    -0.273 OA
ENDROOT
BRANCH   6   8
HETATM    8  C14 UNL     1       3.101   5.928  21.995  1.00  0.00     0.078 C 
HETATM    9  C15 UNL     1       4.119   6.127  20.894  1.00  0.00     0.015 C 
HETATM   10  C16 UNL     1       5.319   5.258  21.249  1.00  0.00     0.015 C 
HETATM   11  C17 UNL     1       4.889   3.832  21.307  1.00  0.00     0.078 C 
HETATM   12  C23 UNL     1       3.404   3.630  21.050  1.00  0.00     0.015 C 
HETATM   13  C24 UNL     1       2.601   4.508  21.989  1.00  0.00     0.015 C 
BRANCH  11  14
HETATM   14  C18 UNL     1       5.602   3.082  20.225  1.00  0.00     0.222 C 
HETATM   15  O3  UNL     1       5.200   1.958  19.836  1.00  0.00    -0.273 OA
HETATM   16  N4  UNL     1       6.751   3.655  19.632  1.00  0.00    -0.347 N 
ATOM     17  H4  UNL     1       7.060   4.570  19.958  1.00  0.00     0.163 HD
BRANCH  16  18
HETATM   18  C19 UNL     1       7.502   3.009  18.592  1.00  0.00     0.084 C 
HETATM   19  C20 UNL     1       8.072   1.705  19.087  1.00  0.00     0.044 C 
HETATM   20  C21 UNL     1       6.518   2.709  17.455  1.00  0.00     0.044 C 
BRANCH  18  21
HETATM   21  C22 UNL     1       8.582   3.907  18.098  1.00  0.00     0.380 C 
HETATM   22  F1  UNL     1       8.659   5.071  18.871  1.00  0.00    -0.212 F 
HETATM   23  F2  UNL     1       9.801   3.260  18.163  1.00  0.00    -0.212 F 
ENDBRANCH  18  21
ENDBRANCH  16  18
ENDBRANCH  11  14
ENDBRANCH   6   8
BRANCH   1  24
HETATM   24  C8  UNL     1       5.980   8.431  24.762  1.00  0.00     0.240 C 
HETATM   25  N2  UNL     1       6.923   7.641  24.068  1.00  0.00    -0.358 N 
ATOM     26  H2  UNL     1       6.597   6.756  23.679  1.00  0.00     0.162 HD
HETATM   27  O1  UNL     1       6.367   9.524  25.243  1.00  0.00    -0.271 OA
BRANCH  25  28
HETATM   28  C7  UNL     1       8.312   7.981  23.861  1.00  0.00     0.152 C 
BRANCH  28  29
HETATM   29  C6  UNL     1       8.608   8.505  22.502  1.00  0.00     0.292 C 
BRANCH  29  30
HETATM   30  N1  UNL     1       7.529   8.403  21.550  1.00  0.00     0.094 N 
HETATM   31  C2  UNL     1       8.036   8.026  20.232  1.00  0.00     0.219 C 
HETATM   32  C1  UNL     1       6.886   7.794  19.299  1.00  0.00     0.043 C 
HETATM   33  C3  UNL     1       8.809   9.241  19.807  1.00  0.00     0.037 C 
HETATM   34  C4  UNL     1       8.043  10.379  20.428  1.00  0.00     0.032 C 
HETATM   35  C5  UNL     1       6.995   9.697  21.279  1.00  0.00     0.273 C 
ENDBRANCH  29  30
ENDBRANCH  28  29
ENDBRANCH  25  28
ENDBRANCH   1  24
TORSDOF 8
ENDMDL
MODEL 3
REMARK VINA RESULT: -7.238304552      4.225      5.656
REMARK  8 active torsions:
REMARK  status: ('A' for Active; 'I' for Inactive)
REMARK    1  A    between atoms: N1_6  and  C6_7 
REMARK    2  A    between atoms: C6_7  and  C7_8 
REMARK    3  A    between atoms: C7_8  and  N2_9 
REMARK       I    between atoms: N2_9  and  C8_11 
REMARK    4  A    between atoms: C8_11  and  C9_13 
REMARK       I    between atoms: N3_17  and  C13_18 
REMARK    5  A    between atoms: C13_18  and  C14_20 
REMARK    6  A    between atoms: C17_23  and  C18_24 
REMARK       I    between atoms: C18_24  and  N4_26 
REMARK    7  A    between atoms: N4_26  and  C19_28 
REMARK    8  A    between atoms: C19_28  and  C22_31 
ROOT
HETATM    1  C9  UNL     1       6.746  11.388  19.586  1.00  0.00     0.179 C 
HETATM    2  C10 UNL     1       5.789  12.393  20.187  1.00  0.00     0.037 C 
HETATM    3  C11 UNL     1       4.524  11.636  20.488  1.00  0.00     0.022 C 
HETATM    4  C12 UNL     1       4.829  10.204  20.131  1.00  0.00     0.127 C 
HETATM    5  N3  UNL     1       6.265  10.146  20.135  1.00  0.00    -0.338 N 
HETATM    6  C13 UNL     1       7.055   9.072  20.601  1.00  0.00     0.224 C 
HETATM    7  O2  UNL     1       8.340   9.142  20.575  1.00  0.00    -0.273 OA
ENDROOT
BRANCH   6   8
HETATM    8  C14 UNL     1       6.470   7.816  21.140  1.00  0.00     0.078 C 
HETATM    9  C15 UNL     1       5.645   7.155  20.058  1.00  0.00     0.015 C 
HETATM   10  C16 UNL     1       6.575   6.940  18.871  1.00  0.00     0.015 C 
HETATM   11  C17 UNL     1       7.697   6.051  19.285  1.00  0.00     0.078 C 
HETATM   12  C23 UNL     1       7.646   5.642  20.748  1.00  0.00     0.015 C 
HETATM   13  C24 UNL     1       7.545   6.877  21.620  1.00  0.00     0.015 C 
BRANCH  11  14
HETATM   14  C18 UNL     1       7.605   4.781  18.496  1.00  0.00     0.222 C 
HETATM   15  O3  UNL     1       6.548   4.456  17.903  1.00  0.00    -0.273 OA
HETATM   16  N4  UNL     1       8.735   3.934  18.421  1.00  0.00    -0.347 N 
ATOM     17  H4  UNL     1       9.587   4.216  18.907  1.00  0.00     0.163 HD
BRANCH  16  18
HETATM   18  C19 UNL     1       8.741   2.696  17.694  1.00  0.00     0.084 C 
HETATM   19  C20 UNL     1       8.349   2.928  16.257  1.00  0.00     0.044 C 
HETATM   20  C21 UNL     1      10.180   2.169  17.726  1.00  0.00     0.044 C 
BRANCH  18  21
HETATM   21  C22 UNL     1       7.829   1.711  18.339  1.00  0.00     0.380 C 
HETATM   22  F1  UNL     1       7.820   0.501  17.636  1.00  0.00    -0.212 F 
HETATM   23  F2  UNL     1       8.245   1.459  19.632  1.00  0.00    -0.212 F 
ENDBRANCH  18  21
ENDBRANCH  16  18
ENDBRANCH  11  14
ENDBRANCH   6   8
BRANCH   1  24
HETATM   24  C8  UNL     1       6.664  11.416  18.104  1.00  0.00     0.240 C 
HETATM   25  N2  UNL     1       5.695  12.166  17.400  1.00  0.00    -0.358 N 
ATOM     26  H2  UNL     1       5.033  12.710  17.952  1.00  0.00     0.162 HD
HETATM   27  O1  UNL     1       7.487  10.743  17.437  1.00  0.00    -0.271 OA
BRANCH  25  28
HETATM   28  C7  UNL     1       5.565  12.227  15.962  1.00  0.00     0.152 C 
BRANCH  28  29
HETATM   29  C6  UNL     1       5.042  10.976  15.351  1.00  0.00     0.292 C 
BRANCH  29  30
HETATM   30  N1  UNL     1       6.035  10.118  14.751  1.00  0.00     0.094 N 
HETATM   31  C2  UNL     1       6.831  10.856  13.773  1.00  0.00     0.219 C 
HETATM   32  C1  UNL     1       7.939   9.982  13.266  1.00  0.00     0.043 C 
HETATM   33  C3  UNL     1       5.847  11.133  12.673  1.00  0.00     0.037 C 
HETATM   34  C4  UNL     1       4.943   9.929  12.701  1.00  0.00     0.032 C 
HETATM   35  C5  UNL     1       5.401   9.151  13.915  1.00  0.00     0.273 C 
ENDBRANCH  29  30
ENDBRANCH  28  29
ENDBRANCH  25  28
ENDBRANCH   1  24
TORSDOF 8
ENDMDL
MODEL 4
REMARK VINA RESULT: -7.229113387      1.296      1.653
REMARK  8 active torsions:
REMARK  status: ('A' for Active; 'I' for Inactive)
REMARK    1  A    between atoms: N1_6  and  C6_7 
REMARK    2  A    between atoms: C6_7  and  C7_8 
REMARK    3  A    between atoms: C7_8  and  N2_9 
REMARK       I    between atoms: N2_9  and  C8_11 
REMARK    4  A    between atoms: C8_11  and  C9_13 
REMARK       I    between atoms: N3_17  and  C13_18 
REMARK    5  A    between atoms: C13_18  and  C14_20 
REMARK    6  A    between atoms: C17_23  and  C18_24 
REMARK       I    between atoms: C18_24  and  N4_26 
REMARK    7  A    between atoms: N4_26  and  C19_28 
REMARK    8  A    between atoms: C19_28  and  C22_31 
ROOT
HETATM    1  C9  UNL     1       3.739   7.159  24.504  1.00  0.00     0.179 C 
HETATM    2  C10 UNL     1       2.625   8.171  24.656  1.00  0.00     0.037 C 
HETATM    3  C11 UNL     1       2.198   8.534  23.259  1.00  0.00     0.022 C 
HETATM    4  C12 UNL     1       3.023   7.653  22.355  1.00  0.00     0.127 C 
HETATM    5  N3  UNL     1       3.452   6.584  23.213  1.00  0.00    -0.338 N 
HETATM    6  C13 UNL     1       3.563   5.222  22.858  1.00  0.00     0.224 C 
HETATM    7  O2  UNL     1       3.940   4.346  23.722  1.00  0.00    -0.273 OA
ENDROOT
BRANCH   6   8
HETATM    8  C14 UNL     1       3.261   4.719  21.492  1.00  0.00     0.078 C 
HETATM    9  C15 UNL     1       4.334   5.200  20.542  1.00  0.00     0.015 C 
HETATM   10  C16 UNL     1       5.663   4.705  21.099  1.00  0.00     0.015 C 
HETATM   11  C17 UNL     1       5.645   3.215  21.151  1.00  0.00     0.078 C 
HETATM   12  C23 UNL     1       4.332   2.603  20.693  1.00  0.00     0.015 C 
HETATM   13  C24 UNL     1       3.184   3.215  21.471  1.00  0.00     0.015 C 
BRANCH  11  14
HETATM   14  C18 UNL     1       6.692   2.700  20.213  1.00  0.00     0.222 C 
HETATM   15  O3  UNL     1       7.546   1.860  20.586  1.00  0.00    -0.273 OA
HETATM   16  N4  UNL     1       6.715   3.173  18.880  1.00  0.00    -0.347 N 
ATOM     17  H4  UNL     1       6.011   3.853  18.594  1.00  0.00     0.163 HD
BRANCH  16  18
HETATM   18  C19 UNL     1       7.683   2.741  17.911  1.00  0.00     0.084 C 
HETATM   19  C20 UNL     1       7.593   1.251  17.706  1.00  0.00     0.044 C 
HETATM   20  C21 UNL     1       7.329   3.435  16.591  1.00  0.00     0.044 C 
BRANCH  18  21
HETATM   21  C22 UNL     1       9.055   3.136  18.336  1.00  0.00     0.380 C 
HETATM   22  F1  UNL     1      10.007   2.731  17.393  1.00  0.00    -0.212 F 
HETATM   23  F2  UNL     1       9.131   4.509  18.470  1.00  0.00    -0.212 F 
ENDBRANCH  18  21
ENDBRANCH  16  18
ENDBRANCH  11  14
ENDBRANCH   6   8
BRANCH   1  24
HETATM   24  C8  UNL     1       5.060   7.834  24.536  1.00  0.00     0.240 C 
HETATM   25  N2  UNL     1       6.249   7.223  24.078  1.00  0.00    -0.358 N 
ATOM     26  H2  UNL     1       6.175   6.276  23.708  1.00  0.00     0.162 HD
HETATM   27  O1  UNL     1       5.136   9.002  24.991  1.00  0.00    -0.271 OA
BRANCH  25  28
HETATM   28  C7  UNL     1       7.561   7.829  24.089  1.00  0.00     0.152 C 
BRANCH  28  29
HETATM   29  C6  UNL     1       8.132   8.054  22.734  1.00  0.00     0.292 C 
BRANCH  29  30
HETATM   30  N1  UNL     1       7.367   8.929  21.878  1.00  0.00     0.094 N 
HETATM   31  C2  UNL     1       6.650   8.160  20.864  1.00  0.00     0.219 C 
HETATM   32  C1  UNL     1       5.761   9.075  20.077  1.00  0.00     0.043 C 
HETATM   33  C3  UNL     1       7.754   7.637  19.991  1.00  0.00     0.037 C 
HETATM   34  C4  UNL     1       8.790   8.729  20.043  1.00  0.00     0.032 C 
HETATM   35  C5  UNL     1       8.247   9.703  21.065  1.00  0.00     0.273 C 
ENDBRANCH  29  30
ENDBRANCH  28  29
ENDBRANCH  25  28
ENDBRANCH   1  24
TORSDOF 8
ENDMDL
MODEL 5
REMARK VINA RESULT: -7.150125431      1.373      1.851
REMARK  8 active torsions:
REMARK  status: ('A' for Active; 'I' for Inactive)
REMARK    1  A    between atoms: N1_6  and  C6_7 
REMARK    2  A    between atoms: C6_7  and  C7_8 
REMARK    3  A    between atoms: C7_8  and  N2_9 
REMARK       I    between atoms: N2_9  and  C8_11 
REMARK    4  A    between atoms: C8_11  and  C9_13 
REMARK       I    between atoms: N3_17  and  C13_18 
REMARK    5  A    between atoms: C13_18  and  C14_20 
REMARK    6  A    between atoms: C17_23  and  C18_24 
REMARK       I    between atoms: C18_24  and  N4_26 
REMARK    7  A    between atoms: N4_26  and  C19_28 
REMARK    8  A    between atoms: C19_28  and  C22_31 
ROOT
HETATM    1  C9  UNL     1       3.630   7.126  24.843  1.00  0.00     0.179 C 
HETATM    2  C10 UNL     1       2.459   8.047  25.105  1.00  0.00     0.037 C 
HETATM    3  C11 UNL     1       1.997   8.528  23.756  1.00  0.00     0.022 C 
HETATM    4  C12 UNL     1       2.864   7.799  22.761  1.00  0.00     0.127 C 
HETATM    5  N3  UNL     1       3.365   6.674  23.500  1.00  0.00    -0.338 N 
HETATM    6  C13 UNL     1       3.554   5.365  23.004  1.00  0.00     0.224 C 
HETATM    7  O2  UNL     1       3.992   4.428  23.770  1.00  0.00    -0.273 OA
ENDROOT
BRANCH   6   8
HETATM    8  C14 UNL     1       3.268   4.990  21.594  1.00  0.00     0.078 C 
HETATM    9  C15 UNL     1       4.222   5.732  20.685  1.00  0.00     0.015 C 
HETATM   10  C16 UNL     1       5.630   5.371  21.144  1.00  0.00     0.015 C 
HETATM   11  C17 UNL     1       5.823   3.899  21.010  1.00  0.00     0.078 C 
HETATM   12  C23 UNL     1       4.591   3.162  20.512  1.00  0.00     0.015 C 
HETATM   13  C24 UNL     1       3.403   3.505  21.388  1.00  0.00     0.015 C 
BRANCH  11  14
HETATM   14  C18 UNL     1       6.892   3.656  19.990  1.00  0.00     0.222 C 
HETATM   15  O3  UNL     1       7.909   4.389  19.923  1.00  0.00    -0.273 OA
HETATM   16  N4  UNL     1       6.748   2.579  19.085  1.00  0.00    -0.347 N 
ATOM     17  H4  UNL     1       5.917   1.992  19.157  1.00  0.00     0.163 HD
BRANCH  16  18
HETATM   18  C19 UNL     1       7.718   2.272  18.071  1.00  0.00     0.084 C 
HETATM   19  C20 UNL     1       7.284   1.068  17.276  1.00  0.00     0.044 C 
HETATM   20  C21 UNL     1       7.773   3.481  17.130  1.00  0.00     0.044 C 
BRANCH  18  21
HETATM   21  C22 UNL     1       9.057   2.049  18.683  1.00  0.00     0.380 C 
HETATM   22  F1  UNL     1       9.459   0.717  18.536  1.00  0.00    -0.212 F 
HETATM   23  F2  UNL     1       9.996   2.858  18.073  1.00  0.00    -0.212 F 
ENDBRANCH  18  21
ENDBRANCH  16  18
ENDBRANCH  11  14
ENDBRANCH   6   8
BRANCH   1  24
HETATM   24  C8  UNL     1       4.909   7.873  24.941  1.00  0.00     0.240 C 
HETATM   25  N2  UNL     1       6.170   7.275  24.720  1.00  0.00    -0.358 N 
ATOM     26  H2  UNL     1       6.181   6.283  24.480  1.00  0.00     0.162 HD
HETATM   27  O1  UNL     1       4.880   9.094  25.234  1.00  0.00    -0.271 OA
BRANCH  25  28
HETATM   28  C7  UNL     1       7.445   7.949  24.806  1.00  0.00     0.152 C 
BRANCH  28  29
HETATM   29  C6  UNL     1       8.209   7.957  23.530  1.00  0.00     0.292 C 
BRANCH  29  30
HETATM   30  N1  UNL     1       8.401   9.256  22.931  1.00  0.00     0.094 N 
HETATM   31  C2  UNL     1       7.116   9.899  22.669  1.00  0.00     0.219 C 
HETATM   32  C1  UNL     1       7.344  11.296  22.175  1.00  0.00     0.043 C 
HETATM   33  C3  UNL     1       6.531   9.054  21.574  1.00  0.00     0.037 C 
HETATM   34  C4  UNL     1       7.738   8.607  20.794  1.00  0.00     0.032 C 
HETATM   35  C5  UNL     1       8.910   9.110  21.607  1.00  0.00     0.273 C 
ENDBRANCH  29  30
ENDBRANCH  28  29
ENDBRANCH  25  28
ENDBRANCH   1  24
TORSDOF 8
ENDMDL
