MODEL 1
REMARK VINA RESULT: -10.002669325      0.000      0.000
REMARK  7 active torsions:
REMARK  status: ('A' for Active; 'I' for Inactive)
REMARK    1  A    between atoms: C2_3  and  C3_4 
REMARK    2  A    between atoms: C2_3  and  C15_19 
REMARK    3  A    between atoms: C3_4  and  C4_5 
REMARK       I    between atoms: C4_5  and  N2_7 
REMARK    4  A    between atoms: N2_7  and  C5_9 
REMARK       I    between atoms: C15_19  and  N3_21 
REMARK    5  A    between atoms: C19_25  and  C20_26 
REMARK       I    between atoms: C20_26  and  N4_28 
REMARK    6  A    between atoms: N4_28  and  C21_30 
REMARK    7  A    between atoms: C21_30  and  C22_31 
ROOT
HETATM    1  N1  UNL     1       7.156   9.675  17.980  1.00  0.00    -0.196 NA
HETATM    2  C1  UNL     1       7.220   9.043  18.961  1.00  0.00     0.074 C 
HETATM    3  C2  UNL     1       7.296   8.229  20.180  1.00  0.00     0.193 C 
ENDROOT
BRANCH   3   4
HETATM    4  C3  UNL     1       8.175   7.033  19.919  1.00  0.00     0.131 C 
BRANCH   4   5
HETATM    5  C4  UNL     1       7.519   5.996  19.122  1.00  0.00     0.219 C 
HETATM    6  O1  UNL     1       6.521   6.309  18.426  1.00  0.00    -0.274 OA
HETATM    7  N2  UNL     1       7.929   4.636  19.072  1.00  0.00    -0.356 N 
ATOM      8  H2  UNL     1       8.737   4.353  19.626  1.00  0.00     0.162 HD
BRANCH   7   9
HETATM    9  C5  UNL     1       7.264   3.639  18.281  1.00  0.00     0.088 C 
HETATM   10  C6  UNL     1       6.472   2.664  19.112  1.00  0.00     0.030 C 
HETATM   11  C7  UNL     1       6.819   1.243  18.859  1.00  0.00    -0.008 C 
HETATM   12  C8  UNL     1       8.114   0.891  19.559  1.00  0.00     0.010 C 
HETATM   13  C11 UNL     1       6.925   0.847  17.431  1.00  0.00    -0.010 C 
HETATM   14  C9  UNL     1       9.065   0.817  18.354  1.00  0.00    -0.013 C 
HETATM   15  C10 UNL     1       8.208   0.002  17.406  1.00  0.00     0.009 C 
HETATM   16  C14 UNL     1       9.308   2.216  17.923  1.00  0.00     0.011 C 
HETATM   17  C13 UNL     1       8.166   2.929  17.295  1.00  0.00     0.009 C 
HETATM   18  C12 UNL     1       7.250   2.018  16.493  1.00  0.00     0.011 C 
ENDBRANCH   7   9
ENDBRANCH   4   5
ENDBRANCH   3   4
BRANCH   3  19
HETATM   19  C15 UNL     1       7.792   9.089  21.267  1.00  0.00     0.238 C 
HETATM   20  O2  UNL     1       8.324  10.219  21.062  1.00  0.00    -0.272 OA
HETATM   21  N3  UNL     1       7.683   8.658  22.613  1.00  0.00    -0.338 N 
HETATM   22  C16 UNL     1       7.130   7.399  23.120  1.00  0.00     0.127 C 
HETATM   23  C19 UNL     1       8.095   9.370  23.796  1.00  0.00     0.179 C 
HETATM   24  C17 UNL     1       6.303   7.873  24.324  1.00  0.00     0.022 C 
HETATM   25  C18 UNL     1       7.170   8.968  24.885  1.00  0.00     0.037 C 
BRANCH  23  26
HETATM   26  C20 UNL     1       9.533   9.098  24.152  1.00  0.00     0.240 C 
HETATM   27  O3  UNL     1      10.320   8.965  23.202  1.00  0.00    -0.271 OA
HETATM   28  N4  UNL     1       9.926   9.008  25.486  1.00  0.00    -0.357 N 
ATOM     29  H4  UNL     1       9.173   9.122  26.166  1.00  0.00     0.162 HD
BRANCH  28  30
HETATM   30  C21 UNL     1      11.213   8.783  26.048  1.00  0.00     0.158 C 
BRANCH  30  31
HETATM   31  C22 UNL     1      11.677   7.379  26.181  1.00  0.00     0.196 C 
HETATM   32 CL1  UNL     1      13.426   7.410  26.647  1.00  0.00    -0.106 Cl
HETATM   33 CL2  UNL     1      10.878   6.393  27.387  1.00  0.00    -0.106 Cl
ENDBRANCH  30  31
ENDBRANCH  28  30
ENDBRANCH  23  26
ENDBRANCH   3  19
TORSDOF 7
ENDMDL
MODEL 2
REMARK VINA RESULT: -9.911843962      1.321      1.931
REMARK  7 active torsions:
REMARK  status: ('A' for Active; 'I' for Inactive)
REMARK    1  A    between atoms: C2_3  and  C3_4 
REMARK    2  A    between atoms: C2_3  and  C15_19 
REMARK    3  A    between atoms: C3_4  and  C4_5 
REMARK       I    between atoms: C4_5  and  N2_7 
REMARK    4  A    between atoms: N2_7  and  C5_9 
REMARK       I    between atoms: C15_19  and  N3_21 
REMARK    5  A    between atoms: C19_25  and  C20_26 
REMARK       I    between atoms: C20_26  and  N4_28 
REMARK    6  A    between atoms: N4_28  and  C21_30 
REMARK    7  A    between atoms: C21_30  and  C22_31 
ROOT
HETATM    1  N1  UNL     1       3.899   8.101  19.450  1.00  0.00    -0.196 NA
HETATM    2  C1  UNL     1       4.904   7.716  19.905  1.00  0.00     0.074 C 
HETATM    3  C2  UNL     1       6.163   7.211  20.464  1.00  0.00     0.193 C 
ENDROOT
BRANCH   3   4
HETATM    4  C3  UNL     1       7.007   6.648  19.348  1.00  0.00     0.131 C 
BRANCH   4   5
HETATM    5  C4  UNL     1       7.488   5.293  19.614  1.00  0.00     0.219 C 
HETATM    6  O1  UNL     1       7.437   4.852  20.789  1.00  0.00    -0.274 OA
HETATM    7  N2  UNL     1       8.021   4.417  18.629  1.00  0.00    -0.356 N 
ATOM      8  H2  UNL     1       8.074   4.748  17.665  1.00  0.00     0.162 HD
BRANCH   7   9
HETATM    9  C5  UNL     1       8.488   3.091  18.920  1.00  0.00     0.088 C 
HETATM   10  C6  UNL     1       9.779   2.757  18.219  1.00  0.00     0.030 C 
HETATM   11  C7  UNL     1       9.716   1.513  17.411  1.00  0.00    -0.008 C 
HETATM   12  C8  UNL     1       8.997   1.776  16.106  1.00  0.00     0.010 C 
HETATM   13  C11 UNL     1       9.088   0.342  18.076  1.00  0.00    -0.010 C 
HETATM   14  C9  UNL     1       7.661   1.069  16.383  1.00  0.00    -0.013 C 
HETATM   15  C10 UNL     1       8.179  -0.227  16.976  1.00  0.00     0.009 C 
HETATM   16  C14 UNL     1       6.917   1.932  17.333  1.00  0.00     0.011 C 
HETATM   17  C13 UNL     1       7.448   2.011  18.719  1.00  0.00     0.009 C 
HETATM   18  C12 UNL     1       8.105   0.724  19.191  1.00  0.00     0.011 C 
ENDBRANCH   7   9
ENDBRANCH   4   5
ENDBRANCH   3   4
BRANCH   3  19
HETATM   19  C15 UNL     1       6.815   8.318  21.183  1.00  0.00     0.238 C 
HETATM   20  O2  UNL     1       7.312   9.322  20.593  1.00  0.00    -0.272 OA
HETATM   21  N3  UNL     1       6.903   8.287  22.597  1.00  0.00    -0.338 N 
HETATM   22  C16 UNL     1       6.428   7.245  23.512  1.00  0.00     0.127 C 
HETATM   23  C19 UNL     1       7.485   9.284  23.460  1.00  0.00     0.179 C 
HETATM   24  C17 UNL     1       5.788   8.072  24.635  1.00  0.00     0.022 C 
HETATM   25  C18 UNL     1       6.729   9.243  24.736  1.00  0.00     0.037 C 
BRANCH  23  26
HETATM   26  C20 UNL     1       8.959   9.061  23.674  1.00  0.00     0.240 C 
HETATM   27  O3  UNL     1       9.658   8.982  22.651  1.00  0.00    -0.271 OA
HETATM   28  N4  UNL     1       9.478   8.955  24.962  1.00  0.00    -0.357 N 
ATOM     29  H4  UNL     1       8.788   9.022  25.711  1.00  0.00     0.162 HD
BRANCH  28  30
HETATM   30  C21 UNL     1      10.820   8.768  25.396  1.00  0.00     0.158 C 
BRANCH  30  31
HETATM   31  C22 UNL     1      11.183   7.454  25.983  1.00  0.00     0.196 C 
HETATM   32 CL1  UNL     1      12.961   7.468  26.326  1.00  0.00    -0.106 Cl
HETATM   33 CL2  UNL     1      10.409   7.020  27.492  1.00  0.00    -0.106 Cl
ENDBRANCH  30  31
ENDBRANCH  28  30
ENDBRANCH  23  26
ENDBRANCH   3  19
TORSDOF 7
ENDMDL
MODEL 3
REMARK VINA RESULT: -9.859370873      1.858      2.831
REMARK  7 active torsions:
REMARK  status: ('A' for Active; 'I' for Inactive)
REMARK    1  A    between atoms: C2_3  and  C3_4 
REMARK    2  A    between atoms: C2_3  and  C15_19 
REMARK    3  A    between atoms: C3_4  and  C4_5 
REMARK       I    between atoms: C4_5  and  N2_7 
REMARK    4  A    between atoms: N2_7  and  C5_9 
REMARK       I    between atoms: C15_19  and  N3_21 
REMARK    5  A    between atoms: C19_25  and  C20_26 
REMARK       I    between atoms: C20_26  and  N4_28 
REMARK    6  A    between atoms: N4_28  and  C21_30 
REMARK    7  A    between atoms: C21_30  and  C22_31 
ROOT
HETATM    1  N1  UNL     1       6.040   5.782  16.869  1.00  0.00    -0.196 NA
HETATM    2  C1  UNL     1       5.875   6.093  17.983  1.00  0.00     0.074 C 
HETATM    3  C2  UNL     1       5.648   6.468  19.384  1.00  0.00     0.193 C 
ENDROOT
BRANCH   3   4
HETATM    4  C3  UNL     1       5.513   5.215  20.212  1.00  0.00     0.131 C 
BRANCH   4   5
HETATM    5  C4  UNL     1       6.686   4.345  20.139  1.00  0.00     0.219 C 
HETATM    6  O1  UNL     1       7.585   4.465  21.008  1.00  0.00    -0.274 OA
HETATM    7  N2  UNL     1       6.894   3.353  19.141  1.00  0.00    -0.356 N 
ATOM      8  H2  UNL     1       6.180   3.232  18.423  1.00  0.00     0.162 HD
BRANCH   7   9
HETATM    9  C5  UNL     1       8.057   2.513  19.093  1.00  0.00     0.088 C 
HETATM   10  C6  UNL     1       9.074   2.977  18.083  1.00  0.00     0.030 C 
HETATM   11  C7  UNL     1       9.468   1.930  17.107  1.00  0.00    -0.008 C 
HETATM   12  C8  UNL     1       8.395   1.770  16.053  1.00  0.00     0.010 C 
HETATM   13  C11 UNL     1       9.778   0.595  17.681  1.00  0.00    -0.010 C 
HETATM   14  C9  UNL     1       7.783   0.429  16.487  1.00  0.00    -0.013 C 
HETATM   15  C10 UNL     1       9.054  -0.363  16.723  1.00  0.00     0.009 C 
HETATM   16  C14 UNL     1       6.989   0.704  17.709  1.00  0.00     0.011 C 
HETATM   17  C13 UNL     1       7.751   1.039  18.939  1.00  0.00     0.009 C 
HETATM   18  C12 UNL     1       9.094   0.334  19.031  1.00  0.00     0.011 C 
ENDBRANCH   7   9
ENDBRANCH   4   5
ENDBRANCH   3   4
BRANCH   3  19
HETATM   19  C15 UNL     1       6.765   7.327  19.809  1.00  0.00     0.238 C 
HETATM   20  O2  UNL     1       7.871   7.370  19.194  1.00  0.00    -0.272 OA
HETATM   21  N3  UNL     1       6.625   8.154  20.951  1.00  0.00    -0.338 N 
HETATM   22  C16 UNL     1       5.468   8.280  21.842  1.00  0.00     0.127 C 
HETATM   23  C19 UNL     1       7.599   9.065  21.498  1.00  0.00     0.179 C 
HETATM   24  C17 UNL     1       5.389   9.799  22.052  1.00  0.00     0.022 C 
HETATM   25  C18 UNL     1       6.844  10.180  22.120  1.00  0.00     0.037 C 
BRANCH  23  26
HETATM   26  C20 UNL     1       8.519   8.392  22.482  1.00  0.00     0.240 C 
HETATM   27  O3  UNL     1       8.365   7.170  22.633  1.00  0.00    -0.271 OA
HETATM   28  N4  UNL     1       9.481   9.129  23.169  1.00  0.00    -0.357 N 
ATOM     29  H4  UNL     1       9.487  10.129  22.961  1.00  0.00     0.162 HD
BRANCH  28  30
HETATM   30  C21 UNL     1      10.456   8.706  24.115  1.00  0.00     0.158 C 
BRANCH  30  31
HETATM   31  C22 UNL     1      10.138   8.863  25.556  1.00  0.00     0.196 C 
HETATM   32 CL1  UNL     1       8.399   8.422  25.796  1.00  0.00    -0.106 Cl
HETATM   33 CL2  UNL     1      11.042   7.869  26.678  1.00  0.00    -0.106 Cl
ENDBRANCH  30  31
ENDBRANCH  28  30
ENDBRANCH  23  26
ENDBRANCH   3  19
TORSDOF 7
ENDMDL
MODEL 4
REMARK VINA RESULT: -9.734773064      1.810      2.492
REMARK  7 active torsions:
REMARK  status: ('A' for Active; 'I' for Inactive)
REMARK    1  A    between atoms: C2_3  and  C3_4 
REMARK    2  A    between atoms: C2_3  and  C15_19 
REMARK    3  A    between atoms: C3_4  and  C4_5 
REMARK       I    between atoms: C4_5  and  N2_7 
REMARK    4  A    between atoms: N2_7  and  C5_9 
REMARK       I    between atoms: C15_19  and  N3_21 
REMARK    5  A    between atoms: C19_25  and  C20_26 
REMARK       I    between atoms: C20_26  and  N4_28 
REMARK    6  A    between atoms: N4_28  and  C21_30 
REMARK    7  A    between atoms: C21_30  and  C22_31 
ROOT
HETATM    1  N1  UNL     1       2.767   6.385  21.713  1.00  0.00    -0.196 NA
HETATM    2  C1  UNL     1       3.867   6.494  21.336  1.00  0.00     0.074 C 
HETATM    3  C2  UNL     1       5.247   6.609  20.849  1.00  0.00     0.193 C 
ENDROOT
BRANCH   3   4
HETATM    4  C3  UNL     1       5.253   6.455  19.349  1.00  0.00     0.131 C 
BRANCH   4   5
HETATM    5  C4  UNL     1       6.448   5.779  18.843  1.00  0.00     0.219 C 
HETATM    6  O1  UNL     1       7.553   6.373  18.908  1.00  0.00    -0.274 OA
HETATM    7  N2  UNL     1       6.458   4.477  18.271  1.00  0.00    -0.356 N 
ATOM      8  H2  UNL     1       5.576   3.970  18.206  1.00  0.00     0.162 HD
BRANCH   7   9
HETATM    9  C5  UNL     1       7.647   3.839  17.782  1.00  0.00     0.088 C 
HETATM   10  C6  UNL     1       7.380   2.906  16.629  1.00  0.00     0.030 C 
HETATM   11  C7  UNL     1       7.894   1.530  16.842  1.00  0.00    -0.008 C 
HETATM   12  C8  UNL     1       6.968   0.765  17.763  1.00  0.00     0.010 C 
HETATM   13  C11 UNL     1       9.280   1.431  17.368  1.00  0.00    -0.010 C 
HETATM   14  C9  UNL     1       7.816   0.743  19.045  1.00  0.00    -0.013 C 
HETATM   15  C10 UNL     1       9.156   0.352  18.454  1.00  0.00     0.009 C 
HETATM   16  C14 UNL     1       7.762   2.113  19.609  1.00  0.00     0.011 C 
HETATM   17  C13 UNL     1       8.480   3.174  18.855  1.00  0.00     0.009 C 
HETATM   18  C12 UNL     1       9.730   2.674  18.148  1.00  0.00     0.011 C 
ENDBRANCH   7   9
ENDBRANCH   4   5
ENDBRANCH   3   4
BRANCH   3  19
HETATM   19  C15 UNL     1       5.779   7.906  21.300  1.00  0.00     0.238 C 
HETATM   20  O2  UNL     1       5.945   8.890  20.521  1.00  0.00    -0.272 OA
HETATM   21  N3  UNL     1       6.127   8.090  22.662  1.00  0.00    -0.338 N 
HETATM   22  C16 UNL     1       6.048   7.119  23.757  1.00  0.00     0.127 C 
HETATM   23  C19 UNL     1       6.640   9.286  23.280  1.00  0.00     0.179 C 
HETATM   24  C17 UNL     1       5.468   7.967  24.897  1.00  0.00     0.022 C 
HETATM   25  C18 UNL     1       6.153   9.290  24.682  1.00  0.00     0.037 C 
BRANCH  23  26
HETATM   26  C20 UNL     1       8.142   9.364  23.208  1.00  0.00     0.240 C 
HETATM   27  O3  UNL     1       8.621   9.808  22.152  1.00  0.00    -0.271 OA
HETATM   28  N4  UNL     1       8.924   8.954  24.286  1.00  0.00    -0.357 N 
ATOM     29  H4  UNL     1       8.401   8.595  25.085  1.00  0.00     0.162 HD
BRANCH  28  30
HETATM   30  C21 UNL     1      10.338   8.958  24.446  1.00  0.00     0.158 C 
BRANCH  30  31
HETATM   31  C22 UNL     1      10.885   8.680  25.797  1.00  0.00     0.196 C 
HETATM   32 CL1  UNL     1       9.597   7.849  26.760  1.00  0.00    -0.106 Cl
HETATM   33 CL2  UNL     1      12.291   7.640  25.883  1.00  0.00    -0.106 Cl
ENDBRANCH  30  31
ENDBRANCH  28  30
ENDBRANCH  23  26
ENDBRANCH   3  19
TORSDOF 7
ENDMDL
MODEL 5
REMARK VINA RESULT: -9.649243258      1.652      1.882
REMARK  7 active torsions:
REMARK  status: ('A' for Active; 'I' for Inactive)
REMARK    1  A    between atoms: C2_3  and  C3_4 
REMARK    2  A    between atoms: C2_3  and  C15_19 
REMARK    3  A    between atoms: C3_4  and  C4_5 
REMARK       I    between atoms: C4_5  and  N2_7 
REMARK    4  A    between atoms: N2_7  and  C5_9 
REMARK       I    between atoms: C15_19  and  N3_21 
REMARK    5  A    between atoms: C19_25  and  C20_26 
REMARK       I    between atoms: C20_26  and  N4_28 
REMARK    6  A    between atoms: N4_28  and  C21_30 
REMARK    7  A    between atoms: C21_30  and  C22_31 
ROOT
HETATM    1  N1  UNL     1       7.864   9.738  18.116  1.00  0.00    -0.196 NA
HETATM    2  C1  UNL     1       7.489   9.039  18.974  1.00  0.00     0.074 C 
HETATM    3  C2  UNL     1       7.018   8.141  20.035  1.00  0.00     0.193 C 
ENDROOT
BRANCH   3   4
HETATM    4  C3  UNL     1       7.872   6.898  20.042  1.00  0.00     0.131 C 
BRANCH   4   5
HETATM    5  C4  UNL     1       7.394   5.863  19.126  1.00  0.00     0.219 C 
HETATM    6  O1  UNL     1       6.497   6.156  18.297  1.00  0.00    -0.274 OA
HETATM    7  N2  UNL     1       7.873   4.524  19.099  1.00  0.00    -0.356 N 
ATOM      8  H2  UNL     1       8.602   4.258  19.760  1.00  0.00     0.162 HD
BRANCH   7   9
HETATM    9  C5  UNL     1       7.383   3.529  18.188  1.00  0.00     0.088 C 
HETATM   10  C6  UNL     1       6.526   2.489  18.861  1.00  0.00     0.030 C 
HETATM   11  C7  UNL     1       6.978   1.095  18.621  1.00  0.00    -0.008 C 
HETATM   12  C8  UNL     1       8.171   0.777  19.496  1.00  0.00     0.010 C 
HETATM   13  C11 UNL     1       7.314   0.758  17.213  1.00  0.00    -0.010 C 
HETATM   14  C9  UNL     1       9.292   0.791  18.445  1.00  0.00    -0.013 C 
HETATM   15  C10 UNL     1       8.627  -0.027  17.356  1.00  0.00     0.009 C 
HETATM   16  C14 UNL     1       9.526   2.214  18.097  1.00  0.00     0.011 C 
HETATM   17  C13 UNL     1       8.454   2.897  17.327  1.00  0.00     0.009 C 
HETATM   18  C12 UNL     1       7.714   1.976  16.370  1.00  0.00     0.011 C 
ENDBRANCH   7   9
ENDBRANCH   4   5
ENDBRANCH   3   4
BRANCH   3  19
HETATM   19  C15 UNL     1       7.061   8.882  21.306  1.00  0.00     0.238 C 
HETATM   20  O2  UNL     1       8.022   9.641  21.627  1.00  0.00    -0.272 OA
HETATM   21  N3  UNL     1       5.993   8.761  22.230  1.00  0.00    -0.338 N 
HETATM   22  C16 UNL     1       4.781   7.945  22.113  1.00  0.00     0.127 C 
HETATM   23  C19 UNL     1       5.858   9.421  23.504  1.00  0.00     0.179 C 
HETATM   24  C17 UNL     1       3.696   8.908  22.615  1.00  0.00     0.022 C 
HETATM   25  C18 UNL     1       4.406   9.621  23.734  1.00  0.00     0.037 C 
BRANCH  23  26
HETATM   26  C20 UNL     1       6.501   8.641  24.620  1.00  0.00     0.240 C 
HETATM   27  O3  UNL     1       5.751   7.907  25.282  1.00  0.00    -0.271 OA
HETATM   28  N4  UNL     1       7.867   8.758  24.869  1.00  0.00    -0.357 N 
ATOM     29  H4  UNL     1       8.362   9.409  24.259  1.00  0.00     0.162 HD
BRANCH  28  30
HETATM   30  C21 UNL     1       8.679   8.110  25.842  1.00  0.00     0.158 C 
BRANCH  30  31
HETATM   31  C22 UNL     1      10.107   8.503  25.927  1.00  0.00     0.196 C 
HETATM   32 CL1  UNL     1      10.983   7.229  26.869  1.00  0.00    -0.106 Cl
HETATM   33 CL2  UNL     1      10.976   8.662  24.416  1.00  0.00    -0.106 Cl
ENDBRANCH  30  31
ENDBRANCH  28  30
ENDBRANCH  23  26
ENDBRANCH   3  19
TORSDOF 7
ENDMDL
