MODEL 1
REMARK VINA RESULT: -9.530301106      0.000      0.000
REMARK  9 active torsions:
REMARK  status: ('A' for Active; 'I' for Inactive)
REMARK    1  A    between atoms: N1_1  and  C1_4 
REMARK    2  A    between atoms: N7_18  and  N8_19 
REMARK       I    between atoms: N8_19  and  C8_21 
REMARK       I    between atoms: C8_21  and  N9_23 
REMARK    3  A    between atoms: N9_23  and  S1_25 
REMARK    4  A    between atoms: S1_25  and  O4_28 
REMARK    5  A    between atoms: O4_28  and  C9_29 
REMARK    6  A    between atoms: C9_29  and  C10_30 
REMARK    7  A    between atoms: C10_30  and  O5_31 
REMARK    8  A    between atoms: C10_30  and  C11_33 
REMARK    9  A    between atoms: C11_33  and  N10_34 
ROOT
HETATM    1  N8  UNL     1       3.368   2.192  21.820  1.00  0.00    -0.242 N 
ATOM      2  H8  UNL     1       4.142   2.631  22.317  1.00  0.00     0.192 HD
HETATM    3  C8  UNL     1       3.499   2.064  20.436  1.00  0.00     0.350 C 
HETATM    4  O1  UNL     1       2.669   1.560  19.652  1.00  0.00    -0.244 OA
HETATM    5  N9  UNL     1       4.705   2.549  19.777  1.00  0.00    -0.212 N 
ATOM      6  H9  UNL     1       5.449   2.980  20.327  1.00  0.00     0.185 HD
ENDROOT
BRANCH   1   7
HETATM    7  N7  UNL     1       2.296   1.784  22.578  1.00  0.00    -0.230 N 
HETATM    8  C1  UNL     1       2.437   0.594  23.270  1.00  0.00     0.151 A 
HETATM    9  C2  UNL     1       1.455   0.071  24.061  1.00  0.00     0.108 A 
HETATM   10  N2  UNL     1       1.617  -1.099  24.734  1.00  0.00    -0.338 N 
HETATM   11  C6  UNL     1       0.270   0.770  24.168  1.00  0.00     0.090 A 
HETATM   12  C3  UNL     1       0.672  -1.639  25.519  1.00  0.00     0.143 A 
ATOM     13  H2  UNL     1       2.504  -1.594  24.636  1.00  0.00     0.167 HD
HETATM   14  N3  UNL     1       0.868  -2.866  26.214  1.00  0.00    -0.081 NA
HETATM   15  C4  UNL     1      -0.534  -0.962  25.650  1.00  0.00     0.114 A 
HETATM   16  N4  UNL     1      -1.557  -1.517  26.484  1.00  0.00    -0.097 NA
HETATM   17  C5  UNL     1      -0.715   0.237  24.969  1.00  0.00     0.103 A 
HETATM   18  N5  UNL     1      -1.926   0.934  25.088  1.00  0.00    -0.098 NA
HETATM   19  N6  UNL     1       0.153   1.913  23.495  1.00  0.00    -0.347 N 
HETATM   20  C7  UNL     1       1.141   2.432  22.704  1.00  0.00     0.209 A 
ATOM     21  H6  UNL     1      -0.723   2.430  23.574  1.00  0.00     0.167 HD
BRANCH   8  22
HETATM   22  N1  UNL     1       3.549  -0.076  23.179  1.00  0.00    -0.382 N 
ATOM     23  H12 UNL     1       3.656  -0.947  23.698  1.00  0.00     0.157 HD
ATOM     24  H11 UNL     1       4.278   0.308  22.579  1.00  0.00     0.157 HD
ENDBRANCH   8  22
ENDBRANCH   1   7
BRANCH   5  25
HETATM   25  S1  UNL     1       4.877   2.399  18.095  1.00  0.00     0.365 S 
HETATM   26  O2  UNL     1       5.546   3.646  17.531  1.00  0.00    -0.175 OA
HETATM   27  O3  UNL     1       3.560   2.255  17.428  1.00  0.00    -0.175 OA
BRANCH  25  28
HETATM   28  O4  UNL     1       5.867   1.112  17.661  1.00  0.00    -0.257 OA
BRANCH  28  29
HETATM   29  C9  UNL     1       5.462  -0.063  18.297  1.00  0.00     0.225 C 
BRANCH  29  30
HETATM   30  C10 UNL     1       5.396  -1.239  17.348  1.00  0.00     0.168 C 
BRANCH  30  31
HETATM   31  O5  UNL     1       6.366  -1.175  16.369  1.00  0.00    -0.392 OA
ATOM     32  H5  UNL     1       6.008  -1.306  15.499  1.00  0.00     0.210 HD
ENDBRANCH  30  31
BRANCH  30  33
HETATM   33  C11 UNL     1       4.000  -1.237  16.716  1.00  0.00     0.263 C 
BRANCH  33  34
HETATM   34  N10 UNL     1       3.031  -0.663  17.625  1.00  0.00    -0.077 N 
ATOM     35 3H10 UNL     1       2.474  -1.381  18.089  1.00  0.00     0.274 HD
ATOM     36 2H10 UNL     1       3.476  -0.259  18.448  1.00  0.00     0.274 HD
ATOM     37 1H10 UNL     1       2.443   0.017  17.140  1.00  0.00     0.274 HD
ENDBRANCH  33  34
ENDBRANCH  30  33
ENDBRANCH  29  30
ENDBRANCH  28  29
ENDBRANCH  25  28
ENDBRANCH   5  25
TORSDOF 9
ENDMDL
MODEL 2
REMARK VINA RESULT: -9.499495594      1.318      1.593
REMARK  9 active torsions:
REMARK  status: ('A' for Active; 'I' for Inactive)
REMARK    1  A    between atoms: N1_1  and  C1_4 
REMARK    2  A    between atoms: N7_18  and  N8_19 
REMARK       I    between atoms: N8_19  and  C8_21 
REMARK       I    between atoms: C8_21  and  N9_23 
REMARK    3  A    between atoms: N9_23  and  S1_25 
REMARK    4  A    between atoms: S1_25  and  O4_28 
REMARK    5  A    between atoms: O4_28  and  C9_29 
REMARK    6  A    between atoms: C9_29  and  C10_30 
REMARK    7  A    between atoms: C10_30  and  O5_31 
REMARK    8  A    between atoms: C10_30  and  C11_33 
REMARK    9  A    between atoms: C11_33  and  N10_34 
ROOT
HETATM    1  N8  UNL     1       3.052   2.257  21.927  1.00  0.00    -0.242 N 
ATOM      2  H8  UNL     1       3.715   2.891  22.371  1.00  0.00     0.192 HD
HETATM    3  C8  UNL     1       3.282   1.942  20.587  1.00  0.00     0.350 C 
HETATM    4  O1  UNL     1       2.591   1.191  19.868  1.00  0.00    -0.244 OA
HETATM    5  N9  UNL     1       4.430   2.516  19.896  1.00  0.00    -0.212 N 
ATOM      6  H9  UNL     1       5.061   3.146  20.393  1.00  0.00     0.185 HD
ENDROOT
BRANCH   1   7
HETATM    7  N7  UNL     1       2.018   1.796  22.707  1.00  0.00    -0.230 N 
HETATM    8  C1  UNL     1       2.227   0.605  23.381  1.00  0.00     0.151 A 
HETATM    9  C2  UNL     1       1.288   0.033  24.190  1.00  0.00     0.108 A 
HETATM   10  N2  UNL     1       1.516  -1.136  24.844  1.00  0.00    -0.338 N 
HETATM   11  C6  UNL     1       0.077   0.680  24.334  1.00  0.00     0.090 A 
HETATM   12  C3  UNL     1       0.614  -1.724  25.647  1.00  0.00     0.143 A 
ATOM     13  H2  UNL     1       2.420  -1.592  24.719  1.00  0.00     0.167 HD
HETATM   14  N3  UNL     1       0.880  -2.949  26.322  1.00  0.00    -0.081 NA
HETATM   15  C4  UNL     1      -0.615  -1.101  25.815  1.00  0.00     0.114 A 
HETATM   16  N4  UNL     1      -1.592  -1.708  26.668  1.00  0.00    -0.097 NA
HETATM   17  C5  UNL     1      -0.864   0.096  25.154  1.00  0.00     0.103 A 
HETATM   18  N5  UNL     1      -2.100   0.740  25.311  1.00  0.00    -0.098 NA
HETATM   19  N6  UNL     1      -0.105   1.824  23.678  1.00  0.00    -0.347 N 
HETATM   20  C7  UNL     1       0.840   2.392  22.869  1.00  0.00     0.209 A 
ATOM     21  H6  UNL     1      -1.000   2.302  23.784  1.00  0.00     0.167 HD
BRANCH   8  22
HETATM   22  N1  UNL     1       3.362  -0.015  23.254  1.00  0.00    -0.382 N 
ATOM     23  H12 UNL     1       3.674  -0.312  22.330  1.00  0.00     0.157 HD
ATOM     24  H11 UNL     1       3.902  -0.182  24.104  1.00  0.00     0.157 HD
ENDBRANCH   8  22
ENDBRANCH   1   7
BRANCH   5  25
HETATM   25  S1  UNL     1       4.721   2.141  18.267  1.00  0.00     0.365 S 
HETATM   26  O2  UNL     1       5.781   3.078  17.702  1.00  0.00    -0.175 OA
HETATM   27  O3  UNL     1       3.495   2.303  17.447  1.00  0.00    -0.175 OA
BRANCH  25  28
HETATM   28  O4  UNL     1       5.328   0.586  18.063  1.00  0.00    -0.257 OA
BRANCH  28  29
HETATM   29  C9  UNL     1       6.084   0.199  19.171  1.00  0.00     0.225 C 
BRANCH  29  30
HETATM   30  C10 UNL     1       7.258  -0.674  18.791  1.00  0.00     0.168 C 
BRANCH  30  31
HETATM   31  O5  UNL     1       8.346  -0.474  19.615  1.00  0.00    -0.392 OA
ATOM     32  H5  UNL     1       8.795   0.342  19.428  1.00  0.00     0.210 HD
ENDBRANCH  30  31
BRANCH  30  33
HETATM   33  C11 UNL     1       7.621  -0.342  17.340  1.00  0.00     0.263 C 
BRANCH  33  34
HETATM   34  N10 UNL     1       8.195   0.983  17.248  1.00  0.00    -0.077 N 
ATOM     35 3H10 UNL     1       8.076   1.384  16.317  1.00  0.00     0.274 HD
ATOM     36 2H10 UNL     1       7.656   1.667  17.779  1.00  0.00     0.274 HD
ATOM     37 1H10 UNL     1       9.175   0.970  17.532  1.00  0.00     0.274 HD
ENDBRANCH  33  34
ENDBRANCH  30  33
ENDBRANCH  29  30
ENDBRANCH  28  29
ENDBRANCH  25  28
ENDBRANCH   5  25
TORSDOF 9
ENDMDL
MODEL 3
REMARK VINA RESULT: -9.451529896      1.617      2.692
REMARK  9 active torsions:
REMARK  status: ('A' for Active; 'I' for Inactive)
REMARK    1  A    between atoms: N1_1  and  C1_4 
REMARK    2  A    between atoms: N7_18  and  N8_19 
REMARK       I    between atoms: N8_19  and  C8_21 
REMARK       I    between atoms: C8_21  and  N9_23 
REMARK    3  A    between atoms: N9_23  and  S1_25 
REMARK    4  A    between atoms: S1_25  and  O4_28 
REMARK    5  A    between atoms: O4_28  and  C9_29 
REMARK    6  A    between atoms: C9_29  and  C10_30 
REMARK    7  A    between atoms: C10_30  and  O5_31 
REMARK    8  A    between atoms: C10_30  and  C11_33 
REMARK    9  A    between atoms: C11_33  and  N10_34 
ROOT
HETATM    1  N8  UNL     1       3.661   2.052  21.734  1.00  0.00    -0.242 N 
ATOM      2  H8  UNL     1       4.087   2.896  22.118  1.00  0.00     0.192 HD
HETATM    3  C8  UNL     1       3.852   1.814  20.373  1.00  0.00     0.350 C 
HETATM    4  O1  UNL     1       3.416   0.846  19.717  1.00  0.00    -0.244 OA
HETATM    5  N9  UNL     1       4.632   2.754  19.577  1.00  0.00    -0.212 N 
ATOM      6  H9  UNL     1       5.034   3.582  20.016  1.00  0.00     0.185 HD
ENDROOT
BRANCH   1   7
HETATM    7  N7  UNL     1       2.955   1.262  22.609  1.00  0.00    -0.230 N 
HETATM    8  C1  UNL     1       1.636   1.611  22.842  1.00  0.00     0.151 A 
HETATM    9  C2  UNL     1       0.819   0.915  23.686  1.00  0.00     0.108 A 
HETATM   10  N2  UNL     1      -0.475   1.275  23.897  1.00  0.00    -0.338 N 
HETATM   11  C6  UNL     1       1.343  -0.186  24.332  1.00  0.00     0.090 A 
HETATM   12  C3  UNL     1      -1.304   0.613  24.719  1.00  0.00     0.143 A 
ATOM     13  H2  UNL     1      -0.835   2.094  23.405  1.00  0.00     0.167 HD
HETATM   14  N3  UNL     1      -2.655   1.011  24.922  1.00  0.00    -0.081 NA
HETATM   15  C4  UNL     1      -0.809  -0.501  25.386  1.00  0.00     0.114 A 
HETATM   16  N4  UNL     1      -1.676  -1.225  26.267  1.00  0.00    -0.097 NA
HETATM   17  C5  UNL     1       0.511  -0.883  25.179  1.00  0.00     0.103 A 
HETATM   18  N5  UNL     1       1.028  -2.005  25.845  1.00  0.00    -0.098 NA
HETATM   19  N6  UNL     1       2.613  -0.506  24.095  1.00  0.00    -0.347 N 
HETATM   20  C7  UNL     1       3.427   0.195  23.249  1.00  0.00     0.209 A 
ATOM     21  H6  UNL     1       3.001  -1.320  24.572  1.00  0.00     0.167 HD
BRANCH   8  22
HETATM   22  N1  UNL     1       1.128   2.647  22.240  1.00  0.00    -0.382 N 
ATOM     23  H12 UNL     1       1.427   2.875  21.292  1.00  0.00     0.157 HD
ATOM     24  H11 UNL     1       0.440   3.196  22.755  1.00  0.00     0.157 HD
ENDBRANCH   8  22
ENDBRANCH   1   7
BRANCH   5  25
HETATM   25  S1  UNL     1       4.871   2.475  17.920  1.00  0.00     0.365 S 
HETATM   26  O2  UNL     1       5.553   3.681  17.286  1.00  0.00    -0.175 OA
HETATM   27  O3  UNL     1       3.583   2.265  17.215  1.00  0.00    -0.175 OA
BRANCH  25  28
HETATM   28  O4  UNL     1       5.887   1.168  17.627  1.00  0.00    -0.257 OA
BRANCH  28  29
HETATM   29  C9  UNL     1       6.784   0.990  18.683  1.00  0.00     0.225 C 
BRANCH  29  30
HETATM   30  C10 UNL     1       7.475  -0.353  18.632  1.00  0.00     0.168 C 
BRANCH  30  31
HETATM   31  O5  UNL     1       8.395  -0.506  19.649  1.00  0.00    -0.392 OA
ATOM     32  H5  UNL     1       9.210  -0.887  19.343  1.00  0.00     0.210 HD
ENDBRANCH  30  31
BRANCH  30  33
HETATM   33  C11 UNL     1       8.166  -0.458  17.269  1.00  0.00     0.263 C 
BRANCH  33  34
HETATM   34  N10 UNL     1       8.924   0.743  16.987  1.00  0.00    -0.077 N 
ATOM     35 3H10 UNL     1       9.383   1.105  17.823  1.00  0.00     0.274 HD
ATOM     36 2H10 UNL     1       9.754   0.545  16.431  1.00  0.00     0.274 HD
ATOM     37 1H10 UNL     1       8.331   1.446  16.546  1.00  0.00     0.274 HD
ENDBRANCH  33  34
ENDBRANCH  30  33
ENDBRANCH  29  30
ENDBRANCH  28  29
ENDBRANCH  25  28
ENDBRANCH   5  25
TORSDOF 9
ENDMDL
MODEL 4
REMARK VINA RESULT: -9.377986023      0.790      2.080
REMARK  9 active torsions:
REMARK  status: ('A' for Active; 'I' for Inactive)
REMARK    1  A    between atoms: N1_1  and  C1_4 
REMARK    2  A    between atoms: N7_18  and  N8_19 
REMARK       I    between atoms: N8_19  and  C8_21 
REMARK       I    between atoms: C8_21  and  N9_23 
REMARK    3  A    between atoms: N9_23  and  S1_25 
REMARK    4  A    between atoms: S1_25  and  O4_28 
REMARK    5  A    between atoms: O4_28  and  C9_29 
REMARK    6  A    between atoms: C9_29  and  C10_30 
REMARK    7  A    between atoms: C10_30  and  O5_31 
REMARK    8  A    between atoms: C10_30  and  C11_33 
REMARK    9  A    between atoms: C11_33  and  N10_34 
ROOT
HETATM    1  N8  UNL     1       3.389   2.140  21.773  1.00  0.00    -0.242 N 
ATOM      2  H8  UNL     1       3.570   3.084  22.113  1.00  0.00     0.192 HD
HETATM    3  C8  UNL     1       3.793   1.852  20.469  1.00  0.00     0.350 C 
HETATM    4  O1  UNL     1       3.662   0.764  19.871  1.00  0.00    -0.244 OA
HETATM    5  N9  UNL     1       4.440   2.884  19.668  1.00  0.00    -0.212 N 
ATOM      6  H9  UNL     1       4.595   3.812  20.062  1.00  0.00     0.185 HD
ENDROOT
BRANCH   1   7
HETATM    7  N7  UNL     1       2.770   1.276  22.645  1.00  0.00    -0.230 N 
HETATM    8  C1  UNL     1       1.440   1.527  22.935  1.00  0.00     0.151 A 
HETATM    9  C2  UNL     1       0.704   0.750  23.783  1.00  0.00     0.108 A 
HETATM   10  N2  UNL     1      -0.602   1.014  24.052  1.00  0.00    -0.338 N 
HETATM   11  C6  UNL     1       1.324  -0.332  24.373  1.00  0.00     0.090 A 
HETATM   12  C3  UNL     1      -1.354   0.271  24.879  1.00  0.00     0.143 A 
ATOM     13  H2  UNL     1      -1.035   1.821  23.601  1.00  0.00     0.167 HD
HETATM   14  N3  UNL     1      -2.721   0.570  25.142  1.00  0.00    -0.081 NA
HETATM   15  C4  UNL     1      -0.761  -0.826  25.490  1.00  0.00     0.114 A 
HETATM   16  N4  UNL     1      -1.543  -1.636  26.376  1.00  0.00    -0.097 NA
HETATM   17  C5  UNL     1       0.573  -1.111  25.225  1.00  0.00     0.103 A 
HETATM   18  N5  UNL     1       1.189  -2.214  25.834  1.00  0.00    -0.098 NA
HETATM   19  N6  UNL     1       2.604  -0.557  24.082  1.00  0.00    -0.347 N 
HETATM   20  C7  UNL     1       3.336   0.225  23.231  1.00  0.00     0.209 A 
ATOM     21  H6  UNL     1       3.063  -1.357  24.517  1.00  0.00     0.167 HD
BRANCH   8  22
HETATM   22  N1  UNL     1       0.842   2.543  22.387  1.00  0.00    -0.382 N 
ATOM     23  H12 UNL     1       0.028   2.389  21.792  1.00  0.00     0.157 HD
ATOM     24  H11 UNL     1       1.223   3.470  22.580  1.00  0.00     0.157 HD
ENDBRANCH   8  22
ENDBRANCH   1   7
BRANCH   5  25
HETATM   25  S1  UNL     1       4.936   2.545  18.081  1.00  0.00     0.365 S 
HETATM   26  O2  UNL     1       5.585   3.780  17.468  1.00  0.00    -0.175 OA
HETATM   27  O3  UNL     1       3.786   2.169  17.223  1.00  0.00    -0.175 OA
BRANCH  25  28
HETATM   28  O4  UNL     1       6.101   1.335  18.015  1.00  0.00    -0.257 OA
BRANCH  28  29
HETATM   29  C9  UNL     1       5.863   0.474  16.941  1.00  0.00     0.225 C 
BRANCH  29  30
HETATM   30  C10 UNL     1       5.646  -0.955  17.385  1.00  0.00     0.168 C 
BRANCH  30  31
HETATM   31  O5  UNL     1       6.687  -1.781  17.014  1.00  0.00    -0.392 OA
ATOM     32  H5  UNL     1       6.598  -2.655  17.374  1.00  0.00     0.210 HD
ENDBRANCH  30  31
BRANCH  30  33
HETATM   33  C11 UNL     1       4.335  -1.434  16.754  1.00  0.00     0.263 C 
BRANCH  33  34
HETATM   34  N10 UNL     1       3.218  -0.657  17.247  1.00  0.00    -0.077 N 
ATOM     35 3H10 UNL     1       3.299   0.327  16.992  1.00  0.00     0.274 HD
ATOM     36 2H10 UNL     1       2.356  -0.874  16.748  1.00  0.00     0.274 HD
ATOM     37 1H10 UNL     1       3.113  -0.779  18.255  1.00  0.00     0.274 HD
ENDBRANCH  33  34
ENDBRANCH  30  33
ENDBRANCH  29  30
ENDBRANCH  28  29
ENDBRANCH  25  28
ENDBRANCH   5  25
TORSDOF 9
ENDMDL
MODEL 5
REMARK VINA RESULT: -8.733624826      1.470      1.960
REMARK  9 active torsions:
REMARK  status: ('A' for Active; 'I' for Inactive)
REMARK    1  A    between atoms: N1_1  and  C1_4 
REMARK    2  A    between atoms: N7_18  and  N8_19 
REMARK       I    between atoms: N8_19  and  C8_21 
REMARK       I    between atoms: C8_21  and  N9_23 
REMARK    3  A    between atoms: N9_23  and  S1_25 
REMARK    4  A    between atoms: S1_25  and  O4_28 
REMARK    5  A    between atoms: O4_28  and  C9_29 
REMARK    6  A    between atoms: C9_29  and  C10_30 
REMARK    7  A    between atoms: C10_30  and  O5_31 
REMARK    8  A    between atoms: C10_30  and  C11_33 
REMARK    9  A    between atoms: C11_33  and  N10_34 
ROOT
HETATM    1  N8  UNL     1       4.283   1.739  22.238  1.00  0.00    -0.242 N 
ATOM      2  H8  UNL     1       4.920   2.371  22.721  1.00  0.00     0.192 HD
HETATM    3  C8  UNL     1       4.794   1.046  21.140  1.00  0.00     0.350 C 
HETATM    4  O1  UNL     1       4.180   0.232  20.420  1.00  0.00    -0.244 OA
HETATM    5  N9  UNL     1       6.181   1.248  20.740  1.00  0.00    -0.212 N 
ATOM      6  H9  UNL     1       6.773   1.894  21.263  1.00  0.00     0.185 HD
ENDROOT
BRANCH   1   7
HETATM    7  N7  UNL     1       3.003   1.654  22.732  1.00  0.00    -0.230 N 
HETATM    8  C1  UNL     1       2.714   0.563  23.534  1.00  0.00     0.151 A 
HETATM    9  C2  UNL     1       1.486   0.353  24.092  1.00  0.00     0.108 A 
HETATM   10  N2  UNL     1       1.226  -0.725  24.878  1.00  0.00    -0.338 N 
HETATM   11  C6  UNL     1       0.493   1.276  23.837  1.00  0.00     0.090 A 
HETATM   12  C3  UNL     1       0.030  -0.960  25.441  1.00  0.00     0.143 A 
ATOM     13  H2  UNL     1       1.980  -1.391  25.049  1.00  0.00     0.167 HD
HETATM   14  N3  UNL     1      -0.215  -2.097  26.263  1.00  0.00    -0.081 NA
HETATM   15  C4  UNL     1      -0.992  -0.050  25.207  1.00  0.00     0.114 A 
HETATM   16  N4  UNL     1      -2.276  -0.279  25.798  1.00  0.00    -0.097 NA
HETATM   17  C5  UNL     1      -0.742   1.058  24.405  1.00  0.00     0.103 A 
HETATM   18  N5  UNL     1      -1.763   1.987  24.156  1.00  0.00    -0.098 NA
HETATM   19  N6  UNL     1       0.790   2.319  23.064  1.00  0.00    -0.347 N 
HETATM   20  C7  UNL     1       2.022   2.524  22.508  1.00  0.00     0.209 A 
ATOM     21  H6  UNL     1       0.056   3.003  22.876  1.00  0.00     0.167 HD
BRANCH   8  22
HETATM   22  N1  UNL     1       3.640  -0.316  23.783  1.00  0.00    -0.382 N 
ATOM     23  H12 UNL     1       4.610  -0.014  23.876  1.00  0.00     0.157 HD
ATOM     24  H11 UNL     1       3.349  -1.289  23.874  1.00  0.00     0.157 HD
ENDBRANCH   8  22
ENDBRANCH   1   7
BRANCH   5  25
HETATM   25  S1  UNL     1       6.815   0.410  19.407  1.00  0.00     0.365 S 
HETATM   26  O2  UNL     1       7.984  -0.460  19.851  1.00  0.00    -0.175 OA
HETATM   27  O3  UNL     1       7.318   1.344  18.371  1.00  0.00    -0.175 OA
BRANCH  25  28
HETATM   28  O4  UNL     1       5.698  -0.641  18.718  1.00  0.00    -0.257 OA
BRANCH  28  29
HETATM   29  C9  UNL     1       5.587  -0.416  17.344  1.00  0.00     0.225 C 
BRANCH  29  30
HETATM   30  C10 UNL     1       4.166  -0.123  16.921  1.00  0.00     0.168 C 
BRANCH  30  31
HETATM   31  O5  UNL     1       3.688   1.050  17.469  1.00  0.00    -0.392 OA
ATOM     32  H5  UNL     1       2.768   1.188  17.277  1.00  0.00     0.210 HD
ENDBRANCH  30  31
BRANCH  30  33
HETATM   33  C11 UNL     1       3.304  -1.309  17.366  1.00  0.00     0.263 C 
BRANCH  33  34
HETATM   34  N10 UNL     1       2.387  -0.909  18.411  1.00  0.00    -0.077 N 
ATOM     35 3H10 UNL     1       2.718  -1.192  19.334  1.00  0.00     0.274 HD
ATOM     36 2H10 UNL     1       2.389   0.101  18.551  1.00  0.00     0.274 HD
ATOM     37 1H10 UNL     1       1.449  -1.262  18.220  1.00  0.00     0.274 HD
ENDBRANCH  33  34
ENDBRANCH  30  33
ENDBRANCH  29  30
ENDBRANCH  28  29
ENDBRANCH  25  28
ENDBRANCH   5  25
TORSDOF 9
ENDMDL
