MODEL 1
REMARK VINA RESULT: -8.837310851      0.000      0.000
REMARK  19 active torsions:
REMARK  status: ('A' for Active; 'I' for Inactive)
REMARK    1  A    between atoms: O1_2  and  C2_3 
REMARK    2  A    between atoms: C2_3  and  O2_4 
REMARK    3  A    between atoms: C2_3  and  C3_6 
REMARK    4  A    between atoms: C3_6  and  C4_7 
REMARK    5  A    between atoms: C4_7  and  C5_8 
REMARK    6  A    between atoms: C4_7  and  N14_53 
REMARK    7  A    between atoms: C5_8  and  C6_9 
REMARK    8  A    between atoms: C6_9  and  O3_10 
REMARK    9  A    between atoms: C6_9  and  C7_12 
REMARK   10  A    between atoms: N3_16  and  C8_17 
REMARK   11  A    between atoms: C10_24  and  N7_25 
REMARK   12  A    between atoms: C12_27  and  C13_28 
REMARK   13  A    between atoms: C13_28  and  O4_29 
REMARK   14  A    between atoms: O4_29  and  C14_30 
REMARK   15  A    between atoms: C18_35  and  N8_36 
REMARK   16  A    between atoms: C19_41  and  N10_42 
REMARK   17  A    between atoms: N10_42  and  N11_44 
REMARK   18  A    between atoms: N11_44  and  N12_45 
REMARK   19  A    between atoms: C20_50  and  O6_51 
REMARK       I    between atoms: N14_53  and  C21_55 
ROOT
HETATM    1  C8  UNL     1       9.578  47.065  -3.003  1.00  0.00     0.251 C 
HETATM    2  N4  UNL     1       8.187  47.519  -3.173  1.00  0.00    -0.339 N 
ATOM      3  H4  UNL     1       7.901  48.396  -3.609  1.00  0.00     0.164 HD
HETATM    4  C9  UNL     1       7.371  46.614  -2.673  1.00  0.00     0.187 C 
HETATM    5  N5  UNL     1       5.979  46.787  -2.689  1.00  0.00    -0.064 NA
HETATM    6  N6  UNL     1       8.138  45.527  -2.198  1.00  0.00    -0.340 N 
ATOM      7  H6  UNL     1       7.853  44.831  -1.508  1.00  0.00     0.164 HD
HETATM    8  C10 UNL     1       9.433  45.597  -2.901  1.00  0.00     0.235 C 
ENDROOT
BRANCH   8   9
HETATM    9  N7  UNL     1       9.445  44.811  -4.089  1.00  0.00    -0.325 N 
HETATM   10  C11 UNL     1       9.573  45.324  -5.364  1.00  0.00     0.105 A 
HETATM   11  C12 UNL     1       9.503  44.313  -6.291  1.00  0.00     0.013 A 
HETATM   12  C16 UNL     1       9.333  43.135  -5.509  1.00  0.00     0.105 A 
HETATM   13  C17 UNL     1       9.299  43.461  -4.175  1.00  0.00     0.110 A 
HETATM   14  N13 UNL     1       9.381  41.851  -5.927  1.00  0.00    -0.104 N 
HETATM   15  C18 UNL     1       9.296  42.430  -3.257  1.00  0.00     0.144 A 
HETATM   16  N9  UNL     1       9.349  41.171  -3.694  1.00  0.00    -0.173 N 
HETATM   17  C19 UNL     1       9.398  40.865  -4.985  1.00  0.00     0.710 A 
ATOM     18  H9  UNL     1       9.352  40.414  -3.010  1.00  0.00     0.186 HD
HETATM   19  S1  UNL     1       9.466  41.438  -7.629  1.00  0.00     0.067 SA
BRANCH  11  20
HETATM   20  C13 UNL     1       9.252  44.289  -7.737  1.00  0.00     0.221 C 
BRANCH  20  21
HETATM   21  O4  UNL     1       9.905  45.200  -8.581  1.00  0.00    -0.317 OA
BRANCH  21  22
HETATM   22  C14 UNL     1      10.697  44.524  -9.597  1.00  0.00     0.255 C 
HETATM   23  C15 UNL     1      10.080  43.707 -10.628  1.00  0.00     0.126 C 
HETATM   24  O5  UNL     1      11.930  44.695  -9.543  1.00  0.00    -0.266 OA
ENDBRANCH  21  22
ENDBRANCH  20  21
ENDBRANCH  11  20
BRANCH  15  25
HETATM   25  N8  UNL     1       9.155  42.665  -1.992  1.00  0.00    -0.383 N 
ATOM     26  H82 UNL     1       9.325  43.604  -1.629  1.00  0.00     0.157 HD
ATOM     27  H81 UNL     1       8.944  41.911  -1.338  1.00  0.00     0.157 HD
ENDBRANCH  15  25
BRANCH  17  28
HETATM   28  N10 UNL     1       9.687  39.723  -5.463  1.00  0.00    -0.115 N 
ATOM     29  H10 UNL     1      10.577  39.677  -5.960  1.00  0.00     0.203 HD
BRANCH  28  30
HETATM   30  N11 UNL     1       8.993  38.545  -5.415  1.00  0.00    -0.015 NA
BRANCH  30  31
HETATM   31  N12 UNL     1       7.605  38.778  -5.586  1.00  0.00    -0.328 N 
ATOM     32 2H12 UNL     1       7.210  39.670  -5.883  1.00  0.00     0.174 HD
ATOM     33 1H12 UNL     1       7.072  37.935  -5.371  1.00  0.00     0.174 HD
ENDBRANCH  30  31
ENDBRANCH  28  30
ENDBRANCH  17  28
ENDBRANCH   8   9
BRANCH   1  34
HETATM   34  N3  UNL     1       9.881  47.460  -1.578  1.00  0.00    -0.226 N 
HETATM   35  N2  UNL     1      10.276  46.644  -0.597  1.00  0.00    -0.016 NA
HETATM   36  N1  UNL     1      10.435  47.385   0.507  1.00  0.00    -0.281 N 
HETATM   37  C7  UNL     1      10.146  48.636   0.252  1.00  0.00     0.104 A 
ATOM     38  H1  UNL     1      10.736  47.028   1.413  1.00  0.00     0.184 HD
HETATM   39  C20 UNL     1       9.791  48.666  -1.104  1.00  0.00     0.184 A 
BRANCH  37  40
HETATM   40  C6  UNL     1      10.079  49.802   1.146  1.00  0.00     0.175 C 
BRANCH  40  41
HETATM   41  C5  UNL     1       9.712  49.377   2.512  1.00  0.00     0.063 C 
BRANCH  41  42
HETATM   42  C4  UNL     1      10.667  49.310   3.628  1.00  0.00     0.091 C 
BRANCH  42  43
HETATM   43  C3  UNL     1      10.194  50.354   4.640  1.00  0.00     0.085 C 
BRANCH  43  44
HETATM   44  C2  UNL     1       9.211  49.957   5.628  1.00  0.00     0.258 C 
BRANCH  44  45
HETATM   45  O1  UNL     1       9.666  48.939   6.525  1.00  0.00    -0.366 OA
HETATM   46  C1  UNL     1       8.554  48.683   7.376  1.00  0.00     0.204 C 
ENDBRANCH  44  45
BRANCH  44  47
HETATM   47  O2  UNL     1       9.324  51.066   6.668  1.00  0.00    -0.371 OA
ATOM     48  H2  UNL     1       8.384  51.128   6.796  1.00  0.00     0.212 HD
ENDBRANCH  44  47
ENDBRANCH  43  44
ENDBRANCH  42  43
BRANCH  42  49
HETATM   49  N14 UNL     1      11.002  48.086   4.217  1.00  0.00    -0.357 N 
HETATM   50  C21 UNL     1      10.498  46.794   4.071  1.00  0.00     0.213 C 
HETATM   51  C22 UNL     1      11.088  45.662   4.845  1.00  0.00     0.117 C 
HETATM   52  O7  UNL     1       9.549  46.541   3.299  1.00  0.00    -0.274 OA
ATOM     53  H14 UNL     1      11.768  48.151   4.886  1.00  0.00     0.162 HD
ENDBRANCH  42  49
ENDBRANCH  41  42
ENDBRANCH  40  41
BRANCH  40  54
HETATM   54  O3  UNL     1       9.388  50.875   0.606  1.00  0.00    -0.389 OA
ATOM     55  H3  UNL     1       9.116  51.562   1.202  1.00  0.00     0.210 HD
ENDBRANCH  40  54
ENDBRANCH  37  40
BRANCH  39  56
HETATM   56  O6  UNL     1       9.421  49.848  -1.747  1.00  0.00    -0.344 OA
ATOM     57  H6  UNL     1       8.528  50.173  -1.732  1.00  0.00     0.219 HD
ENDBRANCH  39  56
ENDBRANCH   1  34
TORSDOF 19
ENDMDL
MODEL 2
REMARK VINA RESULT: -8.280871010      1.245      1.867
REMARK  19 active torsions:
REMARK  status: ('A' for Active; 'I' for Inactive)
REMARK    1  A    between atoms: O1_2  and  C2_3 
REMARK    2  A    between atoms: C2_3  and  O2_4 
REMARK    3  A    between atoms: C2_3  and  C3_6 
REMARK    4  A    between atoms: C3_6  and  C4_7 
REMARK    5  A    between atoms: C4_7  and  C5_8 
REMARK    6  A    between atoms: C4_7  and  N14_53 
REMARK    7  A    between atoms: C5_8  and  C6_9 
REMARK    8  A    between atoms: C6_9  and  O3_10 
REMARK    9  A    between atoms: C6_9  and  C7_12 
REMARK   10  A    between atoms: N3_16  and  C8_17 
REMARK   11  A    between atoms: C10_24  and  N7_25 
REMARK   12  A    between atoms: C12_27  and  C13_28 
REMARK   13  A    between atoms: C13_28  and  O4_29 
REMARK   14  A    between atoms: O4_29  and  C14_30 
REMARK   15  A    between atoms: C18_35  and  N8_36 
REMARK   16  A    between atoms: C19_41  and  N10_42 
REMARK   17  A    between atoms: N10_42  and  N11_44 
REMARK   18  A    between atoms: N11_44  and  N12_45 
REMARK   19  A    between atoms: C20_50  and  O6_51 
REMARK       I    between atoms: N14_53  and  C21_55 
ROOT
HETATM    1  C8  UNL     1       9.593  46.995  -3.094  1.00  0.00     0.251 C 
HETATM    2  N4  UNL     1       8.216  47.478  -3.293  1.00  0.00    -0.339 N 
ATOM      3  H4  UNL     1       7.959  48.371  -3.713  1.00  0.00     0.164 HD
HETATM    4  C9  UNL     1       7.370  46.573  -2.844  1.00  0.00     0.187 C 
HETATM    5  N5  UNL     1       5.982  46.771  -2.899  1.00  0.00    -0.064 NA
HETATM    6  N6  UNL     1       8.103  45.460  -2.377  1.00  0.00    -0.340 N 
ATOM      7  H6  UNL     1       7.785  44.751  -1.716  1.00  0.00     0.164 HD
HETATM    8  C10 UNL     1       9.420  45.527  -3.037  1.00  0.00     0.235 C 
ENDROOT
BRANCH   8   9
HETATM    9  N7  UNL     1       9.456  44.774  -4.246  1.00  0.00    -0.325 N 
HETATM   10  C11 UNL     1       9.618  45.321  -5.503  1.00  0.00     0.105 A 
HETATM   11  C12 UNL     1       9.564  44.336  -6.459  1.00  0.00     0.013 A 
HETATM   12  C16 UNL     1       9.369  43.139  -5.714  1.00  0.00     0.105 A 
HETATM   13  C17 UNL     1       9.306  43.428  -4.372  1.00  0.00     0.110 A 
HETATM   14  N13 UNL     1       9.421  41.867  -6.166  1.00  0.00    -0.104 N 
HETATM   15  C18 UNL     1       9.275  42.372  -3.483  1.00  0.00     0.144 A 
HETATM   16  N9  UNL     1       9.332  41.125  -3.953  1.00  0.00    -0.173 N 
HETATM   17  C19 UNL     1       9.410  40.855  -5.251  1.00  0.00     0.710 A 
ATOM     18  H9  UNL     1       9.314  40.350  -3.291  1.00  0.00     0.186 HD
HETATM   19  S1  UNL     1       9.544  41.499  -7.876  1.00  0.00     0.067 SA
BRANCH  11  20
HETATM   20  C13 UNL     1       9.348  44.354  -7.911  1.00  0.00     0.221 C 
BRANCH  20  21
HETATM   21  O4  UNL     1      10.414  44.632  -8.779  1.00  0.00    -0.317 OA
BRANCH  21  22
HETATM   22  C14 UNL     1      10.227  45.895  -9.476  1.00  0.00     0.255 C 
HETATM   23  C15 UNL     1       9.383  46.000 -10.654  1.00  0.00     0.126 C 
HETATM   24  O5  UNL     1      10.817  46.883  -9.001  1.00  0.00    -0.266 OA
ENDBRANCH  21  22
ENDBRANCH  20  21
ENDBRANCH  11  20
BRANCH  15  25
HETATM   25  N8  UNL     1       9.106  42.573  -2.216  1.00  0.00    -0.383 N 
ATOM     26  H82 UNL     1       9.608  41.997  -1.540  1.00  0.00     0.157 HD
ATOM     27  H81 UNL     1       8.426  43.255  -1.879  1.00  0.00     0.157 HD
ENDBRANCH  15  25
BRANCH  17  28
HETATM   28  N10 UNL     1       9.704  39.724  -5.753  1.00  0.00    -0.115 N 
ATOM     29  H10 UNL     1      10.560  39.710  -6.308  1.00  0.00     0.203 HD
BRANCH  28  30
HETATM   30  N11 UNL     1       9.054  38.524  -5.667  1.00  0.00    -0.015 NA
BRANCH  30  31
HETATM   31  N12 UNL     1       7.656  38.702  -5.827  1.00  0.00    -0.328 N 
ATOM     32 2H12 UNL     1       6.958  38.338  -5.178  1.00  0.00     0.174 HD
ATOM     33 1H12 UNL     1       7.458  39.238  -6.671  1.00  0.00     0.174 HD
ENDBRANCH  30  31
ENDBRANCH  28  30
ENDBRANCH  17  28
ENDBRANCH   8   9
BRANCH   1  34
HETATM   34  N3  UNL     1       9.858  47.345  -1.649  1.00  0.00    -0.226 N 
HETATM   35  N2  UNL     1      10.238  46.500  -0.686  1.00  0.00    -0.016 NA
HETATM   36  N1  UNL     1      10.362  47.206   0.445  1.00  0.00    -0.281 N 
HETATM   37  C7  UNL     1      10.067  48.461   0.225  1.00  0.00     0.104 A 
ATOM     38  H1  UNL     1      10.645  46.822   1.346  1.00  0.00     0.184 HD
HETATM   39  C20 UNL     1       9.744  48.534  -1.138  1.00  0.00     0.184 A 
BRANCH  37  40
HETATM   40  C6  UNL     1       9.966  49.597   1.155  1.00  0.00     0.175 C 
BRANCH  40  41
HETATM   41  C5  UNL     1       9.344  49.164   2.422  1.00  0.00     0.063 C 
BRANCH  41  42
HETATM   42  C4  UNL     1      10.112  48.783   3.618  1.00  0.00     0.091 C 
BRANCH  42  43
HETATM   43  C3  UNL     1      11.568  49.124   3.300  1.00  0.00     0.085 C 
BRANCH  43  44
HETATM   44  C2  UNL     1      11.929  50.519   3.145  1.00  0.00     0.258 C 
BRANCH  44  45
HETATM   45  O1  UNL     1      11.399  51.374   4.162  1.00  0.00    -0.366 OA
HETATM   46  C1  UNL     1      10.734  52.414   3.452  1.00  0.00     0.204 C 
ENDBRANCH  44  45
BRANCH  44  47
HETATM   47  O2  UNL     1      13.345  50.558   3.707  1.00  0.00    -0.371 OA
ATOM     48  H2  UNL     1      13.754  50.462   2.854  1.00  0.00     0.212 HD
ENDBRANCH  44  47
ENDBRANCH  43  44
ENDBRANCH  42  43
BRANCH  42  49
HETATM   49  N14 UNL     1       9.715  49.200   4.892  1.00  0.00    -0.357 N 
HETATM   50  C21 UNL     1       9.119  48.539   5.965  1.00  0.00     0.213 C 
HETATM   51  C22 UNL     1       8.822  49.270   7.232  1.00  0.00     0.117 C 
HETATM   52  O7  UNL     1       8.817  47.328   5.905  1.00  0.00    -0.274 OA
ATOM     53  H14 UNL     1       9.897  50.188   5.073  1.00  0.00     0.162 HD
ENDBRANCH  42  49
ENDBRANCH  41  42
ENDBRANCH  40  41
BRANCH  40  54
HETATM   54  O3  UNL     1       9.477  50.752   0.568  1.00  0.00    -0.389 OA
ATOM     55  H3  UNL     1       9.888  51.040  -0.238  1.00  0.00     0.210 HD
ENDBRANCH  40  54
ENDBRANCH  37  40
BRANCH  39  56
HETATM   56  O6  UNL     1       9.377  49.733  -1.751  1.00  0.00    -0.344 OA
ATOM     57  H6  UNL     1       9.531  49.896  -2.674  1.00  0.00     0.219 HD
ENDBRANCH  39  56
ENDBRANCH   1  34
TORSDOF 19
ENDMDL
MODEL 3
REMARK VINA RESULT: -8.261779042      0.963      2.218
REMARK  19 active torsions:
REMARK  status: ('A' for Active; 'I' for Inactive)
REMARK    1  A    between atoms: O1_2  and  C2_3 
REMARK    2  A    between atoms: C2_3  and  O2_4 
REMARK    3  A    between atoms: C2_3  and  C3_6 
REMARK    4  A    between atoms: C3_6  and  C4_7 
REMARK    5  A    between atoms: C4_7  and  C5_8 
REMARK    6  A    between atoms: C4_7  and  N14_53 
REMARK    7  A    between atoms: C5_8  and  C6_9 
REMARK    8  A    between atoms: C6_9  and  O3_10 
REMARK    9  A    between atoms: C6_9  and  C7_12 
REMARK   10  A    between atoms: N3_16  and  C8_17 
REMARK   11  A    between atoms: C10_24  and  N7_25 
REMARK   12  A    between atoms: C12_27  and  C13_28 
REMARK   13  A    between atoms: C13_28  and  O4_29 
REMARK   14  A    between atoms: O4_29  and  C14_30 
REMARK   15  A    between atoms: C18_35  and  N8_36 
REMARK   16  A    between atoms: C19_41  and  N10_42 
REMARK   17  A    between atoms: N10_42  and  N11_44 
REMARK   18  A    between atoms: N11_44  and  N12_45 
REMARK   19  A    between atoms: C20_50  and  O6_51 
REMARK       I    between atoms: N14_53  and  C21_55 
ROOT
HETATM    1  C8  UNL     1       9.601  47.048  -2.960  1.00  0.00     0.251 C 
HETATM    2  N4  UNL     1       8.212  47.516  -3.104  1.00  0.00    -0.339 N 
ATOM      3  H4  UNL     1       7.930  48.415  -3.495  1.00  0.00     0.164 HD
HETATM    4  C9  UNL     1       7.393  46.589  -2.650  1.00  0.00     0.187 C 
HETATM    5  N5  UNL     1       6.001  46.769  -2.657  1.00  0.00    -0.064 NA
HETATM    6  N6  UNL     1       8.156  45.476  -2.233  1.00  0.00    -0.340 N 
ATOM      7  H6  UNL     1       7.868  44.748  -1.578  1.00  0.00     0.164 HD
HETATM    8  C10 UNL     1       9.450  45.577  -2.932  1.00  0.00     0.235 C 
ENDROOT
BRANCH   8   9
HETATM    9  N7  UNL     1       9.458  44.853  -4.159  1.00  0.00    -0.325 N 
HETATM   10  C11 UNL     1       9.599  45.428  -5.405  1.00  0.00     0.105 A 
HETATM   11  C12 UNL     1       9.520  44.466  -6.383  1.00  0.00     0.013 A 
HETATM   12  C16 UNL     1       9.332  43.253  -5.663  1.00  0.00     0.105 A 
HETATM   13  C17 UNL     1       9.296  43.511  -4.314  1.00  0.00     0.110 A 
HETATM   14  N13 UNL     1       9.366  41.992  -6.145  1.00  0.00    -0.104 N 
HETATM   15  C18 UNL     1       9.275  42.434  -3.450  1.00  0.00     0.144 A 
HETATM   16  N9  UNL     1       9.314  41.198  -3.950  1.00  0.00    -0.173 N 
HETATM   17  C19 UNL     1       9.366  40.959  -5.255  1.00  0.00     0.710 A 
ATOM     18  H9  UNL     1       9.305  40.408  -3.306  1.00  0.00     0.186 HD
HETATM   19  S1  UNL     1       9.454  41.664  -7.866  1.00  0.00     0.067 SA
BRANCH  11  20
HETATM   20  C13 UNL     1       9.277  44.520  -7.830  1.00  0.00     0.221 C 
BRANCH  20  21
HETATM   21  O4  UNL     1      10.346  44.702  -8.719  1.00  0.00    -0.317 OA
BRANCH  21  22
HETATM   22  C14 UNL     1      10.222  45.943  -9.466  1.00  0.00     0.255 C 
HETATM   23  C15 UNL     1       9.449  46.022 -10.694  1.00  0.00     0.126 C 
HETATM   24  O5  UNL     1      10.801  46.937  -8.989  1.00  0.00    -0.266 OA
ENDBRANCH  21  22
ENDBRANCH  20  21
ENDBRANCH  11  20
BRANCH  15  25
HETATM   25  N8  UNL     1       9.131  42.606  -2.175  1.00  0.00    -0.383 N 
ATOM     26  H82 UNL     1       8.390  43.214  -1.826  1.00  0.00     0.157 HD
ATOM     27  H81 UNL     1       9.791  42.198  -1.513  1.00  0.00     0.157 HD
ENDBRANCH  15  25
BRANCH  17  28
HETATM   28  N10 UNL     1       9.643  39.838  -5.789  1.00  0.00    -0.115 N 
ATOM     29  H10 UNL     1      10.531  39.809  -6.290  1.00  0.00     0.203 HD
BRANCH  28  30
HETATM   30  N11 UNL     1       8.938  38.667  -5.798  1.00  0.00    -0.015 NA
BRANCH  30  31
HETATM   31  N12 UNL     1       7.545  38.924  -5.870  1.00  0.00    -0.328 N 
ATOM     32 2H12 UNL     1       7.111  39.796  -5.567  1.00  0.00     0.174 HD
ATOM     33 1H12 UNL     1       7.052  38.122  -6.263  1.00  0.00     0.174 HD
ENDBRANCH  30  31
ENDBRANCH  28  30
ENDBRANCH  17  28
ENDBRANCH   8   9
BRANCH   1  34
HETATM   34  N3  UNL     1       9.907  47.368  -1.516  1.00  0.00    -0.226 N 
HETATM   35  N2  UNL     1      10.265  46.496  -0.569  1.00  0.00    -0.016 NA
HETATM   36  N1  UNL     1      10.441  47.182   0.567  1.00  0.00    -0.281 N 
HETATM   37  C7  UNL     1      10.199  48.452   0.366  1.00  0.00     0.104 A 
ATOM     38  H1  UNL     1      10.722  46.774   1.458  1.00  0.00     0.184 HD
HETATM   39  C20 UNL     1       9.856  48.555  -0.990  1.00  0.00     0.184 A 
BRANCH  37  40
HETATM   40  C6  UNL     1      10.167  49.579   1.310  1.00  0.00     0.175 C 
BRANCH  40  41
HETATM   41  C5  UNL     1      10.829  49.204   2.575  1.00  0.00     0.063 C 
BRANCH  41  42
HETATM   42  C4  UNL     1      10.104  48.732   3.766  1.00  0.00     0.091 C 
BRANCH  42  43
HETATM   43  C3  UNL     1      10.824  47.459   4.210  1.00  0.00     0.085 C 
BRANCH  43  44
HETATM   44  C2  UNL     1      10.138  46.192   4.056  1.00  0.00     0.258 C 
BRANCH  44  45
HETATM   45  O1  UNL     1      10.489  45.482   2.865  1.00  0.00    -0.366 OA
HETATM   46  C1  UNL     1      10.893  44.193   3.317  1.00  0.00     0.204 C 
ENDBRANCH  44  45
BRANCH  44  47
HETATM   47  O2  UNL     1      10.941  45.269   4.965  1.00  0.00    -0.371 OA
ATOM     48  H2  UNL     1      10.538  45.599   5.761  1.00  0.00     0.212 HD
ENDBRANCH  44  47
ENDBRANCH  43  44
ENDBRANCH  42  43
BRANCH  42  49
HETATM   49  N14 UNL     1       9.818  49.600   4.825  1.00  0.00    -0.357 N 
HETATM   50  C21 UNL     1       9.145  49.433   6.034  1.00  0.00     0.213 C 
HETATM   51  C22 UNL     1       9.012  50.573   6.989  1.00  0.00     0.117 C 
HETATM   52  O7  UNL     1       8.637  48.338   6.358  1.00  0.00    -0.274 OA
ATOM     53  H14 UNL     1      10.173  50.546   4.684  1.00  0.00     0.162 HD
ENDBRANCH  42  49
ENDBRANCH  41  42
ENDBRANCH  40  41
BRANCH  40  54
HETATM   54  O3  UNL     1       8.927  50.192   1.399  1.00  0.00    -0.389 OA
ATOM     55  H3  UNL     1       8.894  51.130   1.254  1.00  0.00     0.210 HD
ENDBRANCH  40  54
ENDBRANCH  37  40
BRANCH  39  56
HETATM   56  O6  UNL     1       9.533  49.777  -1.582  1.00  0.00    -0.344 OA
ATOM     57  H6  UNL     1      10.018  50.122  -2.323  1.00  0.00     0.219 HD
ENDBRANCH  39  56
ENDBRANCH   1  34
TORSDOF 19
ENDMDL
MODEL 4
REMARK VINA RESULT: -7.929546796      1.012      1.364
REMARK  19 active torsions:
REMARK  status: ('A' for Active; 'I' for Inactive)
REMARK    1  A    between atoms: O1_2  and  C2_3 
REMARK    2  A    between atoms: C2_3  and  O2_4 
REMARK    3  A    between atoms: C2_3  and  C3_6 
REMARK    4  A    between atoms: C3_6  and  C4_7 
REMARK    5  A    between atoms: C4_7  and  C5_8 
REMARK    6  A    between atoms: C4_7  and  N14_53 
REMARK    7  A    between atoms: C5_8  and  C6_9 
REMARK    8  A    between atoms: C6_9  and  O3_10 
REMARK    9  A    between atoms: C6_9  and  C7_12 
REMARK   10  A    between atoms: N3_16  and  C8_17 
REMARK   11  A    between atoms: C10_24  and  N7_25 
REMARK   12  A    between atoms: C12_27  and  C13_28 
REMARK   13  A    between atoms: C13_28  and  O4_29 
REMARK   14  A    between atoms: O4_29  and  C14_30 
REMARK   15  A    between atoms: C18_35  and  N8_36 
REMARK   16  A    between atoms: C19_41  and  N10_42 
REMARK   17  A    between atoms: N10_42  and  N11_44 
REMARK   18  A    between atoms: N11_44  and  N12_45 
REMARK   19  A    between atoms: C20_50  and  O6_51 
REMARK       I    between atoms: N14_53  and  C21_55 
ROOT
HETATM    1  C8  UNL     1       9.567  46.996  -3.052  1.00  0.00     0.251 C 
HETATM    2  N4  UNL     1       8.188  47.467  -3.264  1.00  0.00    -0.339 N 
ATOM      3  H4  UNL     1       7.925  48.337  -3.727  1.00  0.00     0.164 HD
HETATM    4  C9  UNL     1       7.347  46.586  -2.760  1.00  0.00     0.187 C 
HETATM    5  N5  UNL     1       5.958  46.780  -2.813  1.00  0.00    -0.064 NA
HETATM    6  N6  UNL     1       8.086  45.500  -2.243  1.00  0.00    -0.340 N 
ATOM      7  H6  UNL     1       7.775  44.826  -1.543  1.00  0.00     0.164 HD
HETATM    8  C10 UNL     1       9.397  45.534  -2.917  1.00  0.00     0.235 C 
ENDROOT
BRANCH   8   9
HETATM    9  N7  UNL     1       9.423  44.719  -4.086  1.00  0.00    -0.325 N 
HETATM   10  C11 UNL     1       9.569  45.200  -5.371  1.00  0.00     0.105 A 
HETATM   11  C12 UNL     1       9.509  44.167  -6.274  1.00  0.00     0.013 A 
HETATM   12  C16 UNL     1       9.328  43.009  -5.465  1.00  0.00     0.105 A 
HETATM   13  C17 UNL     1       9.278  43.367  -4.140  1.00  0.00     0.110 A 
HETATM   14  N13 UNL     1       9.380  41.715  -5.851  1.00  0.00    -0.104 N 
HETATM   15  C18 UNL     1       9.261  42.359  -3.197  1.00  0.00     0.144 A 
HETATM   16  N9  UNL     1       9.319  41.089  -3.603  1.00  0.00    -0.173 N 
HETATM   17  C19 UNL     1       9.384  40.752  -4.885  1.00  0.00     0.710 A 
ATOM     18  H9  UNL     1       9.313  40.350  -2.901  1.00  0.00     0.186 HD
HETATM   19  S1  UNL     1       9.486  41.260  -7.541  1.00  0.00     0.067 SA
BRANCH  11  20
HETATM   20  C13 UNL     1       9.277  44.108  -7.722  1.00  0.00     0.221 C 
BRANCH  20  21
HETATM   21  O4  UNL     1       9.885  45.044  -8.572  1.00  0.00    -0.317 OA
BRANCH  21  22
HETATM   22  C14 UNL     1      10.750  44.403  -9.551  1.00  0.00     0.255 C 
HETATM   23  C15 UNL     1      10.228  43.471 -10.537  1.00  0.00     0.126 C 
HETATM   24  O5  UNL     1      11.956  44.708  -9.508  1.00  0.00    -0.266 OA
ENDBRANCH  21  22
ENDBRANCH  20  21
ENDBRANCH  11  20
BRANCH  15  25
HETATM   25  N8  UNL     1       9.105  42.625  -1.940  1.00  0.00    -0.383 N 
ATOM     26  H82 UNL     1       8.387  42.137  -1.405  1.00  0.00     0.157 HD
ATOM     27  H81 UNL     1       9.644  43.365  -1.490  1.00  0.00     0.157 HD
ENDBRANCH  15  25
BRANCH  17  28
HETATM   28  N10 UNL     1       9.678  39.598  -5.331  1.00  0.00    -0.115 N 
ATOM     29  H10 UNL     1      10.578  39.538  -5.807  1.00  0.00     0.203 HD
BRANCH  28  30
HETATM   30  N11 UNL     1       8.978  38.425  -5.273  1.00  0.00    -0.015 NA
BRANCH  30  31
HETATM   31  N12 UNL     1       7.588  38.666  -5.428  1.00  0.00    -0.328 N 
ATOM     32 2H12 UNL     1       7.184  39.591  -5.572  1.00  0.00     0.174 HD
ATOM     33 1H12 UNL     1       7.065  37.792  -5.374  1.00  0.00     0.174 HD
ENDBRANCH  30  31
ENDBRANCH  28  30
ENDBRANCH  17  28
ENDBRANCH   8   9
BRANCH   1  34
HETATM   34  N3  UNL     1       9.844  47.421  -1.630  1.00  0.00    -0.226 N 
HETATM   35  N2  UNL     1      10.301  46.642  -0.645  1.00  0.00    -0.016 NA
HETATM   36  N1  UNL     1      10.408  47.401   0.454  1.00  0.00    -0.281 N 
HETATM   37  C7  UNL     1      10.028  48.625   0.192  1.00  0.00     0.104 A 
ATOM     38  H1  UNL     1      10.737  47.072   1.361  1.00  0.00     0.184 HD
HETATM   39  C20 UNL     1       9.667  48.621  -1.163  1.00  0.00     0.184 A 
BRANCH  37  40
HETATM   40  C6  UNL     1       9.878  49.789   1.079  1.00  0.00     0.175 C 
BRANCH  40  41
HETATM   41  C5  UNL     1       9.246  49.383   2.351  1.00  0.00     0.063 C 
BRANCH  41  42
HETATM   42  C4  UNL     1       9.809  49.691   3.675  1.00  0.00     0.091 C 
BRANCH  42  43
HETATM   43  C3  UNL     1       9.671  48.406   4.491  1.00  0.00     0.085 C 
BRANCH  43  44
HETATM   44  C2  UNL     1       9.088  48.493   5.815  1.00  0.00     0.258 C 
BRANCH  44  45
HETATM   45  O1  UNL     1       9.971  48.092   6.867  1.00  0.00    -0.366 OA
HETATM   46  C1  UNL     1       9.112  47.703   7.934  1.00  0.00     0.204 C 
ENDBRANCH  44  45
BRANCH  44  47
HETATM   47  O2  UNL     1       9.215  49.977   6.135  1.00  0.00    -0.371 OA
ATOM     48  H2  UNL     1      10.137  50.012   5.908  1.00  0.00     0.212 HD
ENDBRANCH  44  47
ENDBRANCH  43  44
ENDBRANCH  42  43
BRANCH  42  49
HETATM   49  N14 UNL     1      11.067  50.289   3.800  1.00  0.00    -0.357 N 
HETATM   50  C21 UNL     1      12.308  50.022   3.223  1.00  0.00     0.213 C 
HETATM   51  C22 UNL     1      13.492  50.869   3.552  1.00  0.00     0.117 C 
HETATM   52  O7  UNL     1      12.470  49.077   2.421  1.00  0.00    -0.274 OA
ATOM     53  H14 UNL     1      11.080  51.082   4.443  1.00  0.00     0.162 HD
ENDBRANCH  42  49
ENDBRANCH  41  42
ENDBRANCH  40  41
BRANCH  40  54
HETATM   54  O3  UNL     1       9.366  50.908   0.443  1.00  0.00    -0.389 OA
ATOM     55  H3  UNL     1       8.701  51.405   0.905  1.00  0.00     0.210 HD
ENDBRANCH  40  54
ENDBRANCH  37  40
BRANCH  39  56
HETATM   56  O6  UNL     1       9.210  49.769  -1.812  1.00  0.00    -0.344 OA
ATOM     57  H6  UNL     1       9.639  50.116  -2.585  1.00  0.00     0.219 HD
ENDBRANCH  39  56
ENDBRANCH   1  34
TORSDOF 19
ENDMDL
MODEL 5
REMARK VINA RESULT: -7.792857713      3.559     10.671
REMARK  19 active torsions:
REMARK  status: ('A' for Active; 'I' for Inactive)
REMARK    1  A    between atoms: O1_2  and  C2_3 
REMARK    2  A    between atoms: C2_3  and  O2_4 
REMARK    3  A    between atoms: C2_3  and  C3_6 
REMARK    4  A    between atoms: C3_6  and  C4_7 
REMARK    5  A    between atoms: C4_7  and  C5_8 
REMARK    6  A    between atoms: C4_7  and  N14_53 
REMARK    7  A    between atoms: C5_8  and  C6_9 
REMARK    8  A    between atoms: C6_9  and  O3_10 
REMARK    9  A    between atoms: C6_9  and  C7_12 
REMARK   10  A    between atoms: N3_16  and  C8_17 
REMARK   11  A    between atoms: C10_24  and  N7_25 
REMARK   12  A    between atoms: C12_27  and  C13_28 
REMARK   13  A    between atoms: C13_28  and  O4_29 
REMARK   14  A    between atoms: O4_29  and  C14_30 
REMARK   15  A    between atoms: C18_35  and  N8_36 
REMARK   16  A    between atoms: C19_41  and  N10_42 
REMARK   17  A    between atoms: N10_42  and  N11_44 
REMARK   18  A    between atoms: N11_44  and  N12_45 
REMARK   19  A    between atoms: C20_50  and  O6_51 
REMARK       I    between atoms: N14_53  and  C21_55 
ROOT
HETATM    1  C8  UNL     1       8.900  48.054   0.071  1.00  0.00     0.251 C 
HETATM    2  N4  UNL     1       9.527  49.315  -0.359  1.00  0.00    -0.339 N 
ATOM      3  H4  UNL     1       9.031  50.120  -0.743  1.00  0.00     0.164 HD
HETATM    4  C9  UNL     1      10.828  49.239  -0.170  1.00  0.00     0.187 C 
HETATM    5  N5  UNL     1      11.684  50.301  -0.500  1.00  0.00    -0.064 NA
HETATM    6  N6  UNL     1      11.128  47.989   0.415  1.00  0.00    -0.340 N 
ATOM      7  H6  UNL     1      12.029  47.510   0.408  1.00  0.00     0.164 HD
HETATM    8  C10 UNL     1       9.879  47.515   1.039  1.00  0.00     0.235 C 
ENDROOT
BRANCH   8   9
HETATM    9  N7  UNL     1       9.783  47.893   2.409  1.00  0.00    -0.325 N 
HETATM   10  C11 UNL     1       9.440  49.155   2.850  1.00  0.00     0.105 A 
HETATM   11  C12 UNL     1       9.481  49.205   4.222  1.00  0.00     0.013 A 
HETATM   12  C16 UNL     1       9.863  47.889   4.607  1.00  0.00     0.105 A 
HETATM   13  C17 UNL     1      10.041  47.109   3.491  1.00  0.00     0.110 A 
HETATM   14  N13 UNL     1       9.879  47.365   5.852  1.00  0.00    -0.104 N 
HETATM   15  C18 UNL     1      10.263  45.758   3.674  1.00  0.00     0.144 A 
HETATM   16  N9  UNL     1      10.270  45.263   4.913  1.00  0.00    -0.173 N 
HETATM   17  C19 UNL     1      10.079  46.022   5.985  1.00  0.00     0.710 A 
ATOM     18  H9  UNL     1      10.428  44.264   5.040  1.00  0.00     0.186 HD
HETATM   19  S1  UNL     1       9.609  48.354   7.274  1.00  0.00     0.067 SA
BRANCH  11  20
HETATM   20  C13 UNL     1       9.540  50.310   5.187  1.00  0.00     0.221 C 
BRANCH  20  21
HETATM   21  O4  UNL     1      10.650  51.167   5.212  1.00  0.00    -0.317 OA
BRANCH  21  22
HETATM   22  C14 UNL     1      11.160  51.429   3.875  1.00  0.00     0.255 C 
HETATM   23  C15 UNL     1      12.282  50.686   3.326  1.00  0.00     0.126 C 
HETATM   24  O5  UNL     1      10.575  52.313   3.222  1.00  0.00    -0.266 OA
ENDBRANCH  21  22
ENDBRANCH  20  21
ENDBRANCH  11  20
BRANCH  15  25
HETATM   25  N8  UNL     1      10.546  44.988   2.673  1.00  0.00    -0.383 N 
ATOM     26  H82 UNL     1      11.444  45.085   2.198  1.00  0.00     0.157 HD
ATOM     27  H81 UNL     1       9.859  44.330   2.307  1.00  0.00     0.157 HD
ENDBRANCH  15  25
BRANCH  17  28
HETATM   28  N10 UNL     1       9.837  45.594   7.158  1.00  0.00    -0.115 N 
ATOM     29  H10 UNL     1      10.168  46.197   7.912  1.00  0.00     0.203 HD
BRANCH  28  30
HETATM   30  N11 UNL     1       9.204  44.454   7.569  1.00  0.00    -0.015 NA
BRANCH  30  31
HETATM   31  N12 UNL     1      10.127  43.563   8.175  1.00  0.00    -0.328 N 
ATOM     32 2H12 UNL     1      11.044  43.842   8.522  1.00  0.00     0.174 HD
ATOM     33 1H12 UNL     1       9.742  42.618   8.209  1.00  0.00     0.174 HD
ENDBRANCH  30  31
ENDBRANCH  28  30
ENDBRANCH  17  28
ENDBRANCH   8   9
BRANCH   1  34
HETATM   34  N3  UNL     1       9.106  47.159  -1.128  1.00  0.00    -0.226 N 
HETATM   35  N2  UNL     1       9.823  46.032  -1.162  1.00  0.00    -0.016 NA
HETATM   36  N1  UNL     1       9.752  45.545  -2.408  1.00  0.00    -0.281 N 
HETATM   37  C7  UNL     1       9.023  46.332  -3.156  1.00  0.00     0.104 A 
ATOM     38  H1  UNL     1      10.202  44.687  -2.726  1.00  0.00     0.184 HD
HETATM   39  C20 UNL     1       8.611  47.372  -2.310  1.00  0.00     0.184 A 
BRANCH  37  40
HETATM   40  C6  UNL     1       8.729  46.278  -4.596  1.00  0.00     0.175 C 
BRANCH  40  41
HETATM   41  C5  UNL     1       8.612  44.875  -5.041  1.00  0.00     0.063 C 
BRANCH  41  42
HETATM   42  C4  UNL     1       9.655  44.173  -5.805  1.00  0.00     0.091 C 
BRANCH  42  43
HETATM   43  C3  UNL     1       9.333  44.431  -7.276  1.00  0.00     0.085 C 
BRANCH  43  44
HETATM   44  C2  UNL     1      10.431  44.698  -8.184  1.00  0.00     0.258 C 
BRANCH  44  45
HETATM   45  O1  UNL     1      10.019  45.013  -9.517  1.00  0.00    -0.366 OA
HETATM   46  C1  UNL     1      10.649  46.257  -9.807  1.00  0.00     0.204 C 
ENDBRANCH  44  45
BRANCH  44  47
HETATM   47  O2  UNL     1      10.793  46.140  -7.846  1.00  0.00    -0.371 OA
ATOM     48  H2  UNL     1      11.156  45.917  -6.996  1.00  0.00     0.212 HD
ENDBRANCH  44  47
ENDBRANCH  43  44
ENDBRANCH  42  43
BRANCH  42  49
HETATM   49  N14 UNL     1      11.009  44.344  -5.499  1.00  0.00    -0.357 N 
HETATM   50  C21 UNL     1      11.803  43.920  -4.436  1.00  0.00     0.213 C 
HETATM   51  C22 UNL     1      13.257  44.256  -4.397  1.00  0.00     0.117 C 
HETATM   52  O7  UNL     1      11.334  43.250  -3.491  1.00  0.00    -0.274 OA
ATOM     53  H14 UNL     1      11.518  44.890  -6.195  1.00  0.00     0.162 HD
ENDBRANCH  42  49
ENDBRANCH  41  42
ENDBRANCH  40  41
BRANCH  40  54
HETATM   54  O3  UNL     1       9.523  47.122  -5.356  1.00  0.00    -0.389 OA
ATOM     55  H3  UNL     1       9.582  46.944  -6.287  1.00  0.00     0.210 HD
ENDBRANCH  40  54
ENDBRANCH  37  40
BRANCH  39  56
HETATM   56  O6  UNL     1       7.799  48.415  -2.759  1.00  0.00    -0.344 OA
ATOM     57  H6  UNL     1       7.461  48.446  -3.646  1.00  0.00     0.219 HD
ENDBRANCH  39  56
ENDBRANCH   1  34
TORSDOF 19
ENDMDL
