MODEL 1
REMARK VINA RESULT: -10.475803203      0.000      0.000
REMARK  1 active torsions:
REMARK  status: ('A' for Active; 'I' for Inactive)
REMARK    1  A    between atoms: O1_2  and  C2_3 
ROOT
HETATM    1  C2  UNL     1       0.559  30.218  -5.962  1.00  0.00     0.102 A 
HETATM    2  C3  UNL     1       0.438  30.638  -7.269  1.00  0.00     0.040 A 
HETATM    3  C4  UNL     1       0.383  29.649  -8.197  1.00  0.00     0.014 A 
HETATM    4  C5  UNL     1       0.435  28.250  -7.911  1.00  0.00    -0.033 A 
HETATM    5  C6  UNL     1       0.549  27.879  -6.592  1.00  0.00     0.051 A 
HETATM    6  C7  UNL     1       0.616  28.866  -5.641  1.00  0.00     0.110 A 
HETATM    7  O2  UNL     1       0.773  28.719  -4.223  1.00  0.00    -0.308 OA
HETATM    8  C8  UNL     1       1.873  27.881  -3.724  1.00  0.00     0.076 A 
HETATM    9  C9  UNL     1       1.679  26.550  -3.500  1.00  0.00     0.040 A 
HETATM   10  C10 UNL     1       2.795  25.743  -3.082  1.00  0.00     0.040 A 
HETATM   11  C11 UNL     1       3.986  26.348  -2.935  1.00  0.00     0.076 A 
HETATM   12  C12 UNL     1       4.199  27.647  -3.122  1.00  0.00     0.040 A 
HETATM   13  C13 UNL     1       3.073  28.461  -3.543  1.00  0.00     0.040 A 
HETATM   14  O3  UNL     1       5.145  25.453  -2.599  1.00  0.00    -0.311 OA
HETATM   15  C14 UNL     1       5.595  25.006  -4.001  1.00  0.00     0.076 A 
HETATM   16  C15 UNL     1       6.577  25.663  -4.633  1.00  0.00     0.038 A 
HETATM   17  C16 UNL     1       6.865  25.237  -5.978  1.00  0.00     0.015 A 
HETATM   18  C17 UNL     1       6.189  24.215  -6.607  1.00  0.00    -0.020 A 
HETATM   19  C18 UNL     1       5.210  23.539  -5.928  1.00  0.00     0.015 A 
HETATM   20  C19 UNL     1       4.940  23.985  -4.584  1.00  0.00     0.038 A 
HETATM   21  C20 UNL     1       6.278  24.025  -8.083  1.00  0.00     0.108 C 
HETATM   22  N1  UNL     1       6.847  24.972  -9.002  1.00  0.00    -0.329 N 
HETATM   23  C21 UNL     1       8.039  24.551  -9.513  1.00  0.00     0.097 A 
HETATM   24  C22 UNL     1       8.790  25.220 -10.436  1.00  0.00     0.019 A 
HETATM   25  C23 UNL     1       8.327  26.413 -10.899  1.00  0.00     0.017 A 
HETATM   26  C24 UNL     1       7.106  26.873 -10.392  1.00  0.00     0.019 A 
HETATM   27  C25 UNL     1       6.766  28.107 -10.921  1.00  0.00     0.074 A 
HETATM   28  N2  UNL     1       7.536  28.808 -11.881  1.00  0.00    -0.100 NA
HETATM   29  C26 UNL     1       5.600  28.669 -10.469  1.00  0.00     0.115 A 
HETATM   30  N3  UNL     1       4.893  28.018  -9.584  1.00  0.00    -0.362 N 
ATOM     31  H3  UNL     1       4.033  28.471  -9.275  1.00  0.00     0.165 HD
HETATM   32  C27 UNL     1       5.171  26.783  -9.013  1.00  0.00     0.060 A 
HETATM   33  C28 UNL     1       6.347  26.165  -9.439  1.00  0.00     0.077 A 
HETATM   34  C29 UNL     1       4.178  26.429  -8.055  1.00  0.00     0.032 C 
HETATM   35  C30 UNL     1       2.962  25.945  -7.961  1.00  0.00     0.002 C 
HETATM   36  C31 UNL     1       1.969  25.520  -8.907  1.00  0.00     0.000 C 
HETATM   37  C32 UNL     1       0.915  26.174  -9.405  1.00  0.00     0.001 C 
HETATM   38  C33 UNL     1       0.401  27.507  -9.181  1.00  0.00     0.011 C 
ENDROOT
BRANCH   1  39
HETATM   39  O1  UNL     1       0.614  31.250  -5.009  1.00  0.00    -0.353 OA
HETATM   40  C1  UNL     1      -0.388  32.199  -4.909  1.00  0.00     0.210 C 
ENDBRANCH   1  39
TORSDOF 1
ENDMDL
MODEL 2
REMARK VINA RESULT: -9.520575243      1.906      2.513
REMARK  1 active torsions:
REMARK  status: ('A' for Active; 'I' for Inactive)
REMARK    1  A    between atoms: O1_2  and  C2_3 
ROOT
HETATM    1  C2  UNL     1       0.378  28.633  -3.075  1.00  0.00     0.102 A 
HETATM    2  C3  UNL     1      -0.345  29.329  -4.020  1.00  0.00     0.040 A 
HETATM    3  C4  UNL     1      -0.667  28.631  -5.139  1.00  0.00     0.014 A 
HETATM    4  C5  UNL     1      -0.319  27.267  -5.384  1.00  0.00    -0.033 A 
HETATM    5  C6  UNL     1       0.396  26.612  -4.410  1.00  0.00     0.051 A 
HETATM    6  C7  UNL     1       0.739  27.305  -3.277  1.00  0.00     0.110 A 
HETATM    7  O2  UNL     1       1.507  26.845  -2.156  1.00  0.00    -0.308 OA
HETATM    8  C8  UNL     1       2.812  26.217  -2.413  1.00  0.00     0.076 A 
HETATM    9  C9  UNL     1       2.904  24.869  -2.599  1.00  0.00     0.040 A 
HETATM   10  C10 UNL     1       4.183  24.296  -2.920  1.00  0.00     0.040 A 
HETATM   11  C11 UNL     1       5.234  25.127  -3.026  1.00  0.00     0.076 A 
HETATM   12  C12 UNL     1       5.180  26.439  -2.826  1.00  0.00     0.040 A 
HETATM   13  C13 UNL     1       3.889  27.019  -2.500  1.00  0.00     0.040 A 
HETATM   14  O3  UNL     1       6.529  24.503  -3.465  1.00  0.00    -0.311 OA
HETATM   15  C14 UNL     1       6.386  24.560  -4.996  1.00  0.00     0.076 A 
HETATM   16  C15 UNL     1       6.908  25.586  -5.682  1.00  0.00     0.038 A 
HETATM   17  C16 UNL     1       6.643  25.607  -7.097  1.00  0.00     0.015 A 
HETATM   18  C17 UNL     1       5.898  24.643  -7.739  1.00  0.00    -0.020 A 
HETATM   19  C18 UNL     1       5.401  23.588  -7.020  1.00  0.00     0.015 A 
HETATM   20  C19 UNL     1       5.680  23.591  -5.606  1.00  0.00     0.038 A 
HETATM   21  C20 UNL     1       5.368  24.867  -9.114  1.00  0.00     0.108 C 
HETATM   22  N1  UNL     1       5.361  26.130  -9.799  1.00  0.00    -0.329 N 
HETATM   23  C21 UNL     1       6.261  26.174 -10.822  1.00  0.00     0.097 A 
HETATM   24  C22 UNL     1       6.452  27.226 -11.671  1.00  0.00     0.019 A 
HETATM   25  C23 UNL     1       5.686  28.338 -11.497  1.00  0.00     0.017 A 
HETATM   26  C24 UNL     1       4.754  28.325 -10.453  1.00  0.00     0.019 A 
HETATM   27  C25 UNL     1       4.066  29.524 -10.367  1.00  0.00     0.074 A 
HETATM   28  N2  UNL     1       4.253  30.621 -11.244  1.00  0.00    -0.100 NA
HETATM   29  C26 UNL     1       3.147  29.634  -9.356  1.00  0.00     0.115 A 
HETATM   30  N3  UNL     1       2.977  28.619  -8.551  1.00  0.00    -0.362 N 
ATOM     31  H3  UNL     1       2.283  28.743  -7.814  1.00  0.00     0.165 HD
HETATM   32  C27 UNL     1       3.628  27.393  -8.578  1.00  0.00     0.060 A 
HETATM   33  C28 UNL     1       4.575  27.227  -9.589  1.00  0.00     0.077 A 
HETATM   34  C29 UNL     1       3.197  26.563  -7.503  1.00  0.00     0.032 C 
HETATM   35  C30 UNL     1       2.212  25.777  -7.138  1.00  0.00     0.002 C 
HETATM   36  C31 UNL     1       0.971  25.370  -7.737  1.00  0.00     0.000 C 
HETATM   37  C32 UNL     1      -0.269  25.838  -7.558  1.00  0.00     0.001 C 
HETATM   38  C33 UNL     1      -0.801  26.891  -6.724  1.00  0.00     0.011 C 
ENDROOT
BRANCH   1  39
HETATM   39  O1  UNL     1       0.705  29.365  -1.920  1.00  0.00    -0.353 OA
HETATM   40  C1  UNL     1      -0.144  29.416  -0.829  1.00  0.00     0.210 C 
ENDBRANCH   1  39
TORSDOF 1
ENDMDL
MODEL 3
REMARK VINA RESULT: -9.462586893      1.301      1.524
REMARK  1 active torsions:
REMARK  status: ('A' for Active; 'I' for Inactive)
REMARK    1  A    between atoms: O1_2  and  C2_3 
ROOT
HETATM    1  C2  UNL     1      -0.265  30.612  -5.471  1.00  0.00     0.102 A 
HETATM    2  C3  UNL     1      -0.529  30.713  -6.820  1.00  0.00     0.040 A 
HETATM    3  C4  UNL     1      -0.665  29.533  -7.478  1.00  0.00     0.014 A 
HETATM    4  C5  UNL     1      -0.558  28.241  -6.877  1.00  0.00    -0.033 A 
HETATM    5  C6  UNL     1      -0.299  28.190  -5.528  1.00  0.00     0.051 A 
HETATM    6  C7  UNL     1      -0.150  29.373  -4.849  1.00  0.00     0.110 A 
HETATM    7  O2  UNL     1       0.157  29.565  -3.461  1.00  0.00    -0.308 OA
HETATM    8  C8  UNL     1       1.319  28.859  -2.899  1.00  0.00     0.076 A 
HETATM    9  C9  UNL     1       1.173  27.620  -2.348  1.00  0.00     0.040 A 
HETATM   10  C10 UNL     1       2.340  26.926  -1.873  1.00  0.00     0.040 A 
HETATM   11  C11 UNL     1       3.529  27.540  -2.001  1.00  0.00     0.076 A 
HETATM   12  C12 UNL     1       3.699  28.756  -2.509  1.00  0.00     0.040 A 
HETATM   13  C13 UNL     1       2.521  29.457  -2.988  1.00  0.00     0.040 A 
HETATM   14  O3  UNL     1       4.733  26.740  -1.588  1.00  0.00    -0.311 OA
HETATM   15  C14 UNL     1       5.041  25.972  -2.885  1.00  0.00     0.076 A 
HETATM   16  C15 UNL     1       5.939  26.453  -3.755  1.00  0.00     0.038 A 
HETATM   17  C16 UNL     1       6.092  25.720  -4.984  1.00  0.00     0.015 A 
HETATM   18  C17 UNL     1       5.372  24.583  -5.279  1.00  0.00    -0.020 A 
HETATM   19  C18 UNL     1       4.482  24.094  -4.360  1.00  0.00     0.015 A 
HETATM   20  C19 UNL     1       4.347  24.847  -3.138  1.00  0.00     0.038 A 
HETATM   21  C20 UNL     1       5.309  24.050  -6.670  1.00  0.00     0.108 C 
HETATM   22  N1  UNL     1       5.761  24.749  -7.842  1.00  0.00    -0.329 N 
HETATM   23  C21 UNL     1       6.900  24.210  -8.363  1.00  0.00     0.097 A 
HETATM   24  C22 UNL     1       7.538  24.636  -9.492  1.00  0.00     0.019 A 
HETATM   25  C23 UNL     1       7.007  25.690 -10.171  1.00  0.00     0.017 A 
HETATM   26  C24 UNL     1       5.838  26.266  -9.659  1.00  0.00     0.019 A 
HETATM   27  C25 UNL     1       5.423  27.343 -10.425  1.00  0.00     0.074 A 
HETATM   28  N2  UNL     1       6.075  27.792 -11.599  1.00  0.00    -0.100 NA
HETATM   29  C26 UNL     1       4.301  28.005  -9.996  1.00  0.00     0.115 A 
HETATM   30  N3  UNL     1       3.703  27.586  -8.913  1.00  0.00    -0.362 N 
ATOM     31  H3  UNL     1       2.872  28.106  -8.630  1.00  0.00     0.165 HD
HETATM   32  C27 UNL     1       4.062  26.519  -8.100  1.00  0.00     0.060 A 
HETATM   33  C28 UNL     1       5.196  25.809  -8.492  1.00  0.00     0.077 A 
HETATM   34  C29 UNL     1       3.181  26.408  -6.986  1.00  0.00     0.032 C 
HETATM   35  C30 UNL     1       1.990  25.970  -6.651  1.00  0.00     0.002 C 
HETATM   36  C31 UNL     1       0.910  25.341  -7.361  1.00  0.00     0.000 C 
HETATM   37  C32 UNL     1      -0.202  25.868  -7.884  1.00  0.00     0.001 C 
HETATM   38  C33 UNL     1      -0.712  27.219  -7.926  1.00  0.00     0.011 C 
ENDROOT
BRANCH   1  39
HETATM   39  O1  UNL     1      -0.128  31.840  -4.799  1.00  0.00    -0.353 OA
HETATM   40  C1  UNL     1      -1.096  32.824  -4.883  1.00  0.00     0.210 C 
ENDBRANCH   1  39
TORSDOF 1
ENDMDL
MODEL 4
REMARK VINA RESULT: -9.208888492      1.088      1.271
REMARK  1 active torsions:
REMARK  status: ('A' for Active; 'I' for Inactive)
REMARK    1  A    between atoms: O1_2  and  C2_3 
ROOT
HETATM    1  C2  UNL     1       0.167  29.170  -4.695  1.00  0.00     0.102 A 
HETATM    2  C3  UNL     1      -0.199  29.816  -5.856  1.00  0.00     0.040 A 
HETATM    3  C4  UNL     1      -0.247  29.038  -6.967  1.00  0.00     0.014 A 
HETATM    4  C5  UNL     1       0.044  27.639  -7.002  1.00  0.00    -0.033 A 
HETATM    5  C6  UNL     1       0.398  27.036  -5.818  1.00  0.00     0.051 A 
HETATM    6  C7  UNL     1       0.461  27.810  -4.688  1.00  0.00     0.110 A 
HETATM    7  O2  UNL     1       0.838  27.412  -3.362  1.00  0.00    -0.308 OA
HETATM    8  C8  UNL     1       2.107  26.689  -3.185  1.00  0.00     0.076 A 
HETATM    9  C9  UNL     1       2.137  25.327  -3.239  1.00  0.00     0.040 A 
HETATM   10  C10 UNL     1       3.404  24.653  -3.134  1.00  0.00     0.040 A 
HETATM   11  C11 UNL     1       4.506  25.409  -2.990  1.00  0.00     0.076 A 
HETATM   12  C12 UNL     1       4.504  26.736  -2.909  1.00  0.00     0.040 A 
HETATM   13  C13 UNL     1       3.226  27.416  -3.014  1.00  0.00     0.040 A 
HETATM   14  O3  UNL     1       5.816  24.674  -2.989  1.00  0.00    -0.311 OA
HETATM   15  C14 UNL     1       6.119  24.598  -4.496  1.00  0.00     0.076 A 
HETATM   16  C15 UNL     1       6.897  25.524  -5.073  1.00  0.00     0.038 A 
HETATM   17  C16 UNL     1       7.047  25.430  -6.501  1.00  0.00     0.015 A 
HETATM   18  C17 UNL     1       6.439  24.455  -7.261  1.00  0.00    -0.020 A 
HETATM   19  C18 UNL     1       5.673  23.501  -6.643  1.00  0.00     0.015 A 
HETATM   20  C19 UNL     1       5.539  23.619  -5.213  1.00  0.00     0.038 A 
HETATM   21  C20 UNL     1       6.341  24.582  -8.743  1.00  0.00     0.108 C 
HETATM   22  N1  UNL     1       6.632  25.775  -9.489  1.00  0.00    -0.329 N 
HETATM   23  C21 UNL     1       7.786  25.672 -10.209  1.00  0.00     0.097 A 
HETATM   24  C22 UNL     1       8.294  26.629 -11.039  1.00  0.00     0.019 A 
HETATM   25  C23 UNL     1       7.604  27.795 -11.174  1.00  0.00     0.017 A 
HETATM   26  C24 UNL     1       6.416  27.931 -10.447  1.00  0.00     0.019 A 
HETATM   27  C25 UNL     1       5.833  29.171 -10.651  1.00  0.00     0.074 A 
HETATM   28  N2  UNL     1       6.350  30.169 -11.512  1.00  0.00    -0.100 NA
HETATM   29  C26 UNL     1       4.676  29.426  -9.960  1.00  0.00     0.115 A 
HETATM   30  N3  UNL     1       4.203  28.501  -9.167  1.00  0.00    -0.362 N 
ATOM     31  H3  UNL     1       3.340  28.732  -8.674  1.00  0.00     0.165 HD
HETATM   32  C27 UNL     1       4.733  27.243  -8.916  1.00  0.00     0.060 A 
HETATM   33  C28 UNL     1       5.910  26.930  -9.595  1.00  0.00     0.077 A 
HETATM   34  C29 UNL     1       3.947  26.541  -7.956  1.00  0.00     0.032 C 
HETATM   35  C30 UNL     1       2.839  25.850  -7.837  1.00  0.00     0.002 C 
HETATM   36  C31 UNL     1       1.790  25.462  -8.738  1.00  0.00     0.000 C 
HETATM   37  C32 UNL     1       0.593  26.015  -8.961  1.00  0.00     0.001 C 
HETATM   38  C33 UNL     1      -0.066  27.169  -8.393  1.00  0.00     0.011 C 
ENDROOT
BRANCH   1  39
HETATM   39  O1  UNL     1       0.211  29.985  -3.550  1.00  0.00    -0.353 OA
HETATM   40  C1  UNL     1      -0.875  30.105  -2.702  1.00  0.00     0.210 C 
ENDBRANCH   1  39
TORSDOF 1
ENDMDL
MODEL 5
REMARK VINA RESULT: -9.171081270      4.874      8.195
REMARK  1 active torsions:
REMARK  status: ('A' for Active; 'I' for Inactive)
REMARK    1  A    between atoms: O1_2  and  C2_3 
ROOT
HETATM    1  C2  UNL     1      -2.676  28.275  -7.413  1.00  0.00     0.102 A 
HETATM    2  C3  UNL     1      -3.302  29.418  -6.964  1.00  0.00     0.040 A 
HETATM    3  C4  UNL     1      -2.475  30.400  -6.521  1.00  0.00     0.014 A 
HETATM    4  C5  UNL     1      -1.048  30.324  -6.498  1.00  0.00    -0.033 A 
HETATM    5  C6  UNL     1      -0.469  29.167  -6.962  1.00  0.00     0.051 A 
HETATM    6  C7  UNL     1      -1.290  28.160  -7.404  1.00  0.00     0.110 A 
HETATM    7  O2  UNL     1      -0.917  26.864  -7.893  1.00  0.00    -0.308 OA
HETATM    8  C8  UNL     1      -0.011  26.043  -7.075  1.00  0.00     0.076 A 
HETATM    9  C9  UNL     1       1.340  26.125  -7.248  1.00  0.00     0.040 A 
HETATM   10  C10 UNL     1       2.201  25.364  -6.383  1.00  0.00     0.040 A 
HETATM   11  C11 UNL     1       1.626  24.606  -5.435  1.00  0.00     0.076 A 
HETATM   12  C12 UNL     1       0.314  24.487  -5.258  1.00  0.00     0.040 A 
HETATM   13  C13 UNL     1      -0.556  25.254  -6.132  1.00  0.00     0.040 A 
HETATM   14  O3  UNL     1       2.561  23.909  -4.488  1.00  0.00    -0.311 OA
HETATM   15  C14 UNL     1       2.775  24.999  -3.422  1.00  0.00     0.076 A 
HETATM   16  C15 UNL     1       2.023  25.013  -2.314  1.00  0.00     0.038 A 
HETATM   17  C16 UNL     1       2.226  26.123  -1.420  1.00  0.00     0.015 A 
HETATM   18  C17 UNL     1       3.135  27.129  -1.662  1.00  0.00    -0.020 A 
HETATM   19  C18 UNL     1       3.914  27.076  -2.788  1.00  0.00     0.015 A 
HETATM   20  C19 UNL     1       3.690  25.955  -3.666  1.00  0.00     0.038 A 
HETATM   21  C20 UNL     1       3.084  28.412  -0.904  1.00  0.00     0.108 C 
HETATM   22  N1  UNL     1       2.000  28.826  -0.055  1.00  0.00    -0.329 N 
HETATM   23  C21 UNL     1       2.331  28.790   1.267  1.00  0.00     0.097 A 
HETATM   24  C22 UNL     1       1.521  29.163   2.301  1.00  0.00     0.019 A 
HETATM   25  C23 UNL     1       0.270  29.611   2.007  1.00  0.00     0.017 A 
HETATM   26  C24 UNL     1      -0.100  29.657   0.658  1.00  0.00     0.019 A 
HETATM   27  C25 UNL     1      -1.403  30.100   0.501  1.00  0.00     0.074 A 
HETATM   28  N2  UNL     1      -2.251  30.492   1.565  1.00  0.00    -0.100 NA
HETATM   29  C26 UNL     1      -1.883  30.154  -0.783  1.00  0.00     0.115 A 
HETATM   30  N3  UNL     1      -1.096  29.793  -1.761  1.00  0.00    -0.362 N 
ATOM     31  H3  UNL     1      -1.493  29.849  -2.700  1.00  0.00     0.165 HD
HETATM   32  C27 UNL     1       0.214  29.341  -1.677  1.00  0.00     0.060 A 
HETATM   33  C28 UNL     1       0.753  29.267  -0.393  1.00  0.00     0.077 A 
HETATM   34  C29 UNL     1       0.720  29.003  -2.966  1.00  0.00     0.032 C 
HETATM   35  C30 UNL     1       1.215  29.544  -4.054  1.00  0.00     0.002 C 
HETATM   36  C31 UNL     1       1.483  30.890  -4.480  1.00  0.00     0.000 C 
HETATM   37  C32 UNL     1       0.758  31.714  -5.243  1.00  0.00     0.001 C 
HETATM   38  C33 UNL     1      -0.519  31.561  -5.901  1.00  0.00     0.011 C 
ENDROOT
BRANCH   1  39
HETATM   39  O1  UNL     1      -3.541  27.265  -7.871  1.00  0.00    -0.353 OA
HETATM   40  C1  UNL     1      -4.811  27.554  -8.335  1.00  0.00     0.210 C 
ENDBRANCH   1  39
TORSDOF 1
ENDMDL
