MODEL 1
REMARK VINA RESULT: -6.164694992      0.000      0.000
REMARK  0 active torsions:
REMARK  status: ('A' for Active; 'I' for Inactive)
ROOT
HETATM    1  O1  UNL     1      48.352  42.432  73.701  1.00  0.00    -0.262 OA
HETATM    2  C1  UNL     1      49.011  42.360  72.633  1.00  0.00     0.315 A 
HETATM    3  N1  UNL     1      49.168  43.427  71.836  1.00  0.00    -0.302 N 
ATOM      4  H1  UNL     1      48.740  44.310  72.114  1.00  0.00     0.171 HD
HETATM    5  C2  UNL     1      49.882  43.384  70.658  1.00  0.00     0.146 A 
HETATM    6  N2  UNL     1      50.053  44.429  69.850  1.00  0.00    -0.307 N 
ATOM      7  H2  UNL     1      49.699  45.378  69.972  1.00  0.00     0.176 HD
HETATM    8  S1  UNL     1      50.983  43.833  68.585  1.00  0.00     0.033 SA
HETATM    9  C3  UNL     1      51.150  42.221  69.108  1.00  0.00     0.259 A 
HETATM   10  O2  UNL     1      51.774  41.243  68.549  1.00  0.00    -0.276 OA
HETATM   11  C4  UNL     1      50.450  42.213  70.290  1.00  0.00     0.139 A 
HETATM   12  N3  UNL     1      50.304  41.098  71.090  1.00  0.00    -0.312 N 
ATOM     13  H3  UNL     1      50.728  40.212  70.818  1.00  0.00     0.169 HD
HETATM   14  C5  UNL     1      49.600  41.187  72.227  1.00  0.00     0.314 A 
HETATM   15  O3  UNL     1      49.440  40.183  72.995  1.00  0.00    -0.262 OA
ENDROOT
TORSDOF 0
ENDMDL
MODEL 2
REMARK VINA RESULT: -6.149924622      1.543      2.456
REMARK  0 active torsions:
REMARK  status: ('A' for Active; 'I' for Inactive)
ROOT
HETATM    1  O1  UNL     1      48.518  41.896  73.527  1.00  0.00    -0.262 OA
HETATM    2  C1  UNL     1      49.131  42.066  72.443  1.00  0.00     0.315 A 
HETATM    3  N1  UNL     1      50.049  41.187  72.015  1.00  0.00    -0.302 N 
ATOM      4  H1  UNL     1      50.246  40.368  72.589  1.00  0.00     0.171 HD
HETATM    5  C2  UNL     1      50.740  41.342  70.832  1.00  0.00     0.146 A 
HETATM    6  N2  UNL     1      51.656  40.484  70.385  1.00  0.00    -0.307 N 
ATOM      7  H2  UNL     1      51.972  39.621  70.827  1.00  0.00     0.176 HD
HETATM    8  S1  UNL     1      52.172  41.143  68.929  1.00  0.00     0.033 SA
HETATM    9  C3  UNL     1      51.194  42.537  68.901  1.00  0.00     0.259 A 
HETATM   10  O2  UNL     1      51.128  43.470  68.016  1.00  0.00    -0.276 OA
HETATM   11  C4  UNL     1      50.480  42.429  70.070  1.00  0.00     0.139 A 
HETATM   12  N3  UNL     1      49.540  43.349  70.486  1.00  0.00    -0.312 N 
ATOM     13  H3  UNL     1      49.340  44.171  69.916  1.00  0.00     0.169 HD
HETATM   14  C5  UNL     1      48.893  43.158  71.644  1.00  0.00     0.314 A 
HETATM   15  O3  UNL     1      48.018  43.982  72.066  1.00  0.00    -0.262 OA
ENDROOT
TORSDOF 0
ENDMDL
MODEL 3
REMARK VINA RESULT: -5.760891077      2.263      4.536
REMARK  0 active torsions:
REMARK  status: ('A' for Active; 'I' for Inactive)
ROOT
HETATM    1  O1  UNL     1      52.334  41.463  68.088  1.00  0.00    -0.262 OA
HETATM    2  C1  UNL     1      51.519  41.781  68.990  1.00  0.00     0.315 A 
HETATM    3  N1  UNL     1      51.257  40.958  70.016  1.00  0.00    -0.302 N 
ATOM      4  H1  UNL     1      51.735  40.058  70.054  1.00  0.00     0.171 HD
HETATM    5  C2  UNL     1      50.370  41.274  71.023  1.00  0.00     0.146 A 
HETATM    6  N2  UNL     1      50.093  40.475  72.052  1.00  0.00    -0.307 N 
ATOM      7  H2  UNL     1      50.476  39.549  72.245  1.00  0.00     0.176 HD
HETATM    8  S1  UNL     1      48.970  41.333  72.959  1.00  0.00     0.033 SA
HETATM    9  C3  UNL     1      48.861  42.735  71.998  1.00  0.00     0.259 A 
HETATM   10  O2  UNL     1      48.144  43.791  72.174  1.00  0.00    -0.276 OA
HETATM   11  C4  UNL     1      49.735  42.467  70.973  1.00  0.00     0.139 A 
HETATM   12  N3  UNL     1      49.985  43.334  69.929  1.00  0.00    -0.312 N 
ATOM     13  H3  UNL     1      49.510  44.235  69.885  1.00  0.00     0.169 HD
HETATM   14  C5  UNL     1      50.856  42.984  68.972  1.00  0.00     0.314 A 
HETATM   15  O3  UNL     1      51.116  43.753  67.990  1.00  0.00    -0.262 OA
ENDROOT
TORSDOF 0
ENDMDL
MODEL 4
REMARK VINA RESULT: -5.624015374      2.127      2.856
REMARK  0 active torsions:
REMARK  status: ('A' for Active; 'I' for Inactive)
ROOT
HETATM    1  O1  UNL     1      48.778  41.063  72.880  1.00  0.00    -0.262 OA
HETATM    2  C1  UNL     1      49.690  41.643  72.237  1.00  0.00     0.315 A 
HETATM    3  N1  UNL     1      50.817  41.002  71.893  1.00  0.00    -0.302 N 
ATOM      4  H1  UNL     1      50.925  40.025  72.164  1.00  0.00     0.171 HD
HETATM    5  C2  UNL     1      51.837  41.606  71.189  1.00  0.00     0.146 A 
HETATM    6  N2  UNL     1      52.965  40.992  70.835  1.00  0.00    -0.307 N 
ATOM      7  H2  UNL     1      53.235  40.027  71.022  1.00  0.00     0.176 HD
HETATM    8  S1  UNL     1      53.841  42.166  70.014  1.00  0.00     0.033 SA
HETATM    9  C3  UNL     1      52.737  43.458  70.130  1.00  0.00     0.259 A 
HETATM   10  O2  UNL     1      52.839  44.661  69.681  1.00  0.00    -0.276 OA
HETATM   11  C4  UNL     1      51.694  42.902  70.830  1.00  0.00     0.139 A 
HETATM   12  N3  UNL     1      50.545  43.586  71.171  1.00  0.00    -0.312 N 
ATOM     13  H3  UNL     1      50.431  44.563  70.903  1.00  0.00     0.169 HD
HETATM   14  C5  UNL     1      49.579  42.958  71.856  1.00  0.00     0.314 A 
HETATM   15  O3  UNL     1      48.503  43.551  72.192  1.00  0.00    -0.262 OA
ENDROOT
TORSDOF 0
ENDMDL
MODEL 5
REMARK VINA RESULT: -5.518951791      2.445      4.398
REMARK  0 active torsions:
REMARK  status: ('A' for Active; 'I' for Inactive)
ROOT
HETATM    1  O1  UNL     1      52.504  39.952  69.002  1.00  0.00    -0.262 OA
HETATM    2  C1  UNL     1      51.660  40.636  69.634  1.00  0.00     0.315 A 
HETATM    3  N1  UNL     1      51.093  40.178  70.761  1.00  0.00    -0.302 N 
ATOM      4  H1  UNL     1      51.362  39.256  71.102  1.00  0.00     0.171 HD
HETATM    5  C2  UNL     1      50.164  40.900  71.478  1.00  0.00     0.146 A 
HETATM    6  N2  UNL     1      49.588  40.469  72.599  1.00  0.00    -0.307 N 
ATOM      7  H2  UNL     1      49.738  39.581  73.077  1.00  0.00     0.176 HD
HETATM    8  S1  UNL     1      48.558  41.717  73.048  1.00  0.00     0.033 SA
HETATM    9  C3  UNL     1      48.878  42.803  71.775  1.00  0.00     0.259 A 
HETATM   10  O2  UNL     1      48.382  43.971  71.556  1.00  0.00    -0.276 OA
HETATM   11  C4  UNL     1      49.807  42.124  71.025  1.00  0.00     0.139 A 
HETATM   12  N3  UNL     1      50.373  42.619  69.869  1.00  0.00    -0.312 N 
ATOM     13  H3  UNL     1      50.109  43.541  69.522  1.00  0.00     0.169 HD
HETATM   14  C5  UNL     1      51.273  41.882  69.203  1.00  0.00     0.314 A 
HETATM   15  O3  UNL     1      51.820  42.300  68.132  1.00  0.00    -0.262 OA
ENDROOT
TORSDOF 0
ENDMDL
