MODEL 1
REMARK VINA RESULT: -6.919410602      0.000      0.000
REMARK  5 active torsions:
REMARK  status: ('A' for Active; 'I' for Inactive)
REMARK    1  A    between atoms: C2_10  and  N5_11 
REMARK    2  A    between atoms: N5_11  and  N6_13 
REMARK    3  A    between atoms: N7_15  and  O1_17 
REMARK    4  A    between atoms: O1_17  and  C3_18 
REMARK    5  A    between atoms: C5_20  and  O2_21 
ROOT
HETATM    1  N5  UNL     1      30.648  43.061  20.229  1.00  0.00    -0.099 N 
ATOM      2  H5  UNL     1      30.507  44.064  20.112  1.00  0.00     0.208 HD
ENDROOT
BRANCH   1   3
HETATM    3  C2  UNL     1      30.065  42.402  21.351  1.00  0.00     0.735 A 
HETATM    4  N2  UNL     1      30.670  42.259  22.632  1.00  0.00    -0.084 N 
HETATM    5  N1  UNL     1      31.821  42.688  22.997  1.00  0.00    -0.323 N 
HETATM    6  C1  UNL     1      29.758  41.538  23.469  1.00  0.00     0.241 A 
ATOM      7  H12 UNL     1      32.254  42.585  23.915  1.00  0.00     0.178 HD
ATOM      8  H11 UNL     1      32.470  43.201  22.401  1.00  0.00     0.178 HD
HETATM    9  N3  UNL     1      28.739  41.304  22.717  1.00  0.00    -0.279 N 
HETATM   10  N4  UNL     1      28.920  41.821  21.444  1.00  0.00    -0.128 N 
ATOM     11  H3  UNL     1      27.904  40.801  23.019  1.00  0.00     0.188 HD
ATOM     12  H4  UNL     1      28.241  41.751  20.686  1.00  0.00     0.205 HD
ENDBRANCH   1   3
BRANCH   1  13
HETATM   13  N6  UNL     1      31.405  42.365  19.289  1.00  0.00    -0.121 N 
HETATM   14  S1  UNL     1      30.611  41.436  18.004  1.00  0.00     0.091 SA
HETATM   15  N7  UNL     1      32.668  42.373  19.321  1.00  0.00    -0.176 N 
ATOM     16  H7  UNL     1      33.213  41.860  18.627  1.00  0.00     0.218 HD
BRANCH  15  17
HETATM   17  O1  UNL     1      33.285  43.089  20.314  1.00  0.00    -0.230 OA
BRANCH  17  18
HETATM   18  C3  UNL     1      33.884  44.353  20.108  1.00  0.00     0.292 C 
HETATM   19  C4  UNL     1      34.782  44.648  21.268  1.00  0.00     0.097 C 
HETATM   20  C5  UNL     1      34.146  45.796  21.982  1.00  0.00     0.146 C 
HETATM   21  C6  UNL     1      32.763  45.830  21.355  1.00  0.00     0.203 C 
HETATM   22  O3  UNL     1      32.914  45.342  20.064  1.00  0.00    -0.356 OA
BRANCH  20  23
HETATM   23  O2  UNL     1      34.779  46.987  21.672  1.00  0.00    -0.393 OA
ATOM     24  H2  UNL     1      34.768  47.581  22.413  1.00  0.00     0.210 HD
ENDBRANCH  20  23
ENDBRANCH  17  18
ENDBRANCH  15  17
ENDBRANCH   1  13
TORSDOF 5
ENDMDL
MODEL 2
REMARK VINA RESULT: -6.703058366      3.004      5.359
REMARK  5 active torsions:
REMARK  status: ('A' for Active; 'I' for Inactive)
REMARK    1  A    between atoms: C2_10  and  N5_11 
REMARK    2  A    between atoms: N5_11  and  N6_13 
REMARK    3  A    between atoms: N7_15  and  O1_17 
REMARK    4  A    between atoms: O1_17  and  C3_18 
REMARK    5  A    between atoms: C5_20  and  O2_21 
ROOT
HETATM    1  N5  UNL     1      33.480  44.457  21.779  1.00  0.00    -0.099 N 
ATOM      2  H5  UNL     1      33.655  45.312  22.306  1.00  0.00     0.208 HD
ENDROOT
BRANCH   1   3
HETATM    3  C2  UNL     1      33.168  44.546  20.392  1.00  0.00     0.735 A 
HETATM    4  N2  UNL     1      33.060  45.752  19.643  1.00  0.00    -0.084 N 
HETATM    5  N1  UNL     1      33.222  46.948  20.074  1.00  0.00    -0.323 N 
HETATM    6  C1  UNL     1      32.734  45.403  18.293  1.00  0.00     0.241 A 
ATOM      7  H12 UNL     1      33.144  47.812  19.538  1.00  0.00     0.178 HD
ATOM      8  H11 UNL     1      33.455  47.196  21.037  1.00  0.00     0.178 HD
HETATM    9  N3  UNL     1      32.667  44.116  18.295  1.00  0.00    -0.279 N 
HETATM   10  N4  UNL     1      32.927  43.598  19.554  1.00  0.00    -0.128 N 
ATOM     11  H3  UNL     1      32.449  43.551  17.474  1.00  0.00     0.188 HD
ATOM     12  H4  UNL     1      32.927  42.604  19.784  1.00  0.00     0.205 HD
ENDBRANCH   1   3
BRANCH   1  13
HETATM   13  N6  UNL     1      33.553  43.228  22.432  1.00  0.00    -0.121 N 
HETATM   14  S1  UNL     1      34.944  42.157  22.181  1.00  0.00     0.091 SA
HETATM   15  N7  UNL     1      32.641  42.841  23.215  1.00  0.00    -0.176 N 
ATOM     16  H7  UNL     1      32.704  41.939  23.688  1.00  0.00     0.218 HD
BRANCH  15  17
HETATM   17  O1  UNL     1      31.563  43.666  23.410  1.00  0.00    -0.230 OA
BRANCH  17  18
HETATM   18  C3  UNL     1      30.266  43.384  22.925  1.00  0.00     0.292 C 
HETATM   19  C4  UNL     1      29.831  42.060  23.470  1.00  0.00     0.097 C 
HETATM   20  C5  UNL     1      29.759  41.149  22.288  1.00  0.00     0.146 C 
HETATM   21  C6  UNL     1      30.488  41.952  21.226  1.00  0.00     0.203 C 
HETATM   22  O3  UNL     1      30.281  43.287  21.543  1.00  0.00    -0.356 OA
BRANCH  20  23
HETATM   23  O2  UNL     1      28.451  40.982  21.868  1.00  0.00    -0.393 OA
ATOM     24  H2  UNL     1      27.929  41.751  22.063  1.00  0.00     0.210 HD
ENDBRANCH  20  23
ENDBRANCH  17  18
ENDBRANCH  15  17
ENDBRANCH   1  13
TORSDOF 5
ENDMDL
MODEL 3
REMARK VINA RESULT: -6.642302597      3.370      5.752
REMARK  5 active torsions:
REMARK  status: ('A' for Active; 'I' for Inactive)
REMARK    1  A    between atoms: C2_10  and  N5_11 
REMARK    2  A    between atoms: N5_11  and  N6_13 
REMARK    3  A    between atoms: N7_15  and  O1_17 
REMARK    4  A    between atoms: O1_17  and  C3_18 
REMARK    5  A    between atoms: C5_20  and  O2_21 
ROOT
HETATM    1  N5  UNL     1      33.078  43.715  19.295  1.00  0.00    -0.099 N 
ATOM      2  H5  UNL     1      32.982  42.764  18.939  1.00  0.00     0.208 HD
ENDROOT
BRANCH   1   3
HETATM    3  C2  UNL     1      32.866  44.814  18.413  1.00  0.00     0.735 A 
HETATM    4  N2  UNL     1      33.828  45.348  17.509  1.00  0.00    -0.084 N 
HETATM    5  N1  UNL     1      35.031  44.943  17.331  1.00  0.00    -0.323 N 
HETATM    6  C1  UNL     1      33.217  46.439  16.811  1.00  0.00     0.241 A 
ATOM      7  H12 UNL     1      35.720  45.325  16.683  1.00  0.00     0.178 HD
ATOM      8  H11 UNL     1      35.466  44.165  17.828  1.00  0.00     0.178 HD
HETATM    9  N3  UNL     1      32.021  46.503  17.288  1.00  0.00    -0.279 N 
HETATM   10  N4  UNL     1      31.807  45.529  18.251  1.00  0.00    -0.128 N 
ATOM     11  H3  UNL     1      31.321  47.185  16.995  1.00  0.00     0.188 HD
ATOM     12  H4  UNL     1      30.933  45.397  18.759  1.00  0.00     0.205 HD
ENDBRANCH   1   3
BRANCH   1  13
HETATM   13  N6  UNL     1      33.416  43.910  20.633  1.00  0.00    -0.121 N 
HETATM   14  S1  UNL     1      35.117  43.972  21.132  1.00  0.00     0.091 SA
HETATM   15  N7  UNL     1      32.532  44.048  21.524  1.00  0.00    -0.176 N 
ATOM     16  H7  UNL     1      32.790  44.192  22.501  1.00  0.00     0.218 HD
BRANCH  15  17
HETATM   17  O1  UNL     1      31.216  44.000  21.142  1.00  0.00    -0.230 OA
BRANCH  17  18
HETATM   18  C3  UNL     1      30.163  43.635  22.011  1.00  0.00     0.292 C 
HETATM   19  C4  UNL     1      30.680  42.624  22.986  1.00  0.00     0.097 C 
HETATM   20  C5  UNL     1      29.970  41.351  22.653  1.00  0.00     0.146 C 
HETATM   21  C6  UNL     1      29.364  41.674  21.298  1.00  0.00     0.203 C 
HETATM   22  O3  UNL     1      29.134  43.043  21.296  1.00  0.00    -0.356 OA
BRANCH  20  23
HETATM   23  O2  UNL     1      28.930  41.116  23.535  1.00  0.00    -0.393 OA
ATOM     24  H2  UNL     1      28.855  41.820  24.169  1.00  0.00     0.210 HD
ENDBRANCH  20  23
ENDBRANCH  17  18
ENDBRANCH  15  17
ENDBRANCH   1  13
TORSDOF 5
ENDMDL
MODEL 4
REMARK VINA RESULT: -6.637582863      3.380      5.719
REMARK  5 active torsions:
REMARK  status: ('A' for Active; 'I' for Inactive)
REMARK    1  A    between atoms: C2_10  and  N5_11 
REMARK    2  A    between atoms: N5_11  and  N6_13 
REMARK    3  A    between atoms: N7_15  and  O1_17 
REMARK    4  A    between atoms: O1_17  and  C3_18 
REMARK    5  A    between atoms: C5_20  and  O2_21 
ROOT
HETATM    1  N5  UNL     1      33.343  43.962  21.361  1.00  0.00    -0.099 N 
ATOM      2  H5  UNL     1      33.339  42.962  21.558  1.00  0.00     0.208 HD
ENDROOT
BRANCH   1   3
HETATM    3  C2  UNL     1      33.557  44.407  20.024  1.00  0.00     0.735 A 
HETATM    4  N2  UNL     1      32.546  44.867  19.133  1.00  0.00    -0.084 N 
HETATM    5  N1  UNL     1      31.290  44.961  19.370  1.00  0.00    -0.323 N 
HETATM    6  C1  UNL     1      33.177  45.218  17.897  1.00  0.00     0.241 A 
ATOM      7  H12 UNL     1      30.566  45.290  18.731  1.00  0.00     0.178 HD
ATOM      8  H11 UNL     1      30.840  44.711  20.251  1.00  0.00     0.178 HD
HETATM    9  N3  UNL     1      34.428  44.974  18.087  1.00  0.00    -0.279 N 
HETATM   10  N4  UNL     1      34.660  44.487  19.364  1.00  0.00    -0.128 N 
ATOM     11  H3  UNL     1      35.156  45.121  17.387  1.00  0.00     0.188 HD
ATOM     12  H4  UNL     1      35.576  44.227  19.729  1.00  0.00     0.205 HD
ENDBRANCH   1   3
BRANCH   1  13
HETATM   13  N6  UNL     1      33.138  44.863  22.404  1.00  0.00    -0.121 N 
HETATM   14  S1  UNL     1      33.995  46.416  22.432  1.00  0.00     0.091 SA
HETATM   15  N7  UNL     1      32.345  44.607  23.353  1.00  0.00    -0.176 N 
ATOM     16  H7  UNL     1      32.202  45.274  24.111  1.00  0.00     0.218 HD
BRANCH  15  17
HETATM   17  O1  UNL     1      31.682  43.406  23.335  1.00  0.00    -0.230 OA
BRANCH  17  18
HETATM   18  C3  UNL     1      30.341  43.261  22.913  1.00  0.00     0.292 C 
HETATM   19  C4  UNL     1      29.835  41.935  23.387  1.00  0.00     0.097 C 
HETATM   20  C5  UNL     1      29.623  41.125  22.149  1.00  0.00     0.146 C 
HETATM   21  C6  UNL     1      30.351  41.952  21.104  1.00  0.00     0.203 C 
HETATM   22  O3  UNL     1      30.269  43.270  21.529  1.00  0.00    -0.356 OA
BRANCH  20  23
HETATM   23  O2  UNL     1      28.284  41.089  21.801  1.00  0.00    -0.393 OA
ATOM     24  H2  UNL     1      28.175  41.158  20.860  1.00  0.00     0.210 HD
ENDBRANCH  20  23
ENDBRANCH  17  18
ENDBRANCH  15  17
ENDBRANCH   1  13
TORSDOF 5
ENDMDL
MODEL 5
REMARK VINA RESULT: -6.595268867      1.544      1.866
REMARK  5 active torsions:
REMARK  status: ('A' for Active; 'I' for Inactive)
REMARK    1  A    between atoms: C2_10  and  N5_11 
REMARK    2  A    between atoms: N5_11  and  N6_13 
REMARK    3  A    between atoms: N7_15  and  O1_17 
REMARK    4  A    between atoms: O1_17  and  C3_18 
REMARK    5  A    between atoms: C5_20  and  O2_21 
ROOT
HETATM    1  N5  UNL     1      30.349  43.285  20.002  1.00  0.00    -0.099 N 
ATOM      2  H5  UNL     1      29.679  43.996  19.709  1.00  0.00     0.208 HD
ENDROOT
BRANCH   1   3
HETATM    3  C2  UNL     1      30.111  42.556  21.203  1.00  0.00     0.735 A 
HETATM    4  N2  UNL     1      30.154  43.095  22.521  1.00  0.00    -0.084 N 
HETATM    5  N1  UNL     1      30.409  44.306  22.853  1.00  0.00    -0.323 N 
HETATM    6  C1  UNL     1      29.858  42.036  23.438  1.00  0.00     0.241 A 
ATOM      7  H12 UNL     1      30.439  44.692  23.797  1.00  0.00     0.178 HD
ATOM      8  H11 UNL     1      30.619  45.060  22.199  1.00  0.00     0.178 HD
HETATM    9  N3  UNL     1      29.668  41.001  22.693  1.00  0.00    -0.279 N 
HETATM   10  N4  UNL     1      29.819  41.310  21.350  1.00  0.00    -0.128 N 
ATOM     11  H3  UNL     1      29.436  40.073  23.046  1.00  0.00     0.188 HD
ATOM     12  H4  UNL     1      29.715  40.644  20.585  1.00  0.00     0.205 HD
ENDBRANCH   1   3
BRANCH   1  13
HETATM   13  N6  UNL     1      31.476  43.047  19.218  1.00  0.00    -0.121 N 
HETATM   14  S1  UNL     1      31.448  41.800  17.956  1.00  0.00     0.091 SA
HETATM   15  N7  UNL     1      32.543  43.704  19.377  1.00  0.00    -0.176 N 
ATOM     16  H7  UNL     1      33.362  43.523  18.796  1.00  0.00     0.218 HD
BRANCH  15  17
HETATM   17  O1  UNL     1      32.568  44.668  20.351  1.00  0.00    -0.230 OA
BRANCH  17  18
HETATM   18  C3  UNL     1      33.643  44.840  21.253  1.00  0.00     0.292 C 
HETATM   19  C4  UNL     1      34.849  44.152  20.693  1.00  0.00     0.097 C 
HETATM   20  C5  UNL     1      35.117  43.007  21.614  1.00  0.00     0.146 C 
HETATM   21  C6  UNL     1      33.835  42.948  22.425  1.00  0.00     0.203 C 
HETATM   22  O3  UNL     1      33.348  44.247  22.470  1.00  0.00    -0.356 OA
BRANCH  20  23
HETATM   23  O2  UNL     1      36.154  43.300  22.482  1.00  0.00    -0.393 OA
ATOM     24  H2  UNL     1      36.474  44.184  22.346  1.00  0.00     0.210 HD
ENDBRANCH  20  23
ENDBRANCH  17  18
ENDBRANCH  15  17
ENDBRANCH   1  13
TORSDOF 5
ENDMDL
