MODEL 1
REMARK VINA RESULT: -6.768221519      0.000      0.000
REMARK  10 active torsions:
REMARK  status: ('A' for Active; 'I' for Inactive)
REMARK       I    between atoms: N1_2  and  C2_3 
REMARK    1  A    between atoms: N1_2  and  C14_21 
REMARK    2  A    between atoms: C2_3  and  C3_5 
REMARK    3  A    between atoms: C3_5  and  C4_6 
REMARK    4  A    between atoms: C4_6  and  C5_7 
REMARK    5  A    between atoms: C5_7  and  C6_8 
REMARK    6  A    between atoms: C6_8  and  C7_9 
REMARK    7  A    between atoms: C7_9  and  N2_10 
REMARK    8  A    between atoms: N2_10  and  C8_12 
REMARK    9  A    between atoms: C8_12  and  N3_14 
REMARK   10  A    between atoms: N3_14  and  C9_16 
ROOT
HETATM    1  C6  UNL     1      55.404  12.283  -0.719  1.00  0.00     0.020 C 
ENDROOT
BRANCH   1   2
HETATM    2  C5  UNL     1      55.408  13.792  -0.700  1.00  0.00     0.002 C 
BRANCH   2   3
HETATM    3  C4  UNL     1      55.487  14.371   0.665  1.00  0.00     0.009 C 
BRANCH   3   4
HETATM    4  C3  UNL     1      54.287  15.082   1.159  1.00  0.00     0.103 C 
BRANCH   4   5
HETATM    5  C2  UNL     1      53.150  14.266   1.572  1.00  0.00     0.219 C 
HETATM    6  N1  UNL     1      51.941  14.267   0.824  1.00  0.00    -0.352 N 
HETATM    7  C1  UNL     1      51.885  15.106  -0.355  1.00  0.00     0.153 C 
HETATM    8  O1  UNL     1      53.274  13.553   2.622  1.00  0.00    -0.273 OA
BRANCH   6   9
HETATM    9  C14 UNL     1      50.801  13.464   1.219  1.00  0.00     0.086 C 
HETATM   10  C15 UNL     1      49.728  14.236   1.912  1.00  0.00     0.025 C 
HETATM   11  C16 UNL     1      48.437  13.764   1.275  1.00  0.00     0.002 C 
HETATM   12  C17 UNL     1      48.785  12.410   0.645  1.00  0.00     0.002 C 
HETATM   13  C18 UNL     1      50.167  12.732   0.063  1.00  0.00     0.025 C 
ENDBRANCH   6   9
ENDBRANCH   4   5
ENDBRANCH   3   4
ENDBRANCH   2   3
ENDBRANCH   1   2
BRANCH   1  14
HETATM   14  C7  UNL     1      54.041  11.696  -0.786  1.00  0.00     0.122 C 
BRANCH  14  15
HETATM   15  N2  UNL     1      53.542  11.130   0.437  1.00  0.00    -0.367 N 
ATOM     16  H2  UNL     1      52.622  11.431   0.759  1.00  0.00     0.161 HD
BRANCH  15  17
HETATM   17  C8  UNL     1      54.242  10.180   1.228  1.00  0.00     0.167 C 
HETATM   18  S1  UNL     1      54.639   8.741   0.582  1.00  0.00    -0.041 SA
BRANCH  17  19
HETATM   19  N3  UNL     1      54.581  10.442   2.572  1.00  0.00    -0.363 N 
ATOM     20  H3  UNL     1      54.080   9.922   3.293  1.00  0.00     0.162 HD
BRANCH  19  21
HETATM   21  C9  UNL     1      55.582  11.388   3.007  1.00  0.00     0.083 C 
HETATM   22  C10 UNL     1      55.812  11.208   4.476  1.00  0.00     0.025 C 
HETATM   23  C11 UNL     1      57.233  11.608   4.710  1.00  0.00     0.002 C 
HETATM   24  C12 UNL     1      57.919  10.946   3.508  1.00  0.00     0.002 C 
HETATM   25  C13 UNL     1      56.912  11.133   2.378  1.00  0.00     0.025 C 
ENDBRANCH  19  21
ENDBRANCH  17  19
ENDBRANCH  15  17
ENDBRANCH  14  15
ENDBRANCH   1  14
TORSDOF 10
ENDMDL
MODEL 2
REMARK VINA RESULT: -6.650212005      0.512      1.005
REMARK  10 active torsions:
REMARK  status: ('A' for Active; 'I' for Inactive)
REMARK       I    between atoms: N1_2  and  C2_3 
REMARK    1  A    between atoms: N1_2  and  C14_21 
REMARK    2  A    between atoms: C2_3  and  C3_5 
REMARK    3  A    between atoms: C3_5  and  C4_6 
REMARK    4  A    between atoms: C4_6  and  C5_7 
REMARK    5  A    between atoms: C5_7  and  C6_8 
REMARK    6  A    between atoms: C6_8  and  C7_9 
REMARK    7  A    between atoms: C7_9  and  N2_10 
REMARK    8  A    between atoms: N2_10  and  C8_12 
REMARK    9  A    between atoms: C8_12  and  N3_14 
REMARK   10  A    between atoms: N3_14  and  C9_16 
ROOT
HETATM    1  C6  UNL     1      55.292  12.151  -0.754  1.00  0.00     0.020 C 
ENDROOT
BRANCH   1   2
HETATM    2  C5  UNL     1      55.480  13.648  -0.769  1.00  0.00     0.002 C 
BRANCH   2   3
HETATM    3  C4  UNL     1      55.626  14.244   0.584  1.00  0.00     0.009 C 
BRANCH   3   4
HETATM    4  C3  UNL     1      54.475  15.015   1.102  1.00  0.00     0.103 C 
BRANCH   4   5
HETATM    5  C2  UNL     1      53.319  14.257   1.567  1.00  0.00     0.219 C 
HETATM    6  N1  UNL     1      52.107  14.242   0.824  1.00  0.00    -0.352 N 
HETATM    7  C1  UNL     1      52.068  15.006  -0.406  1.00  0.00     0.153 C 
HETATM    8  O1  UNL     1      53.428  13.608   2.660  1.00  0.00    -0.273 OA
BRANCH   6   9
HETATM    9  C14 UNL     1      50.948  13.495   1.270  1.00  0.00     0.086 C 
HETATM   10  C15 UNL     1      49.926  14.326   1.970  1.00  0.00     0.025 C 
HETATM   11  C16 UNL     1      48.600  13.890   1.381  1.00  0.00     0.002 C 
HETATM   12  C17 UNL     1      48.878  12.507   0.779  1.00  0.00     0.002 C 
HETATM   13  C18 UNL     1      50.255  12.759   0.152  1.00  0.00     0.025 C 
ENDBRANCH   6   9
ENDBRANCH   4   5
ENDBRANCH   3   4
ENDBRANCH   2   3
ENDBRANCH   1   2
BRANCH   1  14
HETATM   14  C7  UNL     1      53.915  11.725  -1.116  1.00  0.00     0.122 C 
BRANCH  14  15
HETATM   15  N2  UNL     1      53.259  10.862  -0.173  1.00  0.00    -0.367 N 
ATOM     16  H2  UNL     1      52.248  10.749  -0.257  1.00  0.00     0.161 HD
BRANCH  15  17
HETATM   17  C8  UNL     1      53.920  10.156   0.867  1.00  0.00     0.167 C 
HETATM   18  S1  UNL     1      54.577   8.702   0.551  1.00  0.00    -0.041 SA
BRANCH  17  19
HETATM   19  N3  UNL     1      54.000  10.671   2.178  1.00  0.00    -0.363 N 
ATOM     20  H3  UNL     1      53.227  11.251   2.504  1.00  0.00     0.162 HD
BRANCH  19  21
HETATM   21  C9  UNL     1      55.093  10.441   3.094  1.00  0.00     0.083 C 
HETATM   22  C10 UNL     1      56.265  11.269   2.666  1.00  0.00     0.025 C 
HETATM   23  C11 UNL     1      57.019  11.573   3.920  1.00  0.00     0.002 C 
HETATM   24  C12 UNL     1      55.865  11.904   4.876  1.00  0.00     0.002 C 
HETATM   25  C13 UNL     1      54.780  10.908   4.478  1.00  0.00     0.025 C 
ENDBRANCH  19  21
ENDBRANCH  17  19
ENDBRANCH  15  17
ENDBRANCH  14  15
ENDBRANCH   1  14
TORSDOF 10
ENDMDL
MODEL 3
REMARK VINA RESULT: -6.552096581      2.529      4.498
REMARK  10 active torsions:
REMARK  status: ('A' for Active; 'I' for Inactive)
REMARK       I    between atoms: N1_2  and  C2_3 
REMARK    1  A    between atoms: N1_2  and  C14_21 
REMARK    2  A    between atoms: C2_3  and  C3_5 
REMARK    3  A    between atoms: C3_5  and  C4_6 
REMARK    4  A    between atoms: C4_6  and  C5_7 
REMARK    5  A    between atoms: C5_7  and  C6_8 
REMARK    6  A    between atoms: C6_8  and  C7_9 
REMARK    7  A    between atoms: C7_9  and  N2_10 
REMARK    8  A    between atoms: N2_10  and  C8_12 
REMARK    9  A    between atoms: C8_12  and  N3_14 
REMARK   10  A    between atoms: N3_14  and  C9_16 
ROOT
HETATM    1  C6  UNL     1      54.531  16.597   1.188  1.00  0.00     0.020 C 
ENDROOT
BRANCH   1   2
HETATM    2  C5  UNL     1      55.191  16.435  -0.160  1.00  0.00     0.002 C 
BRANCH   2   3
HETATM    3  C4  UNL     1      55.826  15.107  -0.357  1.00  0.00     0.009 C 
BRANCH   3   4
HETATM    4  C3  UNL     1      54.965  14.028  -0.890  1.00  0.00     0.103 C 
BRANCH   4   5
HETATM    5  C2  UNL     1      55.467  12.661  -0.785  1.00  0.00     0.219 C 
HETATM    6  N1  UNL     1      54.593  11.549  -0.928  1.00  0.00    -0.352 N 
HETATM    7  C1  UNL     1      53.195  11.827  -1.181  1.00  0.00     0.153 C 
HETATM    8  O1  UNL     1      56.712  12.495  -0.561  1.00  0.00    -0.273 OA
BRANCH   6   9
HETATM    9  C14 UNL     1      55.073  10.185  -0.826  1.00  0.00     0.086 C 
HETATM   10  C15 UNL     1      54.988   9.615   0.549  1.00  0.00     0.025 C 
HETATM   11  C16 UNL     1      54.413   8.226   0.359  1.00  0.00     0.002 C 
HETATM   12  C17 UNL     1      54.688   7.889  -1.111  1.00  0.00     0.002 C 
HETATM   13  C18 UNL     1      54.362   9.239  -1.762  1.00  0.00     0.025 C 
ENDBRANCH   6   9
ENDBRANCH   4   5
ENDBRANCH   3   4
ENDBRANCH   2   3
ENDBRANCH   1   2
BRANCH   1  14
HETATM   14  C7  UNL     1      53.136  16.087   1.228  1.00  0.00     0.122 C 
BRANCH  14  15
HETATM   15  N2  UNL     1      52.860  15.098   2.232  1.00  0.00    -0.367 N 
ATOM     16  H2  UNL     1      52.945  15.377   3.210  1.00  0.00     0.161 HD
BRANCH  15  17
HETATM   17  C8  UNL     1      52.478  13.757   1.958  1.00  0.00     0.167 C 
HETATM   18  S1  UNL     1      51.009  13.460   1.326  1.00  0.00    -0.041 SA
BRANCH  17  19
HETATM   19  N3  UNL     1      53.331  12.670   2.242  1.00  0.00    -0.363 N 
ATOM     20  H3  UNL     1      53.220  11.826   1.681  1.00  0.00     0.162 HD
BRANCH  19  21
HETATM   21  C9  UNL     1      54.350  12.661   3.267  1.00  0.00     0.083 C 
HETATM   22  C10 UNL     1      54.350  11.321   3.936  1.00  0.00     0.025 C 
HETATM   23  C11 UNL     1      55.756  11.104   4.394  1.00  0.00     0.002 C 
HETATM   24  C12 UNL     1      56.537  11.604   3.171  1.00  0.00     0.002 C 
HETATM   25  C13 UNL     1      55.724  12.806   2.700  1.00  0.00     0.025 C 
ENDBRANCH  19  21
ENDBRANCH  17  19
ENDBRANCH  15  17
ENDBRANCH  14  15
ENDBRANCH   1  14
TORSDOF 10
ENDMDL
MODEL 4
REMARK VINA RESULT: -6.481696835      1.070      1.501
REMARK  10 active torsions:
REMARK  status: ('A' for Active; 'I' for Inactive)
REMARK       I    between atoms: N1_2  and  C2_3 
REMARK    1  A    between atoms: N1_2  and  C14_21 
REMARK    2  A    between atoms: C2_3  and  C3_5 
REMARK    3  A    between atoms: C3_5  and  C4_6 
REMARK    4  A    between atoms: C4_6  and  C5_7 
REMARK    5  A    between atoms: C5_7  and  C6_8 
REMARK    6  A    between atoms: C6_8  and  C7_9 
REMARK    7  A    between atoms: C7_9  and  N2_10 
REMARK    8  A    between atoms: N2_10  and  C8_12 
REMARK    9  A    between atoms: C8_12  and  N3_14 
REMARK   10  A    between atoms: N3_14  and  C9_16 
ROOT
HETATM    1  C6  UNL     1      55.285  12.038  -0.689  1.00  0.00     0.020 C 
ENDROOT
BRANCH   1   2
HETATM    2  C5  UNL     1      55.315  13.515  -0.996  1.00  0.00     0.002 C 
BRANCH   2   3
HETATM    3  C4  UNL     1      55.839  14.344   0.119  1.00  0.00     0.009 C 
BRANCH   3   4
HETATM    4  C3  UNL     1      54.868  15.217   0.816  1.00  0.00     0.103 C 
BRANCH   4   5
HETATM    5  C2  UNL     1      53.477  15.150   0.379  1.00  0.00     0.219 C 
HETATM    6  N1  UNL     1      52.535  14.333   1.061  1.00  0.00    -0.352 N 
HETATM    7  C1  UNL     1      53.010  13.575   2.201  1.00  0.00     0.153 C 
HETATM    8  O1  UNL     1      53.133  15.846  -0.633  1.00  0.00    -0.273 OA
BRANCH   6   9
HETATM    9  C14 UNL     1      51.150  14.254   0.641  1.00  0.00     0.086 C 
HETATM   10  C15 UNL     1      50.869  13.138  -0.308  1.00  0.00     0.025 C 
HETATM   11  C16 UNL     1      49.595  12.501   0.208  1.00  0.00     0.002 C 
HETATM   12  C17 UNL     1      48.947  13.580   1.085  1.00  0.00     0.002 C 
HETATM   13  C18 UNL     1      50.190  14.127   1.798  1.00  0.00     0.025 C 
ENDBRANCH   6   9
ENDBRANCH   4   5
ENDBRANCH   3   4
ENDBRANCH   2   3
ENDBRANCH   1   2
BRANCH   1  14
HETATM   14  C7  UNL     1      53.950  11.418  -0.894  1.00  0.00     0.122 C 
BRANCH  14  15
HETATM   15  N2  UNL     1      53.467  10.601   0.185  1.00  0.00    -0.367 N 
ATOM     16  H2  UNL     1      52.493  10.712   0.465  1.00  0.00     0.161 HD
BRANCH  15  17
HETATM   17  C8  UNL     1      54.254   9.649   0.888  1.00  0.00     0.167 C 
HETATM   18  S1  UNL     1      54.679   8.264   0.148  1.00  0.00    -0.041 SA
BRANCH  17  19
HETATM   19  N3  UNL     1      54.656   9.862   2.223  1.00  0.00    -0.363 N 
ATOM     20  H3  UNL     1      54.408   9.149   2.908  1.00  0.00     0.162 HD
BRANCH  19  21
HETATM   21  C9  UNL     1      55.394  11.012   2.694  1.00  0.00     0.083 C 
HETATM   22  C10 UNL     1      55.371  11.020   4.191  1.00  0.00     0.025 C 
HETATM   23  C11 UNL     1      56.641  11.691   4.606  1.00  0.00     0.002 C 
HETATM   24  C12 UNL     1      57.637  11.051   3.631  1.00  0.00     0.002 C 
HETATM   25  C13 UNL     1      56.841  10.943   2.333  1.00  0.00     0.025 C 
ENDBRANCH  19  21
ENDBRANCH  17  19
ENDBRANCH  15  17
ENDBRANCH  14  15
ENDBRANCH   1  14
TORSDOF 10
ENDMDL
MODEL 5
REMARK VINA RESULT: -6.279358085      1.585      2.865
REMARK  10 active torsions:
REMARK  status: ('A' for Active; 'I' for Inactive)
REMARK       I    between atoms: N1_2  and  C2_3 
REMARK    1  A    between atoms: N1_2  and  C14_21 
REMARK    2  A    between atoms: C2_3  and  C3_5 
REMARK    3  A    between atoms: C3_5  and  C4_6 
REMARK    4  A    between atoms: C4_6  and  C5_7 
REMARK    5  A    between atoms: C5_7  and  C6_8 
REMARK    6  A    between atoms: C6_8  and  C7_9 
REMARK    7  A    between atoms: C7_9  and  N2_10 
REMARK    8  A    between atoms: N2_10  and  C8_12 
REMARK    9  A    between atoms: C8_12  and  N3_14 
REMARK   10  A    between atoms: N3_14  and  C9_16 
ROOT
HETATM    1  C6  UNL     1      56.560  12.963   0.015  1.00  0.00     0.020 C 
ENDROOT
BRANCH   1   2
HETATM    2  C5  UNL     1      55.677  14.125  -0.369  1.00  0.00     0.002 C 
BRANCH   2   3
HETATM    3  C4  UNL     1      55.327  15.010   0.771  1.00  0.00     0.009 C 
BRANCH   3   4
HETATM    4  C3  UNL     1      53.947  15.539   0.808  1.00  0.00     0.103 C 
BRANCH   4   5
HETATM    5  C2  UNL     1      52.912  14.667   1.353  1.00  0.00     0.219 C 
HETATM    6  N1  UNL     1      51.721  14.401   0.623  1.00  0.00    -0.352 N 
HETATM    7  C1  UNL     1      51.579  15.028  -0.675  1.00  0.00     0.153 C 
HETATM    8  O1  UNL     1      53.108  14.150   2.502  1.00  0.00    -0.273 OA
BRANCH   6   9
HETATM    9  C14 UNL     1      50.682  13.538   1.148  1.00  0.00     0.086 C 
HETATM   10  C15 UNL     1      49.642  14.256   1.941  1.00  0.00     0.025 C 
HETATM   11  C16 UNL     1      48.324  13.694   1.452  1.00  0.00     0.002 C 
HETATM   12  C17 UNL     1      48.688  12.351   0.807  1.00  0.00     0.002 C 
HETATM   13  C18 UNL     1      49.977  12.745   0.076  1.00  0.00     0.025 C 
ENDBRANCH   6   9
ENDBRANCH   4   5
ENDBRANCH   3   4
ENDBRANCH   2   3
ENDBRANCH   1   2
BRANCH   1  14
HETATM   14  C7  UNL     1      56.496  12.625   1.460  1.00  0.00     0.122 C 
BRANCH  14  15
HETATM   15  N2  UNL     1      56.398  11.226   1.771  1.00  0.00    -0.367 N 
ATOM     16  H2  UNL     1      57.205  10.636   1.566  1.00  0.00     0.161 HD
BRANCH  15  17
HETATM   17  C8  UNL     1      55.256  10.607   2.346  1.00  0.00     0.167 C 
HETATM   18  S1  UNL     1      54.715  11.119   3.792  1.00  0.00    -0.041 SA
BRANCH  17  19
HETATM   19  N3  UNL     1      54.590   9.541   1.707  1.00  0.00    -0.363 N 
ATOM     20  H3  UNL     1      54.678   8.614   2.123  1.00  0.00     0.162 HD
BRANCH  19  21
HETATM   21  C9  UNL     1      53.793   9.660   0.508  1.00  0.00     0.083 C 
HETATM   22  C10 UNL     1      53.352  11.083   0.359  1.00  0.00     0.025 C 
HETATM   23  C11 UNL     1      53.211  11.306  -1.112  1.00  0.00     0.002 C 
HETATM   24  C12 UNL     1      54.467  10.596  -1.632  1.00  0.00     0.002 C 
HETATM   25  C13 UNL     1      54.583   9.373  -0.728  1.00  0.00     0.025 C 
ENDBRANCH  19  21
ENDBRANCH  17  19
ENDBRANCH  15  17
ENDBRANCH  14  15
ENDBRANCH   1  14
TORSDOF 10
ENDMDL
