MODEL 1
REMARK VINA RESULT: -9.421345206      0.000      0.000
REMARK  6 active torsions:
REMARK  status: ('A' for Active; 'I' for Inactive)
REMARK    1  A    between atoms: C2_2  and  N1_3 
REMARK    2  A    between atoms: N4_12  and  C6_13 
REMARK    3  A    between atoms: C6_13  and  C7_14 
REMARK    4  A    between atoms: C10_17  and  C11_18 
REMARK       I    between atoms: C11_18  and  N5_20 
REMARK    5  A    between atoms: N5_20  and  C12_22 
REMARK    6  A    between atoms: C16_26  and  C17_27 
ROOT
HETATM    1  C7  UNL     1      -4.510   6.478  12.659  1.00  0.00    -0.038 A 
HETATM    2  C8  UNL     1      -5.866   6.472  12.645  1.00  0.00     0.010 A 
HETATM    3  C9  UNL     1      -6.640   7.164  11.708  1.00  0.00     0.017 A 
HETATM    4  C10 UNL     1      -6.023   7.906  10.729  1.00  0.00     0.032 A 
HETATM    5  C22 UNL     1      -4.645   7.923  10.727  1.00  0.00     0.017 A 
HETATM    6  C23 UNL     1      -3.892   7.238  11.654  1.00  0.00     0.010 A 
ENDROOT
BRANCH   4   7
HETATM    7  C11 UNL     1      -6.805   8.641   9.735  1.00  0.00     0.257 C 
HETATM    8  O2  UNL     1      -7.985   8.309   9.502  1.00  0.00    -0.267 OA
HETATM    9  N5  UNL     1      -6.218   9.726   9.044  1.00  0.00    -0.309 N 
ATOM     10  H5  UNL     1      -5.522   9.560   8.318  1.00  0.00     0.170 HD
BRANCH   9  11
HETATM   11  C12 UNL     1      -6.577  10.933   9.345  1.00  0.00     0.108 A 
HETATM   12  C13 UNL     1      -5.851  11.641  10.283  1.00  0.00     0.049 A 
HETATM   13  C14 UNL     1      -6.215  12.928  10.617  1.00  0.00     0.018 A 
HETATM   14  C15 UNL     1      -7.303  13.524  10.025  1.00  0.00     0.004 A 
HETATM   15  C16 UNL     1      -7.711  14.803  10.320  1.00  0.00     0.014 A 
HETATM   16  C21 UNL     1      -8.035  12.795   9.072  1.00  0.00     0.044 A 
HETATM   17  C18 UNL     1      -8.840  15.335   9.660  1.00  0.00     0.015 A 
HETATM   18  C19 UNL     1      -9.549  14.634   8.740  1.00  0.00     0.003 A 
HETATM   19  C20 UNL     1      -9.131  13.359   8.456  1.00  0.00     0.030 A 
HETATM   20  N6  UNL     1      -7.625  11.547   8.793  1.00  0.00    -0.342 N 
ATOM     21  H6  UNL     1      -8.161  11.024   8.100  1.00  0.00     0.167 HD
BRANCH  15  22
HETATM   22  C17 UNL     1      -7.028  15.630  11.290  1.00  0.00     0.271 C 
HETATM   23  O3  UNL     1      -6.617  15.369  12.420  1.00  0.00    -0.301 OA
ENDBRANCH  15  22
ENDBRANCH   9  11
ENDBRANCH   4   7
BRANCH   1  24
HETATM   24  C6  UNL     1      -3.665   5.761  13.618  1.00  0.00     0.188 C 
BRANCH  24  25
HETATM   25  N4  UNL     1      -3.584   4.347  13.301  1.00  0.00    -0.281 N 
HETATM   26  N3  UNL     1      -3.135   3.864  12.124  1.00  0.00    -0.307 N 
HETATM   27  C5  UNL     1      -3.207   2.537  12.088  1.00  0.00     0.139 A 
ATOM     28  H3  UNL     1      -2.786   4.443  11.360  1.00  0.00     0.186 HD
HETATM   29  C4  UNL     1      -3.726   2.107  13.290  1.00  0.00     0.087 A 
HETATM   30  N2  UNL     1      -3.985   0.874  13.753  1.00  0.00    -0.305 N 
HETATM   31  C24 UNL     1      -3.944   3.271  14.014  1.00  0.00     0.147 A 
HETATM   32  C3  UNL     1      -4.486   0.775  14.993  1.00  0.00     0.330 A 
ATOM     33  H2  UNL     1      -3.809   0.046  13.185  1.00  0.00     0.171 HD
HETATM   34  N1  UNL     1      -4.713   1.872  15.732  1.00  0.00    -0.265 N 
HETATM   35  O1  UNL     1      -4.742  -0.359  15.460  1.00  0.00    -0.246 OA
HETATM   36  C25 UNL     1      -4.455   3.133  15.277  1.00  0.00     0.282 A 
HETATM   37  O4  UNL     1      -4.678   4.123  15.996  1.00  0.00    -0.265 OA
BRANCH  34  38
HETATM   38  C2  UNL     1      -5.254   1.719  17.064  1.00  0.00     0.133 C 
HETATM   39  C1  UNL     1      -6.772   1.673  17.053  1.00  0.00     0.027 C 
ENDBRANCH  34  38
ENDBRANCH  24  25
ENDBRANCH   1  24
TORSDOF 6
ENDMDL
MODEL 2
REMARK VINA RESULT: -9.405009132      2.722     10.930
REMARK  6 active torsions:
REMARK  status: ('A' for Active; 'I' for Inactive)
REMARK    1  A    between atoms: C2_2  and  N1_3 
REMARK    2  A    between atoms: N4_12  and  C6_13 
REMARK    3  A    between atoms: C6_13  and  C7_14 
REMARK    4  A    between atoms: C10_17  and  C11_18 
REMARK       I    between atoms: C11_18  and  N5_20 
REMARK    5  A    between atoms: N5_20  and  C12_22 
REMARK    6  A    between atoms: C16_26  and  C17_27 
ROOT
HETATM    1  C7  UNL     1      -6.903   7.006   8.845  1.00  0.00    -0.038 A 
HETATM    2  C8  UNL     1      -7.007   7.599  10.060  1.00  0.00     0.010 A 
HETATM    3  C9  UNL     1      -6.123   7.372  11.119  1.00  0.00     0.017 A 
HETATM    4  C10 UNL     1      -5.072   6.500  10.954  1.00  0.00     0.032 A 
HETATM    5  C22 UNL     1      -4.950   5.888   9.726  1.00  0.00     0.017 A 
HETATM    6  C23 UNL     1      -5.826   6.118   8.689  1.00  0.00     0.010 A 
ENDROOT
BRANCH   4   7
HETATM    7  C11 UNL     1      -4.129   6.242  12.043  1.00  0.00     0.257 C 
HETATM    8  O2  UNL     1      -3.722   7.186  12.750  1.00  0.00    -0.267 OA
HETATM    9  N5  UNL     1      -3.686   4.922  12.287  1.00  0.00    -0.309 N 
ATOM     10  H5  UNL     1      -3.021   4.475  11.656  1.00  0.00     0.170 HD
BRANCH   9  11
HETATM   11  C12 UNL     1      -4.134   4.288  13.322  1.00  0.00     0.108 A 
HETATM   12  C13 UNL     1      -3.766   2.972  13.522  1.00  0.00     0.049 A 
HETATM   13  C14 UNL     1      -4.233   2.278  14.619  1.00  0.00     0.018 A 
HETATM   14  C15 UNL     1      -5.069   2.885  15.527  1.00  0.00     0.004 A 
HETATM   15  C16 UNL     1      -5.563   2.242  16.637  1.00  0.00     0.014 A 
HETATM   16  C21 UNL     1      -5.437   4.224  15.314  1.00  0.00     0.044 A 
HETATM   17  C18 UNL     1      -6.414   2.945  17.518  1.00  0.00     0.015 A 
HETATM   18  C19 UNL     1      -6.771   4.238  17.315  1.00  0.00     0.003 A 
HETATM   19  C20 UNL     1      -6.271   4.866  16.203  1.00  0.00     0.030 A 
HETATM   20  N6  UNL     1      -4.946   4.839  14.227  1.00  0.00    -0.342 N 
ATOM     21  H6  UNL     1      -5.217   5.812  14.079  1.00  0.00     0.167 HD
BRANCH  15  22
HETATM   22  C17 UNL     1      -5.247   0.864  16.940  1.00  0.00     0.271 C 
HETATM   23  O3  UNL     1      -5.983  -0.089  17.199  1.00  0.00    -0.301 OA
ENDBRANCH  15  22
ENDBRANCH   9  11
ENDBRANCH   4   7
BRANCH   1  24
HETATM   24  C6  UNL     1      -7.805   7.223   7.711  1.00  0.00     0.188 C 
BRANCH  24  25
HETATM   25  N4  UNL     1      -7.325   8.287   6.847  1.00  0.00    -0.281 N 
HETATM   26  N3  UNL     1      -6.223   8.190   6.075  1.00  0.00    -0.307 N 
HETATM   27  C5  UNL     1      -5.993   9.324   5.420  1.00  0.00     0.139 A 
ATOM     28  H3  UNL     1      -5.642   7.355   6.004  1.00  0.00     0.186 HD
HETATM   29  C4  UNL     1      -6.980  10.222   5.764  1.00  0.00     0.087 A 
HETATM   30  N2  UNL     1      -7.203  11.486   5.374  1.00  0.00    -0.305 N 
HETATM   31  C24 UNL     1      -7.788   9.530   6.655  1.00  0.00     0.147 A 
HETATM   32  C3  UNL     1      -8.274  12.108   5.885  1.00  0.00     0.330 A 
ATOM     33  H2  UNL     1      -6.582  11.956   4.715  1.00  0.00     0.171 HD
HETATM   34  N1  UNL     1      -9.086  11.480   6.750  1.00  0.00    -0.265 N 
HETATM   35  O1  UNL     1      -8.516  13.291   5.546  1.00  0.00    -0.246 OA
HETATM   36  C25 UNL     1      -8.876  10.194   7.156  1.00  0.00     0.282 A 
HETATM   37  O4  UNL     1      -9.654   9.648   7.958  1.00  0.00    -0.265 OA
BRANCH  34  38
HETATM   38  C2  UNL     1     -10.231  12.188   7.276  1.00  0.00     0.133 C 
HETATM   39  C1  UNL     1      -9.891  12.938   8.553  1.00  0.00     0.027 C 
ENDBRANCH  34  38
ENDBRANCH  24  25
ENDBRANCH   1  24
TORSDOF 6
ENDMDL
MODEL 3
REMARK VINA RESULT: -9.334611782      1.460      1.897
REMARK  6 active torsions:
REMARK  status: ('A' for Active; 'I' for Inactive)
REMARK    1  A    between atoms: C2_2  and  N1_3 
REMARK    2  A    between atoms: N4_12  and  C6_13 
REMARK    3  A    between atoms: C6_13  and  C7_14 
REMARK    4  A    between atoms: C10_17  and  C11_18 
REMARK       I    between atoms: C11_18  and  N5_20 
REMARK    5  A    between atoms: N5_20  and  C12_22 
REMARK    6  A    between atoms: C16_26  and  C17_27 
ROOT
HETATM    1  C7  UNL     1      -6.083   6.626  12.586  1.00  0.00    -0.038 A 
HETATM    2  C8  UNL     1      -4.803   6.968  12.298  1.00  0.00     0.010 A 
HETATM    3  C9  UNL     1      -4.447   8.066  11.509  1.00  0.00     0.017 A 
HETATM    4  C10 UNL     1      -5.428   8.869  10.975  1.00  0.00     0.032 A 
HETATM    5  C22 UNL     1      -6.735   8.536  11.258  1.00  0.00     0.017 A 
HETATM    6  C23 UNL     1      -7.075   7.453  12.037  1.00  0.00     0.010 A 
ENDROOT
BRANCH   4   7
HETATM    7  C11 UNL     1      -5.088  10.025  10.146  1.00  0.00     0.257 C 
HETATM    8  O2  UNL     1      -4.788   9.862   8.945  1.00  0.00    -0.267 OA
HETATM    9  N5  UNL     1      -5.104  11.321  10.710  1.00  0.00    -0.309 N 
ATOM     10  H5  UNL     1      -4.368  11.614  11.352  1.00  0.00     0.170 HD
BRANCH   9  11
HETATM   11  C12 UNL     1      -6.064  12.131  10.401  1.00  0.00     0.108 A 
HETATM   12  C13 UNL     1      -6.295  13.241  11.190  1.00  0.00     0.049 A 
HETATM   13  C14 UNL     1      -7.314  14.117  10.878  1.00  0.00     0.018 A 
HETATM   14  C15 UNL     1      -8.112  13.900   9.779  1.00  0.00     0.004 A 
HETATM   15  C16 UNL     1      -9.139  14.740   9.421  1.00  0.00     0.014 A 
HETATM   16  C21 UNL     1      -7.869  12.768   8.983  1.00  0.00     0.044 A 
HETATM   17  C18 UNL     1      -9.906  14.439   8.274  1.00  0.00     0.015 A 
HETATM   18  C19 UNL     1      -9.674  13.347   7.503  1.00  0.00     0.003 A 
HETATM   19  C20 UNL     1      -8.645  12.518   7.873  1.00  0.00     0.030 A 
HETATM   20  N6  UNL     1      -6.861  11.957   9.344  1.00  0.00    -0.342 N 
ATOM     21  H6  UNL     1      -6.690  11.138   8.761  1.00  0.00     0.167 HD
BRANCH  15  22
HETATM   22  C17 UNL     1      -9.472  15.925  10.179  1.00  0.00     0.271 C 
HETATM   23  O3  UNL     1     -10.175  16.067  11.180  1.00  0.00    -0.301 OA
ENDBRANCH  15  22
ENDBRANCH   9  11
ENDBRANCH   4   7
BRANCH   1  24
HETATM   24  C6  UNL     1      -6.495   5.489  13.413  1.00  0.00     0.188 C 
BRANCH  24  25
HETATM   25  N4  UNL     1      -5.494   4.437  13.407  1.00  0.00    -0.281 N 
HETATM   26  N3  UNL     1      -4.685   4.174  12.360  1.00  0.00    -0.307 N 
HETATM   27  C5  UNL     1      -3.895   3.134  12.611  1.00  0.00     0.139 A 
ATOM     28  H3  UNL     1      -4.680   4.705  11.489  1.00  0.00     0.186 HD
HETATM   29  C4  UNL     1      -4.183   2.677  13.878  1.00  0.00     0.087 A 
HETATM   30  N2  UNL     1      -3.664   1.669  14.595  1.00  0.00    -0.305 N 
HETATM   31  C24 UNL     1      -5.185   3.521  14.336  1.00  0.00     0.147 A 
HETATM   32  C3  UNL     1      -4.153   1.475  15.828  1.00  0.00     0.330 A 
ATOM     33  H2  UNL     1      -2.927   1.073  14.218  1.00  0.00     0.171 HD
HETATM   34  N1  UNL     1      -5.122   2.266  16.315  1.00  0.00    -0.265 N 
HETATM   35  O1  UNL     1      -3.694   0.543  16.529  1.00  0.00    -0.246 OA
HETATM   36  C25 UNL     1      -5.660   3.296  15.600  1.00  0.00     0.282 A 
HETATM   37  O4  UNL     1      -6.555   4.007  16.090  1.00  0.00    -0.265 OA
BRANCH  34  38
HETATM   38  C2  UNL     1      -5.620   2.022  17.650  1.00  0.00     0.133 C 
HETATM   39  C1  UNL     1      -6.868   1.157  17.636  1.00  0.00     0.027 C 
ENDBRANCH  34  38
ENDBRANCH  24  25
ENDBRANCH   1  24
TORSDOF 6
ENDMDL
MODEL 4
REMARK VINA RESULT: -9.309677309      5.505      8.583
REMARK  6 active torsions:
REMARK  status: ('A' for Active; 'I' for Inactive)
REMARK    1  A    between atoms: C2_2  and  N1_3 
REMARK    2  A    between atoms: N4_12  and  C6_13 
REMARK    3  A    between atoms: C6_13  and  C7_14 
REMARK    4  A    between atoms: C10_17  and  C11_18 
REMARK       I    between atoms: C11_18  and  N5_20 
REMARK    5  A    between atoms: N5_20  and  C12_22 
REMARK    6  A    between atoms: C16_26  and  C17_27 
ROOT
HETATM    1  C7  UNL     1      -4.118   6.003  13.478  1.00  0.00    -0.038 A 
HETATM    2  C8  UNL     1      -3.643   6.852  12.533  1.00  0.00     0.010 A 
HETATM    3  C9  UNL     1      -2.618   7.776  12.758  1.00  0.00     0.017 A 
HETATM    4  C10 UNL     1      -2.033   7.856  13.999  1.00  0.00     0.032 A 
HETATM    5  C22 UNL     1      -2.502   7.000  14.972  1.00  0.00     0.017 A 
HETATM    6  C23 UNL     1      -3.512   6.094  14.741  1.00  0.00     0.010 A 
ENDROOT
BRANCH   4   7
HETATM    7  C11 UNL     1      -0.958   8.812  14.266  1.00  0.00     0.257 C 
HETATM    8  O2  UNL     1      -0.789   9.252  15.422  1.00  0.00    -0.267 OA
HETATM    9  N5  UNL     1      -0.115   9.232  13.211  1.00  0.00    -0.309 N 
ATOM     10  H5  UNL     1      -0.459   9.876  12.499  1.00  0.00     0.170 HD
BRANCH   9  11
HETATM   11  C12 UNL     1       1.099   8.787  13.160  1.00  0.00     0.108 A 
HETATM   12  C13 UNL     1       1.398   7.724  12.331  1.00  0.00     0.049 A 
HETATM   13  C14 UNL     1       2.686   7.236  12.261  1.00  0.00     0.018 A 
HETATM   14  C15 UNL     1       3.689   7.798  13.016  1.00  0.00     0.004 A 
HETATM   15  C16 UNL     1       4.989   7.352  12.985  1.00  0.00     0.014 A 
HETATM   16  C21 UNL     1       3.375   8.879  13.856  1.00  0.00     0.044 A 
HETATM   17  C18 UNL     1       5.955   7.993  13.793  1.00  0.00     0.015 A 
HETATM   18  C19 UNL     1       5.655   9.037  14.606  1.00  0.00     0.003 A 
HETATM   19  C20 UNL     1       4.353   9.470  14.626  1.00  0.00     0.030 A 
HETATM   20  N6  UNL     1       2.102   9.304  13.875  1.00  0.00    -0.342 N 
ATOM     21  H6  UNL     1       1.881  10.090  14.487  1.00  0.00     0.167 HD
BRANCH  15  22
HETATM   22  C17 UNL     1       5.410   6.244  12.158  1.00  0.00     0.271 C 
HETATM   23  O3  UNL     1       5.239   5.032  12.293  1.00  0.00    -0.301 OA
ENDBRANCH  15  22
ENDBRANCH   9  11
ENDBRANCH   4   7
BRANCH   1  24
HETATM   24  C6  UNL     1      -5.184   5.017  13.280  1.00  0.00     0.188 C 
BRANCH  24  25
HETATM   25  N4  UNL     1      -4.732   3.675  13.596  1.00  0.00    -0.281 N 
HETATM   26  N3  UNL     1      -3.859   2.977  12.841  1.00  0.00    -0.307 N 
HETATM   27  C5  UNL     1      -3.653   1.762  13.340  1.00  0.00     0.139 A 
ATOM     28  H3  UNL     1      -3.415   3.335  11.995  1.00  0.00     0.186 HD
HETATM   29  C4  UNL     1      -4.418   1.635  14.479  1.00  0.00     0.087 A 
HETATM   30  N2  UNL     1      -4.557   0.619  15.345  1.00  0.00    -0.305 N 
HETATM   31  C24 UNL     1      -5.072   2.853  14.599  1.00  0.00     0.147 A 
HETATM   32  C3  UNL     1      -5.382   0.805  16.385  1.00  0.00     0.330 A 
ATOM     33  H2  UNL     1      -4.055  -0.260  15.217  1.00  0.00     0.171 HD
HETATM   34  N1  UNL     1      -6.036   1.966  16.544  1.00  0.00    -0.265 N 
HETATM   35  O1  UNL     1      -5.539  -0.121  17.215  1.00  0.00    -0.246 OA
HETATM   36  C25 UNL     1      -5.906   3.010  15.675  1.00  0.00     0.282 A 
HETATM   37  O4  UNL     1      -6.528   4.070  15.860  1.00  0.00    -0.265 OA
BRANCH  34  38
HETATM   38  C2  UNL     1      -6.916   2.124  17.681  1.00  0.00     0.133 C 
HETATM   39  C1  UNL     1      -6.171   2.635  18.903  1.00  0.00     0.027 C 
ENDBRANCH  34  38
ENDBRANCH  24  25
ENDBRANCH   1  24
TORSDOF 6
ENDMDL
MODEL 5
REMARK VINA RESULT: -9.286129787      2.564     10.492
REMARK  6 active torsions:
REMARK  status: ('A' for Active; 'I' for Inactive)
REMARK    1  A    between atoms: C2_2  and  N1_3 
REMARK    2  A    between atoms: N4_12  and  C6_13 
REMARK    3  A    between atoms: C6_13  and  C7_14 
REMARK    4  A    between atoms: C10_17  and  C11_18 
REMARK       I    between atoms: C11_18  and  N5_20 
REMARK    5  A    between atoms: N5_20  and  C12_22 
REMARK    6  A    between atoms: C16_26  and  C17_27 
ROOT
HETATM    1  C7  UNL     1      -3.779   5.945   8.829  1.00  0.00    -0.038 A 
HETATM    2  C8  UNL     1      -3.200   4.762   8.504  1.00  0.00     0.010 A 
HETATM    3  C9  UNL     1      -2.769   3.820   9.443  1.00  0.00     0.017 A 
HETATM    4  C10 UNL     1      -2.924   4.074  10.785  1.00  0.00     0.032 A 
HETATM    5  C22 UNL     1      -3.512   5.271  11.135  1.00  0.00     0.017 A 
HETATM    6  C23 UNL     1      -3.933   6.193  10.203  1.00  0.00     0.010 A 
ENDROOT
BRANCH   4   7
HETATM    7  C11 UNL     1      -2.484   3.108  11.792  1.00  0.00     0.257 C 
HETATM    8  O2  UNL     1      -1.366   3.239  12.332  1.00  0.00    -0.267 OA
HETATM    9  N5  UNL     1      -3.328   2.032  12.147  1.00  0.00    -0.309 N 
ATOM     10  H5  UNL     1      -3.462   1.248  11.509  1.00  0.00     0.170 HD
BRANCH   9  11
HETATM   11  C12 UNL     1      -3.929   2.054  13.293  1.00  0.00     0.108 A 
HETATM   12  C13 UNL     1      -3.949   0.912  14.070  1.00  0.00     0.049 A 
HETATM   13  C14 UNL     1      -4.583   0.915  15.295  1.00  0.00     0.018 A 
HETATM   14  C15 UNL     1      -5.203   2.051  15.759  1.00  0.00     0.004 A 
HETATM   15  C16 UNL     1      -5.849   2.111  16.972  1.00  0.00     0.014 A 
HETATM   16  C21 UNL     1      -5.177   3.208  14.962  1.00  0.00     0.044 A 
HETATM   17  C18 UNL     1      -6.456   3.322  17.369  1.00  0.00     0.015 A 
HETATM   18  C19 UNL     1      -6.432   4.440  16.601  1.00  0.00     0.003 A 
HETATM   19  C20 UNL     1      -5.785   4.366  15.394  1.00  0.00     0.030 A 
HETATM   20  N6  UNL     1      -4.542   3.135  13.781  1.00  0.00    -0.342 N 
ATOM     21  H6  UNL     1      -4.526   3.979  13.207  1.00  0.00     0.167 HD
BRANCH  15  22
HETATM   22  C17 UNL     1      -5.936   0.974  17.861  1.00  0.00     0.271 C 
HETATM   23  O3  UNL     1      -6.113  -0.221  17.621  1.00  0.00    -0.301 OA
ENDBRANCH  15  22
ENDBRANCH   9  11
ENDBRANCH   4   7
BRANCH   1  24
HETATM   24  C6  UNL     1      -4.250   6.954   7.877  1.00  0.00     0.188 C 
BRANCH  24  25
HETATM   25  N4  UNL     1      -5.696   7.083   7.911  1.00  0.00    -0.281 N 
HETATM   26  N3  UNL     1      -6.546   6.037   7.850  1.00  0.00    -0.307 N 
HETATM   27  C5  UNL     1      -7.812   6.445   7.858  1.00  0.00     0.139 A 
ATOM     28  H3  UNL     1      -6.255   5.061   7.802  1.00  0.00     0.186 HD
HETATM   29  C4  UNL     1      -7.815   7.820   7.929  1.00  0.00     0.087 A 
HETATM   30  N2  UNL     1      -8.825   8.703   7.974  1.00  0.00    -0.305 N 
HETATM   31  C24 UNL     1      -6.473   8.173   7.961  1.00  0.00     0.147 A 
HETATM   32  C3  UNL     1      -8.505  10.002   8.054  1.00  0.00     0.330 A 
ATOM     33  H2  UNL     1      -9.798   8.399   7.949  1.00  0.00     0.171 HD
HETATM   34  N1  UNL     1      -7.220  10.392   8.089  1.00  0.00    -0.265 N 
HETATM   35  O1  UNL     1      -9.420  10.857   8.098  1.00  0.00    -0.246 OA
HETATM   36  C25 UNL     1      -6.181   9.509   8.045  1.00  0.00     0.282 A 
HETATM   37  O4  UNL     1      -5.005   9.912   8.082  1.00  0.00    -0.265 OA
BRANCH  34  38
HETATM   38  C2  UNL     1      -6.919  11.803   8.176  1.00  0.00     0.133 C 
HETATM   39  C1  UNL     1      -6.706  12.247   9.613  1.00  0.00     0.027 C 
ENDBRANCH  34  38
ENDBRANCH  24  25
ENDBRANCH   1  24
TORSDOF 6
ENDMDL
