MODEL 1
REMARK VINA RESULT: -9.756612335      0.000      0.000
REMARK  6 active torsions:
REMARK  status: ('A' for Active; 'I' for Inactive)
REMARK       I    between atoms: C1_2  and  N1_3 
REMARK    1  A    between atoms: C1_2  and  C4_9 
REMARK    2  A    between atoms: N1_3  and  C2_5 
REMARK    3  A    between atoms: C2_5  and  C3_6 
REMARK    4  A    between atoms: C3_6  and  O2_7 
REMARK    5  A    between atoms: C6_16  and  C7_17 
REMARK    6  A    between atoms: N5_23  and  O3_24 
ROOT
HETATM    1  C4  UNL     1      -2.575   4.204  10.214  1.00  0.00     0.130 A 
HETATM    2  N2  UNL     1      -2.724   3.453  11.386  1.00  0.00    -0.181 N 
ATOM      3  H2  UNL     1      -2.119   2.645  11.535  1.00  0.00     0.184 HD
HETATM    4  C5  UNL     1      -3.627   3.759  12.310  1.00  0.00     0.733 A 
HETATM    5  N3  UNL     1      -4.473   4.795  12.216  1.00  0.00    -0.081 N 
HETATM    6  N4  UNL     1      -5.186   4.863  13.282  1.00  0.00    -0.261 N 
ATOM      7  H4  UNL     1      -5.905   5.563  13.464  1.00  0.00     0.190 HD
HETATM    8  C6  UNL     1      -4.840   3.865  14.125  1.00  0.00     0.177 A 
HETATM    9  N5  UNL     1      -3.875   3.177  13.527  1.00  0.00    -0.031 N 
HETATM   10  C13 UNL     1      -4.397   5.545  11.131  1.00  0.00     0.101 A 
HETATM   11  C14 UNL     1      -3.424   5.229  10.107  1.00  0.00     0.040 A 
HETATM   12  C15 UNL     1      -3.344   5.910   8.841  1.00  0.00     0.006 A 
HETATM   13  C16 UNL     1      -3.126   5.019   7.830  1.00  0.00     0.014 A 
HETATM   14  C17 UNL     1      -2.943   5.556   6.573  1.00  0.00     0.001 A 
HETATM   15  C18 UNL     1      -2.987   6.953   6.379  1.00  0.00     0.002 A 
HETATM   16  C19 UNL     1      -3.217   7.797   7.439  1.00  0.00     0.030 A 
HETATM   17  C20 UNL     1      -3.403   7.291   8.682  1.00  0.00     0.043 A 
HETATM   18  N6  UNL     1      -3.858   8.262   9.653  1.00  0.00    -0.355 N 
ATOM     19  H6  UNL     1      -3.435   9.190   9.666  1.00  0.00     0.166 HD
HETATM   20  C21 UNL     1      -4.898   7.946  10.606  1.00  0.00     0.045 A 
HETATM   21  C22 UNL     1      -5.731   9.006  10.855  1.00  0.00     0.030 A 
HETATM   22  C23 UNL     1      -6.864   8.844  11.620  1.00  0.00     0.002 A 
HETATM   23  C24 UNL     1      -7.170   7.579  12.151  1.00  0.00     0.001 A 
HETATM   24  C25 UNL     1      -6.344   6.477  11.920  1.00  0.00     0.016 A 
HETATM   25  C26 UNL     1      -5.245   6.711  11.166  1.00  0.00     0.021 A 
ENDROOT
BRANCH   1  26
HETATM   26  C1  UNL     1      -1.439   3.949   9.404  1.00  0.00     0.269 C 
HETATM   27  O1  UNL     1      -1.216   3.145   8.499  1.00  0.00    -0.266 OA
HETATM   28  N1  UNL     1      -0.284   4.785   9.651  1.00  0.00    -0.354 N 
ATOM     29  H1  UNL     1      -0.347   5.494  10.382  1.00  0.00     0.162 HD
BRANCH  28  30
HETATM   30  C2  UNL     1       0.955   4.668   8.916  1.00  0.00     0.149 C 
BRANCH  30  31
HETATM   31  C3  UNL     1       2.103   4.623   9.891  1.00  0.00     0.183 C 
BRANCH  31  32
HETATM   32  O2  UNL     1       2.915   3.531   9.576  1.00  0.00    -0.399 OA
ATOM     33  H2  UNL     1       3.460   3.762   8.832  1.00  0.00     0.209 HD
ENDBRANCH  31  32
ENDBRANCH  30  31
ENDBRANCH  28  30
ENDBRANCH   1  26
BRANCH   9  34
HETATM   34  O3  UNL     1      -3.170   2.054  13.963  1.00  0.00    -0.268 OA
ATOM     35  H3  UNL     1      -2.481   2.118  14.613  1.00  0.00     0.246 HD
ENDBRANCH   9  34
BRANCH   8  36
HETATM   36  C7  UNL     1      -5.435   3.617  15.442  1.00  0.00     0.012 A 
HETATM   37  C8  UNL     1      -5.197   2.424  16.104  1.00  0.00     0.015 A 
HETATM   38  C9  UNL     1      -5.721   2.144  17.329  1.00  0.00     0.001 A 
HETATM   39  C10 UNL     1      -6.526   3.052  17.971  1.00  0.00     0.000 A 
HETATM   40  C11 UNL     1      -6.775   4.242  17.330  1.00  0.00     0.001 A 
HETATM   41  C12 UNL     1      -6.232   4.522  16.074  1.00  0.00     0.015 A 
ENDBRANCH   8  36
TORSDOF 6
ENDMDL
MODEL 2
REMARK VINA RESULT: -9.599086730      2.177      2.425
REMARK  6 active torsions:
REMARK  status: ('A' for Active; 'I' for Inactive)
REMARK       I    between atoms: C1_2  and  N1_3 
REMARK    1  A    between atoms: C1_2  and  C4_9 
REMARK    2  A    between atoms: N1_3  and  C2_5 
REMARK    3  A    between atoms: C2_5  and  C3_6 
REMARK    4  A    between atoms: C3_6  and  O2_7 
REMARK    5  A    between atoms: C6_16  and  C7_17 
REMARK    6  A    between atoms: N5_23  and  O3_24 
ROOT
HETATM    1  C4  UNL     1      -0.659   5.990  12.322  1.00  0.00     0.130 A 
HETATM    2  N2  UNL     1      -0.977   5.174  13.414  1.00  0.00    -0.181 N 
ATOM      3  H2  UNL     1      -0.228   4.665  13.885  1.00  0.00     0.184 HD
HETATM    4  C5  UNL     1      -2.221   5.040  13.858  1.00  0.00     0.733 A 
HETATM    5  N3  UNL     1      -3.280   5.659  13.315  1.00  0.00    -0.081 N 
HETATM    6  N4  UNL     1      -4.334   5.375  13.991  1.00  0.00    -0.261 N 
ATOM      7  H4  UNL     1      -5.272   5.720  13.789  1.00  0.00     0.190 HD
HETATM    8  C6  UNL     1      -4.011   4.549  15.010  1.00  0.00     0.177 A 
HETATM    9  N5  UNL     1      -2.704   4.337  14.932  1.00  0.00    -0.031 N 
HETATM   10  C13 UNL     1      -3.058   6.440  12.273  1.00  0.00     0.101 A 
HETATM   11  C14 UNL     1      -1.711   6.598  11.768  1.00  0.00     0.040 A 
HETATM   12  C15 UNL     1      -1.385   7.328  10.570  1.00  0.00     0.006 A 
HETATM   13  C16 UNL     1      -0.446   6.659   9.841  1.00  0.00     0.014 A 
HETATM   14  C17 UNL     1       0.016   7.298   8.709  1.00  0.00     0.001 A 
HETATM   15  C18 UNL     1      -0.477   8.572   8.356  1.00  0.00     0.002 A 
HETATM   16  C19 UNL     1      -1.428   9.191   9.130  1.00  0.00     0.030 A 
HETATM   17  C20 UNL     1      -1.900   8.579  10.244  1.00  0.00     0.043 A 
HETATM   18  N6  UNL     1      -3.049   9.231  10.833  1.00  0.00    -0.355 N 
ATOM     19  H6  UNL     1      -3.062  10.248  10.908  1.00  0.00     0.166 HD
HETATM   20  C21 UNL     1      -4.180   8.472  11.320  1.00  0.00     0.045 A 
HETATM   21  C22 UNL     1      -5.378   9.098  11.091  1.00  0.00     0.030 A 
HETATM   22  C23 UNL     1      -6.566   8.454  11.352  1.00  0.00     0.002 A 
HETATM   23  C24 UNL     1      -6.552   7.142  11.857  1.00  0.00     0.001 A 
HETATM   24  C25 UNL     1      -5.350   6.475  12.104  1.00  0.00     0.016 A 
HETATM   25  C26 UNL     1      -4.221   7.170  11.831  1.00  0.00     0.021 A 
ENDROOT
BRANCH   1  26
HETATM   26  C1  UNL     1       0.710   6.256  12.070  1.00  0.00     0.269 C 
HETATM   27  O1  UNL     1       1.407   7.263  12.195  1.00  0.00    -0.266 OA
HETATM   28  N1  UNL     1       1.490   5.145  11.568  1.00  0.00    -0.354 N 
ATOM     29  H1  UNL     1       1.020   4.251  11.422  1.00  0.00     0.162 HD
BRANCH  28  30
HETATM   30  C2  UNL     1       2.900   5.236  11.262  1.00  0.00     0.149 C 
BRANCH  30  31
HETATM   31  C3  UNL     1       3.103   4.960   9.795  1.00  0.00     0.183 C 
BRANCH  31  32
HETATM   32  O2  UNL     1       2.831   3.611   9.552  1.00  0.00    -0.399 OA
ATOM     33  H2  UNL     1       2.770   3.477   8.614  1.00  0.00     0.209 HD
ENDBRANCH  31  32
ENDBRANCH  30  31
ENDBRANCH  28  30
ENDBRANCH   1  26
BRANCH   9  34
HETATM   34  O3  UNL     1      -1.869   3.563  15.739  1.00  0.00    -0.268 OA
ATOM     35  H3  UNL     1      -1.847   3.669  16.682  1.00  0.00     0.246 HD
ENDBRANCH   9  34
BRANCH   8  36
HETATM   36  C7  UNL     1      -4.950   4.007  15.999  1.00  0.00     0.012 A 
HETATM   37  C8  UNL     1      -4.748   2.749  16.540  1.00  0.00     0.015 A 
HETATM   38  C9  UNL     1      -5.586   2.201  17.462  1.00  0.00     0.001 A 
HETATM   39  C10 UNL     1      -6.691   2.887  17.901  1.00  0.00     0.000 A 
HETATM   40  C11 UNL     1      -6.909   4.138  17.376  1.00  0.00     0.001 A 
HETATM   41  C12 UNL     1      -6.043   4.694  16.431  1.00  0.00     0.015 A 
ENDBRANCH   8  36
TORSDOF 6
ENDMDL
MODEL 3
REMARK VINA RESULT: -9.239905303      2.668      2.964
REMARK  6 active torsions:
REMARK  status: ('A' for Active; 'I' for Inactive)
REMARK       I    between atoms: C1_2  and  N1_3 
REMARK    1  A    between atoms: C1_2  and  C4_9 
REMARK    2  A    between atoms: N1_3  and  C2_5 
REMARK    3  A    between atoms: C2_5  and  C3_6 
REMARK    4  A    between atoms: C3_6  and  O2_7 
REMARK    5  A    between atoms: C6_16  and  C7_17 
REMARK    6  A    between atoms: N5_23  and  O3_24 
ROOT
HETATM    1  C4  UNL     1      -0.559   6.645  12.382  1.00  0.00     0.130 A 
HETATM    2  N2  UNL     1      -0.803   5.746  13.428  1.00  0.00    -0.181 N 
ATOM      3  H2  UNL     1      -0.011   5.313  13.902  1.00  0.00     0.184 HD
HETATM    4  C5  UNL     1      -2.033   5.440  13.823  1.00  0.00     0.733 A 
HETATM    5  N3  UNL     1      -3.145   5.947  13.270  1.00  0.00    -0.081 N 
HETATM    6  N4  UNL     1      -4.175   5.504  13.898  1.00  0.00    -0.261 N 
ATOM      7  H4  UNL     1      -5.143   5.740  13.679  1.00  0.00     0.190 HD
HETATM    8  C6  UNL     1      -3.780   4.679  14.892  1.00  0.00     0.177 A 
HETATM    9  N5  UNL     1      -2.455   4.634  14.850  1.00  0.00    -0.031 N 
HETATM   10  C13 UNL     1      -2.993   6.797  12.271  1.00  0.00     0.101 A 
HETATM   11  C14 UNL     1      -1.663   7.143  11.819  1.00  0.00     0.040 A 
HETATM   12  C15 UNL     1      -1.396   7.962  10.665  1.00  0.00     0.006 A 
HETATM   13  C16 UNL     1      -0.361   7.448   9.940  1.00  0.00     0.014 A 
HETATM   14  C17 UNL     1       0.050   8.190   8.853  1.00  0.00     0.001 A 
HETATM   15  C18 UNL     1      -0.588   9.408   8.536  1.00  0.00     0.002 A 
HETATM   16  C19 UNL     1      -1.631   9.869   9.303  1.00  0.00     0.030 A 
HETATM   17  C20 UNL     1      -2.054   9.153  10.374  1.00  0.00     0.043 A 
HETATM   18  N6  UNL     1      -3.292   9.630  10.950  1.00  0.00    -0.355 N 
ATOM     19  H6  UNL     1      -3.434  10.633  11.067  1.00  0.00     0.166 HD
HETATM   20  C21 UNL     1      -4.332   8.716  11.365  1.00  0.00     0.045 A 
HETATM   21  C22 UNL     1      -5.592   9.198  11.122  1.00  0.00     0.030 A 
HETATM   22  C23 UNL     1      -6.698   8.401  11.316  1.00  0.00     0.002 A 
HETATM   23  C24 UNL     1      -6.534   7.080  11.766  1.00  0.00     0.001 A 
HETATM   24  C25 UNL     1      -5.266   6.555  12.025  1.00  0.00     0.016 A 
HETATM   25  C26 UNL     1      -4.226   7.396  11.820  1.00  0.00     0.021 A 
ENDROOT
BRANCH   1  26
HETATM   26  C1  UNL     1       0.773   7.089  12.188  1.00  0.00     0.269 C 
HETATM   27  O1  UNL     1       1.339   8.162  12.397  1.00  0.00    -0.266 OA
HETATM   28  N1  UNL     1       1.693   6.116  11.641  1.00  0.00    -0.354 N 
ATOM     29  H1  UNL     1       1.339   5.183  11.426  1.00  0.00     0.162 HD
BRANCH  28  30
HETATM   30  C2  UNL     1       3.087   6.395  11.384  1.00  0.00     0.149 C 
BRANCH  30  31
HETATM   31  C3  UNL     1       3.922   5.777  12.477  1.00  0.00     0.183 C 
BRANCH  31  32
HETATM   32  O2  UNL     1       3.437   4.494  12.739  1.00  0.00    -0.399 OA
ATOM     33  H2  UNL     1       2.487   4.515  12.709  1.00  0.00     0.209 HD
ENDBRANCH  31  32
ENDBRANCH  30  31
ENDBRANCH  28  30
ENDBRANCH   1  26
BRANCH   9  34
HETATM   34  O3  UNL     1      -1.554   3.933  15.652  1.00  0.00    -0.268 OA
ATOM     35  H3  UNL     1      -1.820   3.529  16.469  1.00  0.00     0.246 HD
ENDBRANCH   9  34
BRANCH   8  36
HETATM   36  C7  UNL     1      -4.672   3.980  15.824  1.00  0.00     0.012 A 
HETATM   37  C8  UNL     1      -5.844   4.579  16.255  1.00  0.00     0.015 A 
HETATM   38  C9  UNL     1      -6.707   3.973  17.116  1.00  0.00     0.001 A 
HETATM   39  C10 UNL     1      -6.444   2.718  17.604  1.00  0.00     0.000 A 
HETATM   40  C11 UNL     1      -5.286   2.106  17.190  1.00  0.00     0.001 A 
HETATM   41  C12 UNL     1      -4.406   2.735  16.305  1.00  0.00     0.015 A 
ENDBRANCH   8  36
TORSDOF 6
ENDMDL
MODEL 4
REMARK VINA RESULT: -9.072909039      3.717      7.348
REMARK  6 active torsions:
REMARK  status: ('A' for Active; 'I' for Inactive)
REMARK       I    between atoms: C1_2  and  N1_3 
REMARK    1  A    between atoms: C1_2  and  C4_9 
REMARK    2  A    between atoms: N1_3  and  C2_5 
REMARK    3  A    between atoms: C2_5  and  C3_6 
REMARK    4  A    between atoms: C3_6  and  O2_7 
REMARK    5  A    between atoms: C6_16  and  C7_17 
REMARK    6  A    between atoms: N5_23  and  O3_24 
ROOT
HETATM    1  C4  UNL     1      -3.563   3.756  14.385  1.00  0.00     0.130 A 
HETATM    2  N2  UNL     1      -3.495   4.986  15.050  1.00  0.00    -0.181 N 
ATOM      3  H2  UNL     1      -3.998   5.100  15.930  1.00  0.00     0.184 HD
HETATM    4  C5  UNL     1      -2.796   6.009  14.573  1.00  0.00     0.733 A 
HETATM    5  N3  UNL     1      -2.101   5.971  13.427  1.00  0.00    -0.081 N 
HETATM    6  N4  UNL     1      -1.491   7.089  13.259  1.00  0.00    -0.261 N 
ATOM      7  H4  UNL     1      -0.891   7.318  12.467  1.00  0.00     0.190 HD
HETATM    8  C6  UNL     1      -1.766   7.915  14.292  1.00  0.00     0.177 A 
HETATM    9  N5  UNL     1      -2.575   7.252  15.108  1.00  0.00    -0.031 N 
HETATM   10  C13 UNL     1      -2.126   4.844  12.739  1.00  0.00     0.101 A 
HETATM   11  C14 UNL     1      -2.885   3.716  13.235  1.00  0.00     0.040 A 
HETATM   12  C15 UNL     1      -3.071   2.490  12.503  1.00  0.00     0.006 A 
HETATM   13  C16 UNL     1      -4.358   2.053  12.619  1.00  0.00     0.014 A 
HETATM   14  C17 UNL     1      -4.645   0.839  12.031  1.00  0.00     0.001 A 
HETATM   15  C18 UNL     1      -3.639   0.117  11.355  1.00  0.00     0.002 A 
HETATM   16  C19 UNL     1      -2.362   0.615  11.267  1.00  0.00     0.030 A 
HETATM   17  C20 UNL     1      -2.059   1.809  11.834  1.00  0.00     0.043 A 
HETATM   18  N6  UNL     1      -0.753   2.318  11.475  1.00  0.00    -0.355 N 
ATOM     19  H6  UNL     1       0.042   1.680  11.453  1.00  0.00     0.166 HD
HETATM   20  C21 UNL     1      -0.551   3.711  11.147  1.00  0.00     0.045 A 
HETATM   21  C22 UNL     1       0.366   3.894  10.145  1.00  0.00     0.030 A 
HETATM   22  C23 UNL     1       0.573   5.142   9.602  1.00  0.00     0.002 A 
HETATM   23  C24 UNL     1      -0.163   6.240  10.079  1.00  0.00     0.001 A 
HETATM   24  C25 UNL     1      -1.104   6.092  11.101  1.00  0.00     0.016 A 
HETATM   25  C26 UNL     1      -1.250   4.839  11.592  1.00  0.00     0.021 A 
ENDROOT
BRANCH   1  26
HETATM   26  C1  UNL     1      -4.131   2.658  15.079  1.00  0.00     0.269 C 
HETATM   27  O1  UNL     1      -3.705   1.543  15.379  1.00  0.00    -0.266 OA
HETATM   28  N1  UNL     1      -5.485   2.841  15.557  1.00  0.00    -0.354 N 
ATOM     29  H1  UNL     1      -5.948   3.730  15.368  1.00  0.00     0.162 HD
BRANCH  28  30
HETATM   30  C2  UNL     1      -6.214   1.830  16.287  1.00  0.00     0.149 C 
BRANCH  30  31
HETATM   31  C3  UNL     1      -5.855   1.924  17.748  1.00  0.00     0.183 C 
BRANCH  31  32
HETATM   32  O2  UNL     1      -5.205   0.746  18.125  1.00  0.00    -0.399 OA
ATOM     33  H2  UNL     1      -4.931   0.827  19.031  1.00  0.00     0.209 HD
ENDBRANCH  31  32
ENDBRANCH  30  31
ENDBRANCH  28  30
ENDBRANCH   1  26
BRANCH   9  34
HETATM   34  O3  UNL     1      -3.154   7.646  16.315  1.00  0.00    -0.268 OA
ATOM     35  H3  UNL     1      -2.833   8.395  16.803  1.00  0.00     0.246 HD
ENDBRANCH   9  34
BRANCH   8  36
HETATM   36  C7  UNL     1      -1.252   9.280  14.452  1.00  0.00     0.012 A 
HETATM   37  C8  UNL     1      -1.725  10.305  13.650  1.00  0.00     0.015 A 
HETATM   38  C9  UNL     1      -1.284  11.588  13.760  1.00  0.00     0.001 A 
HETATM   39  C10 UNL     1      -0.332  11.926  14.689  1.00  0.00     0.000 A 
HETATM   40  C11 UNL     1       0.150  10.923  15.495  1.00  0.00     0.001 A 
HETATM   41  C12 UNL     1      -0.308   9.608  15.376  1.00  0.00     0.015 A 
ENDBRANCH   8  36
TORSDOF 6
ENDMDL
MODEL 5
REMARK VINA RESULT: -8.948010882      2.441      7.035
REMARK  6 active torsions:
REMARK  status: ('A' for Active; 'I' for Inactive)
REMARK       I    between atoms: C1_2  and  N1_3 
REMARK    1  A    between atoms: C1_2  and  C4_9 
REMARK    2  A    between atoms: N1_3  and  C2_5 
REMARK    3  A    between atoms: C2_5  and  C3_6 
REMARK    4  A    between atoms: C3_6  and  O2_7 
REMARK    5  A    between atoms: C6_16  and  C7_17 
REMARK    6  A    between atoms: N5_23  and  O3_24 
ROOT
HETATM    1  C4  UNL     1      -4.572   4.717  12.477  1.00  0.00     0.130 A 
HETATM    2  N2  UNL     1      -5.466   5.795  12.470  1.00  0.00    -0.181 N 
ATOM      3  H2  UNL     1      -5.969   6.025  13.327  1.00  0.00     0.184 HD
HETATM    4  C5  UNL     1      -5.681   6.526  11.383  1.00  0.00     0.733 A 
HETATM    5  N3  UNL     1      -5.077   6.311  10.205  1.00  0.00    -0.081 N 
HETATM    6  N4  UNL     1      -5.448   7.210   9.365  1.00  0.00    -0.261 N 
ATOM      7  H4  UNL     1      -5.133   7.274   8.397  1.00  0.00     0.190 HD
HETATM    8  C6  UNL     1      -6.319   8.055   9.958  1.00  0.00     0.177 A 
HETATM    9  N5  UNL     1      -6.468   7.636  11.208  1.00  0.00    -0.031 N 
HETATM   10  C13 UNL     1      -4.226   5.304  10.134  1.00  0.00     0.101 A 
HETATM   11  C14 UNL     1      -3.979   4.489  11.303  1.00  0.00     0.040 A 
HETATM   12  C15 UNL     1      -3.163   3.302  11.295  1.00  0.00     0.006 A 
HETATM   13  C16 UNL     1      -3.746   2.315  12.035  1.00  0.00     0.014 A 
HETATM   14  C17 UNL     1      -3.020   1.151  12.178  1.00  0.00     0.001 A 
HETATM   15  C18 UNL     1      -1.750   1.022  11.577  1.00  0.00     0.002 A 
HETATM   16  C19 UNL     1      -1.221   2.052  10.836  1.00  0.00     0.030 A 
HETATM   17  C20 UNL     1      -1.919   3.203  10.680  1.00  0.00     0.043 A 
HETATM   18  N6  UNL     1      -1.356   4.107   9.700  1.00  0.00    -0.355 N 
ATOM     19  H6  UNL     1      -0.346   4.253   9.679  1.00  0.00     0.166 HD
HETATM   20  C21 UNL     1      -2.191   4.807   8.751  1.00  0.00     0.045 A 
HETATM   21  C22 UNL     1      -1.606   4.932   7.518  1.00  0.00     0.030 A 
HETATM   22  C23 UNL     1      -2.316   5.438   6.453  1.00  0.00     0.002 A 
HETATM   23  C24 UNL     1      -3.654   5.831   6.631  1.00  0.00     0.001 A 
HETATM   24  C25 UNL     1      -4.282   5.720   7.873  1.00  0.00     0.016 A 
HETATM   25  C26 UNL     1      -3.522   5.221   8.876  1.00  0.00     0.021 A 
ENDROOT
BRANCH   1  26
HETATM   26  C1  UNL     1      -4.232   4.148  13.730  1.00  0.00     0.269 C 
HETATM   27  O1  UNL     1      -3.187   4.113  14.381  1.00  0.00    -0.266 OA
HETATM   28  N1  UNL     1      -5.299   3.462  14.427  1.00  0.00    -0.354 N 
ATOM     29  H1  UNL     1      -6.218   3.423  13.985  1.00  0.00     0.162 HD
BRANCH  28  30
HETATM   30  C2  UNL     1      -5.131   2.830  15.715  1.00  0.00     0.149 C 
BRANCH  30  31
HETATM   31  C3  UNL     1      -4.411   1.518  15.528  1.00  0.00     0.183 C 
BRANCH  31  32
HETATM   32  O2  UNL     1      -3.231   1.546  16.275  1.00  0.00    -0.399 OA
ATOM     33  H2  UNL     1      -3.289   0.892  16.961  1.00  0.00     0.209 HD
ENDBRANCH  31  32
ENDBRANCH  30  31
ENDBRANCH  28  30
ENDBRANCH   1  26
BRANCH   9  34
HETATM   34  O3  UNL     1      -7.252   8.151  12.241  1.00  0.00    -0.268 OA
ATOM     35  H3  UNL     1      -7.351   7.697  13.069  1.00  0.00     0.246 HD
ENDBRANCH   9  34
BRANCH   8  36
HETATM   36  C7  UNL     1      -6.960   9.207   9.316  1.00  0.00     0.012 A 
HETATM   37  C8  UNL     1      -8.073   9.031   8.511  1.00  0.00     0.015 A 
HETATM   38  C9  UNL     1      -8.708  10.066   7.895  1.00  0.00     0.001 A 
HETATM   39  C10 UNL     1      -8.260  11.355   8.049  1.00  0.00     0.000 A 
HETATM   40  C11 UNL     1      -7.156  11.551   8.844  1.00  0.00     0.001 A 
HETATM   41  C12 UNL     1      -6.511  10.483   9.473  1.00  0.00     0.015 A 
ENDBRANCH   8  36
TORSDOF 6
ENDMDL
