MODEL 1
REMARK VINA RESULT: -8.831889837      0.000      0.000
REMARK  6 active torsions:
REMARK  status: ('A' for Active; 'I' for Inactive)
REMARK    1  A    between atoms: C3_4  and  N1_5 
REMARK       I    between atoms: N1_5  and  C4_7 
REMARK    2  A    between atoms: C4_7  and  C5_9 
REMARK    3  A    between atoms: C5_9  and  C6_10 
REMARK    4  A    between atoms: C12_18  and  C13_19 
REMARK    5  A    between atoms: C13_19  and  C14_20 
REMARK    6  A    between atoms: C14_20  and  C15_21 
REMARK       I    between atoms: C15_21  and  N3_23 
ROOT
HETATM    1  C1  UNL     1      -1.886   0.726  11.535  1.00  0.00     0.058 C 
HETATM    2  C2  UNL     1      -2.871   1.794  11.935  1.00  0.00     0.005 A 
HETATM    3  S1  UNL     1      -4.431   1.641  12.612  1.00  0.00    -0.057 SA
HETATM    4  C3  UNL     1      -4.806   3.298  12.763  1.00  0.00     0.151 A 
HETATM    5  N2  UNL     1      -3.720   3.899  12.287  1.00  0.00    -0.339 N 
ATOM      6  H2  UNL     1      -3.661   4.917  12.252  1.00  0.00     0.168 HD
HETATM    7  C12 UNL     1      -2.721   3.152  11.860  1.00  0.00     0.024 A 
ENDROOT
BRANCH   7   8
HETATM    8  C13 UNL     1      -1.442   3.751  11.340  1.00  0.00     0.067 C 
BRANCH   8   9
HETATM    9  C14 UNL     1      -1.357   3.964   9.902  1.00  0.00     0.109 C 
BRANCH   9  10
HETATM   10  C15 UNL     1      -2.610   4.318   9.170  1.00  0.00     0.224 C 
HETATM   11  O2  UNL     1      -3.306   3.483   8.539  1.00  0.00    -0.273 OA
HETATM   12  N3  UNL     1      -2.970   5.651   9.225  1.00  0.00    -0.306 N 
HETATM   13  C16 UNL     1      -3.913   6.403   8.980  1.00  0.00     0.168 C 
ATOM     14  H3  UNL     1      -2.191   6.196   9.595  1.00  0.00     0.171 HD
HETATM   15  N4  UNL     1      -5.159   5.996   8.454  1.00  0.00    -0.277 N 
HETATM   16  S2  UNL     1      -3.740   8.182   9.347  1.00  0.00    -0.032 SA
HETATM   17  N5  UNL     1      -6.279   6.780   8.273  1.00  0.00    -0.292 N 
ATOM     18  H4  UNL     1      -5.240   5.017   8.178  1.00  0.00     0.189 HD
HETATM   19  C17 UNL     1      -7.463   6.107   7.696  1.00  0.00     0.178 C 
HETATM   20  C18 UNL     1      -6.349   8.147   8.594  1.00  0.00     0.085 A 
HETATM   21  C19 UNL     1      -7.438   8.986   8.506  1.00  0.00     0.051 A 
HETATM   22  C22 UNL     1      -5.340   8.908   9.119  1.00  0.00     0.107 A 
HETATM   23  C20 UNL     1      -7.056  10.218   8.979  1.00  0.00     0.093 A 
HETATM   24  N6  UNL     1      -5.776  10.166   9.353  1.00  0.00    -0.354 N 
HETATM   25  C21 UNL     1      -5.007  11.264   9.909  1.00  0.00     0.156 C 
ENDBRANCH   9  10
ENDBRANCH   8   9
ENDBRANCH   7   8
BRANCH   4  26
HETATM   26  N1  UNL     1      -5.916   3.729  13.257  1.00  0.00    -0.307 N 
HETATM   27  C4  UNL     1      -6.110   4.683  14.247  1.00  0.00     0.227 C 
HETATM   28  O1  UNL     1      -6.865   5.665  14.035  1.00  0.00    -0.273 OA
ATOM     29  H1  UNL     1      -6.763   3.316  12.869  1.00  0.00     0.171 HD
BRANCH  27  30
HETATM   30  C5  UNL     1      -5.459   4.609  15.597  1.00  0.00     0.141 C 
BRANCH  30  31
HETATM   31  C6  UNL     1      -5.678   3.331  16.272  1.00  0.00    -0.050 A 
HETATM   32  C7  UNL     1      -6.872   2.977  16.829  1.00  0.00     0.007 A 
HETATM   33  C8  UNL     1      -7.056   1.745  17.469  1.00  0.00     0.001 A 
HETATM   34  C9  UNL     1      -5.995   0.857  17.541  1.00  0.00     0.000 A 
HETATM   35  C10 UNL     1      -4.788   1.199  16.984  1.00  0.00     0.001 A 
HETATM   36  C11 UNL     1      -4.619   2.431  16.349  1.00  0.00     0.007 A 
ENDBRANCH  30  31
ENDBRANCH  27  30
ENDBRANCH   4  26
TORSDOF 6
ENDMDL
MODEL 2
REMARK VINA RESULT: -8.730832856      1.570      1.862
REMARK  6 active torsions:
REMARK  status: ('A' for Active; 'I' for Inactive)
REMARK    1  A    between atoms: C3_4  and  N1_5 
REMARK       I    between atoms: N1_5  and  C4_7 
REMARK    2  A    between atoms: C4_7  and  C5_9 
REMARK    3  A    between atoms: C5_9  and  C6_10 
REMARK    4  A    between atoms: C12_18  and  C13_19 
REMARK    5  A    between atoms: C13_19  and  C14_20 
REMARK    6  A    between atoms: C14_20  and  C15_21 
REMARK       I    between atoms: C15_21  and  N3_23 
ROOT
HETATM    1  C1  UNL     1      -2.592  -0.755  11.530  1.00  0.00     0.058 C 
HETATM    2  C2  UNL     1      -3.082   0.627  11.876  1.00  0.00     0.005 A 
HETATM    3  S1  UNL     1      -4.373   1.107  12.885  1.00  0.00    -0.057 SA
HETATM    4  C3  UNL     1      -4.201   2.797  12.731  1.00  0.00     0.151 A 
HETATM    5  N2  UNL     1      -3.162   2.923  11.910  1.00  0.00    -0.339 N 
ATOM      6  H2  UNL     1      -2.826   3.845  11.633  1.00  0.00     0.168 HD
HETATM    7  C12 UNL     1      -2.576   1.830  11.463  1.00  0.00     0.024 A 
ENDROOT
BRANCH   7   8
HETATM    8  C13 UNL     1      -1.372   1.882  10.561  1.00  0.00     0.067 C 
BRANCH   8   9
HETATM    9  C14 UNL     1      -0.860   3.206  10.232  1.00  0.00     0.109 C 
BRANCH   9  10
HETATM   10  C15 UNL     1      -1.626   4.030   9.250  1.00  0.00     0.224 C 
HETATM   11  O2  UNL     1      -1.419   4.004   8.011  1.00  0.00    -0.273 OA
HETATM   12  N3  UNL     1      -2.599   4.846   9.794  1.00  0.00    -0.306 N 
HETATM   13  C16 UNL     1      -3.562   5.541   9.470  1.00  0.00     0.168 C 
ATOM     14  H3  UNL     1      -2.478   4.887  10.806  1.00  0.00     0.171 HD
HETATM   15  N4  UNL     1      -4.024   5.721   8.147  1.00  0.00    -0.277 N 
HETATM   16  S2  UNL     1      -4.518   6.386  10.776  1.00  0.00    -0.032 SA
HETATM   17  N5  UNL     1      -5.163   6.391   7.751  1.00  0.00    -0.292 N 
ATOM     18  H4  UNL     1      -3.455   5.312   7.406  1.00  0.00     0.189 HD
HETATM   19  C17 UNL     1      -5.419   6.439   6.295  1.00  0.00     0.178 C 
HETATM   20  C18 UNL     1      -6.062   7.016   8.633  1.00  0.00     0.085 A 
HETATM   21  C19 UNL     1      -7.248   7.648   8.330  1.00  0.00     0.051 A 
HETATM   22  C22 UNL     1      -5.955   7.069   9.996  1.00  0.00     0.107 A 
HETATM   23  C20 UNL     1      -7.816   8.058   9.511  1.00  0.00     0.093 A 
HETATM   24  N6  UNL     1      -7.025   7.701  10.525  1.00  0.00    -0.354 N 
HETATM   25  C21 UNL     1      -7.280   7.950  11.932  1.00  0.00     0.156 C 
ENDBRANCH   9  10
ENDBRANCH   8   9
ENDBRANCH   7   8
BRANCH   4  26
HETATM   26  N1  UNL     1      -4.962   3.643  13.337  1.00  0.00    -0.307 N 
HETATM   27  C4  UNL     1      -4.671   4.429  14.444  1.00  0.00     0.227 C 
HETATM   28  O1  UNL     1      -4.848   5.673  14.397  1.00  0.00    -0.273 OA
ATOM     29  H1  UNL     1      -5.900   3.749  12.953  1.00  0.00     0.171 HD
BRANCH  27  30
HETATM   30  C5  UNL     1      -4.149   3.869  15.735  1.00  0.00     0.141 C 
BRANCH  30  31
HETATM   31  C6  UNL     1      -5.058   2.903  16.351  1.00  0.00    -0.050 A 
HETATM   32  C7  UNL     1      -4.712   1.606  16.596  1.00  0.00     0.007 A 
HETATM   33  C8  UNL     1      -5.601   0.701  17.188  1.00  0.00     0.001 A 
HETATM   34  C9  UNL     1      -6.871   1.132  17.538  1.00  0.00     0.000 A 
HETATM   35  C10 UNL     1      -7.232   2.435  17.298  1.00  0.00     0.001 A 
HETATM   36  C11 UNL     1      -6.335   3.327  16.707  1.00  0.00     0.007 A 
ENDBRANCH  30  31
ENDBRANCH  27  30
ENDBRANCH   4  26
TORSDOF 6
ENDMDL
MODEL 3
REMARK VINA RESULT: -8.730386461      2.465      3.627
REMARK  6 active torsions:
REMARK  status: ('A' for Active; 'I' for Inactive)
REMARK    1  A    between atoms: C3_4  and  N1_5 
REMARK       I    between atoms: N1_5  and  C4_7 
REMARK    2  A    between atoms: C4_7  and  C5_9 
REMARK    3  A    between atoms: C5_9  and  C6_10 
REMARK    4  A    between atoms: C12_18  and  C13_19 
REMARK    5  A    between atoms: C13_19  and  C14_20 
REMARK    6  A    between atoms: C14_20  and  C15_21 
REMARK       I    between atoms: C15_21  and  N3_23 
ROOT
HETATM    1  C1  UNL     1      -4.336   4.668   9.884  1.00  0.00     0.058 C 
HETATM    2  C2  UNL     1      -3.933   3.794  11.044  1.00  0.00     0.005 A 
HETATM    3  S1  UNL     1      -4.528   2.265  11.517  1.00  0.00    -0.057 SA
HETATM    4  C3  UNL     1      -3.524   2.010  12.871  1.00  0.00     0.151 A 
HETATM    5  N2  UNL     1      -2.776   3.109  12.906  1.00  0.00    -0.339 N 
ATOM      6  H2  UNL     1      -2.069   3.235  13.631  1.00  0.00     0.168 HD
HETATM    7  C12 UNL     1      -2.968   4.031  11.984  1.00  0.00     0.024 A 
ENDROOT
BRANCH   7   8
HETATM    8  C13 UNL     1      -2.139   5.287  11.928  1.00  0.00     0.067 C 
BRANCH   8   9
HETATM    9  C14 UNL     1      -2.338   6.249  13.003  1.00  0.00     0.109 C 
BRANCH   9  10
HETATM   10  C15 UNL     1      -2.825   7.614  12.643  1.00  0.00     0.224 C 
HETATM   11  O2  UNL     1      -2.213   8.671  12.938  1.00  0.00    -0.273 OA
HETATM   12  N3  UNL     1      -4.019   7.651  11.948  1.00  0.00    -0.306 N 
HETATM   13  C16 UNL     1      -4.730   8.419  11.300  1.00  0.00     0.168 C 
ATOM     14  H3  UNL     1      -4.460   6.732  11.985  1.00  0.00     0.171 HD
HETATM   15  N4  UNL     1      -4.436   9.776  11.043  1.00  0.00    -0.277 N 
HETATM   16  S2  UNL     1      -6.274   7.780  10.564  1.00  0.00    -0.032 SA
HETATM   17  N5  UNL     1      -5.140  10.638  10.228  1.00  0.00    -0.292 N 
ATOM     18  H4  UNL     1      -3.614  10.160  11.509  1.00  0.00     0.189 HD
HETATM   19  C17 UNL     1      -4.620  12.019  10.133  1.00  0.00     0.178 C 
HETATM   20  C18 UNL     1      -6.296  10.282   9.511  1.00  0.00     0.085 A 
HETATM   21  C19 UNL     1      -7.020  11.056   8.631  1.00  0.00     0.051 A 
HETATM   22  C22 UNL     1      -6.902   9.056   9.507  1.00  0.00     0.107 A 
HETATM   23  C20 UNL     1      -8.033  10.277   8.126  1.00  0.00     0.093 A 
HETATM   24  N6  UNL     1      -7.956   9.058   8.662  1.00  0.00    -0.354 N 
HETATM   25  C21 UNL     1      -8.846   7.946   8.379  1.00  0.00     0.156 C 
ENDBRANCH   9  10
ENDBRANCH   8   9
ENDBRANCH   7   8
BRANCH   4  26
HETATM   26  N1  UNL     1      -3.574   0.946  13.597  1.00  0.00    -0.307 N 
HETATM   27  C4  UNL     1      -4.117   0.788  14.865  1.00  0.00     0.227 C 
HETATM   28  O1  UNL     1      -4.965  -0.115  15.079  1.00  0.00    -0.273 OA
ATOM     29  H1  UNL     1      -3.159   0.110  13.187  1.00  0.00     0.171 HD
BRANCH  27  30
HETATM   30  C5  UNL     1      -3.741   1.652  16.034  1.00  0.00     0.141 C 
BRANCH  30  31
HETATM   31  C6  UNL     1      -4.792   2.594  16.414  1.00  0.00    -0.050 A 
HETATM   32  C7  UNL     1      -5.034   3.754  15.738  1.00  0.00     0.007 A 
HETATM   33  C8  UNL     1      -6.049   4.639  16.123  1.00  0.00     0.001 A 
HETATM   34  C9  UNL     1      -6.832   4.330  17.224  1.00  0.00     0.000 A 
HETATM   35  C10 UNL     1      -6.600   3.166  17.914  1.00  0.00     0.001 A 
HETATM   36  C11 UNL     1      -5.585   2.293  17.518  1.00  0.00     0.007 A 
ENDBRANCH  30  31
ENDBRANCH  27  30
ENDBRANCH   4  26
TORSDOF 6
ENDMDL
MODEL 4
REMARK VINA RESULT: -8.662298789      1.747      2.610
REMARK  6 active torsions:
REMARK  status: ('A' for Active; 'I' for Inactive)
REMARK    1  A    between atoms: C3_4  and  N1_5 
REMARK       I    between atoms: N1_5  and  C4_7 
REMARK    2  A    between atoms: C4_7  and  C5_9 
REMARK    3  A    between atoms: C5_9  and  C6_10 
REMARK    4  A    between atoms: C12_18  and  C13_19 
REMARK    5  A    between atoms: C13_19  and  C14_20 
REMARK    6  A    between atoms: C14_20  and  C15_21 
REMARK       I    between atoms: C15_21  and  N3_23 
ROOT
HETATM    1  C1  UNL     1      -2.992   0.107  10.097  1.00  0.00     0.058 C 
HETATM    2  C2  UNL     1      -3.300   0.436  11.535  1.00  0.00     0.005 A 
HETATM    3  S1  UNL     1      -4.161  -0.466  12.701  1.00  0.00    -0.057 SA
HETATM    4  C3  UNL     1      -4.008   0.607  14.017  1.00  0.00     0.151 A 
HETATM    5  N2  UNL     1      -3.305   1.615  13.507  1.00  0.00    -0.339 N 
ATOM      6  H2  UNL     1      -3.059   2.421  14.081  1.00  0.00     0.168 HD
HETATM    7  C12 UNL     1      -2.933   1.548  12.244  1.00  0.00     0.024 A 
ENDROOT
BRANCH   7   8
HETATM    8  C13 UNL     1      -2.104   2.626  11.598  1.00  0.00     0.067 C 
BRANCH   8   9
HETATM    9  C14 UNL     1      -2.677   3.965  11.578  1.00  0.00     0.109 C 
BRANCH   9  10
HETATM   10  C15 UNL     1      -3.606   4.314  10.463  1.00  0.00     0.224 C 
HETATM   11  O2  UNL     1      -4.076   3.470   9.660  1.00  0.00    -0.273 OA
HETATM   12  N3  UNL     1      -3.929   5.654  10.359  1.00  0.00    -0.306 N 
HETATM   13  C16 UNL     1      -4.717   6.412   9.794  1.00  0.00     0.168 C 
ATOM     14  H3  UNL     1      -3.302   6.199  10.952  1.00  0.00     0.171 HD
HETATM   15  N4  UNL     1      -5.729   6.007   8.896  1.00  0.00    -0.277 N 
HETATM   16  S2  UNL     1      -4.628   8.200  10.150  1.00  0.00    -0.032 SA
HETATM   17  N5  UNL     1      -6.705   6.803   8.333  1.00  0.00    -0.292 N 
ATOM     18  H4  UNL     1      -5.740   5.021   8.636  1.00  0.00     0.189 HD
HETATM   19  C17 UNL     1      -7.647   6.129   7.414  1.00  0.00     0.178 C 
HETATM   20  C18 UNL     1      -6.840   8.181   8.575  1.00  0.00     0.085 A 
HETATM   21  C19 UNL     1      -7.816   9.034   8.108  1.00  0.00     0.051 A 
HETATM   22  C22 UNL     1      -6.042   8.944   9.384  1.00  0.00     0.107 A 
HETATM   23  C20 UNL     1      -7.579  10.275   8.647  1.00  0.00     0.093 A 
HETATM   24  N6  UNL     1      -6.497  10.215   9.426  1.00  0.00    -0.354 N 
HETATM   25  C21 UNL     1      -5.927  11.319  10.176  1.00  0.00     0.156 C 
ENDBRANCH   9  10
ENDBRANCH   8   9
ENDBRANCH   7   8
BRANCH   4  26
HETATM   26  N1  UNL     1      -4.497   0.367  15.186  1.00  0.00    -0.307 N 
HETATM   27  C4  UNL     1      -5.169   1.234  16.036  1.00  0.00     0.227 C 
HETATM   28  O1  UNL     1      -6.298   0.921  16.491  1.00  0.00    -0.273 OA
ATOM     29  H1  UNL     1      -4.373  -0.584  15.530  1.00  0.00     0.171 HD
BRANCH  27  30
HETATM   30  C5  UNL     1      -4.613   2.560  16.466  1.00  0.00     0.141 C 
BRANCH  30  31
HETATM   31  C6  UNL     1      -4.880   3.633  15.508  1.00  0.00    -0.050 A 
HETATM   32  C7  UNL     1      -6.042   3.725  14.798  1.00  0.00     0.007 A 
HETATM   33  C8  UNL     1      -6.273   4.763  13.887  1.00  0.00     0.001 A 
HETATM   34  C9  UNL     1      -5.295   5.727  13.699  1.00  0.00     0.000 A 
HETATM   35  C10 UNL     1      -4.121   5.646  14.407  1.00  0.00     0.001 A 
HETATM   36  C11 UNL     1      -3.904   4.606  15.312  1.00  0.00     0.007 A 
ENDBRANCH  30  31
ENDBRANCH  27  30
ENDBRANCH   4  26
TORSDOF 6
ENDMDL
MODEL 5
REMARK VINA RESULT: -8.596000377      2.757      5.760
REMARK  6 active torsions:
REMARK  status: ('A' for Active; 'I' for Inactive)
REMARK    1  A    between atoms: C3_4  and  N1_5 
REMARK       I    between atoms: N1_5  and  C4_7 
REMARK    2  A    between atoms: C4_7  and  C5_9 
REMARK    3  A    between atoms: C5_9  and  C6_10 
REMARK    4  A    between atoms: C12_18  and  C13_19 
REMARK    5  A    between atoms: C13_19  and  C14_20 
REMARK    6  A    between atoms: C14_20  and  C15_21 
REMARK       I    between atoms: C15_21  and  N3_23 
ROOT
HETATM    1  C1  UNL     1      -6.245   2.905  16.250  1.00  0.00     0.058 C 
HETATM    2  C2  UNL     1      -5.041   3.488  15.557  1.00  0.00     0.005 A 
HETATM    3  S1  UNL     1      -4.458   5.093  15.545  1.00  0.00    -0.057 SA
HETATM    4  C3  UNL     1      -3.083   4.857  14.565  1.00  0.00     0.151 A 
HETATM    5  N2  UNL     1      -3.129   3.557  14.285  1.00  0.00    -0.339 N 
ATOM      6  H2  UNL     1      -2.414   3.125  13.699  1.00  0.00     0.168 HD
HETATM    7  C12 UNL     1      -4.118   2.841  14.781  1.00  0.00     0.024 A 
ENDROOT
BRANCH   7   8
HETATM    8  C13 UNL     1      -4.224   1.358  14.545  1.00  0.00     0.067 C 
BRANCH   8   9
HETATM    9  C14 UNL     1      -4.152   0.911  13.160  1.00  0.00     0.109 C 
BRANCH   9  10
HETATM   10  C15 UNL     1      -4.548   1.874  12.090  1.00  0.00     0.224 C 
HETATM   11  O2  UNL     1      -5.695   2.379  11.998  1.00  0.00    -0.273 OA
HETATM   12  N3  UNL     1      -3.556   2.188  11.180  1.00  0.00    -0.306 N 
HETATM   13  C16 UNL     1      -3.293   2.987  10.283  1.00  0.00     0.168 C 
ATOM     14  H3  UNL     1      -2.779   1.536  11.291  1.00  0.00     0.171 HD
HETATM   15  N4  UNL     1      -4.140   4.033   9.853  1.00  0.00    -0.277 N 
HETATM   16  S2  UNL     1      -1.676   2.869   9.444  1.00  0.00    -0.032 SA
HETATM   17  N5  UNL     1      -3.841   5.019   8.937  1.00  0.00    -0.292 N 
ATOM     18  H4  UNL     1      -5.073   4.062  10.265  1.00  0.00     0.189 HD
HETATM   19  C17 UNL     1      -4.913   5.999   8.659  1.00  0.00     0.178 C 
HETATM   20  C18 UNL     1      -2.608   5.133   8.270  1.00  0.00     0.085 A 
HETATM   21  C19 UNL     1      -2.205   6.117   7.394  1.00  0.00     0.051 A 
HETATM   22  C22 UNL     1      -1.531   4.301   8.411  1.00  0.00     0.107 A 
HETATM   23  C20 UNL     1      -0.906   5.850   7.036  1.00  0.00     0.093 A 
HETATM   24  N6  UNL     1      -0.498   4.743   7.660  1.00  0.00    -0.354 N 
HETATM   25  C21 UNL     1       0.816   4.137   7.546  1.00  0.00     0.156 C 
ENDBRANCH   9  10
ENDBRANCH   8   9
ENDBRANCH   7   8
BRANCH   4  26
HETATM   26  N1  UNL     1      -2.264   5.804  14.256  1.00  0.00    -0.307 N 
HETATM   27  C4  UNL     1      -2.484   6.906  13.442  1.00  0.00     0.227 C 
HETATM   28  O1  UNL     1      -2.245   8.063  13.871  1.00  0.00    -0.273 OA
ATOM     29  H1  UNL     1      -1.332   5.733  14.663  1.00  0.00     0.171 HD
BRANCH  27  30
HETATM   30  C5  UNL     1      -3.000   6.800  12.036  1.00  0.00     0.141 C 
BRANCH  30  31
HETATM   31  C6  UNL     1      -4.370   7.289  11.888  1.00  0.00    -0.050 A 
HETATM   32  C7  UNL     1      -5.459   6.605  12.344  1.00  0.00     0.007 A 
HETATM   33  C8  UNL     1      -6.761   7.097  12.189  1.00  0.00     0.001 A 
HETATM   34  C9  UNL     1      -6.952   8.315  11.556  1.00  0.00     0.000 A 
HETATM   35  C10 UNL     1      -5.865   9.014  11.094  1.00  0.00     0.001 A 
HETATM   36  C11 UNL     1      -4.572   8.512  11.254  1.00  0.00     0.007 A 
ENDBRANCH  30  31
ENDBRANCH  27  30
ENDBRANCH   4  26
TORSDOF 6
ENDMDL
