MODEL 1
REMARK VINA RESULT: -7.821331428      0.000      0.000
REMARK  6 active torsions:
REMARK  status: ('A' for Active; 'I' for Inactive)
REMARK    1  A    between atoms: C2_3  and  N2_4 
REMARK    2  A    between atoms: N2_4  and  C3_6 
REMARK    3  A    between atoms: C3_6  and  N3_8 
REMARK       I    between atoms: N3_8  and  C4_10 
REMARK    4  A    between atoms: C4_10  and  C5_12 
REMARK    5  A    between atoms: N5_23  and  C13_24 
REMARK    6  A    between atoms: C13_24  and  C14_25 
ROOT
HETATM    1  C1  UNL     1       5.527   0.521 -19.921  1.00  0.00     0.180 C 
HETATM    2  N1  UNL     1       5.549   1.137 -18.602  1.00  0.00    -0.276 N 
HETATM    3  C2  UNL     1       4.725   2.150 -18.270  1.00  0.00     0.153 A 
HETATM    4  C9  UNL     1       4.974   2.518 -16.965  1.00  0.00     0.106 A 
HETATM    5  N4  UNL     1       4.652   3.339 -15.947  1.00  0.00    -0.361 N 
ATOM      6  H4  UNL     1       3.936   4.064 -15.978  1.00  0.00     0.165 HD
HETATM    7  C10 UNL     1       5.426   3.050 -14.881  1.00  0.00     0.091 A 
HETATM    8  C11 UNL     1       6.257   2.015 -15.248  1.00  0.00     0.050 A 
HETATM    9  C12 UNL     1       5.996   1.659 -16.555  1.00  0.00     0.083 A 
HETATM   10  N5  UNL     1       6.317   0.836 -17.577  1.00  0.00    -0.282 N 
ENDROOT
BRANCH   3  11
HETATM   11  N2  UNL     1       3.849   2.682 -19.041  1.00  0.00    -0.316 N 
ATOM     12  H2  UNL     1       4.188   3.096 -19.909  1.00  0.00     0.170 HD
BRANCH  11  13
HETATM   13  C3  UNL     1       2.476   2.747 -18.804  1.00  0.00     0.180 C 
HETATM   14  S1  UNL     1       1.712   1.377 -18.295  1.00  0.00    -0.040 SA
BRANCH  13  15
HETATM   15  N3  UNL     1       1.702   3.920 -18.975  1.00  0.00    -0.298 N 
HETATM   16  C4  UNL     1       2.135   5.185 -18.501  1.00  0.00     0.281 C 
HETATM   17  O1  UNL     1       3.228   5.301 -17.907  1.00  0.00    -0.265 OA
ATOM     18  H3  UNL     1       0.805   3.854 -19.456  1.00  0.00     0.171 HD
BRANCH  16  19
HETATM   19  C5  UNL     1       1.329   6.386 -18.684  1.00  0.00     0.142 A 
HETATM   20  C6  UNL     1      -0.019   6.381 -18.997  1.00  0.00     0.045 A 
HETATM   21  C7  UNL     1      -0.415   7.685 -19.085  1.00  0.00     0.027 A 
HETATM   22  C8  UNL     1       0.708   8.440 -18.822  1.00  0.00     0.143 A 
HETATM   23  O2  UNL     1       1.685   7.625 -18.598  1.00  0.00    -0.317 OA
ENDBRANCH  16  19
ENDBRANCH  13  15
ENDBRANCH  11  13
ENDBRANCH   3  11
BRANCH  10  24
HETATM   24  C13 UNL     1       7.315  -0.177 -17.519  1.00  0.00     0.188 C 
BRANCH  24  25
HETATM   25  C14 UNL     1       8.627   0.206 -18.038  1.00  0.00    -0.038 A 
HETATM   26  C15 UNL     1       9.131  -0.406 -19.159  1.00  0.00     0.009 A 
HETATM   27  C16 UNL     1      10.382  -0.060 -19.683  1.00  0.00     0.001 A 
HETATM   28  C17 UNL     1      11.131   0.907 -19.077  1.00  0.00     0.000 A 
HETATM   29  C18 UNL     1      10.641   1.534 -17.950  1.00  0.00     0.001 A 
HETATM   30  C19 UNL     1       9.414   1.184 -17.447  1.00  0.00     0.009 A 
ENDBRANCH  24  25
ENDBRANCH  10  24
TORSDOF 6
ENDMDL
MODEL 2
REMARK VINA RESULT: -7.804481179      3.858      5.855
REMARK  6 active torsions:
REMARK  status: ('A' for Active; 'I' for Inactive)
REMARK    1  A    between atoms: C2_3  and  N2_4 
REMARK    2  A    between atoms: N2_4  and  C3_6 
REMARK    3  A    between atoms: C3_6  and  N3_8 
REMARK       I    between atoms: N3_8  and  C4_10 
REMARK    4  A    between atoms: C4_10  and  C5_12 
REMARK    5  A    between atoms: N5_23  and  C13_24 
REMARK    6  A    between atoms: C13_24  and  C14_25 
ROOT
HETATM    1  C1  UNL     1       4.012   1.016 -15.056  1.00  0.00     0.180 C 
HETATM    2  N1  UNL     1       3.484   1.244 -16.394  1.00  0.00    -0.276 N 
HETATM    3  C2  UNL     1       3.458   2.469 -16.954  1.00  0.00     0.153 A 
HETATM    4  C9  UNL     1       2.911   2.370 -18.216  1.00  0.00     0.106 A 
HETATM    5  N4  UNL     1       2.551   3.019 -19.339  1.00  0.00    -0.361 N 
ATOM      6  H4  UNL     1       2.656   4.021 -19.502  1.00  0.00     0.165 HD
HETATM    7  C10 UNL     1       2.030   2.137 -20.216  1.00  0.00     0.091 A 
HETATM    8  C11 UNL     1       2.068   0.896 -19.618  1.00  0.00     0.050 A 
HETATM    9  C12 UNL     1       2.617   1.012 -18.357  1.00  0.00     0.083 A 
HETATM   10  N5  UNL     1       2.980   0.363 -17.230  1.00  0.00    -0.282 N 
ENDROOT
BRANCH   3  11
HETATM   11  N2  UNL     1       3.879   3.549 -16.406  1.00  0.00    -0.316 N 
ATOM     12  H2  UNL     1       4.872   3.761 -16.503  1.00  0.00     0.170 HD
BRANCH  11  13
HETATM   13  C3  UNL     1       3.106   4.462 -15.688  1.00  0.00     0.180 C 
HETATM   14  S1  UNL     1       3.291   4.514 -14.050  1.00  0.00    -0.040 SA
BRANCH  13  15
HETATM   15  N3  UNL     1       2.174   5.345 -16.285  1.00  0.00    -0.298 N 
HETATM   16  C4  UNL     1       2.415   5.962 -17.539  1.00  0.00     0.281 C 
HETATM   17  O1  UNL     1       3.475   5.740 -18.162  1.00  0.00    -0.265 OA
ATOM     18  H3  UNL     1       1.300   5.543 -15.797  1.00  0.00     0.171 HD
BRANCH  16  19
HETATM   19  C5  UNL     1       1.447   6.869 -18.144  1.00  0.00     0.142 A 
HETATM   20  C6  UNL     1       0.243   6.468 -18.699  1.00  0.00     0.045 A 
HETATM   21  C7  UNL     1      -0.380   7.593 -19.158  1.00  0.00     0.027 A 
HETATM   22  C8  UNL     1       0.467   8.641 -18.866  1.00  0.00     0.143 A 
HETATM   23  O2  UNL     1       1.509   8.151 -18.278  1.00  0.00    -0.317 OA
ENDBRANCH  16  19
ENDBRANCH  13  15
ENDBRANCH  11  13
ENDBRANCH   3  11
BRANCH  10  24
HETATM   24  C13 UNL     1       2.835  -1.037 -17.018  1.00  0.00     0.188 C 
BRANCH  24  25
HETATM   25  C14 UNL     1       1.476  -1.488 -16.726  1.00  0.00    -0.038 A 
HETATM   26  C15 UNL     1       1.025  -1.526 -15.429  1.00  0.00     0.009 A 
HETATM   27  C16 UNL     1      -0.272  -1.949 -15.115  1.00  0.00     0.001 A 
HETATM   28  C17 UNL     1      -1.122  -2.337 -16.112  1.00  0.00     0.000 A 
HETATM   29  C18 UNL     1      -0.687  -2.307 -17.421  1.00  0.00     0.001 A 
HETATM   30  C19 UNL     1       0.586  -1.889 -17.713  1.00  0.00     0.009 A 
ENDBRANCH  24  25
ENDBRANCH  10  24
TORSDOF 6
ENDMDL
MODEL 3
REMARK VINA RESULT: -7.707131970      4.333      8.329
REMARK  6 active torsions:
REMARK  status: ('A' for Active; 'I' for Inactive)
REMARK    1  A    between atoms: C2_3  and  N2_4 
REMARK    2  A    between atoms: N2_4  and  C3_6 
REMARK    3  A    between atoms: C3_6  and  N3_8 
REMARK       I    between atoms: N3_8  and  C4_10 
REMARK    4  A    between atoms: C4_10  and  C5_12 
REMARK    5  A    between atoms: N5_23  and  C13_24 
REMARK    6  A    between atoms: C13_24  and  C14_25 
ROOT
HETATM    1  C1  UNL     1       3.527   2.151 -19.145  1.00  0.00     0.180 C 
HETATM    2  N1  UNL     1       3.102   2.728 -17.877  1.00  0.00    -0.276 N 
HETATM    3  C2  UNL     1       2.857   1.969 -16.791  1.00  0.00     0.153 A 
HETATM    4  C9  UNL     1       2.480   2.789 -15.749  1.00  0.00     0.106 A 
HETATM    5  N4  UNL     1       2.100   2.867 -14.460  1.00  0.00    -0.361 N 
ATOM      6  H4  UNL     1       1.989   2.074 -13.828  1.00  0.00     0.165 HD
HETATM    7  C10 UNL     1       1.887   4.159 -14.136  1.00  0.00     0.091 A 
HETATM    8  C11 UNL     1       2.143   4.910 -15.261  1.00  0.00     0.050 A 
HETATM    9  C12 UNL     1       2.519   4.075 -16.294  1.00  0.00     0.083 A 
HETATM   10  N5  UNL     1       2.902   3.995 -17.587  1.00  0.00    -0.282 N 
ENDROOT
BRANCH   3  11
HETATM   11  N2  UNL     1       2.961   0.692 -16.735  1.00  0.00    -0.316 N 
ATOM     12  H2  UNL     1       3.905   0.304 -16.738  1.00  0.00     0.170 HD
BRANCH  11  13
HETATM   13  C3  UNL     1       1.905  -0.218 -16.670  1.00  0.00     0.180 C 
HETATM   14  S1  UNL     1       0.646  -0.019 -17.716  1.00  0.00    -0.040 SA
BRANCH  13  15
HETATM   15  N3  UNL     1       1.854  -1.300 -15.758  1.00  0.00    -0.298 N 
HETATM   16  C4  UNL     1       2.260  -1.167 -14.405  1.00  0.00     0.281 C 
HETATM   17  O1  UNL     1       2.683  -0.073 -13.974  1.00  0.00    -0.265 OA
ATOM     18  H3  UNL     1       1.514  -2.204 -16.084  1.00  0.00     0.171 HD
BRANCH  16  19
HETATM   19  C5  UNL     1       2.202  -2.288 -13.476  1.00  0.00     0.142 A 
HETATM   20  C6  UNL     1       3.083  -2.476 -12.424  1.00  0.00     0.045 A 
HETATM   21  C7  UNL     1       2.708  -3.625 -11.789  1.00  0.00     0.027 A 
HETATM   22  C8  UNL     1       1.611  -4.098 -12.477  1.00  0.00     0.143 A 
HETATM   23  O2  UNL     1       1.370  -3.275 -13.444  1.00  0.00    -0.317 OA
ENDBRANCH  16  19
ENDBRANCH  13  15
ENDBRANCH  11  13
ENDBRANCH   3  11
BRANCH  10  24
HETATM   24  C13 UNL     1       3.057   5.110 -18.457  1.00  0.00     0.188 C 
BRANCH  24  25
HETATM   25  C14 UNL     1       1.869   5.945 -18.624  1.00  0.00    -0.038 A 
HETATM   26  C15 UNL     1       1.907   7.275 -18.288  1.00  0.00     0.009 A 
HETATM   27  C16 UNL     1       0.788   8.103 -18.440  1.00  0.00     0.001 A 
HETATM   28  C17 UNL     1      -0.377   7.589 -18.933  1.00  0.00     0.000 A 
HETATM   29  C18 UNL     1      -0.435   6.255 -19.277  1.00  0.00     0.001 A 
HETATM   30  C19 UNL     1       0.669   5.456 -19.123  1.00  0.00     0.009 A 
ENDBRANCH  24  25
ENDBRANCH  10  24
TORSDOF 6
ENDMDL
MODEL 4
REMARK VINA RESULT: -7.680974664      3.024      7.840
REMARK  6 active torsions:
REMARK  status: ('A' for Active; 'I' for Inactive)
REMARK    1  A    between atoms: C2_3  and  N2_4 
REMARK    2  A    between atoms: N2_4  and  C3_6 
REMARK    3  A    between atoms: C3_6  and  N3_8 
REMARK       I    between atoms: N3_8  and  C4_10 
REMARK    4  A    between atoms: C4_10  and  C5_12 
REMARK    5  A    between atoms: N5_23  and  C13_24 
REMARK    6  A    between atoms: C13_24  and  C14_25 
ROOT
HETATM    1  C1  UNL     1       2.557   1.964 -18.430  1.00  0.00     0.180 C 
HETATM    2  N1  UNL     1       2.459   2.761 -17.215  1.00  0.00    -0.276 N 
HETATM    3  C2  UNL     1       2.207   2.207 -16.013  1.00  0.00     0.153 A 
HETATM    4  C9  UNL     1       2.179   3.203 -15.060  1.00  0.00     0.106 A 
HETATM    5  N4  UNL     1       2.015   3.511 -13.760  1.00  0.00    -0.361 N 
ATOM      6  H4  UNL     1       1.820   2.842 -13.015  1.00  0.00     0.165 HD
HETATM    7  C10 UNL     1       2.148   4.843 -13.597  1.00  0.00     0.091 A 
HETATM    8  C11 UNL     1       2.404   5.382 -14.839  1.00  0.00     0.050 A 
HETATM    9  C12 UNL     1       2.429   4.374 -15.780  1.00  0.00     0.083 A 
HETATM   10  N5  UNL     1       2.594   4.063 -17.085  1.00  0.00    -0.282 N 
ENDROOT
BRANCH   3  11
HETATM   11  N2  UNL     1       2.027   0.957 -15.791  1.00  0.00    -0.316 N 
ATOM     12  H2  UNL     1       1.082   0.595 -15.925  1.00  0.00     0.170 HD
BRANCH  11  13
HETATM   13  C3  UNL     1       3.001   0.045 -15.384  1.00  0.00     0.180 C 
HETATM   14  S1  UNL     1       2.546  -1.172 -14.368  1.00  0.00    -0.040 SA
BRANCH  13  15
HETATM   15  N3  UNL     1       4.355   0.105 -15.793  1.00  0.00    -0.298 N 
HETATM   16  C4  UNL     1       5.345   0.774 -15.028  1.00  0.00     0.281 C 
HETATM   17  O1  UNL     1       5.044   1.340 -13.956  1.00  0.00    -0.265 OA
ATOM     18  H3  UNL     1       4.628  -0.348 -16.665  1.00  0.00     0.171 HD
BRANCH  16  19
HETATM   19  C5  UNL     1       6.736   0.829 -15.460  1.00  0.00     0.142 A 
HETATM   20  C6  UNL     1       7.156   1.341 -16.675  1.00  0.00     0.045 A 
HETATM   21  C7  UNL     1       8.516   1.219 -16.713  1.00  0.00     0.027 A 
HETATM   22  C8  UNL     1       8.876   0.634 -15.517  1.00  0.00     0.143 A 
HETATM   23  O2  UNL     1       7.797   0.434 -14.837  1.00  0.00    -0.317 OA
ENDBRANCH  16  19
ENDBRANCH  13  15
ENDBRANCH  11  13
ENDBRANCH   3  11
BRANCH  10  24
HETATM   24  C13 UNL     1       2.871   5.006 -18.114  1.00  0.00     0.188 C 
BRANCH  24  25
HETATM   25  C14 UNL     1       1.774   5.914 -18.444  1.00  0.00    -0.038 A 
HETATM   26  C15 UNL     1       1.885   7.256 -18.175  1.00  0.00     0.009 A 
HETATM   27  C16 UNL     1       0.854   8.153 -18.481  1.00  0.00     0.001 A 
HETATM   28  C17 UNL     1      -0.294   7.697 -19.063  1.00  0.00     0.000 A 
HETATM   29  C18 UNL     1      -0.425   6.353 -19.340  1.00  0.00     0.001 A 
HETATM   30  C19 UNL     1       0.593   5.486 -19.034  1.00  0.00     0.009 A 
ENDBRANCH  24  25
ENDBRANCH  10  24
TORSDOF 6
ENDMDL
MODEL 5
REMARK VINA RESULT: -7.624063964      3.551      5.215
REMARK  6 active torsions:
REMARK  status: ('A' for Active; 'I' for Inactive)
REMARK    1  A    between atoms: C2_3  and  N2_4 
REMARK    2  A    between atoms: N2_4  and  C3_6 
REMARK    3  A    between atoms: C3_6  and  N3_8 
REMARK       I    between atoms: N3_8  and  C4_10 
REMARK    4  A    between atoms: C4_10  and  C5_12 
REMARK    5  A    between atoms: N5_23  and  C13_24 
REMARK    6  A    between atoms: C13_24  and  C14_25 
ROOT
HETATM    1  C1  UNL     1       2.815   2.816 -18.791  1.00  0.00     0.180 C 
HETATM    2  N1  UNL     1       3.406   2.091 -17.675  1.00  0.00    -0.276 N 
HETATM    3  C2  UNL     1       3.925   2.722 -16.604  1.00  0.00     0.153 A 
HETATM    4  C9  UNL     1       4.403   1.780 -15.718  1.00  0.00     0.106 A 
HETATM    5  N4  UNL     1       5.005   1.550 -14.536  1.00  0.00    -0.361 N 
ATOM      6  H4  UNL     1       5.310   2.269 -13.880  1.00  0.00     0.165 HD
HETATM    7  C10 UNL     1       5.141   0.221 -14.356  1.00  0.00     0.091 A 
HETATM    8  C11 UNL     1       4.605  -0.399 -15.464  1.00  0.00     0.050 A 
HETATM    9  C12 UNL     1       4.132   0.557 -16.339  1.00  0.00     0.083 A 
HETATM   10  N5  UNL     1       3.527   0.790 -17.525  1.00  0.00    -0.282 N 
ENDROOT
BRANCH   3  11
HETATM   11  N2  UNL     1       3.964   3.993 -16.433  1.00  0.00    -0.316 N 
ATOM     12  H2  UNL     1       4.795   4.479 -16.771  1.00  0.00     0.170 HD
BRANCH  11  13
HETATM   13  C3  UNL     1       2.977   4.772 -15.830  1.00  0.00     0.180 C 
HETATM   14  S1  UNL     1       3.064   5.006 -14.200  1.00  0.00    -0.040 SA
BRANCH  13  15
HETATM   15  N3  UNL     1       1.908   5.373 -16.537  1.00  0.00    -0.298 N 
HETATM   16  C4  UNL     1       2.123   6.229 -17.648  1.00  0.00     0.281 C 
HETATM   17  O1  UNL     1       3.283   6.481 -18.040  1.00  0.00    -0.265 OA
ATOM     18  H3  UNL     1       0.951   5.185 -16.238  1.00  0.00     0.171 HD
BRANCH  16  19
HETATM   19  C5  UNL     1       1.013   6.841 -18.367  1.00  0.00     0.142 A 
HETATM   20  C6  UNL     1       0.894   6.861 -19.747  1.00  0.00     0.045 A 
HETATM   21  C7  UNL     1      -0.267   7.518 -20.039  1.00  0.00     0.027 A 
HETATM   22  C8  UNL     1      -0.814   7.877 -18.825  1.00  0.00     0.143 A 
HETATM   23  O2  UNL     1      -0.021   7.454 -17.897  1.00  0.00    -0.317 OA
ENDBRANCH  16  19
ENDBRANCH  13  15
ENDBRANCH  11  13
ENDBRANCH   3  11
BRANCH  10  24
HETATM   24  C13 UNL     1       3.100  -0.223 -18.429  1.00  0.00     0.188 C 
BRANCH  24  25
HETATM   25  C14 UNL     1       1.866  -0.913 -18.059  1.00  0.00    -0.038 A 
HETATM   26  C15 UNL     1       0.670  -0.238 -18.063  1.00  0.00     0.009 A 
HETATM   27  C16 UNL     1      -0.530  -0.871 -17.718  1.00  0.00     0.001 A 
HETATM   28  C17 UNL     1      -0.529  -2.190 -17.367  1.00  0.00     0.000 A 
HETATM   29  C18 UNL     1       0.663  -2.885 -17.356  1.00  0.00     0.001 A 
HETATM   30  C19 UNL     1       1.831  -2.252 -17.697  1.00  0.00     0.009 A 
ENDBRANCH  24  25
ENDBRANCH  10  24
TORSDOF 6
ENDMDL
