MODEL 1
REMARK VINA RESULT: -8.755806055      0.000      0.000
REMARK  15 active torsions:
REMARK  status: ('A' for Active; 'I' for Inactive)
REMARK    1  A    between atoms: N1_2  and  C4_5 
REMARK    2  A    between atoms: C4_5  and  C5_6 
REMARK    3  A    between atoms: C5_6  and  C6_7 
REMARK    4  A    between atoms: C6_7  and  C7_8 
REMARK    5  A    between atoms: C7_8  and  C8_9 
REMARK    6  A    between atoms: C8_9  and  C9_10 
REMARK       I    between atoms: C9_10  and  N2_12 
REMARK       I    between atoms: C10_14  and  N3_15 
REMARK       I    between atoms: C10_14  and  N7_26 
REMARK    7  A    between atoms: N3_15  and  C11_17 
REMARK    8  A    between atoms: C11_17  and  C12_18 
REMARK    9  A    between atoms: C12_18  and  C13_19 
REMARK   10  A    between atoms: C13_19  and  C14_20 
REMARK   11  A    between atoms: C14_20  and  N4_21 
REMARK   12  A    between atoms: N7_26  and  C16_28 
REMARK   13  A    between atoms: C16_28  and  C17_29 
REMARK   14  A    between atoms: C17_29  and  N8_30 
REMARK       I    between atoms: N8_30  and  C18_32 
REMARK   15  A    between atoms: C18_32  and  C19_34 
ROOT
HETATM    1  C9  UNL     1      31.418  -5.557 -25.210  1.00  0.00     0.235 C 
HETATM    2  O1  UNL     1      32.296  -5.032 -25.931  1.00  0.00    -0.273 OA
HETATM    3  N2  UNL     1      30.459  -6.397 -25.779  1.00  0.00    -0.160 N 
ATOM      4  H2  UNL     1      30.118  -7.150 -25.180  1.00  0.00     0.187 HD
HETATM    5  C10 UNL     1      29.953  -6.351 -26.942  1.00  0.00     0.676 C 
HETATM    6  N3  UNL     1      28.979  -7.352 -27.262  1.00  0.00    -0.226 N 
ATOM      7  H3  UNL     1      29.220  -8.121 -27.887  1.00  0.00     0.177 HD
HETATM    8  N7  UNL     1      30.339  -5.361 -27.866  1.00  0.00    -0.225 N 
ATOM      9  H7  UNL     1      30.563  -4.416 -27.557  1.00  0.00     0.177 HD
ENDROOT
BRANCH   6  10
HETATM   10  C11 UNL     1      27.663  -7.267 -26.700  1.00  0.00     0.138 C 
BRANCH  10  11
HETATM   11  C12 UNL     1      26.938  -6.103 -27.321  1.00  0.00     0.022 C 
BRANCH  11  12
HETATM   12  C13 UNL     1      26.395  -5.223 -26.232  1.00  0.00     0.021 C 
BRANCH  12  13
HETATM   13  C14 UNL     1      27.182  -3.961 -26.038  1.00  0.00     0.122 C 
BRANCH  13  14
HETATM   14  N4  UNL     1      26.927  -3.387 -24.742  1.00  0.00    -0.367 N 
HETATM   15  C15 UNL     1      27.844  -2.714 -24.160  1.00  0.00     0.196 C 
HETATM   16  N5  UNL     1      29.120  -2.521 -24.772  1.00  0.00    -0.067 NA
HETATM   17  N6  UNL     1      27.572  -2.155 -22.875  1.00  0.00    -0.067 NA
ATOM     18  H4  UNL     1      26.021  -3.517 -24.292  1.00  0.00     0.161 HD
ENDBRANCH  13  14
ENDBRANCH  12  13
ENDBRANCH  11  12
ENDBRANCH  10  11
ENDBRANCH   6  10
BRANCH   8  19
HETATM   19  C16 UNL     1      30.407  -5.719 -29.259  1.00  0.00     0.157 C 
BRANCH  19  20
HETATM   20  C17 UNL     1      31.453  -6.800 -29.419  1.00  0.00     0.143 C 
BRANCH  20  21
HETATM   21  N8  UNL     1      30.970  -7.770 -30.372  1.00  0.00    -0.359 N 
HETATM   22  C18 UNL     1      30.622  -9.092 -29.939  1.00  0.00     0.221 C 
HETATM   23  O2  UNL     1      30.759  -9.348 -28.722  1.00  0.00    -0.273 OA
ATOM     24  H8  UNL     1      30.876  -7.514 -31.355  1.00  0.00     0.162 HD
BRANCH  22  25
HETATM   25  C19 UNL     1      30.116 -10.112 -30.912  1.00  0.00     0.078 C 
HETATM   26  C20 UNL     1      30.973 -10.094 -32.142  1.00  0.00     0.018 C 
HETATM   27  C21 UNL     1      30.913 -11.381 -32.925  1.00  0.00    -0.013 C 
HETATM   28  C22 UNL     1      29.458 -11.711 -33.149  1.00  0.00     0.005 C 
HETATM   29  C25 UNL     1      31.397 -12.482 -32.009  1.00  0.00     0.009 C 
HETATM   30  C23 UNL     1      29.084 -12.766 -32.136  1.00  0.00     0.005 C 
HETATM   31  C24 UNL     1      30.191 -12.625 -31.109  1.00  0.00    -0.013 C 
HETATM   32  C26 UNL     1      29.918 -11.425 -30.280  1.00  0.00     0.018 C 
ENDBRANCH  22  25
ENDBRANCH  20  21
ENDBRANCH  19  20
ENDBRANCH   8  19
BRANCH   1  33
HETATM   33  C8  UNL     1      31.391  -5.294 -23.763  1.00  0.00     0.103 C 
BRANCH  33  34
HETATM   34  C7  UNL     1      30.132  -5.939 -23.188  1.00  0.00     0.009 C 
BRANCH  34  35
HETATM   35  C6  UNL     1      30.417  -6.756 -21.964  1.00  0.00     0.002 C 
BRANCH  35  36
HETATM   36  C5  UNL     1      29.277  -7.589 -21.483  1.00  0.00     0.028 C 
BRANCH  36  37
HETATM   37  C4  UNL     1      28.248  -7.952 -22.481  1.00  0.00     0.236 C 
BRANCH  37  38
HETATM   38  N1  UNL     1      28.017  -9.339 -22.727  1.00  0.00    -0.079 N 
HETATM   39  C1  UNL     1      26.634  -9.724 -22.839  1.00  0.00     0.271 C 
HETATM   40  C2  UNL     1      28.628  -9.678 -24.036  1.00  0.00     0.271 C 
HETATM   41  C3  UNL     1      28.639 -10.215 -21.784  1.00  0.00     0.271 C 
ENDBRANCH  37  38
ENDBRANCH  36  37
ENDBRANCH  35  36
ENDBRANCH  34  35
ENDBRANCH  33  34
ENDBRANCH   1  33
TORSDOF 15
ENDMDL
MODEL 2
REMARK VINA RESULT: -8.671641508      3.463      9.177
REMARK  15 active torsions:
REMARK  status: ('A' for Active; 'I' for Inactive)
REMARK    1  A    between atoms: N1_2  and  C4_5 
REMARK    2  A    between atoms: C4_5  and  C5_6 
REMARK    3  A    between atoms: C5_6  and  C6_7 
REMARK    4  A    between atoms: C6_7  and  C7_8 
REMARK    5  A    between atoms: C7_8  and  C8_9 
REMARK    6  A    between atoms: C8_9  and  C9_10 
REMARK       I    between atoms: C9_10  and  N2_12 
REMARK       I    between atoms: C10_14  and  N3_15 
REMARK       I    between atoms: C10_14  and  N7_26 
REMARK    7  A    between atoms: N3_15  and  C11_17 
REMARK    8  A    between atoms: C11_17  and  C12_18 
REMARK    9  A    between atoms: C12_18  and  C13_19 
REMARK   10  A    between atoms: C13_19  and  C14_20 
REMARK   11  A    between atoms: C14_20  and  N4_21 
REMARK   12  A    between atoms: N7_26  and  C16_28 
REMARK   13  A    between atoms: C16_28  and  C17_29 
REMARK   14  A    between atoms: C17_29  and  N8_30 
REMARK       I    between atoms: N8_30  and  C18_32 
REMARK   15  A    between atoms: C18_32  and  C19_34 
ROOT
HETATM    1  C9  UNL     1      29.399  -5.898 -30.597  1.00  0.00     0.235 C 
HETATM    2  O1  UNL     1      28.928  -5.426 -29.537  1.00  0.00    -0.273 OA
HETATM    3  N2  UNL     1      29.089  -7.205 -30.977  1.00  0.00    -0.160 N 
ATOM      4  H2  UNL     1      29.049  -7.375 -31.982  1.00  0.00     0.187 HD
HETATM    5  C10 UNL     1      28.852  -8.210 -30.241  1.00  0.00     0.676 C 
HETATM    6  N3  UNL     1      28.559  -9.445 -30.908  1.00  0.00    -0.226 N 
ATOM      7  H3  UNL     1      27.604  -9.801 -30.929  1.00  0.00     0.177 HD
HETATM    8  N7  UNL     1      28.877  -8.108 -28.836  1.00  0.00    -0.225 N 
ATOM      9  H7  UNL     1      29.544  -7.495 -28.368  1.00  0.00     0.177 HD
ENDROOT
BRANCH   6  10
HETATM   10  C11 UNL     1      29.616 -10.176 -31.544  1.00  0.00     0.138 C 
BRANCH  10  11
HETATM   11  C12 UNL     1      30.224 -11.126 -30.548  1.00  0.00     0.022 C 
BRANCH  11  12
HETATM   12  C13 UNL     1      30.097 -12.530 -31.066  1.00  0.00     0.021 C 
BRANCH  12  13
HETATM   13  C14 UNL     1      29.310 -12.625 -32.340  1.00  0.00     0.122 C 
BRANCH  13  14
HETATM   14  N4  UNL     1      28.060 -13.307 -32.125  1.00  0.00    -0.367 N 
HETATM   15  C15 UNL     1      27.175 -13.305 -33.046  1.00  0.00     0.196 C 
HETATM   16  N5  UNL     1      27.403 -12.636 -34.288  1.00  0.00    -0.067 NA
HETATM   17  N6  UNL     1      25.942 -13.986 -32.813  1.00  0.00    -0.067 NA
ATOM     18  H4  UNL     1      27.883 -13.789 -31.244  1.00  0.00     0.161 HD
ENDBRANCH  13  14
ENDBRANCH  12  13
ENDBRANCH  11  12
ENDBRANCH  10  11
ENDBRANCH   6  10
BRANCH   8  19
HETATM   19  C16 UNL     1      27.935  -8.891 -28.079  1.00  0.00     0.157 C 
BRANCH  19  20
HETATM   20  C17 UNL     1      28.711  -9.873 -27.230  1.00  0.00     0.143 C 
BRANCH  20  21
HETATM   21  N8  UNL     1      28.890  -9.303 -25.916  1.00  0.00    -0.359 N 
HETATM   22  C18 UNL     1      30.129  -8.670 -25.570  1.00  0.00     0.221 C 
HETATM   23  O2  UNL     1      31.020  -8.643 -26.448  1.00  0.00    -0.273 OA
ATOM     24  H8  UNL     1      28.133  -9.351 -25.233  1.00  0.00     0.162 HD
BRANCH  22  25
HETATM   25  C19 UNL     1      30.333  -8.070 -24.213  1.00  0.00     0.078 C 
HETATM   26  C20 UNL     1      31.158  -6.826 -24.337  1.00  0.00     0.018 C 
HETATM   27  C21 UNL     1      30.980  -5.878 -23.178  1.00  0.00    -0.013 C 
HETATM   28  C22 UNL     1      31.180  -6.668 -21.908  1.00  0.00     0.005 C 
HETATM   29  C25 UNL     1      29.519  -5.493 -23.138  1.00  0.00     0.009 C 
HETATM   30  C23 UNL     1      29.808  -6.976 -21.360  1.00  0.00     0.005 C 
HETATM   31  C24 UNL     1      28.927  -6.765 -22.576  1.00  0.00    -0.013 C 
HETATM   32  C26 UNL     1      29.068  -7.939 -23.474  1.00  0.00     0.018 C 
ENDBRANCH  22  25
ENDBRANCH  20  21
ENDBRANCH  19  20
ENDBRANCH   8  19
BRANCH   1  33
HETATM   33  C8  UNL     1      30.278  -5.080 -31.446  1.00  0.00     0.103 C 
BRANCH  33  34
HETATM   34  C7  UNL     1      29.529  -4.767 -32.739  1.00  0.00     0.009 C 
BRANCH  34  35
HETATM   35  C6  UNL     1      28.376  -3.834 -32.519  1.00  0.00     0.002 C 
BRANCH  35  36
HETATM   36  C5  UNL     1      27.028  -4.441 -32.713  1.00  0.00     0.028 C 
BRANCH  36  37
HETATM   37  C4  UNL     1      26.140  -4.485 -31.531  1.00  0.00     0.236 C 
BRANCH  37  38
HETATM   38  N1  UNL     1      25.412  -5.689 -31.286  1.00  0.00    -0.079 N 
HETATM   39  C1  UNL     1      23.991  -5.606 -31.503  1.00  0.00     0.271 C 
HETATM   40  C2  UNL     1      25.899  -6.718 -32.237  1.00  0.00     0.271 C 
HETATM   41  C3  UNL     1      25.623  -6.248 -29.987  1.00  0.00     0.271 C 
ENDBRANCH  37  38
ENDBRANCH  36  37
ENDBRANCH  35  36
ENDBRANCH  34  35
ENDBRANCH  33  34
ENDBRANCH   1  33
TORSDOF 15
ENDMDL
MODEL 3
REMARK VINA RESULT: -8.596599151      2.985      7.828
REMARK  15 active torsions:
REMARK  status: ('A' for Active; 'I' for Inactive)
REMARK    1  A    between atoms: N1_2  and  C4_5 
REMARK    2  A    between atoms: C4_5  and  C5_6 
REMARK    3  A    between atoms: C5_6  and  C6_7 
REMARK    4  A    between atoms: C6_7  and  C7_8 
REMARK    5  A    between atoms: C7_8  and  C8_9 
REMARK    6  A    between atoms: C8_9  and  C9_10 
REMARK       I    between atoms: C9_10  and  N2_12 
REMARK       I    between atoms: C10_14  and  N3_15 
REMARK       I    between atoms: C10_14  and  N7_26 
REMARK    7  A    between atoms: N3_15  and  C11_17 
REMARK    8  A    between atoms: C11_17  and  C12_18 
REMARK    9  A    between atoms: C12_18  and  C13_19 
REMARK   10  A    between atoms: C13_19  and  C14_20 
REMARK   11  A    between atoms: C14_20  and  N4_21 
REMARK   12  A    between atoms: N7_26  and  C16_28 
REMARK   13  A    between atoms: C16_28  and  C17_29 
REMARK   14  A    between atoms: C17_29  and  N8_30 
REMARK       I    between atoms: N8_30  and  C18_32 
REMARK   15  A    between atoms: C18_32  and  C19_34 
ROOT
HETATM    1  C9  UNL     1      28.387  -9.228 -26.277  1.00  0.00     0.235 C 
HETATM    2  O1  UNL     1      27.318  -8.584 -26.177  1.00  0.00    -0.273 OA
HETATM    3  N2  UNL     1      29.123  -9.178 -27.462  1.00  0.00    -0.160 N 
ATOM      4  H2  UNL     1      30.134  -9.264 -27.358  1.00  0.00     0.187 HD
HETATM    5  C10 UNL     1      28.703  -9.040 -28.651  1.00  0.00     0.676 C 
HETATM    6  N3  UNL     1      29.694  -9.023 -29.687  1.00  0.00    -0.226 N 
ATOM      7  H3  UNL     1      29.936  -8.146 -30.150  1.00  0.00     0.177 HD
HETATM    8  N7  UNL     1      27.329  -8.911 -28.929  1.00  0.00    -0.225 N 
ATOM      9  H7  UNL     1      26.634  -9.418 -28.382  1.00  0.00     0.177 HD
ENDROOT
BRANCH   6  10
HETATM   10  C11 UNL     1      30.342 -10.243 -30.070  1.00  0.00     0.138 C 
BRANCH  10  11
HETATM   11  C12 UNL     1      29.660 -10.798 -31.291  1.00  0.00     0.022 C 
BRANCH  11  12
HETATM   12  C13 UNL     1      30.181 -12.181 -31.560  1.00  0.00     0.021 C 
BRANCH  12  13
HETATM   13  C14 UNL     1      29.465 -12.879 -32.678  1.00  0.00     0.122 C 
BRANCH  13  14
HETATM   14  N4  UNL     1      28.141 -13.279 -32.273  1.00  0.00    -0.367 N 
HETATM   15  C15 UNL     1      27.166 -13.145 -33.088  1.00  0.00     0.196 C 
HETATM   16  N5  UNL     1      27.365 -12.605 -34.396  1.00  0.00    -0.067 NA
HETATM   17  N6  UNL     1      25.863 -13.546 -32.667  1.00  0.00    -0.067 NA
ATOM     18  H4  UNL     1      27.984 -13.665 -31.343  1.00  0.00     0.161 HD
ENDBRANCH  13  14
ENDBRANCH  12  13
ENDBRANCH  11  12
ENDBRANCH  10  11
ENDBRANCH   6  10
BRANCH   8  19
HETATM   19  C16 UNL     1      26.931  -8.043 -30.008  1.00  0.00     0.157 C 
BRANCH  19  20
HETATM   20  C17 UNL     1      26.249  -6.831 -29.412  1.00  0.00     0.143 C 
BRANCH  20  21
HETATM   21  N8  UNL     1      26.959  -6.445 -28.217  1.00  0.00    -0.359 N 
HETATM   22  C18 UNL     1      27.275  -5.066 -27.983  1.00  0.00     0.221 C 
HETATM   23  O2  UNL     1      26.911  -4.242 -28.851  1.00  0.00    -0.273 OA
ATOM     24  H8  UNL     1      27.237  -7.154 -27.538  1.00  0.00     0.162 HD
BRANCH  22  25
HETATM   25  C19 UNL     1      28.009  -4.645 -26.747  1.00  0.00     0.078 C 
HETATM   26  C20 UNL     1      27.028  -4.430 -25.635  1.00  0.00     0.018 C 
HETATM   27  C21 UNL     1      27.652  -4.534 -24.266  1.00  0.00    -0.013 C 
HETATM   28  C22 UNL     1      28.864  -3.637 -24.247  1.00  0.00     0.005 C 
HETATM   29  C25 UNL     1      28.229  -5.926 -24.144  1.00  0.00     0.009 C 
HETATM   30  C23 UNL     1      30.071  -4.523 -24.435  1.00  0.00     0.005 C 
HETATM   31  C24 UNL     1      29.453  -5.779 -25.019  1.00  0.00    -0.013 C 
HETATM   32  C26 UNL     1      29.142  -5.534 -26.449  1.00  0.00     0.018 C 
ENDBRANCH  22  25
ENDBRANCH  20  21
ENDBRANCH  19  20
ENDBRANCH   8  19
BRANCH   1  33
HETATM   33  C8  UNL     1      28.873 -10.037 -25.149  1.00  0.00     0.103 C 
BRANCH  33  34
HETATM   34  C7  UNL     1      30.177  -9.419 -24.651  1.00  0.00     0.009 C 
BRANCH  34  35
HETATM   35  C6  UNL     1      30.318  -9.509 -23.161  1.00  0.00     0.002 C 
BRANCH  35  36
HETATM   36  C5  UNL     1      29.037  -9.442 -22.401  1.00  0.00     0.028 C 
BRANCH  36  37
HETATM   37  C4  UNL     1      28.706 -10.605 -21.548  1.00  0.00     0.236 C 
BRANCH  37  38
HETATM   38  N1  UNL     1      27.454 -11.256 -21.764  1.00  0.00    -0.079 N 
HETATM   39  C1  UNL     1      26.416 -10.430 -22.323  1.00  0.00     0.271 C 
HETATM   40  C2  UNL     1      27.669 -12.343 -22.751  1.00  0.00     0.271 C 
HETATM   41  C3  UNL     1      26.921 -11.902 -20.605  1.00  0.00     0.271 C 
ENDBRANCH  37  38
ENDBRANCH  36  37
ENDBRANCH  35  36
ENDBRANCH  34  35
ENDBRANCH  33  34
ENDBRANCH   1  33
TORSDOF 15
ENDMDL
MODEL 4
REMARK VINA RESULT: -8.526606626      2.467      4.054
REMARK  15 active torsions:
REMARK  status: ('A' for Active; 'I' for Inactive)
REMARK    1  A    between atoms: N1_2  and  C4_5 
REMARK    2  A    between atoms: C4_5  and  C5_6 
REMARK    3  A    between atoms: C5_6  and  C6_7 
REMARK    4  A    between atoms: C6_7  and  C7_8 
REMARK    5  A    between atoms: C7_8  and  C8_9 
REMARK    6  A    between atoms: C8_9  and  C9_10 
REMARK       I    between atoms: C9_10  and  N2_12 
REMARK       I    between atoms: C10_14  and  N3_15 
REMARK       I    between atoms: C10_14  and  N7_26 
REMARK    7  A    between atoms: N3_15  and  C11_17 
REMARK    8  A    between atoms: C11_17  and  C12_18 
REMARK    9  A    between atoms: C12_18  and  C13_19 
REMARK   10  A    between atoms: C13_19  and  C14_20 
REMARK   11  A    between atoms: C14_20  and  N4_21 
REMARK   12  A    between atoms: N7_26  and  C16_28 
REMARK   13  A    between atoms: C16_28  and  C17_29 
REMARK   14  A    between atoms: C17_29  and  N8_30 
REMARK       I    between atoms: N8_30  and  C18_32 
REMARK   15  A    between atoms: C18_32  and  C19_34 
ROOT
HETATM    1  C9  UNL     1      31.189  -9.056 -24.603  1.00  0.00     0.235 C 
HETATM    2  O1  UNL     1      32.105  -9.684 -25.179  1.00  0.00    -0.273 OA
HETATM    3  N2  UNL     1      29.937  -8.935 -25.209  1.00  0.00    -0.160 N 
ATOM      4  H2  UNL     1      29.141  -8.888 -24.573  1.00  0.00     0.187 HD
HETATM    5  C10 UNL     1      29.656  -8.876 -26.444  1.00  0.00     0.676 C 
HETATM    6  N3  UNL     1      28.270  -8.752 -26.786  1.00  0.00    -0.226 N 
ATOM      7  H3  UNL     1      27.763  -9.550 -27.170  1.00  0.00     0.177 HD
HETATM    8  N7  UNL     1      30.665  -8.931 -27.425  1.00  0.00    -0.225 N 
ATOM      9  H7  UNL     1      31.576  -8.501 -27.264  1.00  0.00     0.177 HD
ENDROOT
BRANCH   6  10
HETATM   10  C11 UNL     1      27.599  -7.501 -26.586  1.00  0.00     0.138 C 
BRANCH  10  11
HETATM   11  C12 UNL     1      28.541  -6.378 -26.929  1.00  0.00     0.022 C 
BRANCH  11  12
HETATM   12  C13 UNL     1      28.029  -5.103 -26.323  1.00  0.00     0.021 C 
BRANCH  12  13
HETATM   13  C14 UNL     1      28.948  -4.527 -25.287  1.00  0.00     0.122 C 
BRANCH  13  14
HETATM   14  N4  UNL     1      28.204  -4.006 -24.169  1.00  0.00    -0.367 N 
HETATM   15  C15 UNL     1      28.132  -2.742 -23.993  1.00  0.00     0.196 C 
HETATM   16  N5  UNL     1      28.779  -1.834 -24.887  1.00  0.00    -0.067 NA
HETATM   17  N6  UNL     1      27.391  -2.247 -22.878  1.00  0.00    -0.067 NA
ATOM     18  H4  UNL     1      27.737  -4.641 -23.522  1.00  0.00     0.161 HD
ENDBRANCH  13  14
ENDBRANCH  12  13
ENDBRANCH  11  12
ENDBRANCH  10  11
ENDBRANCH   6  10
BRANCH   8  19
HETATM   19  C16 UNL     1      30.377  -9.610 -28.662  1.00  0.00     0.157 C 
BRANCH  19  20
HETATM   20  C17 UNL     1      30.766  -8.699 -29.804  1.00  0.00     0.143 C 
BRANCH  20  21
HETATM   21  N8  UNL     1      29.698  -7.753 -30.021  1.00  0.00    -0.359 N 
HETATM   22  C18 UNL     1      28.633  -8.067 -30.928  1.00  0.00     0.221 C 
HETATM   23  O2  UNL     1      28.683  -9.177 -31.504  1.00  0.00    -0.273 OA
ATOM     24  H8  UNL     1      29.701  -6.859 -29.529  1.00  0.00     0.162 HD
BRANCH  22  25
HETATM   25  C19 UNL     1      27.514  -7.100 -31.165  1.00  0.00     0.078 C 
HETATM   26  C20 UNL     1      26.591  -7.108 -29.985  1.00  0.00     0.018 C 
HETATM   27  C21 UNL     1      25.773  -5.847 -29.863  1.00  0.00    -0.013 C 
HETATM   28  C22 UNL     1      25.120  -5.596 -31.199  1.00  0.00     0.005 C 
HETATM   29  C25 UNL     1      26.745  -4.699 -29.714  1.00  0.00     0.009 C 
HETATM   30  C23 UNL     1      25.935  -4.534 -31.896  1.00  0.00     0.005 C 
HETATM   31  C24 UNL     1      27.246  -4.593 -31.136  1.00  0.00    -0.013 C 
HETATM   32  C26 UNL     1      28.007  -5.782 -31.594  1.00  0.00     0.018 C 
ENDBRANCH  22  25
ENDBRANCH  20  21
ENDBRANCH  19  20
ENDBRANCH   8  19
BRANCH   1  33
HETATM   33  C8  UNL     1      31.424  -8.444 -23.287  1.00  0.00     0.103 C 
BRANCH  33  34
HETATM   34  C7  UNL     1      30.538  -7.206 -23.175  1.00  0.00     0.009 C 
BRANCH  34  35
HETATM   35  C6  UNL     1      29.628  -7.261 -21.984  1.00  0.00     0.002 C 
BRANCH  35  36
HETATM   36  C5  UNL     1      28.966  -8.578 -21.757  1.00  0.00     0.028 C 
BRANCH  36  37
HETATM   37  C4  UNL     1      27.688  -8.813 -22.464  1.00  0.00     0.236 C 
BRANCH  37  38
HETATM   38  N1  UNL     1      27.285 -10.164 -22.684  1.00  0.00    -0.079 N 
HETATM   39  C1  UNL     1      26.295 -10.671 -21.770  1.00  0.00     0.271 C 
HETATM   40  C2  UNL     1      26.660 -10.242 -24.027  1.00  0.00     0.271 C 
HETATM   41  C3  UNL     1      28.365 -11.101 -22.719  1.00  0.00     0.271 C 
ENDBRANCH  37  38
ENDBRANCH  36  37
ENDBRANCH  35  36
ENDBRANCH  34  35
ENDBRANCH  33  34
ENDBRANCH   1  33
TORSDOF 15
ENDMDL
MODEL 5
REMARK VINA RESULT: -8.523048482      2.071      3.181
REMARK  15 active torsions:
REMARK  status: ('A' for Active; 'I' for Inactive)
REMARK    1  A    between atoms: N1_2  and  C4_5 
REMARK    2  A    between atoms: C4_5  and  C5_6 
REMARK    3  A    between atoms: C5_6  and  C6_7 
REMARK    4  A    between atoms: C6_7  and  C7_8 
REMARK    5  A    between atoms: C7_8  and  C8_9 
REMARK    6  A    between atoms: C8_9  and  C9_10 
REMARK       I    between atoms: C9_10  and  N2_12 
REMARK       I    between atoms: C10_14  and  N3_15 
REMARK       I    between atoms: C10_14  and  N7_26 
REMARK    7  A    between atoms: N3_15  and  C11_17 
REMARK    8  A    between atoms: C11_17  and  C12_18 
REMARK    9  A    between atoms: C12_18  and  C13_19 
REMARK   10  A    between atoms: C13_19  and  C14_20 
REMARK   11  A    between atoms: C14_20  and  N4_21 
REMARK   12  A    between atoms: N7_26  and  C16_28 
REMARK   13  A    between atoms: C16_28  and  C17_29 
REMARK   14  A    between atoms: C17_29  and  N8_30 
REMARK       I    between atoms: N8_30  and  C18_32 
REMARK   15  A    between atoms: C18_32  and  C19_34 
ROOT
HETATM    1  C9  UNL     1      30.038  -8.917 -26.244  1.00  0.00     0.235 C 
HETATM    2  O1  UNL     1      30.264  -9.150 -27.453  1.00  0.00    -0.273 OA
HETATM    3  N2  UNL     1      28.812  -8.373 -25.856  1.00  0.00    -0.160 N 
ATOM      4  H2  UNL     1      28.478  -8.651 -24.933  1.00  0.00     0.187 HD
HETATM    5  C10 UNL     1      28.058  -7.580 -26.496  1.00  0.00     0.676 C 
HETATM    6  N3  UNL     1      26.844  -7.179 -25.848  1.00  0.00    -0.226 N 
ATOM      7  H3  UNL     1      25.949  -7.561 -26.155  1.00  0.00     0.177 HD
HETATM    8  N7  UNL     1      28.405  -7.121 -27.781  1.00  0.00    -0.225 N 
ATOM      9  H7  UNL     1      29.377  -6.934 -28.026  1.00  0.00     0.177 HD
ENDROOT
BRANCH   6  10
HETATM   10  C11 UNL     1      26.893  -6.240 -24.766  1.00  0.00     0.138 C 
BRANCH  10  11
HETATM   11  C12 UNL     1      27.440  -4.933 -25.275  1.00  0.00     0.022 C 
BRANCH  11  12
HETATM   12  C13 UNL     1      28.454  -4.410 -24.299  1.00  0.00     0.021 C 
BRANCH  12  13
HETATM   13  C14 UNL     1      29.717  -3.932 -24.953  1.00  0.00     0.122 C 
BRANCH  13  14
HETATM   14  N4  UNL     1      29.927  -4.592 -26.215  1.00  0.00    -0.367 N 
HETATM   15  C15 UNL     1      31.098  -4.996 -26.528  1.00  0.00     0.196 C 
HETATM   16  N5  UNL     1      32.205  -4.805 -25.645  1.00  0.00    -0.067 NA
HETATM   17  N6  UNL     1      31.285  -5.647 -27.784  1.00  0.00    -0.067 NA
ATOM     18  H4  UNL     1      29.147  -4.735 -26.856  1.00  0.00     0.161 HD
ENDBRANCH  13  14
ENDBRANCH  12  13
ENDBRANCH  11  12
ENDBRANCH  10  11
ENDBRANCH   6  10
BRANCH   8  19
HETATM   19  C16 UNL     1      27.350  -6.922 -28.741  1.00  0.00     0.157 C 
BRANCH  19  20
HETATM   20  C17 UNL     1      26.823  -8.278 -29.153  1.00  0.00     0.143 C 
BRANCH  20  21
HETATM   21  N8  UNL     1      27.890  -9.012 -29.789  1.00  0.00    -0.359 N 
HETATM   22  C18 UNL     1      27.923  -9.141 -31.217  1.00  0.00     0.221 C 
HETATM   23  O2  UNL     1      26.998  -8.596 -31.859  1.00  0.00    -0.273 OA
ATOM     24  H8  UNL     1      28.622  -9.441 -29.221  1.00  0.00     0.162 HD
BRANCH  22  25
HETATM   25  C19 UNL     1      29.023  -9.897 -31.895  1.00  0.00     0.078 C 
HETATM   26  C20 UNL     1      29.800 -10.670 -30.874  1.00  0.00     0.018 C 
HETATM   27  C21 UNL     1      30.547 -11.842 -31.459  1.00  0.00    -0.013 C 
HETATM   28  C22 UNL     1      31.344 -11.333 -32.635  1.00  0.00     0.005 C 
HETATM   29  C25 UNL     1      29.520 -12.757 -32.086  1.00  0.00     0.009 C 
HETATM   30  C23 UNL     1      30.576 -11.702 -33.881  1.00  0.00     0.005 C 
HETATM   31  C24 UNL     1      29.187 -11.964 -33.330  1.00  0.00    -0.013 C 
HETATM   32  C26 UNL     1      28.533 -10.661 -33.053  1.00  0.00     0.018 C 
ENDBRANCH  22  25
ENDBRANCH  20  21
ENDBRANCH  19  20
ENDBRANCH   8  19
BRANCH   1  33
HETATM   33  C8  UNL     1      31.060  -9.213 -25.229  1.00  0.00     0.103 C 
BRANCH  33  34
HETATM   34  C7  UNL     1      31.157  -8.012 -24.291  1.00  0.00     0.009 C 
BRANCH  34  35
HETATM   35  C6  UNL     1      30.988  -8.397 -22.852  1.00  0.00     0.002 C 
BRANCH  35  36
HETATM   36  C5  UNL     1      29.578  -8.434 -22.369  1.00  0.00     0.028 C 
BRANCH  36  37
HETATM   37  C4  UNL     1      29.103  -9.710 -21.793  1.00  0.00     0.236 C 
BRANCH  37  38
HETATM   38  N1  UNL     1      28.013 -10.370 -22.438  1.00  0.00    -0.079 N 
HETATM   39  C1  UNL     1      28.369 -11.189 -23.567  1.00  0.00     0.271 C 
HETATM   40  C2  UNL     1      27.395 -11.296 -21.457  1.00  0.00     0.271 C 
HETATM   41  C3  UNL     1      26.957  -9.497 -22.847  1.00  0.00     0.271 C 
ENDBRANCH  37  38
ENDBRANCH  36  37
ENDBRANCH  35  36
ENDBRANCH  34  35
ENDBRANCH  33  34
ENDBRANCH   1  33
TORSDOF 15
ENDMDL
