MODEL 1
REMARK VINA RESULT: -8.314023151      0.000      0.000
REMARK  16 active torsions:
REMARK  status: ('A' for Active; 'I' for Inactive)
REMARK    1  A    between atoms: C2_2  and  N1_3 
REMARK    2  A    between atoms: N1_3  and  C3_6 
REMARK    3  A    between atoms: C3_6  and  C4_7 
REMARK    4  A    between atoms: C4_7  and  C5_8 
REMARK    5  A    between atoms: C5_8  and  N2_9 
REMARK       I    between atoms: N2_9  and  C6_11 
REMARK    6  A    between atoms: C6_11  and  C7_13 
REMARK    7  A    between atoms: C7_13  and  C8_14 
REMARK    8  A    between atoms: C9_15  and  C10_16 
REMARK    9  A    between atoms: C9_15  and  C15_23 
REMARK   10  A    between atoms: C10_16  and  O2_17 
REMARK   11  A    between atoms: C10_16  and  C11_19 
REMARK   12  A    between atoms: C11_19  and  C13_21 
REMARK   13  A    between atoms: C27_35  and  O3_36 
REMARK   14  A    between atoms: C28_38  and  C29_39 
REMARK   15  A    between atoms: C29_39  and  O4_40 
REMARK   16  A    between atoms: C35_47  and  O5_48 
ROOT
HETATM    1  C15 UNL     1      24.679  -6.278  23.374  1.00  0.00    -0.051 C 
HETATM    2  C16 UNL     1      25.606  -6.559  24.483  1.00  0.00    -0.015 C 
HETATM    3  C17 UNL     1      26.875  -7.280  24.305  1.00  0.00     0.020 C 
HETATM    4  C18 UNL     1      24.842  -7.029  25.672  1.00  0.00     0.018 C 
HETATM    5  C19 UNL     1      25.220  -6.392  26.986  1.00  0.00    -0.018 C 
HETATM    6  C20 UNL     1      25.005  -7.380  28.110  1.00  0.00     0.010 C 
HETATM    7  C21 UNL     1      26.678  -5.991  27.003  1.00  0.00     0.005 C 
HETATM    8  C22 UNL     1      26.943  -4.988  25.866  1.00  0.00     0.006 C 
HETATM    9  C23 UNL     1      26.004  -5.056  24.744  1.00  0.00     0.004 C 
HETATM   10  C24 UNL     1      26.501  -4.762  23.371  1.00  0.00     0.016 C 
HETATM   11  C25 UNL     1      27.077  -3.471  23.019  1.00  0.00    -0.008 C 
HETATM   12  C26 UNL     1      28.330  -3.644  22.153  1.00  0.00     0.019 C 
HETATM   13  C27 UNL     1      27.488  -2.496  24.053  1.00  0.00     0.134 C 
HETATM   14  C28 UNL     1      27.641  -1.174  23.286  1.00  0.00     0.047 C 
HETATM   15  C30 UNL     1      26.494  -1.171  22.377  1.00  0.00    -0.035 C 
HETATM   16  C31 UNL     1      25.392  -0.315  23.011  1.00  0.00     0.016 C 
HETATM   17  C32 UNL     1      26.785  -0.471  21.042  1.00  0.00     0.016 C 
HETATM   18  C33 UNL     1      26.138  -2.583  22.189  1.00  0.00     0.007 C 
HETATM   19  C34 UNL     1      24.768  -2.796  22.770  1.00  0.00     0.039 C 
HETATM   20  C35 UNL     1      24.373  -4.146  22.180  1.00  0.00     0.131 C 
HETATM   21  C36 UNL     1      25.316  -5.260  22.490  1.00  0.00     0.012 C 
HETATM   22  C37 UNL     1      25.817  -5.803  21.199  1.00  0.00     0.023 C 
ENDROOT
BRANCH   1  23
HETATM   23  C9  UNL     1      23.916  -7.423  22.761  1.00  0.00    -0.029 C 
HETATM   24  C8  UNL     1      22.795  -7.273  22.115  1.00  0.00    -0.008 C 
BRANCH  24  25
HETATM   25  C7  UNL     1      21.831  -8.031  21.363  1.00  0.00     0.130 C 
BRANCH  25  26
HETATM   26  C6  UNL     1      21.899  -7.761  19.868  1.00  0.00     0.221 C 
HETATM   27  N2  UNL     1      22.807  -6.817  19.340  1.00  0.00    -0.361 N 
ATOM     28  H2  UNL     1      23.429  -6.325  19.983  1.00  0.00     0.162 HD
HETATM   29  O1  UNL     1      21.137  -8.392  19.132  1.00  0.00    -0.273 OA
BRANCH  27  30
HETATM   30  C5  UNL     1      22.890  -6.524  17.957  1.00  0.00     0.124 C 
BRANCH  30  31
HETATM   31  C4  UNL     1      24.248  -6.171  17.412  1.00  0.00     0.047 C 
BRANCH  31  32
HETATM   32  C3  UNL     1      24.141  -4.781  16.770  1.00  0.00     0.234 C 
BRANCH  32  33
HETATM   33  N1  UNL     1      24.231  -3.756  17.784  1.00  0.00    -0.075 N 
ATOM     34  H12 UNL     1      24.291  -4.149  18.723  1.00  0.00     0.277 HD
ATOM     35  H11 UNL     1      23.354  -3.246  17.893  1.00  0.00     0.277 HD
BRANCH  33  36
HETATM   36  C2  UNL     1      25.332  -2.882  17.491  1.00  0.00     0.228 C 
HETATM   37  C1  UNL     1      26.561  -3.176  18.271  1.00  0.00     0.034 C 
ENDBRANCH  33  36
ENDBRANCH  32  33
ENDBRANCH  31  32
ENDBRANCH  30  31
ENDBRANCH  27  30
ENDBRANCH  25  26
ENDBRANCH  24  25
BRANCH  23  38
HETATM   38  C10 UNL     1      24.534  -8.758  22.844  1.00  0.00     0.154 C 
BRANCH  38  39
HETATM   39  O2  UNL     1      24.717  -9.285  21.519  1.00  0.00    -0.391 OA
ATOM     40  H2  UNL     1      24.130 -10.020  21.387  1.00  0.00     0.210 HD
ENDBRANCH  38  39
BRANCH  38  41
HETATM   41  C11 UNL     1      24.009  -9.874  23.618  1.00  0.00     0.014 C 
HETATM   42  C12 UNL     1      23.395 -10.893  22.533  1.00  0.00     0.012 C 
BRANCH  41  43
HETATM   43  C13 UNL     1      25.027 -10.810  24.245  1.00  0.00     0.002 C 
HETATM   44  C14 UNL     1      25.395 -10.463  25.654  1.00  0.00     0.005 C 
ENDBRANCH  41  43
ENDBRANCH  38  41
ENDBRANCH  23  38
ENDBRANCH   1  23
BRANCH  20  45
HETATM   45  O5  UNL     1      24.298  -3.820  20.795  1.00  0.00    -0.394 OA
ATOM     46  H5  UNL     1      25.164  -4.082  20.504  1.00  0.00     0.210 HD
ENDBRANCH  20  45
BRANCH  13  47
HETATM   47  O3  UNL     1      28.837  -2.661  24.465  1.00  0.00    -0.394 OA
ATOM     48  H3  UNL     1      29.129  -1.981  25.058  1.00  0.00     0.210 HD
ENDBRANCH  13  47
BRANCH  14  49
HETATM   49  C29 UNL     1      27.685  -0.003  24.253  1.00  0.00     0.172 C 
BRANCH  49  50
HETATM   50  O4  UNL     1      29.002   0.465  24.268  1.00  0.00    -0.400 OA
ATOM     51  H4  UNL     1      29.045   1.151  24.924  1.00  0.00     0.209 HD
ENDBRANCH  49  50
ENDBRANCH  14  49
TORSDOF 16
ENDMDL
MODEL 2
REMARK VINA RESULT: -8.209250238      2.608      6.764
REMARK  16 active torsions:
REMARK  status: ('A' for Active; 'I' for Inactive)
REMARK    1  A    between atoms: C2_2  and  N1_3 
REMARK    2  A    between atoms: N1_3  and  C3_6 
REMARK    3  A    between atoms: C3_6  and  C4_7 
REMARK    4  A    between atoms: C4_7  and  C5_8 
REMARK    5  A    between atoms: C5_8  and  N2_9 
REMARK       I    between atoms: N2_9  and  C6_11 
REMARK    6  A    between atoms: C6_11  and  C7_13 
REMARK    7  A    between atoms: C7_13  and  C8_14 
REMARK    8  A    between atoms: C9_15  and  C10_16 
REMARK    9  A    between atoms: C9_15  and  C15_23 
REMARK   10  A    between atoms: C10_16  and  O2_17 
REMARK   11  A    between atoms: C10_16  and  C11_19 
REMARK   12  A    between atoms: C11_19  and  C13_21 
REMARK   13  A    between atoms: C27_35  and  O3_36 
REMARK   14  A    between atoms: C28_38  and  C29_39 
REMARK   15  A    between atoms: C29_39  and  O4_40 
REMARK   16  A    between atoms: C35_47  and  O5_48 
ROOT
HETATM    1  C15 UNL     1      25.597  -6.782  22.335  1.00  0.00    -0.051 C 
HETATM    2  C16 UNL     1      24.236  -7.336  22.430  1.00  0.00    -0.015 C 
HETATM    3  C17 UNL     1      23.064  -6.528  22.799  1.00  0.00     0.020 C 
HETATM    4  C18 UNL     1      24.274  -8.646  23.138  1.00  0.00     0.018 C 
HETATM    5  C19 UNL     1      23.485  -9.760  22.496  1.00  0.00    -0.018 C 
HETATM    6  C20 UNL     1      22.969 -10.698  23.563  1.00  0.00     0.010 C 
HETATM    7  C21 UNL     1      22.290  -9.223  21.743  1.00  0.00     0.005 C 
HETATM    8  C22 UNL     1      22.770  -8.254  20.648  1.00  0.00     0.006 C 
HETATM    9  C23 UNL     1      24.077  -7.638  20.892  1.00  0.00     0.004 C 
HETATM   10  C24 UNL     1      24.319  -6.249  20.411  1.00  0.00     0.016 C 
HETATM   11  C25 UNL     1      24.236  -5.895  19.000  1.00  0.00    -0.008 C 
HETATM   12  C26 UNL     1      23.497  -4.566  18.808  1.00  0.00     0.019 C 
HETATM   13  C27 UNL     1      23.612  -6.798  18.008  1.00  0.00     0.134 C 
HETATM   14  C28 UNL     1      24.090  -6.258  16.652  1.00  0.00     0.047 C 
HETATM   15  C30 UNL     1      25.497  -5.931  16.891  1.00  0.00    -0.035 C 
HETATM   16  C31 UNL     1      26.346  -7.097  16.373  1.00  0.00     0.016 C 
HETATM   17  C32 UNL     1      25.982  -4.727  16.071  1.00  0.00     0.016 C 
HETATM   18  C33 UNL     1      25.605  -5.691  18.335  1.00  0.00     0.007 C 
HETATM   19  C34 UNL     1      26.495  -6.755  18.915  1.00  0.00     0.039 C 
HETATM   20  C35 UNL     1      26.830  -6.182  20.289  1.00  0.00     0.131 C 
HETATM   21  C36 UNL     1      25.644  -5.885  21.145  1.00  0.00     0.012 C 
HETATM   22  C37 UNL     1      25.676  -4.435  21.477  1.00  0.00     0.023 C 
ENDROOT
BRANCH   1  23
HETATM   23  C9  UNL     1      26.304  -6.377  23.601  1.00  0.00    -0.029 C 
HETATM   24  C8  UNL     1      25.785  -5.573  24.486  1.00  0.00    -0.008 C 
BRANCH  24  25
HETATM   25  C7  UNL     1      26.062  -5.009  25.779  1.00  0.00     0.130 C 
BRANCH  25  26
HETATM   26  C6  UNL     1      26.921  -3.755  25.709  1.00  0.00     0.221 C 
HETATM   27  N2  UNL     1      27.944  -3.628  24.744  1.00  0.00    -0.361 N 
ATOM     28  H2  UNL     1      28.090  -4.392  24.083  1.00  0.00     0.162 HD
HETATM   29  O1  UNL     1      26.695  -2.855  26.520  1.00  0.00    -0.273 OA
BRANCH  27  30
HETATM   30  C5  UNL     1      28.776  -2.486  24.656  1.00  0.00     0.124 C 
BRANCH  30  31
HETATM   31  C4  UNL     1      28.566  -1.575  23.476  1.00  0.00     0.047 C 
BRANCH  31  32
HETATM   32  C3  UNL     1      27.888  -0.298  23.993  1.00  0.00     0.234 C 
BRANCH  32  33
HETATM   33  N1  UNL     1      26.491  -0.549  24.257  1.00  0.00    -0.075 N 
ATOM     34  H12 UNL     1      26.017   0.273  24.630  1.00  0.00     0.277 HD
ATOM     35  H11 UNL     1      26.356  -1.171  25.055  1.00  0.00     0.277 HD
BRANCH  33  36
HETATM   36  C2  UNL     1      25.856  -1.047  23.069  1.00  0.00     0.228 C 
HETATM   37  C1  UNL     1      24.962  -0.066  22.405  1.00  0.00     0.034 C 
ENDBRANCH  33  36
ENDBRANCH  32  33
ENDBRANCH  31  32
ENDBRANCH  30  31
ENDBRANCH  27  30
ENDBRANCH  25  26
ENDBRANCH  24  25
BRANCH  23  38
HETATM   38  C10 UNL     1      27.612  -6.999  23.865  1.00  0.00     0.154 C 
BRANCH  38  39
HETATM   39  O2  UNL     1      28.651  -6.206  23.267  1.00  0.00    -0.391 OA
ATOM     40  H2  UNL     1      29.465  -6.695  23.271  1.00  0.00     0.210 HD
ENDBRANCH  38  39
BRANCH  38  41
HETATM   41  C11 UNL     1      27.963  -8.375  23.542  1.00  0.00     0.014 C 
HETATM   42  C12 UNL     1      29.566  -8.448  23.675  1.00  0.00     0.012 C 
BRANCH  41  43
HETATM   43  C13 UNL     1      27.610  -9.431  24.573  1.00  0.00     0.002 C 
HETATM   44  C14 UNL     1      27.495  -8.911  25.972  1.00  0.00     0.005 C 
ENDBRANCH  41  43
ENDBRANCH  38  41
ENDBRANCH  23  38
ENDBRANCH   1  23
BRANCH  20  45
HETATM   45  O5  UNL     1      27.581  -5.029  19.920  1.00  0.00    -0.394 OA
ATOM     46  H5  UNL     1      28.241  -5.020  20.604  1.00  0.00     0.210 HD
ENDBRANCH  20  45
BRANCH  13  47
HETATM   47  O3  UNL     1      22.220  -6.570  17.851  1.00  0.00    -0.394 OA
ATOM     48  H3  UNL     1      21.918  -6.721  16.963  1.00  0.00     0.210 HD
ENDBRANCH  13  47
BRANCH  14  49
HETATM   49  C29 UNL     1      23.856  -7.287  15.560  1.00  0.00     0.172 C 
BRANCH  49  50
HETATM   50  O4  UNL     1      22.676  -6.925  14.904  1.00  0.00    -0.400 OA
ATOM     51  H4  UNL     1      21.994  -7.508  15.216  1.00  0.00     0.209 HD
ENDBRANCH  49  50
ENDBRANCH  14  49
TORSDOF 16
ENDMDL
MODEL 3
REMARK VINA RESULT: -7.980682446      3.333      7.488
REMARK  16 active torsions:
REMARK  status: ('A' for Active; 'I' for Inactive)
REMARK    1  A    between atoms: C2_2  and  N1_3 
REMARK    2  A    between atoms: N1_3  and  C3_6 
REMARK    3  A    between atoms: C3_6  and  C4_7 
REMARK    4  A    between atoms: C4_7  and  C5_8 
REMARK    5  A    between atoms: C5_8  and  N2_9 
REMARK       I    between atoms: N2_9  and  C6_11 
REMARK    6  A    between atoms: C6_11  and  C7_13 
REMARK    7  A    between atoms: C7_13  and  C8_14 
REMARK    8  A    between atoms: C9_15  and  C10_16 
REMARK    9  A    between atoms: C9_15  and  C15_23 
REMARK   10  A    between atoms: C10_16  and  O2_17 
REMARK   11  A    between atoms: C10_16  and  C11_19 
REMARK   12  A    between atoms: C11_19  and  C13_21 
REMARK   13  A    between atoms: C27_35  and  O3_36 
REMARK   14  A    between atoms: C28_38  and  C29_39 
REMARK   15  A    between atoms: C29_39  and  O4_40 
REMARK   16  A    between atoms: C35_47  and  O5_48 
ROOT
HETATM    1  C15 UNL     1      25.784  -6.803  22.215  1.00  0.00    -0.051 C 
HETATM    2  C16 UNL     1      24.430  -7.338  22.436  1.00  0.00    -0.015 C 
HETATM    3  C17 UNL     1      23.304  -6.509  22.893  1.00  0.00     0.020 C 
HETATM    4  C18 UNL     1      24.514  -8.638  23.157  1.00  0.00     0.018 C 
HETATM    5  C19 UNL     1      23.659  -9.751  22.603  1.00  0.00    -0.018 C 
HETATM    6  C20 UNL     1      23.226 -10.667  23.724  1.00  0.00     0.010 C 
HETATM    7  C21 UNL     1      22.409  -9.209  21.947  1.00  0.00     0.005 C 
HETATM    8  C22 UNL     1      22.804  -8.261  20.801  1.00  0.00     0.006 C 
HETATM    9  C23 UNL     1      24.134  -7.659  20.922  1.00  0.00     0.004 C 
HETATM   10  C24 UNL     1      24.350  -6.280  20.401  1.00  0.00     0.016 C 
HETATM   11  C25 UNL     1      24.149  -5.944  18.998  1.00  0.00    -0.008 C 
HETATM   12  C26 UNL     1      23.412  -4.608  18.850  1.00  0.00     0.019 C 
HETATM   13  C27 UNL     1      23.432  -6.853  18.077  1.00  0.00     0.134 C 
HETATM   14  C28 UNL     1      23.796  -6.337  16.677  1.00  0.00     0.047 C 
HETATM   15  C30 UNL     1      25.223  -6.025  16.788  1.00  0.00    -0.035 C 
HETATM   16  C31 UNL     1      26.010  -7.209  16.216  1.00  0.00     0.016 C 
HETATM   17  C32 UNL     1      25.649  -4.839  15.912  1.00  0.00     0.016 C 
HETATM   18  C33 UNL     1      25.458  -5.767  18.214  1.00  0.00     0.007 C 
HETATM   19  C34 UNL     1      26.382  -6.834  18.731  1.00  0.00     0.039 C 
HETATM   20  C35 UNL     1      26.842  -6.247  20.062  1.00  0.00     0.131 C 
HETATM   21  C36 UNL     1      25.738  -5.922  21.012  1.00  0.00     0.012 C 
HETATM   22  C37 UNL     1      25.816  -4.469  21.319  1.00  0.00     0.023 C 
ENDROOT
BRANCH   1  23
HETATM   23  C9  UNL     1      26.602  -6.389  23.410  1.00  0.00    -0.029 C 
HETATM   24  C8  UNL     1      26.136  -5.650  24.377  1.00  0.00    -0.008 C 
BRANCH  24  25
HETATM   25  C7  UNL     1      26.522  -5.109  25.652  1.00  0.00     0.130 C 
BRANCH  25  26
HETATM   26  C6  UNL     1      25.423  -5.214  26.698  1.00  0.00     0.221 C 
HETATM   27  N2  UNL     1      25.727  -5.192  28.077  1.00  0.00    -0.361 N 
ATOM     28  H2  UNL     1      26.702  -5.091  28.361  1.00  0.00     0.162 HD
HETATM   29  O1  UNL     1      24.260  -5.320  26.304  1.00  0.00    -0.273 OA
BRANCH  27  30
HETATM   30  C5  UNL     1      24.736  -5.305  29.082  1.00  0.00     0.124 C 
BRANCH  30  31
HETATM   31  C4  UNL     1      24.728  -6.569  29.899  1.00  0.00     0.047 C 
BRANCH  31  32
HETATM   32  C3  UNL     1      24.792  -7.751  28.921  1.00  0.00     0.234 C 
BRANCH  32  33
HETATM   33  N1  UNL     1      26.125  -8.305  28.896  1.00  0.00    -0.075 N 
ATOM     34  H12 UNL     1      26.223  -9.098  29.530  1.00  0.00     0.277 HD
ATOM     35  H11 UNL     1      26.808  -7.684  29.330  1.00  0.00     0.277 HD
BRANCH  33  36
HETATM   36  C2  UNL     1      26.481  -8.644  27.546  1.00  0.00     0.228 C 
HETATM   37  C1  UNL     1      25.318  -8.897  26.659  1.00  0.00     0.034 C 
ENDBRANCH  33  36
ENDBRANCH  32  33
ENDBRANCH  31  32
ENDBRANCH  30  31
ENDBRANCH  27  30
ENDBRANCH  25  26
ENDBRANCH  24  25
BRANCH  23  38
HETATM   38  C10 UNL     1      27.969  -6.929  23.503  1.00  0.00     0.154 C 
BRANCH  38  39
HETATM   39  O2  UNL     1      28.871  -6.079  22.774  1.00  0.00    -0.391 OA
ATOM     40  H2  UNL     1      28.596  -6.030  21.866  1.00  0.00     0.210 HD
ENDBRANCH  38  39
BRANCH  38  41
HETATM   41  C11 UNL     1      28.359  -8.283  23.138  1.00  0.00     0.014 C 
HETATM   42  C12 UNL     1      29.961  -8.323  23.297  1.00  0.00     0.012 C 
BRANCH  41  43
HETATM   43  C13 UNL     1      28.015  -9.384  24.125  1.00  0.00     0.002 C 
HETATM   44  C14 UNL     1      27.555 -10.659  23.489  1.00  0.00     0.005 C 
ENDBRANCH  41  43
ENDBRANCH  38  41
ENDBRANCH  23  38
ENDBRANCH   1  23
BRANCH  20  45
HETATM   45  O5  UNL     1      27.571  -5.108  19.613  1.00  0.00    -0.394 OA
ATOM     46  H5  UNL     1      28.263  -5.073  20.262  1.00  0.00     0.210 HD
ENDBRANCH  20  45
BRANCH  13  47
HETATM   47  O3  UNL     1      22.034  -6.609  18.037  1.00  0.00    -0.394 OA
ATOM     48  H3  UNL     1      21.712  -6.441  17.160  1.00  0.00     0.210 HD
ENDBRANCH  13  47
BRANCH  14  49
HETATM   49  C29 UNL     1      23.456  -7.378  15.624  1.00  0.00     0.172 C 
BRANCH  49  50
HETATM   50  O4  UNL     1      22.098  -7.231  15.328  1.00  0.00    -0.400 OA
ATOM     51  H4  UNL     1      21.623  -7.817  15.906  1.00  0.00     0.209 HD
ENDBRANCH  49  50
ENDBRANCH  14  49
TORSDOF 16
ENDMDL
MODEL 4
REMARK VINA RESULT: -7.929837248      2.442      6.702
REMARK  16 active torsions:
REMARK  status: ('A' for Active; 'I' for Inactive)
REMARK    1  A    between atoms: C2_2  and  N1_3 
REMARK    2  A    between atoms: N1_3  and  C3_6 
REMARK    3  A    between atoms: C3_6  and  C4_7 
REMARK    4  A    between atoms: C4_7  and  C5_8 
REMARK    5  A    between atoms: C5_8  and  N2_9 
REMARK       I    between atoms: N2_9  and  C6_11 
REMARK    6  A    between atoms: C6_11  and  C7_13 
REMARK    7  A    between atoms: C7_13  and  C8_14 
REMARK    8  A    between atoms: C9_15  and  C10_16 
REMARK    9  A    between atoms: C9_15  and  C15_23 
REMARK   10  A    between atoms: C10_16  and  O2_17 
REMARK   11  A    between atoms: C10_16  and  C11_19 
REMARK   12  A    between atoms: C11_19  and  C13_21 
REMARK   13  A    between atoms: C27_35  and  O3_36 
REMARK   14  A    between atoms: C28_38  and  C29_39 
REMARK   15  A    between atoms: C29_39  and  O4_40 
REMARK   16  A    between atoms: C35_47  and  O5_48 
ROOT
HETATM    1  C15 UNL     1      25.488  -7.127  22.343  1.00  0.00    -0.051 C 
HETATM    2  C16 UNL     1      24.104  -7.628  22.398  1.00  0.00    -0.015 C 
HETATM    3  C17 UNL     1      22.962  -6.790  22.793  1.00  0.00     0.020 C 
HETATM    4  C18 UNL     1      24.079  -8.970  23.042  1.00  0.00     0.018 C 
HETATM    5  C19 UNL     1      23.254 -10.019  22.339  1.00  0.00    -0.018 C 
HETATM    6  C20 UNL     1      22.686 -10.984  23.354  1.00  0.00     0.010 C 
HETATM    7  C21 UNL     1      22.091  -9.397  21.600  1.00  0.00     0.005 C 
HETATM    8  C22 UNL     1      22.624  -8.398  20.558  1.00  0.00     0.006 C 
HETATM    9  C23 UNL     1      23.952  -7.849  20.845  1.00  0.00     0.004 C 
HETATM   10  C24 UNL     1      24.257  -6.451  20.433  1.00  0.00     0.016 C 
HETATM   11  C25 UNL     1      24.206  -6.027  19.041  1.00  0.00    -0.008 C 
HETATM   12  C26 UNL     1      23.524  -4.660  18.904  1.00  0.00     0.019 C 
HETATM   13  C27 UNL     1      23.558  -6.855  18.000  1.00  0.00     0.134 C 
HETATM   14  C28 UNL     1      24.074  -6.271  16.676  1.00  0.00     0.047 C 
HETATM   15  C30 UNL     1      25.491  -6.015  16.945  1.00  0.00    -0.035 C 
HETATM   16  C31 UNL     1      26.297  -7.189  16.381  1.00  0.00     0.016 C 
HETATM   17  C32 UNL     1      26.035  -4.794  16.190  1.00  0.00     0.016 C 
HETATM   18  C33 UNL     1      25.590  -5.848  18.400  1.00  0.00     0.007 C 
HETATM   19  C34 UNL     1      26.428  -6.974  18.938  1.00  0.00     0.039 C 
HETATM   20  C35 UNL     1      26.769  -6.482  20.341  1.00  0.00     0.131 C 
HETATM   21  C36 UNL     1      25.586  -6.176  21.198  1.00  0.00     0.012 C 
HETATM   22  C37 UNL     1      25.673  -4.747  21.600  1.00  0.00     0.023 C 
ENDROOT
BRANCH   1  23
HETATM   23  C9  UNL     1      26.194  -6.812  23.635  1.00  0.00    -0.029 C 
HETATM   24  C8  UNL     1      25.816  -5.865  24.447  1.00  0.00    -0.008 C 
BRANCH  24  25
HETATM   25  C7  UNL     1      26.137  -5.302  25.730  1.00  0.00     0.130 C 
BRANCH  25  26
HETATM   26  C6  UNL     1      26.926  -4.004  25.628  1.00  0.00     0.221 C 
HETATM   27  N2  UNL     1      27.763  -3.748  24.521  1.00  0.00    -0.361 N 
ATOM     28  H2  UNL     1      27.821  -4.447  23.780  1.00  0.00     0.162 HD
HETATM   29  O1  UNL     1      26.810  -3.186  26.542  1.00  0.00    -0.273 OA
BRANCH  27  30
HETATM   30  C5  UNL     1      28.526  -2.562  24.396  1.00  0.00     0.124 C 
BRANCH  30  31
HETATM   31  C4  UNL     1      28.014  -1.514  23.444  1.00  0.00     0.047 C 
BRANCH  31  32
HETATM   32  C3  UNL     1      28.341  -1.984  22.020  1.00  0.00     0.234 C 
BRANCH  32  33
HETATM   33  N1  UNL     1      27.854  -1.025  21.055  1.00  0.00    -0.075 N 
ATOM     34  H12 UNL     1      28.352  -1.089  20.167  1.00  0.00     0.277 HD
ATOM     35  H11 UNL     1      28.112  -0.069  21.301  1.00  0.00     0.277 HD
BRANCH  33  36
HETATM   36  C2  UNL     1      26.436  -1.180  20.894  1.00  0.00     0.228 C 
HETATM   37  C1  UNL     1      26.046  -1.984  19.709  1.00  0.00     0.034 C 
ENDBRANCH  33  36
ENDBRANCH  32  33
ENDBRANCH  31  32
ENDBRANCH  30  31
ENDBRANCH  27  30
ENDBRANCH  25  26
ENDBRANCH  24  25
BRANCH  23  38
HETATM   38  C10 UNL     1      27.317  -7.685  24.013  1.00  0.00     0.154 C 
BRANCH  38  39
HETATM   39  O2  UNL     1      26.977  -8.419  25.201  1.00  0.00    -0.391 OA
ATOM     40  H2  UNL     1      26.056  -8.650  25.178  1.00  0.00     0.210 HD
ENDBRANCH  38  39
BRANCH  38  41
HETATM   41  C11 UNL     1      28.686  -7.238  24.233  1.00  0.00     0.014 C 
HETATM   42  C12 UNL     1      29.061  -7.733  25.720  1.00  0.00     0.012 C 
BRANCH  41  43
HETATM   43  C13 UNL     1      29.776  -7.975  23.477  1.00  0.00     0.002 C 
HETATM   44  C14 UNL     1      29.981  -7.497  22.072  1.00  0.00     0.005 C 
ENDBRANCH  41  43
ENDBRANCH  38  41
ENDBRANCH  23  38
ENDBRANCH   1  23
BRANCH  20  45
HETATM   45  O5  UNL     1      27.571  -5.344  20.036  1.00  0.00    -0.394 OA
ATOM     46  H5  UNL     1      27.389  -4.792  20.787  1.00  0.00     0.210 HD
ENDBRANCH  20  45
BRANCH  13  47
HETATM   47  O3  UNL     1      22.178  -6.562  17.839  1.00  0.00    -0.394 OA
ATOM     48  H3  UNL     1      21.641  -7.341  17.764  1.00  0.00     0.210 HD
ENDBRANCH  13  47
BRANCH  14  49
HETATM   49  C29 UNL     1      23.812  -7.237  15.534  1.00  0.00     0.172 C 
BRANCH  49  50
HETATM   50  O4  UNL     1      22.600  -6.859  14.950  1.00  0.00    -0.400 OA
ATOM     51  H4  UNL     1      21.998  -7.586  15.063  1.00  0.00     0.209 HD
ENDBRANCH  49  50
ENDBRANCH  14  49
TORSDOF 16
ENDMDL
MODEL 5
REMARK VINA RESULT: -7.852094755      3.120      8.059
REMARK  16 active torsions:
REMARK  status: ('A' for Active; 'I' for Inactive)
REMARK    1  A    between atoms: C2_2  and  N1_3 
REMARK    2  A    between atoms: N1_3  and  C3_6 
REMARK    3  A    between atoms: C3_6  and  C4_7 
REMARK    4  A    between atoms: C4_7  and  C5_8 
REMARK    5  A    between atoms: C5_8  and  N2_9 
REMARK       I    between atoms: N2_9  and  C6_11 
REMARK    6  A    between atoms: C6_11  and  C7_13 
REMARK    7  A    between atoms: C7_13  and  C8_14 
REMARK    8  A    between atoms: C9_15  and  C10_16 
REMARK    9  A    between atoms: C9_15  and  C15_23 
REMARK   10  A    between atoms: C10_16  and  O2_17 
REMARK   11  A    between atoms: C10_16  and  C11_19 
REMARK   12  A    between atoms: C11_19  and  C13_21 
REMARK   13  A    between atoms: C27_35  and  O3_36 
REMARK   14  A    between atoms: C28_38  and  C29_39 
REMARK   15  A    between atoms: C29_39  and  O4_40 
REMARK   16  A    between atoms: C35_47  and  O5_48 
ROOT
HETATM    1  C15 UNL     1      26.628  -4.775  20.848  1.00  0.00    -0.051 C 
HETATM    2  C16 UNL     1      27.548  -5.490  21.748  1.00  0.00    -0.015 C 
HETATM    3  C17 UNL     1      27.705  -5.151  23.170  1.00  0.00     0.020 C 
HETATM    4  C18 UNL     1      28.853  -5.710  21.064  1.00  0.00     0.018 C 
HETATM    5  C19 UNL     1      29.428  -7.100  21.182  1.00  0.00    -0.018 C 
HETATM    6  C20 UNL     1      30.938  -7.028  21.167  1.00  0.00     0.010 C 
HETATM    7  C21 UNL     1      29.014  -7.757  22.479  1.00  0.00     0.005 C 
HETATM    8  C22 UNL     1      27.479  -7.844  22.540  1.00  0.00     0.006 C 
HETATM    9  C23 UNL     1      26.767  -6.859  21.721  1.00  0.00     0.004 C 
HETATM   10  C24 UNL     1      25.461  -6.330  22.204  1.00  0.00     0.016 C 
HETATM   11  C25 UNL     1      24.317  -7.199  22.441  1.00  0.00    -0.008 C 
HETATM   12  C26 UNL     1      23.602  -6.827  23.746  1.00  0.00     0.019 C 
HETATM   13  C27 UNL     1      24.460  -8.669  22.519  1.00  0.00     0.134 C 
HETATM   14  C28 UNL     1      23.026  -9.198  22.365  1.00  0.00     0.047 C 
HETATM   15  C30 UNL     1      22.460  -8.350  21.314  1.00  0.00    -0.035 C 
HETATM   16  C31 UNL     1      22.552  -9.117  19.990  1.00  0.00     0.016 C 
HETATM   17  C32 UNL     1      20.957  -8.095  21.491  1.00  0.00     0.016 C 
HETATM   18  C33 UNL     1      23.236  -7.105  21.354  1.00  0.00     0.007 C 
HETATM   19  C34 UNL     1      23.984  -6.985  20.055  1.00  0.00     0.039 C 
HETATM   20  C35 UNL     1      24.415  -5.522  20.065  1.00  0.00     0.131 C 
HETATM   21  C36 UNL     1      25.234  -5.122  21.247  1.00  0.00     0.012 C 
HETATM   22  C37 UNL     1      24.512  -4.027  21.950  1.00  0.00     0.023 C 
ENDROOT
BRANCH   1  23
HETATM   23  C9  UNL     1      26.959  -3.361  20.451  1.00  0.00    -0.029 C 
HETATM   24  C8  UNL     1      27.562  -2.517  21.240  1.00  0.00    -0.008 C 
BRANCH  24  25
HETATM   25  C7  UNL     1      28.096  -1.182  21.247  1.00  0.00     0.130 C 
BRANCH  25  26
HETATM   26  C6  UNL     1      27.108  -0.151  21.772  1.00  0.00     0.221 C 
HETATM   27  N2  UNL     1      27.447   0.699  22.848  1.00  0.00    -0.361 N 
ATOM     28  H2  UNL     1      28.377   0.618  23.260  1.00  0.00     0.162 HD
HETATM   29  O1  UNL     1      26.003  -0.082  21.230  1.00  0.00    -0.273 OA
BRANCH  27  30
HETATM   30  C5  UNL     1      26.551   1.659  23.377  1.00  0.00     0.124 C 
BRANCH  30  31
HETATM   31  C4  UNL     1      26.988   3.099  23.337  1.00  0.00     0.047 C 
BRANCH  31  32
HETATM   32  C3  UNL     1      28.390   3.174  23.957  1.00  0.00     0.234 C 
BRANCH  32  33
HETATM   33  N1  UNL     1      29.050   4.393  23.551  1.00  0.00    -0.075 N 
ATOM     34  H12 UNL     1      29.705   4.238  22.785  1.00  0.00     0.277 HD
ATOM     35  H11 UNL     1      29.716   4.721  24.250  1.00  0.00     0.277 HD
BRANCH  33  36
HETATM   36  C2  UNL     1      28.067   5.390  23.230  1.00  0.00     0.228 C 
HETATM   37  C1  UNL     1      28.536   6.411  22.260  1.00  0.00     0.034 C 
ENDBRANCH  33  36
ENDBRANCH  32  33
ENDBRANCH  31  32
ENDBRANCH  30  31
ENDBRANCH  27  30
ENDBRANCH  25  26
ENDBRANCH  24  25
BRANCH  23  38
HETATM   38  C10 UNL     1      26.645  -2.963  19.069  1.00  0.00     0.154 C 
BRANCH  38  39
HETATM   39  O2  UNL     1      25.407  -2.232  19.048  1.00  0.00    -0.391 OA
ATOM     40  H2  UNL     1      25.177  -1.973  19.933  1.00  0.00     0.210 HD
ENDBRANCH  38  39
BRANCH  38  41
HETATM   41  C11 UNL     1      26.554  -3.876  17.937  1.00  0.00     0.014 C 
HETATM   42  C12 UNL     1      25.183  -3.490  17.187  1.00  0.00     0.012 C 
BRANCH  41  43
HETATM   43  C13 UNL     1      27.510  -3.631  16.784  1.00  0.00     0.002 C 
HETATM   44  C14 UNL     1      27.008  -4.109  15.456  1.00  0.00     0.005 C 
ENDBRANCH  41  43
ENDBRANCH  38  41
ENDBRANCH  23  38
ENDBRANCH   1  23
BRANCH  20  45
HETATM   45  O5  UNL     1      23.150  -4.871  19.991  1.00  0.00    -0.394 OA
ATOM     46  H5  UNL     1      22.654  -5.375  20.624  1.00  0.00     0.210 HD
ENDBRANCH  20  45
BRANCH  13  47
HETATM   47  O3  UNL     1      24.718  -9.131  23.837  1.00  0.00    -0.394 OA
ATOM     48  H3  UNL     1      24.177  -9.872  24.082  1.00  0.00     0.210 HD
ENDBRANCH  13  47
BRANCH  14  49
HETATM   49  C29 UNL     1      23.041 -10.682  22.042  1.00  0.00     0.172 C 
BRANCH  49  50
HETATM   50  O4  UNL     1      22.687 -11.359  23.213  1.00  0.00    -0.400 OA
ATOM     51  H4  UNL     1      22.694 -10.720  23.916  1.00  0.00     0.209 HD
ENDBRANCH  49  50
ENDBRANCH  14  49
TORSDOF 16
ENDMDL
