MODEL 1
REMARK VINA RESULT: -8.466813022      0.000      0.000
REMARK  5 active torsions:
REMARK  status: ('A' for Active; 'I' for Inactive)
REMARK    1  A    between atoms: C5_8  and  N2_9 
REMARK    2  A    between atoms: N2_9  and  C6_12 
REMARK    3  A    between atoms: C6_12  and  C7_13 
REMARK    4  A    between atoms: C7_13  and  N3_16 
REMARK    5  A    between atoms: N3_16  and  C10_18 
ROOT
HETATM    1  C7  UNL     1      16.249   3.140  37.901  1.00  0.00     0.048 C 
HETATM    2  C8  UNL     1      16.448   2.714  36.468  1.00  0.00     0.039 C 
HETATM    3  C9  UNL     1      15.957   4.607  37.919  1.00  0.00     0.039 C 
ENDROOT
BRANCH   1   4
HETATM    4  C6  UNL     1      17.492   2.788  38.694  1.00  0.00     0.263 C 
BRANCH   4   5
HETATM    5  N2  UNL     1      18.725   2.873  38.051  1.00  0.00    -0.065 N 
ATOM      6  H22 UNL     1      19.110   3.813  38.137  1.00  0.00     0.277 HD
ATOM      7  H21 UNL     1      18.605   2.827  37.040  1.00  0.00     0.277 HD
BRANCH   5   8
HETATM    8  C5  UNL     1      19.698   1.878  38.497  1.00  0.00     0.235 C 
HETATM    9  C4  UNL     1      19.902   0.894  37.401  1.00  0.00     0.267 C 
HETATM   10  N1  UNL     1      21.094   0.081  37.500  1.00  0.00    -0.071 N 
HETATM   11  C3  UNL     1      20.773  -1.045  38.356  1.00  0.00     0.263 C 
ATOM     12  H12 UNL     1      21.910   0.605  37.817  1.00  0.00     0.277 HD
ATOM     13  H11 UNL     1      21.463  -0.199  36.591  1.00  0.00     0.277 HD
HETATM   14  C2  UNL     1      20.740  -0.468  39.775  1.00  0.00     0.143 C 
HETATM   15  C1  UNL     1      21.216  -1.552  40.711  1.00  0.00     0.041 C 
HETATM   16  O1  UNL     1      19.465  -0.022  39.994  1.00  0.00    -0.382 OA
HETATM   17  C16 UNL     1      19.280   1.345  39.816  1.00  0.00     0.203 C 
ENDBRANCH   5   8
ENDBRANCH   4   5
ENDBRANCH   1   4
BRANCH   1  18
HETATM   18  N3  UNL     1      15.207   2.361  38.557  1.00  0.00    -0.370 N 
ATOM     19  H3  UNL     1      15.344   1.350  38.568  1.00  0.00     0.161 HD
BRANCH  18  20
HETATM   20  C10 UNL     1      14.055   2.825  39.166  1.00  0.00     0.073 C 
HETATM   21  N4  UNL     1      14.118   3.036  40.459  1.00  0.00    -0.378 N 
HETATM   22  C11 UNL     1      13.128   3.511  41.413  1.00  0.00     0.156 C 
ATOM     23  H4  UNL     1      15.029   2.830  40.871  1.00  0.00     0.160 HD
HETATM   24  C12 UNL     1      11.788   3.145  40.830  1.00  0.00     0.234 A 
HETATM   25  N5  UNL     1      11.050   2.001  41.182  1.00  0.00    -0.061 N 
HETATM   26  C13 UNL     1      12.000   1.780  40.170  1.00  0.00     0.219 A 
ATOM     27  H52 UNL     1      10.898   1.543  42.081  1.00  0.00     0.278 HD
ATOM     28  H51 UNL     1      10.046   1.828  41.219  1.00  0.00     0.278 HD
HETATM   29  C14 UNL     1      11.764   2.006  38.703  1.00  0.00     0.042 C 
HETATM   30  C15 UNL     1      12.865   3.017  38.307  1.00  0.00     0.078 C 
ENDBRANCH  18  20
ENDBRANCH   1  18
TORSDOF 5
ENDMDL
MODEL 2
REMARK VINA RESULT: -8.151034738      2.330      7.316
REMARK  5 active torsions:
REMARK  status: ('A' for Active; 'I' for Inactive)
REMARK    1  A    between atoms: C5_8  and  N2_9 
REMARK    2  A    between atoms: N2_9  and  C6_12 
REMARK    3  A    between atoms: C6_12  and  C7_13 
REMARK    4  A    between atoms: C7_13  and  N3_16 
REMARK    5  A    between atoms: N3_16  and  C10_18 
ROOT
HETATM    1  C7  UNL     1      20.382   1.757  38.827  1.00  0.00     0.048 C 
HETATM    2  C8  UNL     1      20.983   3.094  39.179  1.00  0.00     0.039 C 
HETATM    3  C9  UNL     1      21.006   1.282  37.554  1.00  0.00     0.039 C 
ENDROOT
BRANCH   1   4
HETATM    4  C6  UNL     1      18.878   1.911  38.711  1.00  0.00     0.263 C 
BRANCH   4   5
HETATM    5  N2  UNL     1      18.375   2.664  37.652  1.00  0.00    -0.065 N 
ATOM      6  H22 UNL     1      18.346   2.106  36.798  1.00  0.00     0.277 HD
ATOM      7  H21 UNL     1      19.048   3.376  37.369  1.00  0.00     0.277 HD
BRANCH   5   8
HETATM    8  C5  UNL     1      17.071   3.267  37.915  1.00  0.00     0.235 C 
HETATM    9  C4  UNL     1      16.739   3.064  39.351  1.00  0.00     0.267 C 
HETATM   10  N1  UNL     1      15.697   3.915  39.881  1.00  0.00    -0.071 N 
HETATM   11  C3  UNL     1      14.430   3.281  39.572  1.00  0.00     0.263 C 
ATOM     12  H12 UNL     1      15.756   4.877  39.544  1.00  0.00     0.277 HD
ATOM     13  H11 UNL     1      15.812   4.116  40.874  1.00  0.00     0.277 HD
HETATM   14  C2  UNL     1      14.220   3.524  38.073  1.00  0.00     0.143 C 
HETATM   15  C1  UNL     1      12.734   3.658  37.845  1.00  0.00     0.041 C 
HETATM   16  O1  UNL     1      14.824   2.489  37.413  1.00  0.00    -0.382 OA
HETATM   17  C16 UNL     1      16.094   2.767  36.918  1.00  0.00     0.203 C 
ENDBRANCH   5   8
ENDBRANCH   4   5
ENDBRANCH   1   4
BRANCH   1  18
HETATM   18  N3  UNL     1      20.533   0.795  39.910  1.00  0.00    -0.370 N 
ATOM     19  H3  UNL     1      20.923   1.157  40.780  1.00  0.00     0.161 HD
BRANCH  18  20
HETATM   20  C10 UNL     1      20.211  -0.551  39.902  1.00  0.00     0.073 C 
HETATM   21  N4  UNL     1      19.260  -0.933  40.720  1.00  0.00    -0.378 N 
HETATM   22  C11 UNL     1      18.670  -2.237  40.980  1.00  0.00     0.156 C 
ATOM     23  H4  UNL     1      18.860  -0.177  41.277  1.00  0.00     0.160 HD
HETATM   24  C12 UNL     1      19.731  -3.245  40.623  1.00  0.00     0.234 A 
HETATM   25  N5  UNL     1      20.596  -3.854  41.550  1.00  0.00    -0.061 N 
HETATM   26  C13 UNL     1      21.050  -2.611  41.074  1.00  0.00     0.219 A 
ATOM     27  H52 UNL     1      20.440  -4.201  42.497  1.00  0.00     0.278 HD
ATOM     28  H51 UNL     1      21.034  -4.775  41.565  1.00  0.00     0.278 HD
HETATM   29  C14 UNL     1      21.846  -2.409  39.815  1.00  0.00     0.042 C 
HETATM   30  C15 UNL     1      20.984  -1.426  38.991  1.00  0.00     0.078 C 
ENDBRANCH  18  20
ENDBRANCH   1  18
TORSDOF 5
ENDMDL
MODEL 3
REMARK VINA RESULT: -8.041963609      2.509      4.102
REMARK  5 active torsions:
REMARK  status: ('A' for Active; 'I' for Inactive)
REMARK    1  A    between atoms: C5_8  and  N2_9 
REMARK    2  A    between atoms: N2_9  and  C6_12 
REMARK    3  A    between atoms: C6_12  and  C7_13 
REMARK    4  A    between atoms: C7_13  and  N3_16 
REMARK    5  A    between atoms: N3_16  and  C10_18 
ROOT
HETATM    1  C7  UNL     1      19.962   1.562  38.362  1.00  0.00     0.048 C 
HETATM    2  C8  UNL     1      20.474   0.881  37.118  1.00  0.00     0.039 C 
HETATM    3  C9  UNL     1      20.507   2.954  38.392  1.00  0.00     0.039 C 
ENDROOT
BRANCH   1   4
HETATM    4  C6  UNL     1      20.381   0.751  39.572  1.00  0.00     0.263 C 
BRANCH   4   5
HETATM    5  N2  UNL     1      19.528   0.730  40.674  1.00  0.00    -0.065 N 
ATOM      6  H22 UNL     1      18.592   1.036  40.407  1.00  0.00     0.277 HD
ATOM      7  H21 UNL     1      19.772   1.471  41.330  1.00  0.00     0.277 HD
BRANCH   5   8
HETATM    8  C5  UNL     1      19.470  -0.560  41.357  1.00  0.00     0.235 C 
HETATM    9  C4  UNL     1      20.220  -1.557  40.548  1.00  0.00     0.267 C 
HETATM   10  N1  UNL     1      20.603  -2.768  41.240  1.00  0.00    -0.071 N 
HETATM   11  C3  UNL     1      19.471  -3.673  41.175  1.00  0.00     0.263 C 
ATOM     12  H12 UNL     1      20.926  -2.599  42.192  1.00  0.00     0.277 HD
ATOM     13  H11 UNL     1      21.464  -3.178  40.879  1.00  0.00     0.277 HD
HETATM   14  C2  UNL     1      18.459  -3.114  42.182  1.00  0.00     0.143 C 
HETATM   15  C1  UNL     1      17.714  -4.289  42.766  1.00  0.00     0.041 C 
HETATM   16  O1  UNL     1      17.687  -2.206  41.508  1.00  0.00    -0.382 OA
HETATM   17  C16 UNL     1      18.057  -0.876  41.681  1.00  0.00     0.203 C 
ENDBRANCH   5   8
ENDBRANCH   4   5
ENDBRANCH   1   4
BRANCH   1  18
HETATM   18  N3  UNL     1      18.508   1.535  38.433  1.00  0.00    -0.370 N 
ATOM     19  H3  UNL     1      18.087   0.635  38.664  1.00  0.00     0.161 HD
BRANCH  18  20
HETATM   20  C10 UNL     1      17.627   2.582  38.227  1.00  0.00     0.073 C 
HETATM   21  N4  UNL     1      17.101   3.128  39.297  1.00  0.00    -0.378 N 
HETATM   22  C11 UNL     1      16.157   4.222  39.462  1.00  0.00     0.156 C 
ATOM     23  H4  UNL     1      17.411   2.708  40.174  1.00  0.00     0.160 HD
HETATM   24  C12 UNL     1      15.354   4.268  38.188  1.00  0.00     0.234 A 
HETATM   25  N5  UNL     1      14.088   3.680  38.023  1.00  0.00    -0.061 N 
HETATM   26  C13 UNL     1      15.161   2.804  37.787  1.00  0.00     0.219 A 
ATOM     27  H52 UNL     1      13.284   3.614  38.647  1.00  0.00     0.278 HD
ATOM     28  H51 UNL     1      13.289   3.944  37.447  1.00  0.00     0.278 HD
HETATM   29  C14 UNL     1      15.878   2.653  36.474  1.00  0.00     0.042 C 
HETATM   30  C15 UNL     1      17.351   2.967  36.824  1.00  0.00     0.078 C 
ENDBRANCH  18  20
ENDBRANCH   1  18
TORSDOF 5
ENDMDL
MODEL 4
REMARK VINA RESULT: -8.041710985      2.233      7.172
REMARK  5 active torsions:
REMARK  status: ('A' for Active; 'I' for Inactive)
REMARK    1  A    between atoms: C5_8  and  N2_9 
REMARK    2  A    between atoms: N2_9  and  C6_12 
REMARK    3  A    between atoms: C6_12  and  C7_13 
REMARK    4  A    between atoms: C7_13  and  N3_16 
REMARK    5  A    between atoms: N3_16  and  C10_18 
ROOT
HETATM    1  C7  UNL     1      20.331   1.218  37.805  1.00  0.00     0.048 C 
HETATM    2  C8  UNL     1      20.771   2.147  38.908  1.00  0.00     0.039 C 
HETATM    3  C9  UNL     1      21.489   1.000  36.885  1.00  0.00     0.039 C 
ENDROOT
BRANCH   1   4
HETATM    4  C6  UNL     1      19.136   1.827  37.097  1.00  0.00     0.263 C 
BRANCH   4   5
HETATM    5  N2  UNL     1      18.505   2.916  37.696  1.00  0.00    -0.065 N 
ATOM      6  H22 UNL     1      18.562   3.737  37.094  1.00  0.00     0.277 HD
ATOM      7  H21 UNL     1      19.046   3.249  38.494  1.00  0.00     0.277 HD
BRANCH   5   8
HETATM    8  C5  UNL     1      17.121   2.660  38.086  1.00  0.00     0.235 C 
HETATM    9  C4  UNL     1      16.225   3.193  37.025  1.00  0.00     0.267 C 
HETATM   10  N1  UNL     1      14.868   2.694  37.040  1.00  0.00    -0.071 N 
HETATM   11  C3  UNL     1      14.123   3.511  37.980  1.00  0.00     0.263 C 
ATOM     12  H12 UNL     1      14.811   1.696  37.245  1.00  0.00     0.277 HD
ATOM     13  H11 UNL     1      14.444   2.663  36.113  1.00  0.00     0.277 HD
HETATM   14  C2  UNL     1      14.583   3.041  39.365  1.00  0.00     0.143 C 
HETATM   15  C1  UNL     1      13.405   3.182  40.298  1.00  0.00     0.041 C 
HETATM   16  O1  UNL     1      15.684   3.783  39.693  1.00  0.00    -0.382 OA
HETATM   17  C16 UNL     1      16.905   3.158  39.467  1.00  0.00     0.203 C 
ENDBRANCH   5   8
ENDBRANCH   4   5
ENDBRANCH   1   4
BRANCH   1  18
HETATM   18  N3  UNL     1      19.800  -0.032  38.332  1.00  0.00    -0.370 N 
ATOM     19  H3  UNL     1      18.992  -0.417  37.844  1.00  0.00     0.161 HD
BRANCH  18  20
HETATM   20  C10 UNL     1      20.259  -0.761  39.415  1.00  0.00     0.073 C 
HETATM   21  N4  UNL     1      21.265  -1.573  39.193  1.00  0.00    -0.378 N 
HETATM   22  C11 UNL     1      21.992  -2.477  40.072  1.00  0.00     0.156 C 
ATOM     23  H4  UNL     1      21.597  -1.571  38.229  1.00  0.00     0.160 HD
HETATM   24  C12 UNL     1      21.033  -2.838  41.175  1.00  0.00     0.234 A 
HETATM   25  N5  UNL     1      20.259  -4.011  41.206  1.00  0.00    -0.061 N 
HETATM   26  C13 UNL     1      19.667  -2.954  40.493  1.00  0.00     0.219 A 
ATOM     27  H52 UNL     1      20.473  -4.973  40.939  1.00  0.00     0.278 HD
ATOM     28  H51 UNL     1      19.919  -4.579  41.983  1.00  0.00     0.278 HD
HETATM   29  C14 UNL     1      18.824  -1.869  41.103  1.00  0.00     0.042 C 
HETATM   30  C15 UNL     1      19.559  -0.569  40.706  1.00  0.00     0.078 C 
ENDBRANCH  18  20
ENDBRANCH   1  18
TORSDOF 5
ENDMDL
MODEL 5
REMARK VINA RESULT: -7.969816218      2.219      7.301
REMARK  5 active torsions:
REMARK  status: ('A' for Active; 'I' for Inactive)
REMARK    1  A    between atoms: C5_8  and  N2_9 
REMARK    2  A    between atoms: N2_9  and  C6_12 
REMARK    3  A    between atoms: C6_12  and  C7_13 
REMARK    4  A    between atoms: C7_13  and  N3_16 
REMARK    5  A    between atoms: N3_16  and  C10_18 
ROOT
HETATM    1  C7  UNL     1      19.915   1.737  38.468  1.00  0.00     0.048 C 
HETATM    2  C8  UNL     1      20.849   2.260  39.530  1.00  0.00     0.039 C 
HETATM    3  C9  UNL     1      20.465   2.118  37.130  1.00  0.00     0.039 C 
ENDROOT
BRANCH   1   4
HETATM    4  C6  UNL     1      18.531   2.308  38.708  1.00  0.00     0.263 C 
BRANCH   4   5
HETATM    5  N2  UNL     1      17.914   2.994  37.663  1.00  0.00    -0.065 N 
ATOM      6  H22 UNL     1      17.883   2.415  36.824  1.00  0.00     0.277 HD
ATOM      7  H21 UNL     1      18.512   3.749  37.329  1.00  0.00     0.277 HD
BRANCH   5   8
HETATM    8  C5  UNL     1      16.583   3.500  37.986  1.00  0.00     0.235 C 
HETATM    9  C4  UNL     1      16.403   3.445  39.462  1.00  0.00     0.267 C 
HETATM   10  N1  UNL     1      15.328   4.253  39.994  1.00  0.00    -0.071 N 
HETATM   11  C3  UNL     1      14.112   3.470  39.887  1.00  0.00     0.263 C 
ATOM     12  H12 UNL     1      15.256   5.167  39.547  1.00  0.00     0.277 HD
ATOM     13  H11 UNL     1      15.509   4.584  40.941  1.00  0.00     0.277 HD
HETATM   14  C2  UNL     1      13.745   3.507  38.399  1.00  0.00     0.143 C 
HETATM   15  C1  UNL     1      12.239   3.472  38.309  1.00  0.00     0.041 C 
HETATM   16  O1  UNL     1      14.394   2.460  37.803  1.00  0.00    -0.382 OA
HETATM   17  C16 UNL     1      15.578   2.792  37.155  1.00  0.00     0.203 C 
ENDBRANCH   5   8
ENDBRANCH   4   5
ENDBRANCH   1   4
BRANCH   1  18
HETATM   18  N3  UNL     1      19.705   0.301  38.591  1.00  0.00    -0.370 N 
ATOM     19  H3  UNL     1      19.165  -0.138  37.846  1.00  0.00     0.161 HD
BRANCH  18  20
HETATM   20  C10 UNL     1      20.151  -0.539  39.596  1.00  0.00     0.073 C 
HETATM   21  N4  UNL     1      21.168  -1.315  39.306  1.00  0.00    -0.378 N 
HETATM   22  C11 UNL     1      21.887  -2.305  40.093  1.00  0.00     0.156 C 
ATOM     23  H4  UNL     1      21.518  -1.205  38.354  1.00  0.00     0.160 HD
HETATM   24  C12 UNL     1      20.911  -2.792  41.132  1.00  0.00     0.234 A 
HETATM   25  N5  UNL     1      20.146  -3.967  41.019  1.00  0.00    -0.061 N 
HETATM   26  C13 UNL     1      19.559  -2.841  40.415  1.00  0.00     0.219 A 
ATOM     27  H52 UNL     1      20.374  -4.891  40.653  1.00  0.00     0.278 HD
ATOM     28  H51 UNL     1      19.798  -4.618  41.722  1.00  0.00     0.278 HD
HETATM   29  C14 UNL     1      18.695  -1.835  41.124  1.00  0.00     0.042 C 
HETATM   30  C15 UNL     1      19.426  -0.495  40.886  1.00  0.00     0.078 C 
ENDBRANCH  18  20
ENDBRANCH   1  18
TORSDOF 5
ENDMDL
