MODEL 1
REMARK VINA RESULT: -8.516557795      0.000      0.000
REMARK  9 active torsions:
REMARK  status: ('A' for Active; 'I' for Inactive)
REMARK    1  A    between atoms: C2_2  and  C4_4 
REMARK    2  A    between atoms: C5_5  and  C6_6 
REMARK    3  A    between atoms: C6_6  and  O1_10 
REMARK    4  A    between atoms: O1_10  and  C7_11 
REMARK    5  A    between atoms: C7_11  and  C8_12 
REMARK    6  A    between atoms: C7_11  and  C9_15 
REMARK    7  A    between atoms: C8_12  and  O2_13 
REMARK    8  A    between atoms: C9_15  and  N2_16 
REMARK    9  A    between atoms: N3_21  and  N4_23 
ROOT
HETATM    1  C7  UNL     1      19.233   2.424  38.425  1.00  0.00     0.172 C 
ENDROOT
BRANCH   1   2
HETATM    2  O1  UNL     1      19.472   1.451  37.426  1.00  0.00    -0.320 OA
BRANCH   2   3
HETATM    3  C6  UNL     1      20.523   0.552  37.509  1.00  0.00     0.193 C 
HETATM    4  N1  UNL     1      21.562   0.849  36.781  1.00  0.00    -0.373 N 
ATOM      5  H12 UNL     1      22.336   0.187  36.843  1.00  0.00     0.158 HD
ATOM      6  H11 UNL     1      21.587   1.684  36.196  1.00  0.00     0.158 HD
BRANCH   3   7
HETATM    7  C5  UNL     1      20.488  -0.627  38.336  1.00  0.00    -0.023 C 
HETATM    8  C4  UNL     1      20.437  -1.614  39.025  1.00  0.00    -0.093 C 
BRANCH   8   9
HETATM    9  C2  UNL     1      20.350  -2.797  39.854  1.00  0.00     0.057 C 
HETATM   10  C1  UNL     1      21.583  -2.932  40.692  1.00  0.00     0.023 C 
HETATM   11  C3  UNL     1      19.120  -2.727  40.752  1.00  0.00     0.023 C 
ENDBRANCH   8   9
ENDBRANCH   3   7
ENDBRANCH   2   3
ENDBRANCH   1   2
BRANCH   1  12
HETATM   12  C8  UNL     1      20.424   2.579  39.302  1.00  0.00     0.198 C 
BRANCH  12  13
HETATM   13  O2  UNL     1      21.337   3.480  38.708  1.00  0.00    -0.398 OA
ATOM     14  H2  UNL     1      22.029   3.686  39.324  1.00  0.00     0.209 HD
ENDBRANCH  12  13
ENDBRANCH   1  12
BRANCH   1  15
HETATM   15  C9  UNL     1      17.932   2.206  39.132  1.00  0.00     0.161 C 
BRANCH  15  16
HETATM   16  N2  UNL     1      16.769   2.671  38.450  1.00  0.00    -0.342 N 
HETATM   17  C10 UNL     1      16.601   2.884  37.030  1.00  0.00     0.153 C 
HETATM   18  C11 UNL     1      15.106   2.729  36.843  1.00  0.00     0.199 C 
HETATM   19  O3  UNL     1      14.618   3.329  38.054  1.00  0.00    -0.319 OA
HETATM   20  C12 UNL     1      15.535   3.017  39.061  1.00  0.00     0.236 C 
HETATM   21  N3  UNL     1      15.220   3.064  40.309  1.00  0.00    -0.263 N 
ATOM     22  H3  UNL     1      15.936   2.824  40.994  1.00  0.00     0.190 HD
BRANCH  21  23
HETATM   23  N4  UNL     1      13.970   3.421  40.776  1.00  0.00    -0.273 N 
HETATM   24  C13 UNL     1      13.055   2.598  41.124  1.00  0.00     0.215 C 
HETATM   25  N5  UNL     1      11.787   3.027  41.598  1.00  0.00    -0.065 NA
HETATM   26  N6  UNL     1      13.259   1.178  41.054  1.00  0.00    -0.065 NA
ATOM     27  H4  UNL     1      13.760   4.416  40.850  1.00  0.00     0.189 HD
ENDBRANCH  21  23
ENDBRANCH  15  16
ENDBRANCH   1  15
TORSDOF 9
ENDMDL
MODEL 2
REMARK VINA RESULT: -8.331802021      1.112      1.310
REMARK  9 active torsions:
REMARK  status: ('A' for Active; 'I' for Inactive)
REMARK    1  A    between atoms: C2_2  and  C4_4 
REMARK    2  A    between atoms: C5_5  and  C6_6 
REMARK    3  A    between atoms: C6_6  and  O1_10 
REMARK    4  A    between atoms: O1_10  and  C7_11 
REMARK    5  A    between atoms: C7_11  and  C8_12 
REMARK    6  A    between atoms: C7_11  and  C9_15 
REMARK    7  A    between atoms: C8_12  and  O2_13 
REMARK    8  A    between atoms: C9_15  and  N2_16 
REMARK    9  A    between atoms: N3_21  and  N4_23 
ROOT
HETATM    1  C7  UNL     1      19.771   1.905  38.854  1.00  0.00     0.172 C 
ENDROOT
BRANCH   1   2
HETATM    2  O1  UNL     1      20.426   0.837  39.512  1.00  0.00    -0.320 OA
BRANCH   2   3
HETATM    3  C6  UNL     1      20.428  -0.451  39.003  1.00  0.00     0.193 C 
HETATM    4  N1  UNL     1      20.738  -0.545  37.742  1.00  0.00    -0.373 N 
ATOM      5  H12 UNL     1      20.740  -1.494  37.367  1.00  0.00     0.158 HD
ATOM      6  H11 UNL     1      20.961   0.276  37.180  1.00  0.00     0.158 HD
BRANCH   3   7
HETATM    7  C5  UNL     1      20.114  -1.612  39.796  1.00  0.00    -0.023 C 
HETATM    8  C4  UNL     1      19.856  -2.572  40.477  1.00  0.00    -0.093 C 
BRANCH   8   9
HETATM    9  C2  UNL     1      19.556  -3.711  41.315  1.00  0.00     0.057 C 
HETATM   10  C1  UNL     1      20.743  -4.061  42.157  1.00  0.00     0.023 C 
HETATM   11  C3  UNL     1      18.359  -3.410  42.211  1.00  0.00     0.023 C 
ENDBRANCH   8   9
ENDBRANCH   3   7
ENDBRANCH   2   3
ENDBRANCH   1   2
BRANCH   1  12
HETATM   12  C8  UNL     1      20.698   3.052  38.665  1.00  0.00     0.198 C 
BRANCH  12  13
HETATM   13  O2  UNL     1      21.379   3.317  39.875  1.00  0.00    -0.398 OA
ATOM     14  H2  UNL     1      22.316   3.325  39.719  1.00  0.00     0.209 HD
ENDBRANCH  12  13
ENDBRANCH   1  12
BRANCH   1  15
HETATM   15  C9  UNL     1      18.451   2.235  39.477  1.00  0.00     0.161 C 
BRANCH  15  16
HETATM   16  N2  UNL     1      17.418   2.628  38.575  1.00  0.00    -0.342 N 
HETATM   17  C10 UNL     1      17.486   2.709  37.133  1.00  0.00     0.153 C 
HETATM   18  C11 UNL     1      16.041   2.527  36.720  1.00  0.00     0.199 C 
HETATM   19  O3  UNL     1      15.366   3.230  37.775  1.00  0.00    -0.319 OA
HETATM   20  C12 UNL     1      16.104   3.017  38.942  1.00  0.00     0.236 C 
HETATM   21  N3  UNL     1      15.589   3.175  40.113  1.00  0.00    -0.263 N 
ATOM     22  H3  UNL     1      16.182   3.003  40.925  1.00  0.00     0.190 HD
BRANCH  21  23
HETATM   23  N4  UNL     1      14.282   3.563  40.335  1.00  0.00    -0.273 N 
HETATM   24  C13 UNL     1      13.353   2.797  40.767  1.00  0.00     0.215 C 
HETATM   25  N5  UNL     1      12.026   3.256  40.977  1.00  0.00    -0.065 NA
HETATM   26  N6  UNL     1      13.603   1.415  41.069  1.00  0.00    -0.065 NA
ATOM     27  H4  UNL     1      14.039   4.534  40.140  1.00  0.00     0.189 HD
ENDBRANCH  21  23
ENDBRANCH  15  16
ENDBRANCH   1  15
TORSDOF 9
ENDMDL
MODEL 3
REMARK VINA RESULT: -8.148896500      1.211      1.614
REMARK  9 active torsions:
REMARK  status: ('A' for Active; 'I' for Inactive)
REMARK    1  A    between atoms: C2_2  and  C4_4 
REMARK    2  A    between atoms: C5_5  and  C6_6 
REMARK    3  A    between atoms: C6_6  and  O1_10 
REMARK    4  A    between atoms: O1_10  and  C7_11 
REMARK    5  A    between atoms: C7_11  and  C8_12 
REMARK    6  A    between atoms: C7_11  and  C9_15 
REMARK    7  A    between atoms: C8_12  and  O2_13 
REMARK    8  A    between atoms: C9_15  and  N2_16 
REMARK    9  A    between atoms: N3_21  and  N4_23 
ROOT
HETATM    1  C7  UNL     1      18.460   2.103  37.557  1.00  0.00     0.172 C 
ENDROOT
BRANCH   1   2
HETATM    2  O1  UNL     1      19.808   2.413  37.854  1.00  0.00    -0.320 OA
BRANCH   2   3
HETATM    3  C6  UNL     1      20.467   1.864  38.942  1.00  0.00     0.193 C 
HETATM    4  N1  UNL     1      21.078   2.722  39.708  1.00  0.00    -0.373 N 
ATOM      5  H12 UNL     1      21.563   2.318  40.509  1.00  0.00     0.158 HD
ATOM      6  H11 UNL     1      21.065   3.723  39.511  1.00  0.00     0.158 HD
BRANCH   3   7
HETATM    7  C5  UNL     1      20.485   0.450  39.221  1.00  0.00    -0.023 C 
HETATM    8  C4  UNL     1      20.487  -0.735  39.438  1.00  0.00    -0.093 C 
BRANCH   8   9
HETATM    9  C2  UNL     1      20.469  -2.160  39.682  1.00  0.00     0.057 C 
HETATM   10  C1  UNL     1      21.686  -2.567  40.455  1.00  0.00     0.023 C 
HETATM   11  C3  UNL     1      19.214  -2.552  40.453  1.00  0.00     0.023 C 
ENDBRANCH   8   9
ENDBRANCH   3   7
ENDBRANCH   2   3
ENDBRANCH   1   2
BRANCH   1  12
HETATM   12  C8  UNL     1      18.173   2.339  36.117  1.00  0.00     0.198 C 
BRANCH  12  13
HETATM   13  O2  UNL     1      19.368   2.683  35.445  1.00  0.00    -0.398 OA
ATOM     14  H2  UNL     1      19.727   3.478  35.819  1.00  0.00     0.209 HD
ENDBRANCH  12  13
ENDBRANCH   1  12
BRANCH   1  15
HETATM   15  C9  UNL     1      17.504   2.736  38.519  1.00  0.00     0.161 C 
BRANCH  15  16
HETATM   16  N2  UNL     1      16.168   2.901  38.049  1.00  0.00    -0.342 N 
HETATM   17  C10 UNL     1      15.696   2.847  36.683  1.00  0.00     0.153 C 
HETATM   18  C11 UNL     1      14.247   2.441  36.846  1.00  0.00     0.199 C 
HETATM   19  O3  UNL     1      13.897   3.154  38.043  1.00  0.00    -0.319 OA
HETATM   20  C12 UNL     1      15.031   3.154  38.861  1.00  0.00     0.236 C 
HETATM   21  N3  UNL     1      14.956   3.360  40.131  1.00  0.00    -0.263 N 
ATOM     22  H3  UNL     1      15.822   3.347  40.671  1.00  0.00     0.190 HD
BRANCH  21  23
HETATM   23  N4  UNL     1      13.775   3.598  40.806  1.00  0.00    -0.273 N 
HETATM   24  C13 UNL     1      12.982   2.692  41.238  1.00  0.00     0.215 C 
HETATM   25  N5  UNL     1      11.779   3.000  41.927  1.00  0.00    -0.065 NA
HETATM   26  N6  UNL     1      13.267   1.297  41.048  1.00  0.00    -0.065 NA
ATOM     27  H4  UNL     1      13.514   4.569  40.972  1.00  0.00     0.189 HD
ENDBRANCH  21  23
ENDBRANCH  15  16
ENDBRANCH   1  15
TORSDOF 9
ENDMDL
MODEL 4
REMARK VINA RESULT: -8.130170804      3.001      6.137
REMARK  9 active torsions:
REMARK  status: ('A' for Active; 'I' for Inactive)
REMARK    1  A    between atoms: C2_2  and  C4_4 
REMARK    2  A    between atoms: C5_5  and  C6_6 
REMARK    3  A    between atoms: C6_6  and  O1_10 
REMARK    4  A    between atoms: O1_10  and  C7_11 
REMARK    5  A    between atoms: C7_11  and  C8_12 
REMARK    6  A    between atoms: C7_11  and  C9_15 
REMARK    7  A    between atoms: C8_12  and  O2_13 
REMARK    8  A    between atoms: C9_15  and  N2_16 
REMARK    9  A    between atoms: N3_21  and  N4_23 
ROOT
HETATM    1  C7  UNL     1      18.963   1.951  38.562  1.00  0.00     0.172 C 
ENDROOT
BRANCH   1   2
HETATM    2  O1  UNL     1      19.007   2.750  37.395  1.00  0.00    -0.320 OA
BRANCH   2   3
HETATM    3  C6  UNL     1      18.008   2.709  36.436  1.00  0.00     0.193 C 
HETATM    4  N1  UNL     1      18.428   2.674  35.204  1.00  0.00    -0.373 N 
ATOM      5  H12 UNL     1      17.692   2.644  34.498  1.00  0.00     0.158 HD
ATOM      6  H11 UNL     1      19.421   2.677  34.974  1.00  0.00     0.158 HD
BRANCH   3   7
HETATM    7  C5  UNL     1      16.605   2.705  36.761  1.00  0.00    -0.023 C 
HETATM    8  C4  UNL     1      15.435   2.690  37.050  1.00  0.00    -0.093 C 
BRANCH   8   9
HETATM    9  C2  UNL     1      14.036   2.657  37.416  1.00  0.00     0.057 C 
HETATM   10  C1  UNL     1      13.588   4.011  37.870  1.00  0.00     0.023 C 
HETATM   11  C3  UNL     1      13.188   2.203  36.233  1.00  0.00     0.023 C 
ENDBRANCH   8   9
ENDBRANCH   3   7
ENDBRANCH   2   3
ENDBRANCH   1   2
BRANCH   1  12
HETATM   12  C8  UNL     1      18.207   2.641  39.641  1.00  0.00     0.198 C 
BRANCH  12  13
HETATM   13  O2  UNL     1      17.242   1.761  40.182  1.00  0.00    -0.398 OA
ATOM     14  H2  UNL     1      16.426   2.227  40.317  1.00  0.00     0.209 HD
ENDBRANCH  12  13
ENDBRANCH   1  12
BRANCH   1  15
HETATM   15  C9  UNL     1      20.312   1.430  38.947  1.00  0.00     0.161 C 
BRANCH  15  16
HETATM   16  N2  UNL     1      20.373   0.042  39.269  1.00  0.00    -0.342 N 
HETATM   17  C10 UNL     1      20.856  -1.039  38.439  1.00  0.00     0.153 C 
HETATM   18  C11 UNL     1      21.282  -2.077  39.456  1.00  0.00     0.199 C 
HETATM   19  O3  UNL     1      20.270  -1.904  40.461  1.00  0.00    -0.319 OA
HETATM   20  C12 UNL     1      19.960  -0.541  40.496  1.00  0.00     0.236 C 
HETATM   21  N3  UNL     1      19.394   0.004  41.517  1.00  0.00    -0.263 N 
ATOM     22  H3  UNL     1      19.195   1.004  41.478  1.00  0.00     0.190 HD
BRANCH  21  23
HETATM   23  N4  UNL     1      19.039  -0.683  42.661  1.00  0.00    -0.273 N 
HETATM   24  C13 UNL     1      17.841  -0.845  43.078  1.00  0.00     0.215 C 
HETATM   25  N5  UNL     1      17.540  -1.565  44.264  1.00  0.00    -0.065 NA
HETATM   26  N6  UNL     1      16.721  -0.302  42.362  1.00  0.00    -0.065 NA
ATOM     27  H4  UNL     1      19.790  -1.094  43.216  1.00  0.00     0.189 HD
ENDBRANCH  21  23
ENDBRANCH  15  16
ENDBRANCH   1  15
TORSDOF 9
ENDMDL
MODEL 5
REMARK VINA RESULT: -8.079530865      1.884      2.284
REMARK  9 active torsions:
REMARK  status: ('A' for Active; 'I' for Inactive)
REMARK    1  A    between atoms: C2_2  and  C4_4 
REMARK    2  A    between atoms: C5_5  and  C6_6 
REMARK    3  A    between atoms: C6_6  and  O1_10 
REMARK    4  A    between atoms: O1_10  and  C7_11 
REMARK    5  A    between atoms: C7_11  and  C8_12 
REMARK    6  A    between atoms: C7_11  and  C9_15 
REMARK    7  A    between atoms: C8_12  and  O2_13 
REMARK    8  A    between atoms: C9_15  and  N2_16 
REMARK    9  A    between atoms: N3_21  and  N4_23 
ROOT
HETATM    1  C7  UNL     1      18.799   1.789  39.403  1.00  0.00     0.172 C 
ENDROOT
BRANCH   1   2
HETATM    2  O1  UNL     1      19.076   1.328  40.712  1.00  0.00    -0.320 OA
BRANCH   2   3
HETATM    3  C6  UNL     1      18.661   0.084  41.158  1.00  0.00     0.193 C 
HETATM    4  N1  UNL     1      17.505   0.071  41.758  1.00  0.00    -0.373 N 
ATOM      5  H12 UNL     1      17.199  -0.845  42.087  1.00  0.00     0.158 HD
ATOM      6  H11 UNL     1      16.955   0.921  41.884  1.00  0.00     0.158 HD
BRANCH   3   7
HETATM    7  C5  UNL     1      19.437  -1.116  40.980  1.00  0.00    -0.023 C 
HETATM    8  C4  UNL     1      20.100  -2.113  40.846  1.00  0.00    -0.093 C 
BRANCH   8   9
HETATM    9  C2  UNL     1      20.912  -3.301  40.701  1.00  0.00     0.057 C 
HETATM   10  C1  UNL     1      22.282  -2.935  40.219  1.00  0.00     0.023 C 
HETATM   11  C3  UNL     1      21.014  -4.040  42.031  1.00  0.00     0.023 C 
ENDBRANCH   8   9
ENDBRANCH   3   7
ENDBRANCH   2   3
ENDBRANCH   1   2
BRANCH   1  12
HETATM   12  C8  UNL     1      20.057   2.148  38.696  1.00  0.00     0.198 C 
BRANCH  12  13
HETATM   13  O2  UNL     1      21.009   2.618  39.630  1.00  0.00    -0.398 OA
ATOM     14  H2  UNL     1      21.186   1.941  40.272  1.00  0.00     0.209 HD
ENDBRANCH  12  13
ENDBRANCH   1  12
BRANCH   1  15
HETATM   15  C9  UNL     1      17.724   2.829  39.381  1.00  0.00     0.161 C 
BRANCH  15  16
HETATM   16  N2  UNL     1      16.891   2.837  38.223  1.00  0.00    -0.342 N 
HETATM   17  C10 UNL     1      17.296   2.963  36.841  1.00  0.00     0.153 C 
HETATM   18  C11 UNL     1      16.170   2.277  36.098  1.00  0.00     0.199 C 
HETATM   19  O3  UNL     1      15.040   2.668  36.894  1.00  0.00    -0.319 OA
HETATM   20  C12 UNL     1      15.476   2.717  38.221  1.00  0.00     0.236 C 
HETATM   21  N3  UNL     1      14.654   2.655  39.212  1.00  0.00    -0.263 N 
ATOM     22  H3  UNL     1      15.038   2.696  40.157  1.00  0.00     0.190 HD
BRANCH  21  23
HETATM   23  N4  UNL     1      13.285   2.538  39.073  1.00  0.00    -0.273 N 
HETATM   24  C13 UNL     1      12.528   1.841  39.831  1.00  0.00     0.215 C 
HETATM   25  N5  UNL     1      11.123   1.761  39.637  1.00  0.00    -0.065 NA
HETATM   26  N6  UNL     1      13.060   1.091  40.934  1.00  0.00    -0.065 NA
ATOM     27  H4  UNL     1      12.844   3.047  38.307  1.00  0.00     0.189 HD
ENDBRANCH  21  23
ENDBRANCH  15  16
ENDBRANCH   1  15
TORSDOF 9
ENDMDL
