MODEL 1
REMARK VINA RESULT: -7.990791476      0.000      0.000
REMARK  7 active torsions:
REMARK  status: ('A' for Active; 'I' for Inactive)
REMARK    1  A    between atoms: C2_2  and  C3_3 
REMARK    2  A    between atoms: C4_4  and  C5_5 
REMARK       I    between atoms: C5_5  and  N1_7 
REMARK       I    between atoms: N5_25  and  C17_26 
REMARK    3  A    between atoms: C17_26  and  C18_28 
REMARK    4  A    between atoms: C18_28  and  O3_29 
REMARK    5  A    between atoms: O3_29  and  C19_30 
REMARK    6  A    between atoms: C22_35  and  C23_36 
REMARK    7  A    between atoms: C24_37  and  C25_38 
ROOT
HETATM    1  C5  UNL     1      10.245  66.514   1.896  1.00  0.00     0.226 C 
HETATM    2  O1  UNL     1      11.444  66.514   2.273  1.00  0.00    -0.273 OA
HETATM    3  N1  UNL     1       9.451  67.567   2.405  1.00  0.00    -0.335 N 
HETATM    4  C6  UNL     1       8.061  67.841   2.112  1.00  0.00     0.127 C 
HETATM    5  C7  UNL     1       7.471  68.337   3.431  1.00  0.00     0.023 C 
HETATM    6  C8  UNL     1       8.663  68.594   4.304  1.00  0.00     0.042 C 
HETATM    7  C9  UNL     1       9.820  68.619   3.346  1.00  0.00     0.194 C 
HETATM    8  C10 UNL     1       9.872  69.914   2.710  1.00  0.00     0.084 C 
HETATM    9  N2  UNL     1       9.912  70.965   2.189  1.00  0.00    -0.195 NA
ENDROOT
BRANCH   1  10
HETATM   10  C4  UNL     1       9.640  65.526   0.996  1.00  0.00     0.093 C 
HETATM   11  C3  UNL     1      10.572  64.955  -0.024  1.00  0.00     0.028 C 
HETATM   12  C14 UNL     1      10.688  63.480   0.285  1.00  0.00     0.029 C 
HETATM   13  C13 UNL     1      11.383  63.345   1.664  1.00  0.00     0.009 C 
HETATM   14  C15 UNL     1       9.295  63.093   0.698  1.00  0.00     0.100 C 
HETATM   15  C12 UNL     1      10.318  63.847   2.588  1.00  0.00     0.009 C 
HETATM   16  C11 UNL     1       9.148  64.285   1.678  1.00  0.00     0.035 C 
HETATM   17  N3  UNL     1       9.246  61.954   1.597  1.00  0.00    -0.210 N 
HETATM   18  C28 UNL     1       8.270  62.981  -0.312  1.00  0.00     0.067 A 
HETATM   19  C16 UNL     1       8.032  61.303   1.933  1.00  0.00     0.682 C 
ATOM     20  H3  UNL     1      10.116  61.611   2.004  1.00  0.00     0.179 HD
HETATM   21  N4  UNL     1       7.940  60.556   2.973  1.00  0.00    -0.234 N 
HETATM   22  N5  UNL     1       6.873  61.467   1.102  1.00  0.00    -0.112 N 
ATOM     23  H42 UNL     1       8.763  60.439   3.563  1.00  0.00     0.174 HD
ATOM     24  H41 UNL     1       7.066  60.088   3.214  1.00  0.00     0.174 HD
HETATM   25  C17 UNL     1       5.644  60.865   1.479  1.00  0.00     0.267 C 
HETATM   26  C20 UNL     1       7.060  62.323  -0.037  1.00  0.00     0.086 A 
HETATM   27  O2  UNL     1       4.587  61.172   0.899  1.00  0.00    -0.270 OA
HETATM   28  C21 UNL     1       6.043  62.318  -0.979  1.00  0.00     0.054 A 
HETATM   29  C22 UNL     1       6.180  62.957  -2.227  1.00  0.00     0.035 A 
HETATM   30  C27 UNL     1       7.377  63.582  -2.454  1.00  0.00     0.109 A 
HETATM   31  N6  UNL     1       8.319  63.559  -1.519  1.00  0.00    -0.364 N 
ATOM     32  H6  UNL     1       9.188  64.042  -1.747  1.00  0.00     0.165 HD
BRANCH  11  33
HETATM   33  C2  UNL     1      11.783  65.666  -0.361  1.00  0.00    -0.031 C 
HETATM   34  C1  UNL     1      12.596  65.321  -1.312  1.00  0.00     0.007 C 
ENDBRANCH  11  33
BRANCH  25  35
HETATM   35  C18 UNL     1       5.476  59.850   2.550  1.00  0.00     0.278 C 
BRANCH  35  36
HETATM   36  O3  UNL     1       5.880  58.578   2.050  1.00  0.00    -0.323 OA
BRANCH  36  37
HETATM   37  C19 UNL     1       5.842  57.623   3.029  1.00  0.00     0.500 C 
HETATM   38  F1  UNL     1       5.908  56.327   2.513  1.00  0.00    -0.184 F 
HETATM   39  F2  UNL     1       6.782  57.794   4.022  1.00  0.00    -0.184 F 
ENDBRANCH  36  37
ENDBRANCH  35  36
ENDBRANCH  25  35
BRANCH  29  40
HETATM   40  C23 UNL     1       5.108  62.938  -3.187  1.00  0.00    -0.066 C 
HETATM   41  C24 UNL     1       4.205  62.937  -3.985  1.00  0.00    -0.101 C 
BRANCH  41  42
HETATM   42  C25 UNL     1       3.095  62.937  -4.944  1.00  0.00     0.090 C 
HETATM   43  C26 UNL     1       2.393  61.604  -4.881  1.00  0.00     0.018 C 
ENDBRANCH  41  42
ENDBRANCH  29  40
ENDBRANCH   1  10
TORSDOF 7
ENDMDL
MODEL 2
REMARK VINA RESULT: -7.736588932      3.985      6.718
REMARK  7 active torsions:
REMARK  status: ('A' for Active; 'I' for Inactive)
REMARK    1  A    between atoms: C2_2  and  C3_3 
REMARK    2  A    between atoms: C4_4  and  C5_5 
REMARK       I    between atoms: C5_5  and  N1_7 
REMARK       I    between atoms: N5_25  and  C17_26 
REMARK    3  A    between atoms: C17_26  and  C18_28 
REMARK    4  A    between atoms: C18_28  and  O3_29 
REMARK    5  A    between atoms: O3_29  and  C19_30 
REMARK    6  A    between atoms: C22_35  and  C23_36 
REMARK    7  A    between atoms: C24_37  and  C25_38 
ROOT
HETATM    1  C5  UNL     1       6.158  67.130  -2.333  1.00  0.00     0.226 C 
HETATM    2  O1  UNL     1       6.071  67.444  -3.547  1.00  0.00    -0.273 OA
HETATM    3  N1  UNL     1       5.640  68.080  -1.424  1.00  0.00    -0.335 N 
HETATM    4  C6  UNL     1       5.568  67.969   0.017  1.00  0.00     0.127 C 
HETATM    5  C7  UNL     1       5.852  69.378   0.535  1.00  0.00     0.023 C 
HETATM    6  C8  UNL     1       5.764  70.252  -0.681  1.00  0.00     0.042 C 
HETATM    7  C9  UNL     1       5.068  69.393  -1.698  1.00  0.00     0.194 C 
HETATM    8  C10 UNL     1       3.648  69.425  -1.442  1.00  0.00     0.084 C 
HETATM    9  N2  UNL     1       2.494  69.446  -1.231  1.00  0.00    -0.195 NA
ENDROOT
BRANCH   1  10
HETATM   10  C4  UNL     1       6.743  65.886  -1.820  1.00  0.00     0.093 C 
HETATM   11  C3  UNL     1       6.922  64.810  -2.843  1.00  0.00     0.028 C 
HETATM   12  C14 UNL     1       8.411  64.573  -2.954  1.00  0.00     0.029 C 
HETATM   13  C13 UNL     1       9.048  65.863  -3.532  1.00  0.00     0.009 C 
HETATM   14  C15 UNL     1       8.898  64.700  -1.537  1.00  0.00     0.100 C 
HETATM   15  C12 UNL     1       8.896  66.814  -2.386  1.00  0.00     0.009 C 
HETATM   16  C11 UNL     1       8.139  66.029  -1.291  1.00  0.00     0.035 C 
HETATM   17  N3  UNL     1      10.283  65.119  -1.429  1.00  0.00    -0.210 N 
HETATM   18  C28 UNL     1       8.619  63.636  -0.602  1.00  0.00     0.067 A 
HETATM   19  C16 UNL     1      10.992  65.093  -0.200  1.00  0.00     0.682 C 
ATOM     20  H3  UNL     1      10.765  65.445  -2.267  1.00  0.00     0.179 HD
HETATM   21  N4  UNL     1      12.062  65.781  -0.032  1.00  0.00    -0.234 N 
HETATM   22  N5  UNL     1      10.518  64.284   0.887  1.00  0.00    -0.112 N 
ATOM     23  H42 UNL     1      12.399  66.356  -0.804  1.00  0.00     0.174 HD
ATOM     24  H41 UNL     1      12.571  65.762   0.852  1.00  0.00     0.174 HD
HETATM   25  C17 UNL     1      11.195  64.313   2.134  1.00  0.00     0.267 C 
HETATM   26  C20 UNL     1       9.311  63.551   0.617  1.00  0.00     0.086 A 
HETATM   27  O2  UNL     1      10.680  63.797   3.143  1.00  0.00    -0.270 OA
HETATM   28  C21 UNL     1       8.958  62.590   1.550  1.00  0.00     0.054 A 
HETATM   29  C22 UNL     1       7.914  61.674   1.318  1.00  0.00     0.035 A 
HETATM   30  C27 UNL     1       7.269  61.790   0.115  1.00  0.00     0.109 A 
HETATM   31  N6  UNL     1       7.645  62.729  -0.745  1.00  0.00    -0.364 N 
ATOM     32  H6  UNL     1       7.127  62.764  -1.623  1.00  0.00     0.165 HD
BRANCH  11  33
HETATM   33  C2  UNL     1       6.158  64.856  -4.068  1.00  0.00    -0.031 C 
HETATM   34  C1  UNL     1       6.085  63.883  -4.924  1.00  0.00     0.007 C 
ENDBRANCH  11  33
BRANCH  25  35
HETATM   35  C18 UNL     1      12.525  64.927   2.377  1.00  0.00     0.278 C 
BRANCH  35  36
HETATM   36  O3  UNL     1      12.853  64.789   3.758  1.00  0.00    -0.323 OA
BRANCH  36  37
HETATM   37  C19 UNL     1      14.206  64.833   3.954  1.00  0.00     0.500 C 
HETATM   38  F1  UNL     1      14.544  65.177   5.265  1.00  0.00    -0.184 F 
HETATM   39  F2  UNL     1      14.870  63.686   3.572  1.00  0.00    -0.184 F 
ENDBRANCH  36  37
ENDBRANCH  35  36
ENDBRANCH  25  35
BRANCH  29  40
HETATM   40  C23 UNL     1       7.565  60.687   2.305  1.00  0.00    -0.066 C 
HETATM   41  C24 UNL     1       7.277  59.848   3.122  1.00  0.00    -0.101 C 
BRANCH  41  42
HETATM   42  C25 UNL     1       6.915  58.821   4.103  1.00  0.00     0.090 C 
HETATM   43  C26 UNL     1       6.962  57.468   3.437  1.00  0.00     0.018 C 
ENDBRANCH  41  42
ENDBRANCH  29  40
ENDBRANCH   1  10
TORSDOF 7
ENDMDL
MODEL 3
REMARK VINA RESULT: -7.607330079      3.493      4.726
REMARK  7 active torsions:
REMARK  status: ('A' for Active; 'I' for Inactive)
REMARK    1  A    between atoms: C2_2  and  C3_3 
REMARK    2  A    between atoms: C4_4  and  C5_5 
REMARK       I    between atoms: C5_5  and  N1_7 
REMARK       I    between atoms: N5_25  and  C17_26 
REMARK    3  A    between atoms: C17_26  and  C18_28 
REMARK    4  A    between atoms: C18_28  and  O3_29 
REMARK    5  A    between atoms: O3_29  and  C19_30 
REMARK    6  A    between atoms: C22_35  and  C23_36 
REMARK    7  A    between atoms: C24_37  and  C25_38 
ROOT
HETATM    1  C5  UNL     1       5.866  64.352   3.983  1.00  0.00     0.226 C 
HETATM    2  O1  UNL     1       6.803  65.129   4.297  1.00  0.00    -0.273 OA
HETATM    3  N1  UNL     1       4.680  64.499   4.738  1.00  0.00    -0.335 N 
HETATM    4  C6  UNL     1       3.437  63.777   4.572  1.00  0.00     0.127 C 
HETATM    5  C7  UNL     1       2.913  63.565   5.991  1.00  0.00     0.023 C 
HETATM    6  C8  UNL     1       3.761  64.461   6.844  1.00  0.00     0.042 C 
HETATM    7  C9  UNL     1       4.414  65.390   5.861  1.00  0.00     0.194 C 
HETATM    8  C10 UNL     1       3.478  66.432   5.511  1.00  0.00     0.084 C 
HETATM    9  N2  UNL     1       2.717  67.276   5.222  1.00  0.00    -0.195 NA
ENDROOT
BRANCH   1  10
HETATM   10  C4  UNL     1       5.925  63.339   2.924  1.00  0.00     0.093 C 
HETATM   11  C3  UNL     1       7.028  63.533   1.933  1.00  0.00     0.028 C 
HETATM   12  C14 UNL     1       7.944  62.339   2.079  1.00  0.00     0.029 C 
HETATM   13  C13 UNL     1       8.581  62.407   3.490  1.00  0.00     0.009 C 
HETATM   14  C15 UNL     1       6.999  61.193   2.315  1.00  0.00     0.100 C 
HETATM   15  C12 UNL     1       7.406  62.098   4.366  1.00  0.00     0.009 C 
HETATM   16  C11 UNL     1       6.201  61.948   3.409  1.00  0.00     0.035 C 
HETATM   17  N3  UNL     1       7.583  60.098   3.068  1.00  0.00    -0.210 N 
HETATM   18  C28 UNL     1       6.222  60.685   1.210  1.00  0.00     0.067 A 
HETATM   19  C16 UNL     1       6.936  58.845   3.214  1.00  0.00     0.682 C 
ATOM     20  H3  UNL     1       8.493  60.235   3.510  1.00  0.00     0.179 HD
HETATM   21  N4  UNL     1       7.264  58.028   4.148  1.00  0.00    -0.234 N 
HETATM   22  N5  UNL     1       5.892  58.464   2.305  1.00  0.00    -0.112 N 
ATOM     23  H42 UNL     1       8.006  58.298   4.793  1.00  0.00     0.174 HD
ATOM     24  H41 UNL     1       6.797  57.127   4.252  1.00  0.00     0.174 HD
HETATM   25  C17 UNL     1       5.203  57.238   2.497  1.00  0.00     0.267 C 
HETATM   26  C20 UNL     1       5.582  59.438   1.295  1.00  0.00     0.086 A 
HETATM   27  O2  UNL     1       4.161  56.994   1.862  1.00  0.00    -0.270 OA
HETATM   28  C21 UNL     1       4.751  59.013   0.270  1.00  0.00     0.054 A 
HETATM   29  C22 UNL     1       4.523  59.797  -0.877  1.00  0.00     0.035 A 
HETATM   30  C27 UNL     1       5.170  61.003  -0.920  1.00  0.00     0.109 A 
HETATM   31  N6  UNL     1       5.954  61.365   0.088  1.00  0.00    -0.364 N 
ATOM     32  H6  UNL     1       6.409  62.274  -0.003  1.00  0.00     0.165 HD
BRANCH  11  33
HETATM   33  C2  UNL     1       7.641  64.834   1.792  1.00  0.00    -0.031 C 
HETATM   34  C1  UNL     1       8.518  65.137   0.885  1.00  0.00     0.007 C 
ENDBRANCH  11  33
BRANCH  25  35
HETATM   35  C18 UNL     1       5.618  56.154   3.423  1.00  0.00     0.278 C 
BRANCH  35  36
HETATM   36  O3  UNL     1       4.583  55.175   3.482  1.00  0.00    -0.323 OA
BRANCH  36  37
HETATM   37  C19 UNL     1       4.861  54.213   4.415  1.00  0.00     0.500 C 
HETATM   38  F1  UNL     1       4.517  52.931   3.979  1.00  0.00    -0.184 F 
HETATM   39  F2  UNL     1       6.160  54.232   4.876  1.00  0.00    -0.184 F 
ENDBRANCH  36  37
ENDBRANCH  35  36
ENDBRANCH  25  35
BRANCH  29  40
HETATM   40  C23 UNL     1       3.654  59.332  -1.926  1.00  0.00    -0.066 C 
HETATM   41  C24 UNL     1       2.923  58.931  -2.797  1.00  0.00    -0.101 C 
BRANCH  41  42
HETATM   42  C25 UNL     1       2.042  58.427  -3.855  1.00  0.00     0.090 C 
HETATM   43  C26 UNL     1       2.525  57.065  -4.287  1.00  0.00     0.018 C 
ENDBRANCH  41  42
ENDBRANCH  29  40
ENDBRANCH   1  10
TORSDOF 7
ENDMDL
MODEL 4
REMARK VINA RESULT: -7.529429457      4.308      8.831
REMARK  7 active torsions:
REMARK  status: ('A' for Active; 'I' for Inactive)
REMARK    1  A    between atoms: C2_2  and  C3_3 
REMARK    2  A    between atoms: C4_4  and  C5_5 
REMARK       I    between atoms: C5_5  and  N1_7 
REMARK       I    between atoms: N5_25  and  C17_26 
REMARK    3  A    between atoms: C17_26  and  C18_28 
REMARK    4  A    between atoms: C18_28  and  O3_29 
REMARK    5  A    between atoms: O3_29  and  C19_30 
REMARK    6  A    between atoms: C22_35  and  C23_36 
REMARK    7  A    between atoms: C24_37  and  C25_38 
ROOT
HETATM    1  C5  UNL     1       5.383  60.166   0.775  1.00  0.00     0.226 C 
HETATM    2  O1  UNL     1       5.627  58.934   0.819  1.00  0.00    -0.273 OA
HETATM    3  N1  UNL     1       4.983  60.658  -0.488  1.00  0.00    -0.335 N 
HETATM    4  C6  UNL     1       4.601  62.013  -0.823  1.00  0.00     0.127 C 
HETATM    5  C7  UNL     1       5.160  62.244  -2.226  1.00  0.00     0.023 C 
HETATM    6  C8  UNL     1       5.559  60.879  -2.702  1.00  0.00     0.042 C 
HETATM    7  C9  UNL     1       4.865  59.943  -1.754  1.00  0.00     0.194 C 
HETATM    8  C10 UNL     1       3.489  59.800  -2.164  1.00  0.00     0.084 C 
HETATM    9  N2  UNL     1       2.368  59.686  -2.494  1.00  0.00    -0.195 NA
ENDROOT
BRANCH   1  10
HETATM   10  C4  UNL     1       5.486  61.091   1.909  1.00  0.00     0.093 C 
HETATM   11  C3  UNL     1       6.037  60.488   3.161  1.00  0.00     0.028 C 
HETATM   12  C14 UNL     1       7.340  61.202   3.439  1.00  0.00     0.029 C 
HETATM   13  C13 UNL     1       8.321  60.849   2.292  1.00  0.00     0.009 C 
HETATM   14  C15 UNL     1       7.053  62.628   3.056  1.00  0.00     0.100 C 
HETATM   15  C12 UNL     1       7.716  61.589   1.140  1.00  0.00     0.009 C 
HETATM   16  C11 UNL     1       6.427  62.238   1.692  1.00  0.00     0.035 C 
HETATM   17  N3  UNL     1       8.229  63.373   2.646  1.00  0.00    -0.210 N 
HETATM   18  C28 UNL     1       6.223  63.432   3.920  1.00  0.00     0.067 A 
HETATM   19  C16 UNL     1       8.210  64.777   2.451  1.00  0.00     0.682 C 
ATOM     20  H3  UNL     1       9.102  62.867   2.491  1.00  0.00     0.179 HD
HETATM   21  N4  UNL     1       9.116  65.368   1.762  1.00  0.00    -0.234 N 
HETATM   22  N5  UNL     1       7.165  65.570   3.034  1.00  0.00    -0.112 N 
ATOM     23  H42 UNL     1       9.860  64.805   1.348  1.00  0.00     0.174 HD
ATOM     24  H41 UNL     1       9.102  66.379   1.622  1.00  0.00     0.174 HD
HETATM   25  C17 UNL     1       7.115  66.966   2.780  1.00  0.00     0.267 C 
HETATM   26  C20 UNL     1       6.188  64.830   3.784  1.00  0.00     0.086 A 
HETATM   27  O2  UNL     1       6.107  67.627   3.089  1.00  0.00    -0.270 OA
HETATM   28  C21 UNL     1       5.306  65.579   4.546  1.00  0.00     0.054 A 
HETATM   29  C22 UNL     1       4.429  64.983   5.472  1.00  0.00     0.035 A 
HETATM   30  C27 UNL     1       4.500  63.619   5.575  1.00  0.00     0.109 A 
HETATM   31  N6  UNL     1       5.361  62.946   4.821  1.00  0.00    -0.364 N 
ATOM     32  H6  UNL     1       5.367  61.934   4.944  1.00  0.00     0.165 HD
BRANCH  11  33
HETATM   33  C2  UNL     1       6.009  59.054   3.335  1.00  0.00    -0.031 C 
HETATM   34  C1  UNL     1       6.963  58.362   3.877  1.00  0.00     0.007 C 
ENDBRANCH  11  33
BRANCH  25  35
HETATM   35  C18 UNL     1       8.198  67.766   2.154  1.00  0.00     0.278 C 
BRANCH  35  36
HETATM   36  O3  UNL     1       9.180  68.070   3.142  1.00  0.00    -0.323 OA
BRANCH  36  37
HETATM   37  C19 UNL     1       9.088  69.374   3.549  1.00  0.00     0.500 C 
HETATM   38  F1  UNL     1       8.296  69.523   4.689  1.00  0.00    -0.184 F 
HETATM   39  F2  UNL     1      10.305  69.998   3.723  1.00  0.00    -0.184 F 
ENDBRANCH  36  37
ENDBRANCH  35  36
ENDBRANCH  25  35
BRANCH  29  40
HETATM   40  C23 UNL     1       3.522  65.784   6.251  1.00  0.00    -0.066 C 
HETATM   41  C24 UNL     1       2.749  66.448   6.896  1.00  0.00    -0.101 C 
BRANCH  41  42
HETATM   42  C25 UNL     1       1.802  67.261   7.666  1.00  0.00     0.090 C 
HETATM   43  C26 UNL     1       1.590  68.573   6.952  1.00  0.00     0.018 C 
ENDBRANCH  41  42
ENDBRANCH  29  40
ENDBRANCH   1  10
TORSDOF 7
ENDMDL
MODEL 5
REMARK VINA RESULT: -7.447029085      3.888      6.540
REMARK  7 active torsions:
REMARK  status: ('A' for Active; 'I' for Inactive)
REMARK    1  A    between atoms: C2_2  and  C3_3 
REMARK    2  A    between atoms: C4_4  and  C5_5 
REMARK       I    between atoms: C5_5  and  N1_7 
REMARK       I    between atoms: N5_25  and  C17_26 
REMARK    3  A    between atoms: C17_26  and  C18_28 
REMARK    4  A    between atoms: C18_28  and  O3_29 
REMARK    5  A    between atoms: O3_29  and  C19_30 
REMARK    6  A    between atoms: C22_35  and  C23_36 
REMARK    7  A    between atoms: C24_37  and  C25_38 
ROOT
HETATM    1  C5  UNL     1       5.131  67.884   1.614  1.00  0.00     0.226 C 
HETATM    2  O1  UNL     1       4.453  68.646   0.879  1.00  0.00    -0.273 OA
HETATM    3  N1  UNL     1       5.551  68.444   2.841  1.00  0.00    -0.335 N 
HETATM    4  C6  UNL     1       6.300  67.793   3.894  1.00  0.00     0.127 C 
HETATM    5  C7  UNL     1       7.236  68.872   4.435  1.00  0.00     0.023 C 
HETATM    6  C8  UNL     1       6.723  70.149   3.840  1.00  0.00     0.042 C 
HETATM    7  C9  UNL     1       5.349  69.797   3.347  1.00  0.00     0.194 C 
HETATM    8  C10 UNL     1       4.432  69.823   4.462  1.00  0.00     0.084 C 
HETATM    9  N2  UNL     1       3.687  69.839   5.368  1.00  0.00    -0.195 NA
ENDROOT
BRANCH   1  10
HETATM   10  C4  UNL     1       5.501  66.502   1.287  1.00  0.00     0.093 C 
HETATM   11  C3  UNL     1       4.645  65.853   0.248  1.00  0.00     0.028 C 
HETATM   12  C14 UNL     1       5.548  65.571  -0.931  1.00  0.00     0.029 C 
HETATM   13  C13 UNL     1       6.008  66.935  -1.505  1.00  0.00     0.009 C 
HETATM   14  C15 UNL     1       6.843  65.149  -0.293  1.00  0.00     0.100 C 
HETATM   15  C12 UNL     1       6.926  67.422  -0.427  1.00  0.00     0.009 C 
HETATM   16  C11 UNL     1       6.867  66.351   0.686  1.00  0.00     0.035 C 
HETATM   17  N3  UNL     1       8.012  65.407  -1.115  1.00  0.00    -0.210 N 
HETATM   18  C28 UNL     1       6.933  63.843   0.315  1.00  0.00     0.067 A 
HETATM   19  C16 UNL     1       9.295  64.896  -0.793  1.00  0.00     0.682 C 
ATOM     20  H3  UNL     1       7.907  65.977  -1.954  1.00  0.00     0.179 HD
HETATM   21  N4  UNL     1      10.361  65.404  -1.295  1.00  0.00    -0.234 N 
HETATM   22  N5  UNL     1       9.423  63.786   0.109  1.00  0.00    -0.112 N 
ATOM     23  H42 UNL     1      10.271  66.192  -1.936  1.00  0.00     0.174 HD
ATOM     24  H41 UNL     1      11.284  65.036  -1.063  1.00  0.00     0.174 HD
HETATM   25  C17 UNL     1      10.712  63.322   0.477  1.00  0.00     0.267 C 
HETATM   26  C20 UNL     1       8.182  63.282   0.630  1.00  0.00     0.086 A 
HETATM   27  O2  UNL     1      10.848  62.516   1.415  1.00  0.00    -0.270 OA
HETATM   28  C21 UNL     1       8.249  62.077   1.311  1.00  0.00     0.054 A 
HETATM   29  C22 UNL     1       7.092  61.378   1.705  1.00  0.00     0.035 A 
HETATM   30  C27 UNL     1       5.897  61.959   1.373  1.00  0.00     0.109 A 
HETATM   31  N6  UNL     1       5.886  63.115   0.721  1.00  0.00    -0.364 N 
ATOM     32  H6  UNL     1       4.966  63.497   0.503  1.00  0.00     0.165 HD
BRANCH  11  33
HETATM   33  C2  UNL     1       3.331  66.385  -0.028  1.00  0.00    -0.031 C 
HETATM   34  C1  UNL     1       2.485  65.857  -0.859  1.00  0.00     0.007 C 
ENDBRANCH  11  33
BRANCH  25  35
HETATM   35  C18 UNL     1      11.988  63.716  -0.174  1.00  0.00     0.278 C 
BRANCH  35  36
HETATM   36  O3  UNL     1      12.957  63.991   0.834  1.00  0.00    -0.323 OA
BRANCH  36  37
HETATM   37  C19 UNL     1      12.595  65.073   1.590  1.00  0.00     0.500 C 
HETATM   38  F1  UNL     1      13.540  65.378   2.573  1.00  0.00    -0.184 F 
HETATM   39  F2  UNL     1      12.287  66.198   0.855  1.00  0.00    -0.184 F 
ENDBRANCH  36  37
ENDBRANCH  35  36
ENDBRANCH  25  35
BRANCH  29  40
HETATM   40  C23 UNL     1       7.190  60.129   2.413  1.00  0.00    -0.066 C 
HETATM   41  C24 UNL     1       7.257  59.086   3.013  1.00  0.00    -0.101 C 
BRANCH  41  42
HETATM   42  C25 UNL     1       7.337  57.825   3.757  1.00  0.00     0.090 C 
HETATM   43  C26 UNL     1       6.222  56.917   3.303  1.00  0.00     0.018 C 
ENDBRANCH  41  42
ENDBRANCH  29  40
ENDBRANCH   1  10
TORSDOF 7
ENDMDL
