MODEL 1
REMARK VINA RESULT: -4.532068181      0.000      0.000
REMARK  1 active torsions:
REMARK  status: ('A' for Active; 'I' for Inactive)
REMARK    1  A    between atoms: C1_2  and  C2_4 
ROOT
HETATM    1  C2  UNL     1       7.036  -1.192  11.547  1.00  0.00     0.110 C 
HETATM    2  C3  UNL     1       7.328  -0.581  10.422  1.00  0.00     0.043 C 
HETATM    3  S1  UNL     1       6.791   1.049   9.948  1.00  0.00    -0.122 SA
HETATM    4  C4  UNL     1       7.031   1.102   8.195  1.00  0.00     0.090 C 
HETATM    5  C5  UNL     1       7.684  -0.113   7.697  1.00  0.00     0.090 C 
HETATM    6  S2  UNL     1       8.306  -1.104   9.027  1.00  0.00    -0.122 SA
ENDROOT
BRANCH   1   7
HETATM    7  C1  UNL     1       6.205  -0.536  12.539  1.00  0.00     0.200 C 
HETATM    8  O1  UNL     1       5.262  -1.162  13.061  1.00  0.00    -0.644 OA
HETATM    9  O2  UNL     1       6.432   0.793  12.935  1.00  0.00    -0.644 OA
ENDBRANCH   1   7
TORSDOF 1
ENDMDL
MODEL 2
REMARK VINA RESULT: -4.505076326      2.155      2.742
REMARK  1 active torsions:
REMARK  status: ('A' for Active; 'I' for Inactive)
REMARK    1  A    between atoms: C1_2  and  C2_4 
ROOT
HETATM    1  C2  UNL     1       6.618   2.214  10.451  1.00  0.00     0.110 C 
HETATM    2  C3  UNL     1       7.002   1.070   9.937  1.00  0.00     0.043 C 
HETATM    3  S1  UNL     1       7.354  -0.419  10.848  1.00  0.00    -0.122 SA
HETATM    4  C4  UNL     1       8.303  -1.409   9.727  1.00  0.00     0.090 C 
HETATM    5  C5  UNL     1       8.407  -0.787   8.403  1.00  0.00     0.090 C 
HETATM    6  S2  UNL     1       7.301   0.589   8.247  1.00  0.00    -0.122 SA
ENDROOT
BRANCH   1   7
HETATM    7  C1  UNL     1       6.443   2.349  11.885  1.00  0.00     0.200 C 
HETATM    8  O1  UNL     1       7.390   2.761  12.583  1.00  0.00    -0.644 OA
HETATM    9  O2  UNL     1       5.230   2.027  12.518  1.00  0.00    -0.644 OA
ENDBRANCH   1   7
TORSDOF 1
ENDMDL
MODEL 3
REMARK VINA RESULT: -4.496434725      2.973      4.342
REMARK  1 active torsions:
REMARK  status: ('A' for Active; 'I' for Inactive)
REMARK    1  A    between atoms: C1_2  and  C2_4 
ROOT
HETATM    1  C2  UNL     1       7.417   0.150   9.056  1.00  0.00     0.110 C 
HETATM    2  C3  UNL     1       7.138   0.149  10.338  1.00  0.00     0.043 C 
HETATM    3  S1  UNL     1       6.931  -1.292  11.363  1.00  0.00    -0.122 SA
HETATM    4  C4  UNL     1       6.073  -0.698  12.793  1.00  0.00     0.090 C 
HETATM    5  C5  UNL     1       5.904   0.758  12.763  1.00  0.00     0.090 C 
HETATM    6  S2  UNL     1       6.876   1.494  11.477  1.00  0.00    -0.122 SA
ENDROOT
BRANCH   1   7
HETATM    7  C1  UNL     1       7.586  -1.105   8.345  1.00  0.00     0.200 C 
HETATM    8  O1  UNL     1       6.610  -1.617   7.764  1.00  0.00    -0.644 OA
HETATM    9  O2  UNL     1       8.826  -1.765   8.290  1.00  0.00    -0.644 OA
ENDBRANCH   1   7
TORSDOF 1
ENDMDL
MODEL 4
REMARK VINA RESULT: -4.489070884      1.654      1.918
REMARK  1 active torsions:
REMARK  status: ('A' for Active; 'I' for Inactive)
REMARK    1  A    between atoms: C1_2  and  C2_4 
ROOT
HETATM    1  C2  UNL     1       7.898  -0.988  10.483  1.00  0.00     0.110 C 
HETATM    2  C3  UNL     1       7.700  -1.112   9.191  1.00  0.00     0.043 C 
HETATM    3  S1  UNL     1       6.186  -0.749   8.326  1.00  0.00    -0.122 SA
HETATM    4  C4  UNL     1       6.352  -1.588   6.775  1.00  0.00     0.090 C 
HETATM    5  C5  UNL     1       7.675  -2.201   6.625  1.00  0.00     0.090 C 
HETATM    6  S2  UNL     1       8.789  -1.651   7.889  1.00  0.00    -0.122 SA
ENDROOT
BRANCH   1   7
HETATM    7  C1  UNL     1       6.828  -0.517  11.343  1.00  0.00     0.200 C 
HETATM    8  O1  UNL     1       6.162  -1.340  12.000  1.00  0.00    -0.644 OA
HETATM    9  O2  UNL     1       6.517   0.849  11.461  1.00  0.00    -0.644 OA
ENDBRANCH   1   7
TORSDOF 1
ENDMDL
MODEL 5
REMARK VINA RESULT: -4.469128441      2.208      2.917
REMARK  1 active torsions:
REMARK  status: ('A' for Active; 'I' for Inactive)
REMARK    1  A    between atoms: C1_2  and  C2_4 
ROOT
HETATM    1  C2  UNL     1       7.279   0.635  11.220  1.00  0.00     0.110 C 
HETATM    2  C3  UNL     1       6.900   1.445  10.260  1.00  0.00     0.043 C 
HETATM    3  S1  UNL     1       6.597   0.989   8.565  1.00  0.00    -0.122 SA
HETATM    4  C4  UNL     1       6.647   2.522   7.679  1.00  0.00     0.090 C 
HETATM    5  C5  UNL     1       6.794   3.669   8.581  1.00  0.00     0.090 C 
HETATM    6  S2  UNL     1       6.563   3.195  10.273  1.00  0.00    -0.122 SA
ENDROOT
BRANCH   1   7
HETATM    7  C1  UNL     1       7.489  -0.775  10.945  1.00  0.00     0.200 C 
HETATM    8  O1  UNL     1       6.617  -1.602  11.276  1.00  0.00    -0.644 OA
HETATM    9  O2  UNL     1       8.654  -1.242  10.311  1.00  0.00    -0.644 OA
ENDBRANCH   1   7
TORSDOF 1
ENDMDL
