MODEL 1
REMARK VINA RESULT: -6.292084753      0.000      0.000
REMARK  4 active torsions:
REMARK  status: ('A' for Active; 'I' for Inactive)
REMARK    1  A    between atoms: C3_3  and  C4_4 
REMARK    2  A    between atoms: C4_4  and  N1_5 
REMARK    3  A    between atoms: N1_5  and  C5_8 
REMARK    4  A    between atoms: C5_8  and  C6_9 
ROOT
HETATM    1  C6  UNL     1      65.677  36.743  24.115  1.00  0.00     0.174 C 
HETATM    2  C7  UNL     1      65.145  37.710  25.118  1.00  0.00     0.205 C 
HETATM    3  O1  UNL     1      65.862  37.492  26.288  1.00  0.00    -0.352 OA
HETATM    4  C8  UNL     1      67.010  36.865  25.816  1.00  0.00     0.164 C 
HETATM    5  C9  UNL     1      67.748  36.156  26.941  1.00  0.00     0.068 C 
HETATM    6  C10 UNL     1      68.425  37.326  27.628  1.00  0.00     0.006 C 
HETATM    7  C11 UNL     1      68.756  38.316  26.540  1.00  0.00     0.006 C 
HETATM    8  C12 UNL     1      68.003  37.890  25.307  1.00  0.00     0.068 C 
HETATM    9  O2  UNL     1      66.627  36.004  24.817  1.00  0.00    -0.346 OA
ENDROOT
BRANCH   1  10
HETATM   10  C5  UNL     1      64.619  35.780  23.635  1.00  0.00     0.266 C 
BRANCH  10  11
HETATM   11  N1  UNL     1      64.657  34.521  24.339  1.00  0.00    -0.072 N 
ATOM     12  H12 UNL     1      65.584  34.327  24.717  1.00  0.00     0.277 HD
ATOM     13  H11 UNL     1      64.584  33.729  23.701  1.00  0.00     0.277 HD
BRANCH  11  14
HETATM   14  C4  UNL     1      63.653  34.481  25.349  1.00  0.00     0.237 C 
BRANCH  14  15
HETATM   15  C3  UNL     1      64.164  34.294  26.734  1.00  0.00     0.011 C 
HETATM   16  C2  UNL     1      63.461  33.268  27.569  1.00  0.00     0.006 C 
HETATM   17  C1  UNL     1      64.773  32.529  27.827  1.00  0.00     0.001 C 
HETATM   18  C13 UNL     1      65.386  33.371  26.731  1.00  0.00     0.006 C 
ENDBRANCH  14  15
ENDBRANCH  11  14
ENDBRANCH  10  11
ENDBRANCH   1  10
TORSDOF 4
ENDMDL
MODEL 2
REMARK VINA RESULT: -6.218596678      2.122      3.352
REMARK  4 active torsions:
REMARK  status: ('A' for Active; 'I' for Inactive)
REMARK    1  A    between atoms: C3_3  and  C4_4 
REMARK    2  A    between atoms: C4_4  and  N1_5 
REMARK    3  A    between atoms: N1_5  and  C5_8 
REMARK    4  A    between atoms: C5_8  and  C6_9 
ROOT
HETATM    1  C6  UNL     1      65.093  35.202  25.386  1.00  0.00     0.174 C 
HETATM    2  C7  UNL     1      64.686  34.863  23.992  1.00  0.00     0.205 C 
HETATM    3  O1  UNL     1      64.545  36.072  23.323  1.00  0.00    -0.352 OA
HETATM    4  C8  UNL     1      65.312  36.931  24.103  1.00  0.00     0.164 C 
HETATM    5  C9  UNL     1      64.971  38.385  23.814  1.00  0.00     0.068 C 
HETATM    6  C10 UNL     1      65.700  38.600  22.501  1.00  0.00     0.006 C 
HETATM    7  C11 UNL     1      66.942  37.747  22.568  1.00  0.00     0.006 C 
HETATM    8  C12 UNL     1      66.778  36.813  23.738  1.00  0.00     0.068 C 
HETATM    9  O2  UNL     1      65.097  36.595  25.416  1.00  0.00    -0.346 OA
ENDROOT
BRANCH   1  10
HETATM   10  C5  UNL     1      64.085  34.729  26.405  1.00  0.00     0.266 C 
BRANCH  10  11
HETATM   11  N1  UNL     1      64.173  33.309  26.649  1.00  0.00    -0.072 N 
ATOM     12  H12 UNL     1      64.606  32.817  25.869  1.00  0.00     0.277 HD
ATOM     13  H11 UNL     1      63.256  32.863  26.620  1.00  0.00     0.277 HD
BRANCH  11  14
HETATM   14  C4  UNL     1      64.847  33.053  27.878  1.00  0.00     0.237 C 
BRANCH  14  15
HETATM   15  C3  UNL     1      66.082  32.232  27.756  1.00  0.00     0.011 C 
HETATM   16  C2  UNL     1      66.293  31.542  26.442  1.00  0.00     0.006 C 
HETATM   17  C1  UNL     1      67.660  32.203  26.276  1.00  0.00     0.001 C 
HETATM   18  C13 UNL     1      67.282  33.121  27.417  1.00  0.00     0.006 C 
ENDBRANCH  14  15
ENDBRANCH  11  14
ENDBRANCH  10  11
ENDBRANCH   1  10
TORSDOF 4
ENDMDL
MODEL 3
REMARK VINA RESULT: -6.207412043      1.900      3.768
REMARK  4 active torsions:
REMARK  status: ('A' for Active; 'I' for Inactive)
REMARK    1  A    between atoms: C3_3  and  C4_4 
REMARK    2  A    between atoms: C4_4  and  N1_5 
REMARK    3  A    between atoms: N1_5  and  C5_8 
REMARK    4  A    between atoms: C5_8  and  C6_9 
ROOT
HETATM    1  C6  UNL     1      67.292  37.463  26.543  1.00  0.00     0.174 C 
HETATM    2  C7  UNL     1      68.107  37.819  25.346  1.00  0.00     0.205 C 
HETATM    3  O1  UNL     1      67.421  37.320  24.246  1.00  0.00    -0.352 OA
HETATM    4  C8  UNL     1      66.127  37.194  24.740  1.00  0.00     0.164 C 
HETATM    5  C9  UNL     1      65.292  36.278  23.858  1.00  0.00     0.068 C 
HETATM    6  C10 UNL     1      64.975  37.200  22.697  1.00  0.00     0.006 C 
HETATM    7  C11 UNL     1      64.853  38.584  23.283  1.00  0.00     0.006 C 
HETATM    8  C12 UNL     1      65.405  38.524  24.683  1.00  0.00     0.068 C 
HETATM    9  O2  UNL     1      66.223  36.733  26.029  1.00  0.00    -0.346 OA
ENDROOT
BRANCH   1  10
HETATM   10  C5  UNL     1      68.041  36.563  27.495  1.00  0.00     0.266 C 
BRANCH  10  11
HETATM   11  N1  UNL     1      68.712  35.480  26.817  1.00  0.00    -0.072 N 
ATOM     12  H12 UNL     1      69.726  35.587  26.845  1.00  0.00     0.277 HD
ATOM     13  H11 UNL     1      68.582  35.526  25.807  1.00  0.00     0.277 HD
BRANCH  11  14
HETATM   14  C4  UNL     1      68.298  34.223  27.347  1.00  0.00     0.237 C 
BRANCH  14  15
HETATM   15  C3  UNL     1      67.345  33.466  26.490  1.00  0.00     0.011 C 
HETATM   16  C2  UNL     1      67.652  32.014  26.280  1.00  0.00     0.006 C 
HETATM   17  C1  UNL     1      66.275  31.612  26.804  1.00  0.00     0.001 C 
HETATM   18  C13 UNL     1      66.124  33.031  27.306  1.00  0.00     0.006 C 
ENDBRANCH  14  15
ENDBRANCH  11  14
ENDBRANCH  10  11
ENDBRANCH   1  10
TORSDOF 4
ENDMDL
MODEL 4
REMARK VINA RESULT: -6.064451741      2.237      3.472
REMARK  4 active torsions:
REMARK  status: ('A' for Active; 'I' for Inactive)
REMARK    1  A    between atoms: C3_3  and  C4_4 
REMARK    2  A    between atoms: C4_4  and  N1_5 
REMARK    3  A    between atoms: N1_5  and  C5_8 
REMARK    4  A    between atoms: C5_8  and  C6_9 
ROOT
HETATM    1  C6  UNL     1      65.306  36.923  24.912  1.00  0.00     0.174 C 
HETATM    2  C7  UNL     1      65.355  38.413  24.909  1.00  0.00     0.205 C 
HETATM    3  O1  UNL     1      66.366  38.767  24.024  1.00  0.00    -0.352 OA
HETATM    4  C8  UNL     1      66.479  37.627  23.235  1.00  0.00     0.164 C 
HETATM    5  C9  UNL     1      67.797  37.615  22.477  1.00  0.00     0.068 C 
HETATM    6  C10 UNL     1      67.502  38.601  21.364  1.00  0.00     0.006 C 
HETATM    7  C11 UNL     1      66.038  38.441  21.040  1.00  0.00     0.006 C 
HETATM    8  C12 UNL     1      65.423  37.628  22.149  1.00  0.00     0.068 C 
HETATM    9  O2  UNL     1      66.342  36.540  24.063  1.00  0.00    -0.346 OA
ENDROOT
BRANCH   1  10
HETATM   10  C5  UNL     1      65.600  36.346  26.276  1.00  0.00     0.266 C 
BRANCH  10  11
HETATM   11  N1  UNL     1      65.722  34.908  26.253  1.00  0.00    -0.072 N 
ATOM     12  H12 UNL     1      65.543  34.528  25.324  1.00  0.00     0.277 HD
ATOM     13  H11 UNL     1      64.957  34.456  26.752  1.00  0.00     0.277 HD
BRANCH  11  14
HETATM   14  C4  UNL     1      66.994  34.505  26.755  1.00  0.00     0.237 C 
BRANCH  14  15
HETATM   15  C3  UNL     1      67.045  33.117  27.288  1.00  0.00     0.011 C 
HETATM   16  C2  UNL     1      65.826  32.274  27.064  1.00  0.00     0.006 C 
HETATM   17  C1  UNL     1      66.656  31.197  26.368  1.00  0.00     0.001 C 
HETATM   18  C13 UNL     1      67.788  32.198  26.314  1.00  0.00     0.006 C 
ENDBRANCH  14  15
ENDBRANCH  11  14
ENDBRANCH  10  11
ENDBRANCH   1  10
TORSDOF 4
ENDMDL
MODEL 5
REMARK VINA RESULT: -6.055326651      2.039      4.981
REMARK  4 active torsions:
REMARK  status: ('A' for Active; 'I' for Inactive)
REMARK    1  A    between atoms: C3_3  and  C4_4 
REMARK    2  A    between atoms: C4_4  and  N1_5 
REMARK    3  A    between atoms: N1_5  and  C5_8 
REMARK    4  A    between atoms: C5_8  and  C6_9 
ROOT
HETATM    1  C6  UNL     1      65.079  35.738  26.164  1.00  0.00     0.174 C 
HETATM    2  C7  UNL     1      64.485  34.731  25.238  1.00  0.00     0.205 C 
HETATM    3  O1  UNL     1      65.428  33.720  25.107  1.00  0.00    -0.352 OA
HETATM    4  C8  UNL     1      66.205  33.892  26.248  1.00  0.00     0.164 C 
HETATM    5  C9  UNL     1      67.542  33.180  26.112  1.00  0.00     0.068 C 
HETATM    6  C10 UNL     1      67.133  31.742  26.363  1.00  0.00     0.006 C 
HETATM    7  C11 UNL     1      66.004  31.796  27.363  1.00  0.00     0.006 C 
HETATM    8  C12 UNL     1      65.549  33.230  27.441  1.00  0.00     0.068 C 
HETATM    9  O2  UNL     1      66.350  35.243  26.445  1.00  0.00    -0.346 OA
ENDROOT
BRANCH   1  10
HETATM   10  C5  UNL     1      65.252  37.085  25.504  1.00  0.00     0.266 C 
BRANCH  10  11
HETATM   11  N1  UNL     1      65.004  38.180  26.411  1.00  0.00    -0.072 N 
ATOM     12  H12 UNL     1      64.547  37.866  27.267  1.00  0.00     0.277 HD
ATOM     13  H11 UNL     1      64.271  38.799  26.066  1.00  0.00     0.277 HD
BRANCH  11  14
HETATM   14  C4  UNL     1      66.210  38.889  26.684  1.00  0.00     0.237 C 
BRANCH  14  15
HETATM   15  C3  UNL     1      66.915  38.471  27.926  1.00  0.00     0.011 C 
HETATM   16  C2  UNL     1      68.234  37.785  27.742  1.00  0.00     0.006 C 
HETATM   17  C1  UNL     1      68.932  38.813  28.631  1.00  0.00     0.001 C 
HETATM   18  C13 UNL     1      67.679  39.654  28.529  1.00  0.00     0.006 C 
ENDBRANCH  14  15
ENDBRANCH  11  14
ENDBRANCH  10  11
ENDBRANCH   1  10
TORSDOF 4
ENDMDL
