MODEL 1
REMARK VINA RESULT: -7.501781794      0.000      0.000
REMARK  5 active torsions:
REMARK  status: ('A' for Active; 'I' for Inactive)
REMARK    1  A    between atoms: C6_6  and  S1_7 
REMARK    2  A    between atoms: S1_7  and  C7_10 
REMARK    3  A    between atoms: C9_12  and  N1_13 
REMARK    4  A    between atoms: N1_13  and  S2_15 
REMARK    5  A    between atoms: S2_15  and  C10_18 
ROOT
HETATM    1  C7  UNL     1     -21.578 -35.182  -4.551  1.00  0.00     0.147 A 
HETATM    2  C8  UNL     1     -22.258 -36.304  -4.125  1.00  0.00     0.093 A 
HETATM    3  C9  UNL     1     -22.433 -37.131  -5.203  1.00  0.00     0.132 A 
HETATM    4  N2  UNL     1     -21.874 -36.525  -6.253  1.00  0.00    -0.284 N 
ATOM      5  H2  UNL     1     -21.843 -36.894  -7.202  1.00  0.00     0.188 HD
HETATM    6  N3  UNL     1     -21.371 -35.374  -5.862  1.00  0.00    -0.288 N 
ATOM      7  H3  UNL     1     -20.887 -34.717  -6.474  1.00  0.00     0.188 HD
ENDROOT
BRANCH   1   8
HETATM    8  S1  UNL     1     -21.090 -33.813  -3.588  1.00  0.00     0.200 S 
HETATM    9  O1  UNL     1     -19.664 -33.461  -3.894  1.00  0.00    -0.220 OA
HETATM   10  O2  UNL     1     -21.152 -34.163  -2.102  1.00  0.00    -0.220 OA
BRANCH   8  11
HETATM   11  C6  UNL     1     -22.111 -32.403  -3.796  1.00  0.00     0.143 C 
HETATM   12  C2  UNL     1     -21.792 -31.245  -2.976  1.00  0.00    -0.069 C 
HETATM   13  C1  UNL     1     -21.132 -31.156  -1.643  1.00  0.00     0.044 C 
HETATM   14  C3  UNL     1     -22.215 -30.141  -3.624  1.00  0.00    -0.023 C 
HETATM   15  C4  UNL     1     -22.836 -30.531  -4.934  1.00  0.00     0.029 C 
HETATM   16  C5  UNL     1     -22.140 -31.878  -5.193  1.00  0.00     0.029 C 
ENDBRANCH   8  11
ENDBRANCH   1   8
BRANCH   3  17
HETATM   17  N1  UNL     1     -23.019 -38.289  -5.258  1.00  0.00    -0.268 N 
ATOM     18  H1  UNL     1     -22.519 -39.127  -4.959  1.00  0.00     0.180 HD
BRANCH  17  19
HETATM   19  S2  UNL     1     -24.638 -38.415  -5.836  1.00  0.00     0.235 S 
HETATM   20  O3  UNL     1     -25.599 -38.364  -4.683  1.00  0.00    -0.205 OA
HETATM   21  O4  UNL     1     -24.885 -37.324  -6.827  1.00  0.00    -0.205 OA
BRANCH  19  22
HETATM   22  C10 UNL     1     -24.855 -39.971  -6.658  1.00  0.00     0.121 C 
HETATM   23  C11 UNL     1     -25.267 -39.670  -8.092  1.00  0.00     0.027 C 
HETATM   24  C12 UNL     1     -23.605 -40.791  -6.686  1.00  0.00     0.027 C 
ENDBRANCH  19  22
ENDBRANCH  17  19
ENDBRANCH   3  17
TORSDOF 5
ENDMDL
MODEL 2
REMARK VINA RESULT: -7.481289703      3.596      6.392
REMARK  5 active torsions:
REMARK  status: ('A' for Active; 'I' for Inactive)
REMARK    1  A    between atoms: C6_6  and  S1_7 
REMARK    2  A    between atoms: S1_7  and  C7_10 
REMARK    3  A    between atoms: C9_12  and  N1_13 
REMARK    4  A    between atoms: N1_13  and  S2_15 
REMARK    5  A    between atoms: S2_15  and  C10_18 
ROOT
HETATM    1  C7  UNL     1     -22.413 -33.106  -4.487  1.00  0.00     0.147 A 
HETATM    2  C8  UNL     1     -21.812 -32.131  -5.255  1.00  0.00     0.093 A 
HETATM    3  C9  UNL     1     -22.752 -31.620  -6.109  1.00  0.00     0.132 A 
HETATM    4  N2  UNL     1     -23.893 -32.268  -5.864  1.00  0.00    -0.284 N 
ATOM      5  H2  UNL     1     -24.779 -32.109  -6.343  1.00  0.00     0.188 HD
HETATM    6  N3  UNL     1     -23.687 -33.144  -4.905  1.00  0.00    -0.288 N 
ATOM      7  H3  UNL     1     -24.401 -33.769  -4.530  1.00  0.00     0.188 HD
ENDROOT
BRANCH   1   8
HETATM    8  S1  UNL     1     -21.675 -34.073  -3.239  1.00  0.00     0.200 S 
HETATM    9  O1  UNL     1     -21.363 -33.212  -2.050  1.00  0.00    -0.220 OA
HETATM   10  O2  UNL     1     -20.348 -34.649  -3.731  1.00  0.00    -0.220 OA
BRANCH   8  11
HETATM   11  C6  UNL     1     -22.644 -35.447  -2.744  1.00  0.00     0.143 C 
HETATM   12  C2  UNL     1     -22.725 -36.556  -3.681  1.00  0.00    -0.069 C 
HETATM   13  C1  UNL     1     -22.602 -36.577  -5.166  1.00  0.00     0.044 C 
HETATM   14  C3  UNL     1     -22.958 -37.684  -2.981  1.00  0.00    -0.023 C 
HETATM   15  C4  UNL     1     -23.032 -37.363  -1.515  1.00  0.00     0.029 C 
HETATM   16  C5  UNL     1     -22.200 -36.070  -1.461  1.00  0.00     0.029 C 
ENDBRANCH   8  11
ENDBRANCH   1   8
BRANCH   3  17
HETATM   17  N1  UNL     1     -22.624 -30.687  -7.005  1.00  0.00    -0.268 N 
ATOM     18  H1  UNL     1     -22.831 -29.718  -6.763  1.00  0.00     0.180 HD
BRANCH  17  19
HETATM   19  S2  UNL     1     -22.103 -31.083  -8.600  1.00  0.00     0.235 S 
HETATM   20  O3  UNL     1     -21.412 -29.903  -9.222  1.00  0.00    -0.205 OA
HETATM   21  O4  UNL     1     -21.221 -32.287  -8.537  1.00  0.00    -0.205 OA
BRANCH  19  22
HETATM   22  C10 UNL     1     -23.511 -31.479  -9.602  1.00  0.00     0.121 C 
HETATM   23  C11 UNL     1     -23.367 -30.711 -10.908  1.00  0.00     0.027 C 
HETATM   24  C12 UNL     1     -23.605 -32.937  -9.919  1.00  0.00     0.027 C 
ENDBRANCH  19  22
ENDBRANCH  17  19
ENDBRANCH   3  17
TORSDOF 5
ENDMDL
MODEL 3
REMARK VINA RESULT: -7.469027897      2.020      2.501
REMARK  5 active torsions:
REMARK  status: ('A' for Active; 'I' for Inactive)
REMARK    1  A    between atoms: C6_6  and  S1_7 
REMARK    2  A    between atoms: S1_7  and  C7_10 
REMARK    3  A    between atoms: C9_12  and  N1_13 
REMARK    4  A    between atoms: N1_13  and  S2_15 
REMARK    5  A    between atoms: S2_15  and  C10_18 
ROOT
HETATM    1  C7  UNL     1     -22.875 -34.147  -5.534  1.00  0.00     0.147 A 
HETATM    2  C8  UNL     1     -22.301 -35.131  -6.311  1.00  0.00     0.093 A 
HETATM    3  C9  UNL     1     -22.933 -36.314  -6.037  1.00  0.00     0.132 A 
HETATM    4  N2  UNL     1     -23.866 -36.053  -5.118  1.00  0.00    -0.284 N 
ATOM      5  H2  UNL     1     -24.504 -36.736  -4.710  1.00  0.00     0.188 HD
HETATM    6  N3  UNL     1     -23.827 -34.771  -4.825  1.00  0.00    -0.288 N 
ATOM      7  H3  UNL     1     -24.439 -34.313  -4.149  1.00  0.00     0.188 HD
ENDROOT
BRANCH   1   8
HETATM    8  S1  UNL     1     -22.455 -32.455  -5.490  1.00  0.00     0.200 S 
HETATM    9  O1  UNL     1     -23.399 -31.677  -6.360  1.00  0.00    -0.220 OA
HETATM   10  O2  UNL     1     -21.052 -32.244  -6.057  1.00  0.00    -0.220 OA
BRANCH   8  11
HETATM   11  C6  UNL     1     -22.432 -31.774  -3.876  1.00  0.00     0.143 C 
HETATM   12  C2  UNL     1     -21.440 -32.313  -2.958  1.00  0.00    -0.069 C 
HETATM   13  C1  UNL     1     -20.794 -33.655  -2.913  1.00  0.00     0.044 C 
HETATM   14  C3  UNL     1     -21.146 -31.362  -2.050  1.00  0.00    -0.023 C 
HETATM   15  C4  UNL     1     -21.941 -30.122  -2.340  1.00  0.00     0.029 C 
HETATM   16  C5  UNL     1     -22.209 -30.298  -3.845  1.00  0.00     0.029 C 
ENDBRANCH   8  11
ENDBRANCH   1   8
BRANCH   3  17
HETATM   17  N1  UNL     1     -22.716 -37.493  -6.537  1.00  0.00    -0.268 N 
ATOM     18  H1  UNL     1     -21.760 -37.821  -6.672  1.00  0.00     0.180 HD
BRANCH  17  19
HETATM   19  S2  UNL     1     -24.041 -38.506  -6.974  1.00  0.00     0.235 S 
HETATM   20  O3  UNL     1     -25.324 -37.729  -6.913  1.00  0.00    -0.205 OA
HETATM   21  O4  UNL     1     -23.788 -39.075  -8.333  1.00  0.00    -0.205 OA
BRANCH  19  22
HETATM   22  C10 UNL     1     -24.164 -39.851  -5.824  1.00  0.00     0.121 C 
HETATM   23  C11 UNL     1     -23.640 -41.096  -6.527  1.00  0.00     0.027 C 
HETATM   24  C12 UNL     1     -23.354 -39.630  -4.587  1.00  0.00     0.027 C 
ENDBRANCH  19  22
ENDBRANCH  17  19
ENDBRANCH   3  17
TORSDOF 5
ENDMDL
MODEL 4
REMARK VINA RESULT: -7.445976290      1.956      2.468
REMARK  5 active torsions:
REMARK  status: ('A' for Active; 'I' for Inactive)
REMARK    1  A    between atoms: C6_6  and  S1_7 
REMARK    2  A    between atoms: S1_7  and  C7_10 
REMARK    3  A    between atoms: C9_12  and  N1_13 
REMARK    4  A    between atoms: N1_13  and  S2_15 
REMARK    5  A    between atoms: S2_15  and  C10_18 
ROOT
HETATM    1  C7  UNL     1     -22.943 -34.227  -5.419  1.00  0.00     0.147 A 
HETATM    2  C8  UNL     1     -22.402 -35.269  -6.142  1.00  0.00     0.093 A 
HETATM    3  C9  UNL     1     -23.087 -36.412  -5.822  1.00  0.00     0.132 A 
HETATM    4  N2  UNL     1     -24.017 -36.069  -4.928  1.00  0.00    -0.284 N 
ATOM      5  H2  UNL     1     -24.688 -36.705  -4.498  1.00  0.00     0.188 HD
HETATM    6  N3  UNL     1     -23.928 -34.777  -4.694  1.00  0.00    -0.288 N 
ATOM      7  H3  UNL     1     -24.527 -34.264  -4.048  1.00  0.00     0.188 HD
ENDROOT
BRANCH   1   8
HETATM    8  S1  UNL     1     -22.453 -32.554  -5.448  1.00  0.00     0.200 S 
HETATM    9  O1  UNL     1     -23.339 -31.783  -6.382  1.00  0.00    -0.220 OA
HETATM   10  O2  UNL     1     -21.027 -32.430  -5.985  1.00  0.00    -0.220 OA
BRANCH   8  11
HETATM   11  C6  UNL     1     -22.442 -31.793  -3.869  1.00  0.00     0.143 C 
HETATM   12  C2  UNL     1     -21.471 -32.298  -2.912  1.00  0.00    -0.069 C 
HETATM   13  C1  UNL     1     -20.844 -33.645  -2.790  1.00  0.00     0.044 C 
HETATM   14  C3  UNL     1     -21.176 -31.307  -2.048  1.00  0.00    -0.023 C 
HETATM   15  C4  UNL     1     -21.949 -30.072  -2.412  1.00  0.00     0.029 C 
HETATM   16  C5  UNL     1     -22.199 -30.321  -3.909  1.00  0.00     0.029 C 
ENDBRANCH   8  11
ENDBRANCH   1   8
BRANCH   3  17
HETATM   17  N1  UNL     1     -22.914 -37.621  -6.265  1.00  0.00    -0.268 N 
ATOM     18  H1  UNL     1     -22.269 -37.793  -7.035  1.00  0.00     0.180 HD
BRANCH  17  19
HETATM   19  S2  UNL     1     -23.772 -38.935  -5.553  1.00  0.00     0.235 S 
HETATM   20  O3  UNL     1     -23.329 -39.128  -4.131  1.00  0.00    -0.205 OA
HETATM   21  O4  UNL     1     -25.239 -38.669  -5.657  1.00  0.00    -0.205 OA
BRANCH  19  22
HETATM   22  C10 UNL     1     -23.415 -40.427  -6.442  1.00  0.00     0.121 C 
HETATM   23  C11 UNL     1     -23.353 -41.557  -5.423  1.00  0.00     0.027 C 
HETATM   24  C12 UNL     1     -24.461 -40.763  -7.456  1.00  0.00     0.027 C 
ENDBRANCH  19  22
ENDBRANCH  17  19
ENDBRANCH   3  17
TORSDOF 5
ENDMDL
MODEL 5
REMARK VINA RESULT: -7.420892762      1.049      1.064
REMARK  5 active torsions:
REMARK  status: ('A' for Active; 'I' for Inactive)
REMARK    1  A    between atoms: C6_6  and  S1_7 
REMARK    2  A    between atoms: S1_7  and  C7_10 
REMARK    3  A    between atoms: C9_12  and  N1_13 
REMARK    4  A    between atoms: N1_13  and  S2_15 
REMARK    5  A    between atoms: S2_15  and  C10_18 
ROOT
HETATM    1  C7  UNL     1     -22.443 -34.759  -4.009  1.00  0.00     0.147 A 
HETATM    2  C8  UNL     1     -22.067 -36.052  -4.311  1.00  0.00     0.093 A 
HETATM    3  C9  UNL     1     -23.101 -36.652  -4.979  1.00  0.00     0.132 A 
HETATM    4  N2  UNL     1     -24.076 -35.746  -5.080  1.00  0.00    -0.284 N 
ATOM      5  H2  UNL     1     -24.979 -35.895  -5.529  1.00  0.00     0.188 HD
HETATM    6  N3  UNL     1     -23.682 -34.630  -4.505  1.00  0.00    -0.288 N 
ATOM      7  H3  UNL     1     -24.244 -33.781  -4.445  1.00  0.00     0.188 HD
ENDROOT
BRANCH   1   8
HETATM    8  S1  UNL     1     -21.504 -33.554  -3.169  1.00  0.00     0.200 S 
HETATM    9  O1  UNL     1     -20.116 -33.507  -3.738  1.00  0.00    -0.220 OA
HETATM   10  O2  UNL     1     -21.367 -33.925  -1.693  1.00  0.00    -0.220 OA
BRANCH   8  11
HETATM   11  C6  UNL     1     -22.218 -31.954  -3.200  1.00  0.00     0.143 C 
HETATM   12  C2  UNL     1     -21.642 -30.969  -2.299  1.00  0.00    -0.069 C 
HETATM   13  C1  UNL     1     -20.937 -31.144  -0.998  1.00  0.00     0.044 C 
HETATM   14  C3  UNL     1     -21.848 -29.745  -2.825  1.00  0.00    -0.023 C 
HETATM   15  C4  UNL     1     -22.577 -29.872  -4.132  1.00  0.00     0.029 C 
HETATM   16  C5  UNL     1     -22.182 -31.302  -4.543  1.00  0.00     0.029 C 
ENDBRANCH   8  11
ENDBRANCH   1   8
BRANCH   3  17
HETATM   17  N1  UNL     1     -23.179 -37.860  -5.450  1.00  0.00    -0.268 N 
ATOM     18  H1  UNL     1     -22.333 -38.419  -5.561  1.00  0.00     0.180 HD
BRANCH  17  19
HETATM   19  S2  UNL     1     -24.709 -38.522  -5.886  1.00  0.00     0.235 S 
HETATM   20  O3  UNL     1     -25.629 -38.517  -4.699  1.00  0.00    -0.205 OA
HETATM   21  O4  UNL     1     -25.264 -37.745  -7.035  1.00  0.00    -0.205 OA
BRANCH  19  22
HETATM   22  C10 UNL     1     -24.501 -40.206  -6.405  1.00  0.00     0.121 C 
HETATM   23  C11 UNL     1     -25.040 -40.311  -7.825  1.00  0.00     0.027 C 
HETATM   24  C12 UNL     1     -23.069 -40.637  -6.410  1.00  0.00     0.027 C 
ENDBRANCH  19  22
ENDBRANCH  17  19
ENDBRANCH   3  17
TORSDOF 5
ENDMDL
