MODEL 1
REMARK VINA RESULT: -6.406067184      0.000      0.000
REMARK  6 active torsions:
REMARK  status: ('A' for Active; 'I' for Inactive)
REMARK    1  A    between atoms: N1_2  and  C2_4 
REMARK    2  A    between atoms: C2_4  and  C3_6 
REMARK    3  A    between atoms: C3_6  and  C4_7 
REMARK    4  A    between atoms: C4_7  and  N2_8 
REMARK    5  A    between atoms: N2_8  and  S2_10 
REMARK    6  A    between atoms: C14_21  and  O3_22 
ROOT
HETATM    1  C3  UNL     1     -21.896 -34.534  -5.328  1.00  0.00     0.060 C 
HETATM    2  C7  UNL     1     -20.521 -34.180  -4.773  1.00  0.00     0.006 C 
HETATM    3  C8  UNL     1     -20.291 -34.955  -3.509  1.00  0.00     0.010 C 
HETATM    4  C9  UNL     1     -21.328 -34.649  -2.450  1.00  0.00    -0.011 C 
HETATM    5  C10 UNL     1     -21.170 -33.153  -2.141  1.00  0.00     0.009 C 
HETATM    6  C11 UNL     1     -21.433 -32.359  -3.383  1.00  0.00    -0.011 C 
HETATM    7  C12 UNL     1     -20.405 -32.726  -4.414  1.00  0.00     0.010 C 
HETATM    8  C13 UNL     1     -22.789 -32.667  -3.962  1.00  0.00     0.043 C 
HETATM    9  C14 UNL     1     -22.900 -34.165  -4.289  1.00  0.00     0.074 C 
HETATM   10  C15 UNL     1     -22.729 -34.827  -2.954  1.00  0.00     0.043 C 
ENDROOT
BRANCH   1  11
HETATM   11  C2  UNL     1     -22.141 -33.757  -6.565  1.00  0.00     0.086 C 
HETATM   12  S1  UNL     1     -21.191 -33.981  -7.861  1.00  0.00    -0.065 SA
BRANCH  11  13
HETATM   13  N1  UNL     1     -23.187 -32.802  -6.691  1.00  0.00    -0.388 N 
HETATM   14  C1  UNL     1     -23.054 -31.617  -7.515  1.00  0.00     0.147 C 
ATOM     15  H1  UNL     1     -24.060 -32.954  -6.184  1.00  0.00     0.159 HD
ENDBRANCH  11  13
ENDBRANCH   1  11
BRANCH   1  16
HETATM   16  C4  UNL     1     -21.846 -35.993  -5.618  1.00  0.00     0.127 C 
BRANCH  16  17
HETATM   17  N2  UNL     1     -23.006 -36.774  -5.464  1.00  0.00    -0.214 NA
HETATM   18  C5  UNL     1     -22.853 -37.824  -4.445  1.00  0.00     0.129 C 
BRANCH  17  19
HETATM   19  S2  UNL     1     -23.644 -37.536  -6.851  1.00  0.00     0.207 S 
HETATM   20  C6  UNL     1     -23.213 -39.194  -7.122  1.00  0.00     0.180 C 
HETATM   21  O1  UNL     1     -23.284 -36.715  -8.084  1.00  0.00    -0.212 OA
HETATM   22  O2  UNL     1     -25.175 -37.504  -6.714  1.00  0.00    -0.212 OA
ENDBRANCH  17  19
ENDBRANCH  16  17
ENDBRANCH   1  16
BRANCH   9  23
HETATM   23  O3  UNL     1     -24.219 -34.382  -4.679  1.00  0.00    -0.389 OA
ATOM     24  H3  UNL     1     -24.737 -34.854  -4.038  1.00  0.00     0.210 HD
ENDBRANCH   9  23
TORSDOF 6
ENDMDL
MODEL 2
REMARK VINA RESULT: -6.171405412      2.727      4.195
REMARK  6 active torsions:
REMARK  status: ('A' for Active; 'I' for Inactive)
REMARK    1  A    between atoms: N1_2  and  C2_4 
REMARK    2  A    between atoms: C2_4  and  C3_6 
REMARK    3  A    between atoms: C3_6  and  C4_7 
REMARK    4  A    between atoms: C4_7  and  N2_8 
REMARK    5  A    between atoms: N2_8  and  S2_10 
REMARK    6  A    between atoms: C14_21  and  O3_22 
ROOT
HETATM    1  C3  UNL     1     -21.635 -32.690  -4.445  1.00  0.00     0.060 C 
HETATM    2  C7  UNL     1     -20.633 -33.360  -3.512  1.00  0.00     0.006 C 
HETATM    3  C8  UNL     1     -20.148 -34.629  -4.148  1.00  0.00     0.010 C 
HETATM    4  C9  UNL     1     -21.274 -35.602  -4.420  1.00  0.00    -0.011 C 
HETATM    5  C10 UNL     1     -21.865 -35.942  -3.044  1.00  0.00     0.009 C 
HETATM    6  C11 UNL     1     -22.390 -34.691  -2.407  1.00  0.00    -0.011 C 
HETATM    7  C12 UNL     1     -21.244 -33.744  -2.194  1.00  0.00     0.010 C 
HETATM    8  C13 UNL     1     -23.395 -33.999  -3.289  1.00  0.00     0.043 C 
HETATM    9  C14 UNL     1     -22.761 -33.647  -4.645  1.00  0.00     0.074 C 
HETATM   10  C15 UNL     1     -22.386 -34.984  -5.212  1.00  0.00     0.043 C 
ENDROOT
BRANCH   1  11
HETATM   11  C2  UNL     1     -22.136 -31.446  -3.815  1.00  0.00     0.086 C 
HETATM   12  S1  UNL     1     -21.522 -30.954  -2.397  1.00  0.00    -0.065 SA
BRANCH  11  13
HETATM   13  N1  UNL     1     -23.150 -30.634  -4.394  1.00  0.00    -0.388 N 
HETATM   14  C1  UNL     1     -22.939 -29.230  -4.687  1.00  0.00     0.147 C 
ATOM     15  H1  UNL     1     -24.055 -31.052  -4.610  1.00  0.00     0.159 HD
ENDBRANCH  11  13
ENDBRANCH   1  11
BRANCH   1  16
HETATM   16  C4  UNL     1     -20.881 -32.387  -5.691  1.00  0.00     0.127 C 
BRANCH  16  17
HETATM   17  N2  UNL     1     -21.442 -32.708  -6.941  1.00  0.00    -0.214 NA
HETATM   18  C5  UNL     1     -20.511 -33.444  -7.810  1.00  0.00     0.129 C 
BRANCH  17  19
HETATM   19  S2  UNL     1     -22.076 -31.433  -7.880  1.00  0.00     0.207 S 
HETATM   20  C6  UNL     1     -22.067 -31.630  -9.604  1.00  0.00     0.180 C 
HETATM   21  O1  UNL     1     -21.357 -30.139  -7.519  1.00  0.00    -0.212 OA
HETATM   22  O2  UNL     1     -23.548 -31.266  -7.473  1.00  0.00    -0.212 OA
ENDBRANCH  17  19
ENDBRANCH  16  17
ENDBRANCH   1  16
BRANCH   9  23
HETATM   23  O3  UNL     1     -23.790 -33.147  -5.438  1.00  0.00    -0.389 OA
ATOM     24  H3  UNL     1     -24.104 -33.761  -6.092  1.00  0.00     0.210 HD
ENDBRANCH   9  23
TORSDOF 6
ENDMDL
MODEL 3
REMARK VINA RESULT: -6.139919235      1.158      1.217
REMARK  6 active torsions:
REMARK  status: ('A' for Active; 'I' for Inactive)
REMARK    1  A    between atoms: N1_2  and  C2_4 
REMARK    2  A    between atoms: C2_4  and  C3_6 
REMARK    3  A    between atoms: C3_6  and  C4_7 
REMARK    4  A    between atoms: C4_7  and  N2_8 
REMARK    5  A    between atoms: N2_8  and  S2_10 
REMARK    6  A    between atoms: C14_21  and  O3_22 
ROOT
HETATM    1  C3  UNL     1     -21.859 -35.100  -5.175  1.00  0.00     0.060 C 
HETATM    2  C7  UNL     1     -20.536 -34.674  -4.550  1.00  0.00     0.006 C 
HETATM    3  C8  UNL     1     -20.491 -35.152  -3.129  1.00  0.00     0.010 C 
HETATM    4  C9  UNL     1     -21.619 -34.582  -2.296  1.00  0.00    -0.011 C 
HETATM    5  C10 UNL     1     -21.410 -33.061  -2.306  1.00  0.00     0.009 C 
HETATM    6  C11 UNL     1     -21.489 -32.559  -3.716  1.00  0.00    -0.011 C 
HETATM    7  C12 UNL     1     -20.376 -33.181  -4.509  1.00  0.00     0.010 C 
HETATM    8  C13 UNL     1     -22.787 -32.946  -4.372  1.00  0.00     0.043 C 
HETATM    9  C14 UNL     1     -22.948 -34.476  -4.372  1.00  0.00     0.074 C 
HETATM   10  C15 UNL     1     -22.964 -34.824  -2.913  1.00  0.00     0.043 C 
ENDROOT
BRANCH   1  11
HETATM   11  C2  UNL     1     -21.921 -34.615  -6.573  1.00  0.00     0.086 C 
HETATM   12  S1  UNL     1     -20.859 -33.502  -7.090  1.00  0.00    -0.065 SA
BRANCH  11  13
HETATM   13  N1  UNL     1     -22.880 -35.077  -7.517  1.00  0.00    -0.388 N 
HETATM   14  C1  UNL     1     -22.618 -35.081  -8.943  1.00  0.00     0.147 C 
ATOM     15  H1  UNL     1     -23.781 -35.416  -7.180  1.00  0.00     0.159 HD
ENDBRANCH  11  13
ENDBRANCH   1  11
BRANCH   1  16
HETATM   16  C4  UNL     1     -21.862 -36.588  -5.130  1.00  0.00     0.127 C 
BRANCH  16  17
HETATM   17  N2  UNL     1     -23.066 -37.275  -4.893  1.00  0.00    -0.214 NA
HETATM   18  C5  UNL     1     -22.967 -38.230  -3.778  1.00  0.00     0.129 C 
BRANCH  17  19
HETATM   19  S2  UNL     1     -23.769 -38.124  -6.195  1.00  0.00     0.207 S 
HETATM   20  C6  UNL     1     -24.352 -39.728  -5.882  1.00  0.00     0.180 C 
HETATM   21  O1  UNL     1     -22.783 -38.166  -7.356  1.00  0.00    -0.212 OA
HETATM   22  O2  UNL     1     -24.985 -37.306  -6.659  1.00  0.00    -0.212 OA
ENDBRANCH  17  19
ENDBRANCH  16  17
ENDBRANCH   1  16
BRANCH   9  23
HETATM   23  O3  UNL     1     -24.227 -34.733  -4.861  1.00  0.00    -0.389 OA
ATOM     24  H3  UNL     1     -24.525 -35.621  -4.707  1.00  0.00     0.210 HD
ENDBRANCH   9  23
TORSDOF 6
ENDMDL
MODEL 4
REMARK VINA RESULT: -6.010213155      2.838      4.388
REMARK  6 active torsions:
REMARK  status: ('A' for Active; 'I' for Inactive)
REMARK    1  A    between atoms: N1_2  and  C2_4 
REMARK    2  A    between atoms: C2_4  and  C3_6 
REMARK    3  A    between atoms: C3_6  and  C4_7 
REMARK    4  A    between atoms: C4_7  and  N2_8 
REMARK    5  A    between atoms: N2_8  and  S2_10 
REMARK    6  A    between atoms: C14_21  and  O3_22 
ROOT
HETATM    1  C3  UNL     1     -21.565 -32.967  -5.909  1.00  0.00     0.060 C 
HETATM    2  C7  UNL     1     -20.932 -32.546  -4.588  1.00  0.00     0.006 C 
HETATM    3  C8  UNL     1     -19.933 -33.585  -4.172  1.00  0.00     0.010 C 
HETATM    4  C9  UNL     1     -20.565 -34.948  -3.988  1.00  0.00    -0.011 C 
HETATM    5  C10 UNL     1     -21.589 -34.776  -2.857  1.00  0.00     0.009 C 
HETATM    6  C11 UNL     1     -22.619 -33.768  -3.268  1.00  0.00    -0.011 C 
HETATM    7  C12 UNL     1     -21.938 -32.446  -3.476  1.00  0.00     0.010 C 
HETATM    8  C13 UNL     1     -23.281 -34.149  -4.566  1.00  0.00     0.043 C 
HETATM    9  C14 UNL     1     -22.231 -34.281  -5.681  1.00  0.00     0.074 C 
HETATM   10  C15 UNL     1     -21.342 -35.386  -5.194  1.00  0.00     0.043 C 
ENDROOT
BRANCH   1  11
HETATM   11  C2  UNL     1     -22.568 -31.956  -6.317  1.00  0.00     0.086 C 
HETATM   12  S1  UNL     1     -22.513 -30.463  -5.685  1.00  0.00    -0.065 SA
BRANCH  11  13
HETATM   13  N1  UNL     1     -23.605 -32.222  -7.253  1.00  0.00    -0.388 N 
HETATM   14  C1  UNL     1     -23.576 -31.697  -8.604  1.00  0.00     0.147 C 
ATOM     15  H1  UNL     1     -24.395 -32.800  -6.966  1.00  0.00     0.159 HD
ENDBRANCH  11  13
ENDBRANCH   1  11
BRANCH   1  16
HETATM   16  C4  UNL     1     -20.445 -33.027  -6.887  1.00  0.00     0.127 C 
BRANCH  16  17
HETATM   17  N2  UNL     1     -20.690 -32.750  -8.245  1.00  0.00    -0.214 NA
HETATM   18  C5  UNL     1     -20.534 -33.933  -9.104  1.00  0.00     0.129 C 
BRANCH  17  19
HETATM   19  S2  UNL     1     -19.792 -31.499  -8.977  1.00  0.00     0.207 S 
HETATM   20  C6  UNL     1     -20.373 -30.877 -10.489  1.00  0.00     0.180 C 
HETATM   21  O1  UNL     1     -18.346 -31.950  -9.144  1.00  0.00    -0.212 OA
HETATM   22  O2  UNL     1     -19.789 -30.315  -7.996  1.00  0.00    -0.212 OA
ENDBRANCH  17  19
ENDBRANCH  16  17
ENDBRANCH   1  16
BRANCH   9  23
HETATM   23  O3  UNL     1     -22.906 -34.770  -6.796  1.00  0.00    -0.389 OA
ATOM     24  H3  UNL     1     -22.445 -35.465  -7.250  1.00  0.00     0.210 HD
ENDBRANCH   9  23
TORSDOF 6
ENDMDL
MODEL 5
REMARK VINA RESULT: -5.884551639      1.639      1.819
REMARK  6 active torsions:
REMARK  status: ('A' for Active; 'I' for Inactive)
REMARK    1  A    between atoms: N1_2  and  C2_4 
REMARK    2  A    between atoms: C2_4  and  C3_6 
REMARK    3  A    between atoms: C3_6  and  C4_7 
REMARK    4  A    between atoms: C4_7  and  N2_8 
REMARK    5  A    between atoms: N2_8  and  S2_10 
REMARK    6  A    between atoms: C14_21  and  O3_22 
ROOT
HETATM    1  C3  UNL     1     -21.764 -34.034  -5.385  1.00  0.00     0.060 C 
HETATM    2  C7  UNL     1     -20.434 -33.973  -4.643  1.00  0.00     0.006 C 
HETATM    3  C8  UNL     1     -20.369 -35.109  -3.665  1.00  0.00     0.010 C 
HETATM    4  C9  UNL     1     -21.487 -35.054  -2.647  1.00  0.00    -0.011 C 
HETATM    5  C10 UNL     1     -21.282 -33.739  -1.881  1.00  0.00     0.009 C 
HETATM    6  C11 UNL     1     -21.381 -32.588  -2.837  1.00  0.00    -0.011 C 
HETATM    7  C12 UNL     1     -20.277 -32.709  -3.847  1.00  0.00     0.010 C 
HETATM    8  C13 UNL     1     -22.687 -32.599  -3.585  1.00  0.00     0.043 C 
HETATM    9  C14 UNL     1     -22.844 -33.916  -4.364  1.00  0.00     0.074 C 
HETATM   10  C15 UNL     1     -22.840 -34.960  -3.287  1.00  0.00     0.043 C 
ENDROOT
BRANCH   1  11
HETATM   11  C2  UNL     1     -21.846 -32.903  -6.339  1.00  0.00     0.086 C 
HETATM   12  S1  UNL     1     -20.502 -32.091  -6.747  1.00  0.00    -0.065 SA
BRANCH  11  13
HETATM   13  N1  UNL     1     -23.064 -32.474  -6.936  1.00  0.00    -0.388 N 
HETATM   14  C1  UNL     1     -23.091 -31.561  -8.061  1.00  0.00     0.147 C 
ATOM     15  H1  UNL     1     -23.947 -32.820  -6.560  1.00  0.00     0.159 HD
ENDBRANCH  11  13
ENDBRANCH   1  11
BRANCH   1  16
HETATM   16  C4  UNL     1     -21.763 -35.336  -6.105  1.00  0.00     0.127 C 
BRANCH  16  17
HETATM   17  N2  UNL     1     -22.715 -35.577  -7.111  1.00  0.00    -0.214 NA
HETATM   18  C5  UNL     1     -23.420 -36.856  -6.933  1.00  0.00     0.129 C 
BRANCH  17  19
HETATM   19  S2  UNL     1     -22.189 -35.537  -8.733  1.00  0.00     0.207 S 
HETATM   20  C6  UNL     1     -22.107 -37.047  -9.584  1.00  0.00     0.180 C 
HETATM   21  O1  UNL     1     -20.831 -34.848  -8.802  1.00  0.00    -0.212 OA
HETATM   22  O2  UNL     1     -23.185 -34.659  -9.506  1.00  0.00    -0.212 OA
ENDBRANCH  17  19
ENDBRANCH  16  17
ENDBRANCH   1  16
BRANCH   9  23
HETATM   23  O3  UNL     1     -24.128 -33.900  -4.902  1.00  0.00    -0.389 OA
ATOM     24  H3  UNL     1     -24.777 -33.496  -4.338  1.00  0.00     0.210 HD
ENDBRANCH   9  23
TORSDOF 6
ENDMDL
