MODEL 1
REMARK VINA RESULT: -7.035958219      0.000      0.000
REMARK  6 active torsions:
REMARK  status: ('A' for Active; 'I' for Inactive)
REMARK    1  A    between atoms: C2_2  and  N1_3 
REMARK    2  A    between atoms: N1_3  and  C3_4 
REMARK    3  A    between atoms: N1_3  and  S1_13 
REMARK    4  A    between atoms: C3_4  and  C4_5 
REMARK       I    between atoms: C4_5  and  N2_7 
REMARK    5  A    between atoms: N2_7  and  C5_9 
REMARK    6  A    between atoms: S1_13  and  C9_16 
ROOT
HETATM    1  S1  UNL     1     -21.197 -33.961  -2.875  1.00  0.00     0.246 S 
HETATM    2  O2  UNL     1     -20.128 -33.089  -3.508  1.00  0.00    -0.206 OA
HETATM    3  O3  UNL     1     -20.648 -35.384  -2.853  1.00  0.00    -0.206 OA
ENDROOT
BRANCH   1   4
HETATM    4  N1  UNL     1     -22.553 -33.908  -3.906  1.00  0.00    -0.198 NA
BRANCH   4   5
HETATM    5  C2  UNL     1     -23.061 -32.605  -4.206  1.00  0.00     0.103 C 
HETATM    6  C1  UNL     1     -22.953 -32.192  -5.629  1.00  0.00     0.021 C 
ENDBRANCH   4   5
BRANCH   4   7
HETATM    7  C3  UNL     1     -22.215 -34.660  -5.099  1.00  0.00     0.210 C 
BRANCH   7   8
HETATM    8  C4  UNL     1     -22.860 -35.966  -5.216  1.00  0.00     0.232 C 
HETATM    9  O1  UNL     1     -23.231 -36.413  -6.316  1.00  0.00    -0.272 OA
HETATM   10  N2  UNL     1     -23.073 -36.748  -4.065  1.00  0.00    -0.352 N 
ATOM     11  H2  UNL     1     -22.766 -36.376  -3.166  1.00  0.00     0.163 HD
BRANCH  10  12
HETATM   12  C5  UNL     1     -23.704 -38.052  -4.086  1.00  0.00     0.022 C 
HETATM   13  C6  UNL     1     -25.142 -37.979  -4.520  1.00  0.00     0.037 C 
HETATM   14  C7  UNL     1     -22.952 -39.055  -4.892  1.00  0.00     0.037 C 
HETATM   15  C8  UNL     1     -23.709 -38.542  -2.632  1.00  0.00     0.037 C 
ENDBRANCH  10  12
ENDBRANCH   7   8
ENDBRANCH   4   7
ENDBRANCH   1   4
BRANCH   1  16
HETATM   16  C9  UNL     1     -21.453 -33.467  -1.252  1.00  0.00     0.103 A 
HETATM   17  C10 UNL     1     -21.335 -32.119  -0.936  1.00  0.00    -0.032 A 
HETATM   18  C11 UNL     1     -20.969 -31.071  -1.921  1.00  0.00     0.050 C 
HETATM   19  C12 UNL     1     -21.567 -31.734   0.367  1.00  0.00     0.082 A 
HETATM   20  C13 UNL     1     -21.907 -32.644   1.346  1.00  0.00     0.246 A 
HETATM   21  O4  UNL     1     -22.104 -32.220   2.517  1.00  0.00    -0.268 OA
HETATM   22  N3  UNL     1     -22.009 -33.924   0.998  1.00  0.00    -0.326 N 
HETATM   23  C14 UNL     1     -21.795 -34.382  -0.272  1.00  0.00     0.032 A 
ATOM     24  H3  UNL     1     -22.260 -34.602   1.718  1.00  0.00     0.169 HD
HETATM   25  C15 UNL     1     -21.974 -35.834  -0.512  1.00  0.00     0.070 C 
ENDBRANCH   1  16
TORSDOF 6
ENDMDL
MODEL 2
REMARK VINA RESULT: -7.003219445      2.270      5.243
REMARK  6 active torsions:
REMARK  status: ('A' for Active; 'I' for Inactive)
REMARK    1  A    between atoms: C2_2  and  N1_3 
REMARK    2  A    between atoms: N1_3  and  C3_4 
REMARK    3  A    between atoms: N1_3  and  S1_13 
REMARK    4  A    between atoms: C3_4  and  C4_5 
REMARK       I    between atoms: C4_5  and  N2_7 
REMARK    5  A    between atoms: N2_7  and  C5_9 
REMARK    6  A    between atoms: S1_13  and  C9_16 
ROOT
HETATM    1  S1  UNL     1     -21.425 -33.410  -4.081  1.00  0.00     0.246 S 
HETATM    2  O2  UNL     1     -21.065 -34.045  -5.413  1.00  0.00    -0.206 OA
HETATM    3  O3  UNL     1     -20.153 -33.399  -3.240  1.00  0.00    -0.206 OA
ENDROOT
BRANCH   1   4
HETATM    4  N1  UNL     1     -22.568 -34.433  -3.340  1.00  0.00    -0.198 NA
BRANCH   4   5
HETATM    5  C2  UNL     1     -23.647 -34.874  -4.171  1.00  0.00     0.103 C 
HETATM    6  C1  UNL     1     -23.599 -36.304  -4.569  1.00  0.00     0.021 C 
ENDBRANCH   4   5
BRANCH   4   7
HETATM    7  C3  UNL     1     -21.838 -35.536  -2.747  1.00  0.00     0.210 C 
BRANCH   7   8
HETATM    8  C4  UNL     1     -21.870 -35.593  -1.288  1.00  0.00     0.232 C 
HETATM    9  O1  UNL     1     -21.981 -36.674  -0.681  1.00  0.00    -0.272 OA
HETATM   10  N2  UNL     1     -21.775 -34.406  -0.537  1.00  0.00    -0.352 N 
ATOM     11  H2  UNL     1     -21.684 -33.524  -1.041  1.00  0.00     0.163 HD
BRANCH  10  12
HETATM   12  C5  UNL     1     -21.799 -34.368   0.910  1.00  0.00     0.022 C 
HETATM   13  C6  UNL     1     -22.976 -35.112   1.477  1.00  0.00     0.037 C 
HETATM   14  C7  UNL     1     -20.525 -34.828   1.532  1.00  0.00     0.037 C 
HETATM   15  C8  UNL     1     -21.988 -32.893   1.290  1.00  0.00     0.037 C 
ENDBRANCH  10  12
ENDBRANCH   7   8
ENDBRANCH   4   7
ENDBRANCH   1   4
BRANCH   1  16
HETATM   16  C9  UNL     1     -21.907 -31.783  -4.333  1.00  0.00     0.103 A 
HETATM   17  C10 UNL     1     -21.816 -30.886  -3.275  1.00  0.00    -0.032 A 
HETATM   18  C11 UNL     1     -21.350 -31.260  -1.917  1.00  0.00     0.050 C 
HETATM   19  C12 UNL     1     -22.183 -29.577  -3.500  1.00  0.00     0.082 A 
HETATM   20  C13 UNL     1     -22.632 -29.146  -4.731  1.00  0.00     0.246 A 
HETATM   21  O4  UNL     1     -22.952 -27.934  -4.862  1.00  0.00    -0.268 OA
HETATM   22  N3  UNL     1     -22.703 -30.040  -5.715  1.00  0.00    -0.326 N 
HETATM   23  C14 UNL     1     -22.356 -31.353  -5.570  1.00  0.00     0.032 A 
ATOM     24  H3  UNL     1     -23.034 -29.727  -6.628  1.00  0.00     0.169 HD
HETATM   25  C15 UNL     1     -22.461 -32.221  -6.767  1.00  0.00     0.070 C 
ENDBRANCH   1  16
TORSDOF 6
ENDMDL
MODEL 3
REMARK VINA RESULT: -7.001940728      0.564      1.790
REMARK  6 active torsions:
REMARK  status: ('A' for Active; 'I' for Inactive)
REMARK    1  A    between atoms: C2_2  and  N1_3 
REMARK    2  A    between atoms: N1_3  and  C3_4 
REMARK    3  A    between atoms: N1_3  and  S1_13 
REMARK    4  A    between atoms: C3_4  and  C4_5 
REMARK       I    between atoms: C4_5  and  N2_7 
REMARK    5  A    between atoms: N2_7  and  C5_9 
REMARK    6  A    between atoms: S1_13  and  C9_16 
ROOT
HETATM    1  S1  UNL     1     -21.214 -33.939  -2.873  1.00  0.00     0.246 S 
HETATM    2  O2  UNL     1     -20.133 -33.089  -3.515  1.00  0.00    -0.206 OA
HETATM    3  O3  UNL     1     -20.672 -35.363  -2.804  1.00  0.00    -0.206 OA
ENDROOT
BRANCH   1   4
HETATM    4  N1  UNL     1     -22.555 -33.908  -3.923  1.00  0.00    -0.198 NA
BRANCH   4   5
HETATM    5  C2  UNL     1     -23.061 -32.612  -4.257  1.00  0.00     0.103 C 
HETATM    6  C1  UNL     1     -22.956 -32.238  -5.690  1.00  0.00     0.021 C 
ENDBRANCH   4   5
BRANCH   4   7
HETATM    7  C3  UNL     1     -22.201 -34.685  -5.095  1.00  0.00     0.210 C 
BRANCH   7   8
HETATM    8  C4  UNL     1     -22.860 -35.984  -5.206  1.00  0.00     0.232 C 
HETATM    9  O1  UNL     1     -23.260 -36.420  -6.300  1.00  0.00    -0.272 OA
HETATM   10  N2  UNL     1     -23.055 -36.771  -4.055  1.00  0.00    -0.352 N 
ATOM     11  H2  UNL     1     -22.724 -36.408  -3.162  1.00  0.00     0.163 HD
BRANCH  10  12
HETATM   12  C5  UNL     1     -23.698 -38.069  -4.071  1.00  0.00     0.022 C 
HETATM   13  C6  UNL     1     -25.133 -37.985  -4.511  1.00  0.00     0.037 C 
HETATM   14  C7  UNL     1     -22.953 -39.085  -4.867  1.00  0.00     0.037 C 
HETATM   15  C8  UNL     1     -23.714 -38.550  -2.614  1.00  0.00     0.037 C 
ENDBRANCH  10  12
ENDBRANCH   7   8
ENDBRANCH   4   7
ENDBRANCH   1   4
BRANCH   1  16
HETATM   16  C9  UNL     1     -21.489 -33.399  -1.268  1.00  0.00     0.103 A 
HETATM   17  C10 UNL     1     -21.795 -34.338  -0.289  1.00  0.00    -0.032 A 
HETATM   18  C11 UNL     1     -21.928 -35.791  -0.555  1.00  0.00     0.050 C 
HETATM   19  C12 UNL     1     -21.989 -33.892   1.001  1.00  0.00     0.082 A 
HETATM   20  C13 UNL     1     -21.888 -32.557   1.334  1.00  0.00     0.246 A 
HETATM   21  O4  UNL     1     -22.080 -32.223   2.534  1.00  0.00    -0.268 OA
HETATM   22  N3  UNL     1     -21.594 -31.695   0.365  1.00  0.00    -0.326 N 
HETATM   23  C14 UNL     1     -21.387 -32.060  -0.936  1.00  0.00     0.032 A 
ATOM     24  H3  UNL     1     -21.518 -30.706   0.605  1.00  0.00     0.169 HD
HETATM   25  C15 UNL     1     -21.037 -30.987  -1.897  1.00  0.00     0.070 C 
ENDBRANCH   1  16
TORSDOF 6
ENDMDL
MODEL 4
REMARK VINA RESULT: -7.001509688      1.292      2.403
REMARK  6 active torsions:
REMARK  status: ('A' for Active; 'I' for Inactive)
REMARK    1  A    between atoms: C2_2  and  N1_3 
REMARK    2  A    between atoms: N1_3  and  C3_4 
REMARK    3  A    between atoms: N1_3  and  S1_13 
REMARK    4  A    between atoms: C3_4  and  C4_5 
REMARK       I    between atoms: C4_5  and  N2_7 
REMARK    5  A    between atoms: N2_7  and  C5_9 
REMARK    6  A    between atoms: S1_13  and  C9_16 
ROOT
HETATM    1  S1  UNL     1     -21.243 -33.790  -2.819  1.00  0.00     0.246 S 
HETATM    2  O2  UNL     1     -20.391 -32.542  -2.966  1.00  0.00    -0.206 OA
HETATM    3  O3  UNL     1     -20.373 -34.969  -3.243  1.00  0.00    -0.206 OA
ENDROOT
BRANCH   1   4
HETATM    4  N1  UNL     1     -22.538 -33.637  -3.916  1.00  0.00    -0.198 NA
BRANCH   4   5
HETATM    5  C2  UNL     1     -22.896 -32.300  -4.279  1.00  0.00     0.103 C 
HETATM    6  C1  UNL     1     -22.984 -32.040  -5.739  1.00  0.00     0.021 C 
ENDBRANCH   4   5
BRANCH   4   7
HETATM    7  C3  UNL     1     -22.225 -34.460  -5.068  1.00  0.00     0.210 C 
BRANCH   7   8
HETATM    8  C4  UNL     1     -23.016 -35.682  -5.194  1.00  0.00     0.232 C 
HETATM    9  O1  UNL     1     -24.128 -35.798  -4.648  1.00  0.00    -0.272 OA
HETATM   10  N2  UNL     1     -22.520 -36.763  -5.948  1.00  0.00    -0.352 N 
ATOM     11  H2  UNL     1     -21.608 -36.661  -6.393  1.00  0.00     0.163 HD
BRANCH  10  12
HETATM   12  C5  UNL     1     -23.233 -38.010  -6.126  1.00  0.00     0.022 C 
HETATM   13  C6  UNL     1     -23.346 -38.788  -4.844  1.00  0.00     0.037 C 
HETATM   14  C7  UNL     1     -24.568 -37.838  -6.767  1.00  0.00     0.037 C 
HETATM   15  C8  UNL     1     -22.374 -38.855  -7.077  1.00  0.00     0.037 C 
ENDBRANCH  10  12
ENDBRANCH   7   8
ENDBRANCH   4   7
ENDBRANCH   1   4
BRANCH   1  16
HETATM   16  C9  UNL     1     -21.662 -34.007  -1.169  1.00  0.00     0.103 A 
HETATM   17  C10 UNL     1     -22.128 -35.250  -0.755  1.00  0.00    -0.032 A 
HETATM   18  C11 UNL     1     -22.315 -36.405  -1.667  1.00  0.00     0.050 C 
HETATM   19  C12 UNL     1     -22.437 -35.416   0.578  1.00  0.00     0.082 A 
HETATM   20  C13 UNL     1     -22.297 -34.392   1.492  1.00  0.00     0.246 A 
HETATM   21  O4  UNL     1     -22.600 -34.618   2.695  1.00  0.00    -0.268 OA
HETATM   22  N3  UNL     1     -21.847 -33.221   1.051  1.00  0.00    -0.326 N 
HETATM   23  C14 UNL     1     -21.520 -32.979  -0.254  1.00  0.00     0.032 A 
ATOM     24  H3  UNL     1     -21.741 -32.460   1.722  1.00  0.00     0.169 HD
HETATM   25  C15 UNL     1     -21.004 -31.630  -0.588  1.00  0.00     0.070 C 
ENDBRANCH   1  16
TORSDOF 6
ENDMDL
MODEL 5
REMARK VINA RESULT: -6.995385276      1.349      1.774
REMARK  6 active torsions:
REMARK  status: ('A' for Active; 'I' for Inactive)
REMARK    1  A    between atoms: C2_2  and  N1_3 
REMARK    2  A    between atoms: N1_3  and  C3_4 
REMARK    3  A    between atoms: N1_3  and  S1_13 
REMARK    4  A    between atoms: C3_4  and  C4_5 
REMARK       I    between atoms: C4_5  and  N2_7 
REMARK    5  A    between atoms: N2_7  and  C5_9 
REMARK    6  A    between atoms: S1_13  and  C9_16 
ROOT
HETATM    1  S1  UNL     1     -21.244 -33.694  -2.795  1.00  0.00     0.246 S 
HETATM    2  O2  UNL     1     -20.535 -32.354  -2.864  1.00  0.00    -0.206 OA
HETATM    3  O3  UNL     1     -20.253 -34.743  -3.289  1.00  0.00    -0.206 OA
ENDROOT
BRANCH   1   4
HETATM    4  N1  UNL     1     -22.554 -33.617  -3.881  1.00  0.00    -0.198 NA
BRANCH   4   5
HETATM    5  C2  UNL     1     -22.977 -32.304  -4.261  1.00  0.00     0.103 C 
HETATM    6  C1  UNL     1     -22.913 -32.011  -5.715  1.00  0.00     0.021 C 
ENDBRANCH   4   5
BRANCH   4   7
HETATM    7  C3  UNL     1     -22.215 -34.443  -5.023  1.00  0.00     0.210 C 
BRANCH   7   8
HETATM    8  C4  UNL     1     -23.008 -35.660  -5.171  1.00  0.00     0.232 C 
HETATM    9  O1  UNL     1     -24.131 -35.773  -4.647  1.00  0.00    -0.272 OA
HETATM   10  N2  UNL     1     -22.503 -36.740  -5.921  1.00  0.00    -0.352 N 
ATOM     11  H2  UNL     1     -21.583 -36.640  -6.348  1.00  0.00     0.163 HD
BRANCH  10  12
HETATM   12  C5  UNL     1     -23.219 -37.983  -6.119  1.00  0.00     0.022 C 
HETATM   13  C6  UNL     1     -23.327 -38.784  -4.851  1.00  0.00     0.037 C 
HETATM   14  C7  UNL     1     -24.556 -37.797  -6.751  1.00  0.00     0.037 C 
HETATM   15  C8  UNL     1     -22.365 -38.811  -7.089  1.00  0.00     0.037 C 
ENDBRANCH  10  12
ENDBRANCH   7   8
ENDBRANCH   4   7
ENDBRANCH   1   4
BRANCH   1  16
HETATM   16  C9  UNL     1     -21.627 -34.056  -1.162  1.00  0.00     0.103 A 
HETATM   17  C10 UNL     1     -21.502 -33.054  -0.206  1.00  0.00    -0.032 A 
HETATM   18  C11 UNL     1     -21.024 -31.682  -0.511  1.00  0.00     0.050 C 
HETATM   19  C12 UNL     1     -21.836 -33.352   1.096  1.00  0.00     0.082 A 
HETATM   20  C13 UNL     1     -22.284 -34.604   1.466  1.00  0.00     0.246 A 
HETATM   21  O4  UNL     1     -22.571 -34.805   2.677  1.00  0.00    -0.268 OA
HETATM   22  N3  UNL     1     -22.388 -35.532   0.518  1.00  0.00    -0.326 N 
HETATM   23  C14 UNL     1     -22.077 -35.312  -0.794  1.00  0.00     0.032 A 
ATOM     24  H3  UNL     1     -22.719 -36.459   0.785  1.00  0.00     0.169 HD
HETATM   25  C15 UNL     1     -22.273 -36.437  -1.739  1.00  0.00     0.070 C 
ENDBRANCH   1  16
TORSDOF 6
ENDMDL
