MODEL 1
REMARK VINA RESULT: -6.611631769      0.000      0.000
REMARK  2 active torsions:
REMARK  status: ('A' for Active; 'I' for Inactive)
REMARK    1  A    between atoms: C4_9  and  C5_10 
REMARK    2  A    between atoms: C7_12  and  O2_13 
ROOT
HETATM    1  C5  UNL     1       0.074 -31.549  35.221  1.00  0.00     0.041 C 
HETATM    2  C6  UNL     1      -0.231 -30.243  35.757  1.00  0.00     0.084 A 
HETATM    3  C7  UNL     1      -1.322 -29.527  35.324  1.00  0.00     0.160 A 
HETATM    4  N3  UNL     1      -1.623 -28.312  35.809  1.00  0.00    -0.288 N 
ATOM      5  H3  UNL     1      -2.443 -27.818  35.457  1.00  0.00     0.172 HD
HETATM    6  C8  UNL     1      -0.860 -27.744  36.747  1.00  0.00     0.329 A 
HETATM    7  O3  UNL     1      -1.151 -26.586  37.206  1.00  0.00    -0.247 OA
HETATM    8  N4  UNL     1       0.211 -28.403  37.199  1.00  0.00    -0.275 N 
ATOM      9  H4  UNL     1       0.798 -27.977  37.916  1.00  0.00     0.173 HD
HETATM   10  C9  UNL     1       0.522 -29.617  36.722  1.00  0.00     0.263 A 
HETATM   11  O4  UNL     1       1.538 -30.266  37.136  1.00  0.00    -0.267 OA
ENDROOT
BRANCH   1  12
HETATM   12  C4  UNL     1       0.914 -31.763  34.225  1.00  0.00     0.062 A 
HETATM   13  C2  UNL     1       2.141 -32.369  34.383  1.00  0.00     0.054 A 
HETATM   14  C1  UNL     1       2.687 -32.828  35.502  1.00  0.00     0.045 C 
HETATM   15  N1  UNL     1       2.717 -32.420  33.168  1.00  0.00    -0.298 N 
HETATM   16  N2  UNL     1       1.926 -31.889  32.285  1.00  0.00    -0.265 N 
ATOM     17  H1  UNL     1       3.636 -32.816  32.970  1.00  0.00     0.187 HD
HETATM   18  C3  UNL     1       0.787 -31.463  32.891  1.00  0.00     0.272 A 
ATOM     19  H2  UNL     1       2.128 -31.803  31.289  1.00  0.00     0.190 HD
HETATM   20  O1  UNL     1      -0.205 -30.901  32.361  1.00  0.00    -0.266 OA
ENDBRANCH   1  12
BRANCH   3  21
HETATM   21  O2  UNL     1      -2.135 -30.100  34.343  1.00  0.00    -0.345 OA
ATOM     22  H2  UNL     1      -1.714 -30.580  33.640  1.00  0.00     0.219 HD
ENDBRANCH   3  21
TORSDOF 2
ENDMDL
MODEL 2
REMARK VINA RESULT: -6.594230637      1.648      2.446
REMARK  2 active torsions:
REMARK  status: ('A' for Active; 'I' for Inactive)
REMARK    1  A    between atoms: C4_9  and  C5_10 
REMARK    2  A    between atoms: C7_12  and  O2_13 
ROOT
HETATM    1  C5  UNL     1       0.235 -30.460  34.221  1.00  0.00     0.041 C 
HETATM    2  C6  UNL     1      -0.043 -29.354  35.107  1.00  0.00     0.084 A 
HETATM    3  C7  UNL     1       0.505 -28.110  34.895  1.00  0.00     0.160 A 
HETATM    4  N3  UNL     1       0.260 -27.069  35.705  1.00  0.00    -0.288 N 
ATOM      5  H3  UNL     1       0.689 -26.165  35.509  1.00  0.00     0.172 HD
HETATM    6  C8  UNL     1      -0.539 -27.205  36.767  1.00  0.00     0.329 A 
HETATM    7  O3  UNL     1      -0.770 -26.210  37.538  1.00  0.00    -0.247 OA
HETATM    8  N4  UNL     1      -1.095 -28.395  37.013  1.00  0.00    -0.275 N 
ATOM      9  H4  UNL     1      -1.708 -28.507  37.821  1.00  0.00     0.173 HD
HETATM   10  C9  UNL     1      -0.857 -29.442  36.210  1.00  0.00     0.263 A 
HETATM   11  O4  UNL     1      -1.375 -30.588  36.423  1.00  0.00    -0.267 OA
ENDROOT
BRANCH   1  12
HETATM   12  C4  UNL     1       1.182 -31.355  34.428  1.00  0.00     0.062 A 
HETATM   13  C2  UNL     1       1.741 -32.116  33.425  1.00  0.00     0.054 A 
HETATM   14  C1  UNL     1       1.454 -32.099  32.130  1.00  0.00     0.045 C 
HETATM   15  N1  UNL     1       2.665 -32.911  33.998  1.00  0.00    -0.298 N 
HETATM   16  N2  UNL     1       2.703 -32.685  35.277  1.00  0.00    -0.265 N 
ATOM     17  H1  UNL     1       3.245 -33.588  33.504  1.00  0.00     0.187 HD
HETATM   18  C3  UNL     1       1.800 -31.724  35.598  1.00  0.00     0.272 A 
ATOM     19  H2  UNL     1       3.319 -33.158  35.939  1.00  0.00     0.190 HD
HETATM   20  O1  UNL     1       1.553 -31.245  36.735  1.00  0.00    -0.266 OA
ENDBRANCH   1  12
BRANCH   3  21
HETATM   21  O2  UNL     1       1.344 -27.943  33.791  1.00  0.00    -0.345 OA
ATOM     22  H2  UNL     1       2.166 -28.419  33.780  1.00  0.00     0.219 HD
ENDBRANCH   3  21
TORSDOF 2
ENDMDL
MODEL 3
REMARK VINA RESULT: -6.584634369      2.567      3.297
REMARK  2 active torsions:
REMARK  status: ('A' for Active; 'I' for Inactive)
REMARK    1  A    between atoms: C4_9  and  C5_10 
REMARK    2  A    between atoms: C7_12  and  O2_13 
ROOT
HETATM    1  C5  UNL     1      -0.413 -28.704  34.979  1.00  0.00     0.041 C 
HETATM    2  C6  UNL     1       0.379 -27.667  35.599  1.00  0.00     0.084 A 
HETATM    3  C7  UNL     1       1.239 -26.886  34.863  1.00  0.00     0.160 A 
HETATM    4  N3  UNL     1       1.984 -25.917  35.418  1.00  0.00    -0.288 N 
ATOM      5  H3  UNL     1       2.608 -25.363  34.833  1.00  0.00     0.172 HD
HETATM    6  C8  UNL     1       1.915 -25.672  36.730  1.00  0.00     0.329 A 
HETATM    7  O3  UNL     1       2.627 -24.747  37.255  1.00  0.00    -0.247 OA
HETATM    8  N4  UNL     1       1.093 -26.404  37.485  1.00  0.00    -0.275 N 
ATOM      9  H4  UNL     1       1.033 -26.223  38.487  1.00  0.00     0.173 HD
HETATM   10  C9  UNL     1       0.344 -27.375  36.941  1.00  0.00     0.263 A 
HETATM   11  O4  UNL     1      -0.449 -28.089  37.640  1.00  0.00    -0.267 OA
ENDROOT
BRANCH   1  12
HETATM   12  C4  UNL     1      -0.054 -29.973  34.919  1.00  0.00     0.062 A 
HETATM   13  C2  UNL     1      -0.674 -30.972  35.637  1.00  0.00     0.054 A 
HETATM   14  C1  UNL     1      -1.693 -30.861  36.480  1.00  0.00     0.045 C 
HETATM   15  N1  UNL     1      -0.052 -32.126  35.330  1.00  0.00    -0.298 N 
HETATM   16  N2  UNL     1       0.901 -31.895  34.477  1.00  0.00    -0.265 N 
ATOM     17  H1  UNL     1      -0.291 -33.041  35.709  1.00  0.00     0.187 HD
HETATM   18  C3  UNL     1       0.943 -30.569  34.187  1.00  0.00     0.272 A 
ATOM     19  H2  UNL     1       1.523 -32.602  34.085  1.00  0.00     0.190 HD
HETATM   20  O1  UNL     1       1.729 -29.974  33.406  1.00  0.00    -0.266 OA
ENDBRANCH   1  12
BRANCH   3  21
HETATM   21  O2  UNL     1       1.328 -27.124  33.489  1.00  0.00    -0.345 OA
ATOM     22  H2  UNL     1       1.645 -26.420  32.935  1.00  0.00     0.219 HD
ENDBRANCH   3  21
TORSDOF 2
ENDMDL
MODEL 4
REMARK VINA RESULT: -6.278427391      2.716      3.790
REMARK  2 active torsions:
REMARK  status: ('A' for Active; 'I' for Inactive)
REMARK    1  A    between atoms: C4_9  and  C5_10 
REMARK    2  A    between atoms: C7_12  and  O2_13 
ROOT
HETATM    1  C5  UNL     1       1.051 -29.126  36.279  1.00  0.00     0.041 C 
HETATM    2  C6  UNL     1       0.848 -27.697  36.220  1.00  0.00     0.084 A 
HETATM    3  C7  UNL     1       0.706 -26.946  37.363  1.00  0.00     0.160 A 
HETATM    4  N3  UNL     1       0.517 -25.617  37.332  1.00  0.00    -0.288 N 
ATOM      5  H3  UNL     1       0.417 -25.101  38.205  1.00  0.00     0.172 HD
HETATM    6  C8  UNL     1       0.459 -24.965  36.167  1.00  0.00     0.329 A 
HETATM    7  O3  UNL     1       0.278 -23.698  36.142  1.00  0.00    -0.247 OA
HETATM    8  N4  UNL     1       0.592 -25.653  35.030  1.00  0.00    -0.275 N 
ATOM      9  H4  UNL     1       0.550 -25.162  34.137  1.00  0.00     0.173 HD
HETATM   10  C9  UNL     1       0.781 -26.980  35.049  1.00  0.00     0.263 A 
HETATM   11  O4  UNL     1       0.911 -27.660  33.979  1.00  0.00    -0.267 OA
ENDROOT
BRANCH   1  12
HETATM   12  C4  UNL     1       0.081 -30.016  36.185  1.00  0.00     0.062 A 
HETATM   13  C2  UNL     1       0.289 -31.376  36.248  1.00  0.00     0.054 A 
HETATM   14  C1  UNL     1       1.438 -32.020  36.406  1.00  0.00     0.045 C 
HETATM   15  N1  UNL     1      -0.914 -31.968  36.118  1.00  0.00    -0.298 N 
HETATM   16  N2  UNL     1      -1.835 -31.061  35.980  1.00  0.00    -0.265 N 
ATOM     17  H1  UNL     1      -1.077 -32.974  36.126  1.00  0.00     0.187 HD
HETATM   18  C3  UNL     1      -1.270 -29.827  36.015  1.00  0.00     0.272 A 
ATOM     19  H2  UNL     1      -2.831 -31.248  35.864  1.00  0.00     0.190 HD
HETATM   20  O1  UNL     1      -1.843 -28.713  35.914  1.00  0.00    -0.266 OA
ENDBRANCH   1  12
BRANCH   3  21
HETATM   21  O2  UNL     1       0.763 -27.606  38.593  1.00  0.00    -0.345 OA
ATOM     22  H2  UNL     1       1.217 -28.440  38.630  1.00  0.00     0.219 HD
ENDBRANCH   3  21
TORSDOF 2
ENDMDL
MODEL 5
REMARK VINA RESULT: -6.248297336      3.343      4.813
REMARK  2 active torsions:
REMARK  status: ('A' for Active; 'I' for Inactive)
REMARK    1  A    between atoms: C4_9  and  C5_10 
REMARK    2  A    between atoms: C7_12  and  O2_13 
ROOT
HETATM    1  C5  UNL     1      -0.308 -27.135  37.008  1.00  0.00     0.041 C 
HETATM    2  C6  UNL     1       0.267 -26.238  37.982  1.00  0.00     0.084 A 
HETATM    3  C7  UNL     1      -0.046 -24.899  37.996  1.00  0.00     0.160 A 
HETATM    4  N3  UNL     1       0.476 -24.047  38.892  1.00  0.00    -0.288 N 
ATOM      5  H3  UNL     1       0.215 -23.062  38.864  1.00  0.00     0.172 HD
HETATM    6  C8  UNL     1       1.336 -24.478  39.820  1.00  0.00     0.329 A 
HETATM    7  O3  UNL     1       1.832 -23.662  40.673  1.00  0.00    -0.247 OA
HETATM    8  N4  UNL     1       1.669 -25.770  39.847  1.00  0.00    -0.275 N 
ATOM      9  H4  UNL     1       2.323 -26.108  40.553  1.00  0.00     0.173 HD
HETATM   10  C9  UNL     1       1.154 -26.630  38.956  1.00  0.00     0.263 A 
HETATM   11  O4  UNL     1       1.456 -27.869  38.959  1.00  0.00    -0.267 OA
ENDROOT
BRANCH   1  12
HETATM   12  C4  UNL     1       0.274 -27.464  35.869  1.00  0.00     0.062 A 
HETATM   13  C2  UNL     1       0.755 -28.727  35.599  1.00  0.00     0.054 A 
HETATM   14  C1  UNL     1       0.729 -29.796  36.383  1.00  0.00     0.045 C 
HETATM   15  N1  UNL     1       1.276 -28.694  34.358  1.00  0.00    -0.298 N 
HETATM   16  N2  UNL     1       1.145 -27.502  33.858  1.00  0.00    -0.265 N 
ATOM     17  H1  UNL     1       1.709 -29.486  33.882  1.00  0.00     0.187 HD
HETATM   18  C3  UNL     1       0.527 -26.696  34.759  1.00  0.00     0.272 A 
ATOM     19  H2  UNL     1       1.459 -27.215  32.931  1.00  0.00     0.190 HD
HETATM   20  O1  UNL     1       0.231 -25.480  34.630  1.00  0.00    -0.266 OA
ENDBRANCH   1  12
BRANCH   3  21
HETATM   21  O2  UNL     1      -0.942 -24.425  37.035  1.00  0.00    -0.345 OA
ATOM     22  H2  UNL     1      -1.518 -23.709  37.277  1.00  0.00     0.219 HD
ENDBRANCH   3  21
TORSDOF 2
ENDMDL
