MODEL 1
REMARK VINA RESULT: -7.113172323      0.000      0.000
REMARK  2 active torsions:
REMARK  status: ('A' for Active; 'I' for Inactive)
REMARK    1  A    between atoms: N1_1  and  C1_5 
REMARK    2  A    between atoms: C7_17  and  C8_18 
ROOT
HETATM    1  C1  UNL     1       2.422 -31.672  35.989  1.00  0.00     0.243 A 
HETATM    2  C2  UNL     1       2.995 -32.492  34.906  1.00  0.00     0.041 A 
HETATM    3  C3  UNL     1       2.316 -32.306  33.766  1.00  0.00     0.051 A 
HETATM    4  N2  UNL     1       2.495 -32.846  32.549  1.00  0.00    -0.308 N 
ATOM      5  H2  UNL     1       3.247 -33.515  32.381  1.00  0.00     0.170 HD
HETATM    6  C4  UNL     1       1.670 -32.490  31.562  1.00  0.00     0.327 A 
HETATM    7  O1  UNL     1       1.793 -32.971  30.387  1.00  0.00    -0.247 OA
HETATM    8  N3  UNL     1       0.685 -31.605  31.809  1.00  0.00    -0.275 N 
ATOM      9  H3  UNL     1       0.064 -31.344  31.043  1.00  0.00     0.173 HD
HETATM   10  C5  UNL     1       0.485 -31.055  33.004  1.00  0.00     0.262 A 
HETATM   11  O2  UNL     1      -0.450 -30.218  33.224  1.00  0.00    -0.267 OA
HETATM   12  C6  UNL     1       1.327 -31.407  34.044  1.00  0.00     0.068 A 
HETATM   13  C7  UNL     1       1.311 -30.992  35.286  1.00  0.00     0.005 A 
ENDROOT
BRANCH  13  14
HETATM   14  C8  UNL     1       0.408 -30.043  35.935  1.00  0.00    -0.010 A 
HETATM   15  C9  UNL     1       0.739 -28.728  36.185  1.00  0.00     0.030 A 
HETATM   16  C10 UNL     1      -0.335 -28.135  36.800  1.00  0.00     0.088 A 
HETATM   17  N4  UNL     1      -1.285 -29.051  36.921  1.00  0.00    -0.374 N 
HETATM   18  C11 UNL     1      -0.863 -30.224  36.404  1.00  0.00     0.099 A 
ATOM     19  H4  UNL     1      -2.200 -28.893  37.343  1.00  0.00     0.164 HD
ENDBRANCH  13  14
BRANCH   1  20
HETATM   20  N1  UNL     1       1.926 -32.482  37.082  1.00  0.00    -0.068 N 
ATOM     21  H13 UNL     1       1.591 -33.387  36.749  1.00  0.00     0.275 HD
ATOM     22  H12 UNL     1       2.687 -32.802  37.680  1.00  0.00     0.275 HD
ATOM     23  H11 UNL     1       1.209 -31.999  37.623  1.00  0.00     0.275 HD
ENDBRANCH   1  20
TORSDOF 2
ENDMDL
MODEL 2
REMARK VINA RESULT: -7.086346617      1.690      4.889
REMARK  2 active torsions:
REMARK  status: ('A' for Active; 'I' for Inactive)
REMARK    1  A    between atoms: N1_1  and  C1_5 
REMARK    2  A    between atoms: C7_17  and  C8_18 
ROOT
HETATM    1  C1  UNL     1       1.657 -32.287  35.779  1.00  0.00     0.243 A 
HETATM    2  C2  UNL     1       1.153 -31.461  36.892  1.00  0.00     0.041 A 
HETATM    3  C3  UNL     1       0.545 -30.362  36.425  1.00  0.00     0.051 A 
HETATM    4  N2  UNL     1      -0.050 -29.351  37.080  1.00  0.00    -0.308 N 
ATOM      5  H2  UNL     1      -0.086 -29.342  38.099  1.00  0.00     0.170 HD
HETATM    6  C4  UNL     1      -0.591 -28.358  36.372  1.00  0.00     0.327 A 
HETATM    7  O1  UNL     1      -1.167 -27.373  36.941  1.00  0.00    -0.247 OA
HETATM    8  N3  UNL     1      -0.529 -28.393  35.027  1.00  0.00    -0.275 N 
ATOM      9  H3  UNL     1      -0.947 -27.626  34.501  1.00  0.00     0.173 HD
HETATM   10  C5  UNL     1       0.053 -29.381  34.351  1.00  0.00     0.262 A 
HETATM   11  O2  UNL     1       0.106 -29.404  33.079  1.00  0.00    -0.267 OA
HETATM   12  C6  UNL     1       0.623 -30.423  35.062  1.00  0.00     0.068 A 
HETATM   13  C7  UNL     1       1.239 -31.485  34.607  1.00  0.00     0.005 A 
ENDROOT
BRANCH  13  14
HETATM   14  C8  UNL     1       1.506 -31.880  33.225  1.00  0.00    -0.010 A 
HETATM   15  C9  UNL     1       0.597 -32.556  32.438  1.00  0.00     0.030 A 
HETATM   16  C10 UNL     1       1.177 -32.762  31.211  1.00  0.00     0.088 A 
HETATM   17  N4  UNL     1       2.391 -32.232  31.246  1.00  0.00    -0.374 N 
HETATM   18  C11 UNL     1       2.622 -31.688  32.458  1.00  0.00     0.099 A 
ATOM     19  H4  UNL     1       3.053 -32.235  30.471  1.00  0.00     0.164 HD
ENDBRANCH  13  14
BRANCH   1  20
HETATM   20  N1  UNL     1       3.096 -32.437  35.819  1.00  0.00    -0.068 N 
ATOM     21  H13 UNL     1       3.548 -31.580  36.140  1.00  0.00     0.275 HD
ATOM     22  H12 UNL     1       3.381 -33.062  36.573  1.00  0.00     0.275 HD
ATOM     23  H11 UNL     1       3.475 -32.741  34.923  1.00  0.00     0.275 HD
ENDBRANCH   1  20
TORSDOF 2
ENDMDL
MODEL 3
REMARK VINA RESULT: -6.673727812      3.336      5.375
REMARK  2 active torsions:
REMARK  status: ('A' for Active; 'I' for Inactive)
REMARK    1  A    between atoms: N1_1  and  C1_5 
REMARK    2  A    between atoms: C7_17  and  C8_18 
ROOT
HETATM    1  C1  UNL     1       0.243 -27.203  37.937  1.00  0.00     0.243 A 
HETATM    2  C2  UNL     1       0.881 -25.918  37.596  1.00  0.00     0.041 A 
HETATM    3  C3  UNL     1       1.225 -25.893  36.300  1.00  0.00     0.051 A 
HETATM    4  N2  UNL     1       1.823 -24.932  35.577  1.00  0.00    -0.308 N 
ATOM      5  H2  UNL     1       2.091 -24.047  36.008  1.00  0.00     0.170 HD
HETATM    6  C4  UNL     1       2.059 -25.156  34.284  1.00  0.00     0.327 A 
HETATM    7  O1  UNL     1       2.623 -24.279  33.549  1.00  0.00    -0.247 OA
HETATM    8  N3  UNL     1       1.696 -26.333  33.738  1.00  0.00    -0.275 N 
ATOM      9  H3  UNL     1       1.884 -26.488  32.747  1.00  0.00     0.173 HD
HETATM   10  C5  UNL     1       1.103 -27.303  34.430  1.00  0.00     0.262 A 
HETATM   11  O2  UNL     1       0.764 -28.411  33.902  1.00  0.00    -0.267 OA
HETATM   12  C6  UNL     1       0.846 -27.095  35.774  1.00  0.00     0.068 A 
HETATM   13  C7  UNL     1       0.279 -27.904  36.633  1.00  0.00     0.005 A 
ENDROOT
BRANCH  13  14
HETATM   14  C8  UNL     1      -0.246 -29.252  36.429  1.00  0.00    -0.010 A 
HETATM   15  C9  UNL     1      -1.565 -29.517  36.126  1.00  0.00     0.030 A 
HETATM   16  C10 UNL     1      -1.703 -30.877  36.006  1.00  0.00     0.088 A 
HETATM   17  N4  UNL     1      -0.516 -31.423  36.226  1.00  0.00    -0.374 N 
HETATM   18  C11 UNL     1       0.392 -30.460  36.487  1.00  0.00     0.099 A 
ATOM     19  H4  UNL     1      -0.318 -32.423  36.202  1.00  0.00     0.164 HD
ENDBRANCH  13  14
BRANCH   1  20
HETATM   20  N1  UNL     1       0.990 -27.933  38.939  1.00  0.00    -0.068 N 
ATOM     21  H13 UNL     1       0.367 -28.353  39.631  1.00  0.00     0.275 HD
ATOM     22  H12 UNL     1       1.396 -28.784  38.550  1.00  0.00     0.275 HD
ATOM     23  H11 UNL     1       1.701 -27.355  39.385  1.00  0.00     0.275 HD
ENDBRANCH   1  20
TORSDOF 2
ENDMDL
MODEL 4
REMARK VINA RESULT: -6.082387113      1.773      2.258
REMARK  2 active torsions:
REMARK  status: ('A' for Active; 'I' for Inactive)
REMARK    1  A    between atoms: N1_1  and  C1_5 
REMARK    2  A    between atoms: C7_17  and  C8_18 
ROOT
HETATM    1  C1  UNL     1      -0.358 -31.243  36.951  1.00  0.00     0.243 A 
HETATM    2  C2  UNL     1      -0.020 -32.357  36.046  1.00  0.00     0.041 A 
HETATM    3  C3  UNL     1       0.577 -31.896  34.938  1.00  0.00     0.051 A 
HETATM    4  N2  UNL     1       1.044 -32.555  33.863  1.00  0.00    -0.308 N 
ATOM      5  H2  UNL     1       0.972 -33.570  33.804  1.00  0.00     0.170 HD
HETATM    6  C4  UNL     1       1.606 -31.854  32.877  1.00  0.00     0.327 A 
HETATM    7  O1  UNL     1       2.066 -32.426  31.834  1.00  0.00    -0.247 OA
HETATM    8  N3  UNL     1       1.689 -30.513  32.979  1.00  0.00    -0.275 N 
ATOM      9  H3  UNL     1       2.121 -29.993  32.216  1.00  0.00     0.173 HD
HETATM   10  C5  UNL     1       1.234 -29.836  34.031  1.00  0.00     0.262 A 
HETATM   11  O2  UNL     1       1.319 -28.568  34.117  1.00  0.00    -0.267 OA
HETATM   12  C6  UNL     1       0.648 -30.539  35.068  1.00  0.00     0.068 A 
HETATM   13  C7  UNL     1       0.140 -30.079  36.184  1.00  0.00     0.005 A 
ENDROOT
BRANCH  13  14
HETATM   14  C8  UNL     1       0.042 -28.700  36.659  1.00  0.00    -0.010 A 
HETATM   15  C9  UNL     1       1.016 -28.088  37.420  1.00  0.00     0.030 A 
HETATM   16  C10 UNL     1       0.597 -26.808  37.685  1.00  0.00     0.088 A 
HETATM   17  N4  UNL     1      -0.585 -26.644  37.108  1.00  0.00    -0.374 N 
HETATM   18  C11 UNL     1      -0.950 -27.778  36.476  1.00  0.00     0.099 A 
ATOM     19  H4  UNL     1      -1.137 -25.787  37.138  1.00  0.00     0.164 HD
ENDBRANCH  13  14
BRANCH   1  20
HETATM   20  N1  UNL     1      -1.784 -31.142  37.182  1.00  0.00    -0.068 N 
ATOM     21  H13 UNL     1      -2.310 -31.650  36.471  1.00  0.00     0.275 HD
ATOM     22  H12 UNL     1      -2.064 -31.677  38.004  1.00  0.00     0.275 HD
ATOM     23  H11 UNL     1      -2.094 -30.172  37.249  1.00  0.00     0.275 HD
ENDBRANCH   1  20
TORSDOF 2
ENDMDL
MODEL 5
REMARK VINA RESULT: -5.867041786      3.454      5.349
REMARK  2 active torsions:
REMARK  status: ('A' for Active; 'I' for Inactive)
REMARK    1  A    between atoms: N1_1  and  C1_5 
REMARK    2  A    between atoms: C7_17  and  C8_18 
ROOT
HETATM    1  C1  UNL     1       1.485 -26.267  37.576  1.00  0.00     0.243 A 
HETATM    2  C2  UNL     1       1.099 -27.619  38.018  1.00  0.00     0.041 A 
HETATM    3  C3  UNL     1       0.775 -28.383  36.965  1.00  0.00     0.051 A 
HETATM    4  N2  UNL     1       0.372 -29.664  36.911  1.00  0.00    -0.308 N 
ATOM      5  H2  UNL     1       0.270 -30.214  37.763  1.00  0.00     0.170 HD
HETATM    6  C4  UNL     1       0.107 -30.202  35.719  1.00  0.00     0.327 A 
HETATM    7  O1  UNL     1      -0.280 -31.412  35.608  1.00  0.00    -0.247 OA
HETATM    8  N3  UNL     1       0.248 -29.454  34.608  1.00  0.00    -0.275 N 
ATOM      9  H3  UNL     1       0.041 -29.881  33.705  1.00  0.00     0.173 HD
HETATM   10  C5  UNL     1       0.645 -28.184  34.632  1.00  0.00     0.262 A 
HETATM   11  O2  UNL     1       0.775 -27.487  33.574  1.00  0.00    -0.267 OA
HETATM   12  C6  UNL     1       0.927 -27.602  35.855  1.00  0.00     0.068 A 
HETATM   13  C7  UNL     1       1.328 -26.382  36.108  1.00  0.00     0.005 A 
ENDROOT
BRANCH  13  14
HETATM   14  C8  UNL     1       1.594 -25.283  35.182  1.00  0.00    -0.010 A 
HETATM   15  C9  UNL     1       2.836 -25.031  34.638  1.00  0.00     0.030 A 
HETATM   16  C10 UNL     1       2.721 -23.934  33.821  1.00  0.00     0.088 A 
HETATM   17  N4  UNL     1       1.459 -23.532  33.862  1.00  0.00    -0.374 N 
HETATM   18  C11 UNL     1       0.747 -24.332  34.682  1.00  0.00     0.099 A 
ATOM     19  H4  UNL     1       1.082 -22.735  33.350  1.00  0.00     0.164 HD
ENDBRANCH  13  14
BRANCH   1  20
HETATM   20  N1  UNL     1       0.608 -25.247  38.113  1.00  0.00    -0.068 N 
ATOM     21  H13 UNL     1       0.562 -25.299  39.131  1.00  0.00     0.275 HD
ATOM     22  H12 UNL     1       1.019 -24.319  38.017  1.00  0.00     0.275 HD
ATOM     23  H11 UNL     1      -0.323 -25.284  37.699  1.00  0.00     0.275 HD
ENDBRANCH   1  20
TORSDOF 2
ENDMDL
