MODEL 1
REMARK VINA RESULT: -7.328211239      0.000      0.000
REMARK  4 active torsions:
REMARK  status: ('A' for Active; 'I' for Inactive)
REMARK    1  A    between atoms: N1_1  and  C1_4 
REMARK    2  A    between atoms: C3_10  and  N4_11 
REMARK    3  A    between atoms: N4_11  and  C4_13 
REMARK    4  A    between atoms: C4_13  and  C5_14 
ROOT
HETATM    1  C5  UNL     1       1.422 -27.264  38.986  1.00  0.00    -0.056 C 
HETATM    2  C6  UNL     1       1.838 -27.454  40.102  1.00  0.00     0.053 C 
HETATM    3  O1  UNL     1       2.318 -27.688  41.360  1.00  0.00    -0.314 OA
ATOM      4  H1  UNL     1       2.646 -27.838  42.239  1.00  0.00     0.230 HD
ENDROOT
BRANCH   1   5
HETATM    5  C4  UNL     1       0.895 -27.037  37.627  1.00  0.00     0.235 C 
BRANCH   5   6
HETATM    6  N4  UNL     1      -0.095 -27.985  37.253  1.00  0.00    -0.215 N 
ATOM      7  H4  UNL     1      -1.047 -27.794  37.565  1.00  0.00     0.178 HD
BRANCH   6   8
HETATM    8  C3  UNL     1       0.079 -29.044  36.571  1.00  0.00     0.683 A 
HETATM    9  N3  UNL     1       0.811 -28.981  35.439  1.00  0.00    -0.174 N 
HETATM   10  C2  UNL     1       1.031 -30.066  34.674  1.00  0.00     0.169 A 
ATOM     11  H3  UNL     1       1.209 -28.086  35.155  1.00  0.00     0.186 HD
HETATM   12  N2  UNL     1       1.706 -30.265  33.532  1.00  0.00    -0.174 N 
HETATM   13  C8  UNL     1       0.503 -31.291  35.038  1.00  0.00     0.162 A 
HETATM   14  C1  UNL     1       1.614 -31.544  33.185  1.00  0.00     0.678 A 
ATOM     15  H2  UNL     1       2.210 -29.547  33.012  1.00  0.00     0.186 HD
HETATM   16  N6  UNL     1       0.877 -32.175  34.107  1.00  0.00    -0.183 N 
ATOM     17  H6  UNL     1       0.640 -33.167  34.100  1.00  0.00     0.184 HD
HETATM   18  C7  UNL     1      -0.244 -31.357  36.193  1.00  0.00     0.290 A 
HETATM   19  N5  UNL     1      -0.435 -30.237  36.926  1.00  0.00    -0.154 N 
HETATM   20  O2  UNL     1      -0.733 -32.467  36.538  1.00  0.00    -0.265 OA
ATOM     21  H5  UNL     1      -0.989 -30.298  37.780  1.00  0.00     0.187 HD
BRANCH  14  22
HETATM   22  N1  UNL     1       2.125 -32.114  32.157  1.00  0.00    -0.234 N 
ATOM     23  H12 UNL     1       2.218 -31.672  31.243  1.00  0.00     0.174 HD
ATOM     24  H11 UNL     1       2.505 -33.058  32.093  1.00  0.00     0.174 HD
ENDBRANCH  14  22
ENDBRANCH   6   8
ENDBRANCH   5   6
ENDBRANCH   1   5
TORSDOF 4
ENDMDL
MODEL 2
REMARK VINA RESULT: -7.290909957      1.001      1.001
REMARK  4 active torsions:
REMARK  status: ('A' for Active; 'I' for Inactive)
REMARK    1  A    between atoms: N1_1  and  C1_4 
REMARK    2  A    between atoms: C3_10  and  N4_11 
REMARK    3  A    between atoms: N4_11  and  C4_13 
REMARK    4  A    between atoms: C4_13  and  C5_14 
ROOT
HETATM    1  C5  UNL     1       1.400 -27.457  38.888  1.00  0.00    -0.056 C 
HETATM    2  C6  UNL     1       1.788 -27.502  40.028  1.00  0.00     0.053 C 
HETATM    3  O1  UNL     1       2.249 -27.559  41.313  1.00  0.00    -0.314 OA
ATOM      4  H1  UNL     1       2.556 -27.594  42.212  1.00  0.00     0.230 HD
ENDROOT
BRANCH   1   5
HETATM    5  C4  UNL     1       0.915 -27.419  37.494  1.00  0.00     0.235 C 
BRANCH   5   6
HETATM    6  N4  UNL     1       0.075 -28.517  37.172  1.00  0.00    -0.215 N 
ATOM      7  H4  UNL     1      -0.878 -28.482  37.534  1.00  0.00     0.178 HD
BRANCH   6   8
HETATM    8  C3  UNL     1       0.383 -29.539  36.480  1.00  0.00     0.683 A 
HETATM    9  N3  UNL     1       0.281 -29.474  35.135  1.00  0.00    -0.174 N 
HETATM   10  C2  UNL     1       0.591 -30.520  34.349  1.00  0.00     0.169 A 
ATOM     11  H3  UNL     1      -0.041 -28.607  34.704  1.00  0.00     0.186 HD
HETATM   12  N2  UNL     1       0.577 -30.708  33.021  1.00  0.00    -0.174 N 
HETATM   13  C8  UNL     1       1.029 -31.705  34.909  1.00  0.00     0.162 A 
HETATM   14  C1  UNL     1       0.983 -31.943  32.748  1.00  0.00     0.678 A 
ATOM     15  H2  UNL     1       0.298 -30.012  32.329  1.00  0.00     0.186 HD
HETATM   16  N6  UNL     1       1.261 -32.557  33.904  1.00  0.00    -0.183 N 
ATOM     17  H6  UNL     1       1.594 -33.516  34.002  1.00  0.00     0.184 HD
HETATM   18  C7  UNL     1       1.134 -31.773  36.281  1.00  0.00     0.290 A 
HETATM   19  N5  UNL     1       0.810 -30.693  37.026  1.00  0.00    -0.154 N 
HETATM   20  O2  UNL     1       1.532 -32.848  36.808  1.00  0.00    -0.265 OA
ATOM     21  H5  UNL     1       0.892 -30.755  38.041  1.00  0.00     0.187 HD
BRANCH  14  22
HETATM   22  N1  UNL     1       1.100 -32.491  31.595  1.00  0.00    -0.234 N 
ATOM     23  H12 UNL     1       1.380 -31.994  30.749  1.00  0.00     0.174 HD
ATOM     24  H11 UNL     1       0.941 -33.468  31.350  1.00  0.00     0.174 HD
ENDBRANCH  14  22
ENDBRANCH   6   8
ENDBRANCH   5   6
ENDBRANCH   1   5
TORSDOF 4
ENDMDL
MODEL 3
REMARK VINA RESULT: -6.939134329      1.980      2.104
REMARK  4 active torsions:
REMARK  status: ('A' for Active; 'I' for Inactive)
REMARK    1  A    between atoms: N1_1  and  C1_4 
REMARK    2  A    between atoms: C3_10  and  N4_11 
REMARK    3  A    between atoms: N4_11  and  C4_13 
REMARK    4  A    between atoms: C4_13  and  C5_14 
ROOT
HETATM    1  C5  UNL     1       0.350 -25.843  37.121  1.00  0.00    -0.056 C 
HETATM    2  C6  UNL     1      -0.480 -25.020  37.413  1.00  0.00     0.053 C 
HETATM    3  O1  UNL     1      -1.436 -24.102  37.746  1.00  0.00    -0.314 OA
ATOM      4  H1  UNL     1      -2.091 -23.453  37.977  1.00  0.00     0.230 HD
ENDROOT
BRANCH   1   5
HETATM    5  C4  UNL     1       1.365 -26.846  36.743  1.00  0.00     0.235 C 
BRANCH   5   6
HETATM    6  N4  UNL     1       1.055 -28.149  37.214  1.00  0.00    -0.215 N 
ATOM      7  H4  UNL     1       0.927 -28.251  38.221  1.00  0.00     0.178 HD
BRANCH   6   8
HETATM    8  C3  UNL     1       0.920 -29.204  36.515  1.00  0.00     0.683 A 
HETATM    9  N3  UNL     1       1.434 -29.231  35.267  1.00  0.00    -0.174 N 
HETATM   10  C2  UNL     1       1.324 -30.316  34.478  1.00  0.00     0.169 A 
ATOM     11  H3  UNL     1       1.918 -28.407  34.911  1.00  0.00     0.186 HD
HETATM   12  N2  UNL     1       1.736 -30.592  33.232  1.00  0.00    -0.174 N 
HETATM   13  C8  UNL     1       0.673 -31.445  34.937  1.00  0.00     0.162 A 
HETATM   14  C1  UNL     1       1.369 -31.827  32.912  1.00  0.00     0.678 A 
ATOM     15  H2  UNL     1       2.251 -29.953  32.625  1.00  0.00     0.186 HD
HETATM   16  N6  UNL     1       0.717 -32.353  33.955  1.00  0.00    -0.183 N 
ATOM     17  H6  UNL     1       0.318 -33.291  33.995  1.00  0.00     0.184 HD
HETATM   18  C7  UNL     1       0.149 -31.419  36.211  1.00  0.00     0.290 A 
HETATM   19  N5  UNL     1       0.286 -30.304  36.962  1.00  0.00    -0.154 N 
HETATM   20  O2  UNL     1      -0.449 -32.441  36.643  1.00  0.00    -0.265 OA
ATOM     21  H5  UNL     1      -0.105 -30.295  37.904  1.00  0.00     0.187 HD
BRANCH  14  22
HETATM   22  N1  UNL     1       1.581 -32.445  31.809  1.00  0.00    -0.234 N 
ATOM     23  H12 UNL     1       1.689 -31.985  30.905  1.00  0.00     0.174 HD
ATOM     24  H11 UNL     1       1.671 -33.451  31.666  1.00  0.00     0.174 HD
ENDBRANCH  14  22
ENDBRANCH   6   8
ENDBRANCH   5   6
ENDBRANCH   1   5
TORSDOF 4
ENDMDL
MODEL 4
REMARK VINA RESULT: -6.936333421      2.055      2.194
REMARK  4 active torsions:
REMARK  status: ('A' for Active; 'I' for Inactive)
REMARK    1  A    between atoms: N1_1  and  C1_4 
REMARK    2  A    between atoms: C3_10  and  N4_11 
REMARK    3  A    between atoms: N4_11  and  C4_13 
REMARK    4  A    between atoms: C4_13  and  C5_14 
ROOT
HETATM    1  C5  UNL     1       1.367 -27.070  36.870  1.00  0.00    -0.056 C 
HETATM    2  C6  UNL     1       2.232 -26.583  36.186  1.00  0.00     0.053 C 
HETATM    3  O1  UNL     1       3.210 -26.012  35.420  1.00  0.00    -0.314 OA
ATOM      4  H1  UNL     1       3.892 -25.627  34.882  1.00  0.00     0.230 HD
ENDROOT
BRANCH   1   5
HETATM    5  C4  UNL     1       0.295 -27.665  37.691  1.00  0.00     0.235 C 
BRANCH   5   6
HETATM    6  N4  UNL     1      -0.458 -28.645  36.992  1.00  0.00    -0.215 N 
ATOM      7  H4  UNL     1      -1.472 -28.545  37.022  1.00  0.00     0.178 HD
BRANCH   6   8
HETATM    8  C3  UNL     1      -0.003 -29.632  36.331  1.00  0.00     0.683 A 
HETATM    9  N3  UNL     1      -0.055 -29.597  34.983  1.00  0.00    -0.174 N 
HETATM   10  C2  UNL     1       0.409 -30.610  34.229  1.00  0.00     0.169 A 
ATOM     11  H3  UNL     1      -0.458 -28.781  34.523  1.00  0.00     0.186 HD
HETATM   12  N2  UNL     1       0.473 -30.816  32.904  1.00  0.00    -0.174 N 
HETATM   13  C8  UNL     1       0.960 -31.727  34.828  1.00  0.00     0.162 A 
HETATM   14  C1  UNL     1       1.032 -31.998  32.671  1.00  0.00     0.678 A 
ATOM     15  H2  UNL     1       0.144 -30.167  32.190  1.00  0.00     0.186 HD
HETATM   16  N6  UNL     1       1.332 -32.559  33.848  1.00  0.00    -0.183 N 
ATOM     17  H6  UNL     1       1.771 -33.470  33.977  1.00  0.00     0.184 HD
HETATM   18  C7  UNL     1       1.014 -31.764  36.204  1.00  0.00     0.290 A 
HETATM   19  N5  UNL     1       0.534 -30.720  36.916  1.00  0.00    -0.154 N 
HETATM   20  O2  UNL     1       1.513 -32.777  36.765  1.00  0.00    -0.265 OA
ATOM     21  H5  UNL     1       0.580 -30.758  37.933  1.00  0.00     0.187 HD
BRANCH  14  22
HETATM   22  N1  UNL     1       1.262 -32.543  31.533  1.00  0.00    -0.234 N 
ATOM     23  H12 UNL     1       1.343 -33.548  31.385  1.00  0.00     0.174 HD
ATOM     24  H11 UNL     1       1.395 -32.078  30.635  1.00  0.00     0.174 HD
ENDBRANCH  14  22
ENDBRANCH   6   8
ENDBRANCH   5   6
ENDBRANCH   1   5
TORSDOF 4
ENDMDL
MODEL 5
REMARK VINA RESULT: -6.909634281      1.974      2.113
REMARK  4 active torsions:
REMARK  status: ('A' for Active; 'I' for Inactive)
REMARK    1  A    between atoms: N1_1  and  C1_4 
REMARK    2  A    between atoms: C3_10  and  N4_11 
REMARK    3  A    between atoms: N4_11  and  C4_13 
REMARK    4  A    between atoms: C4_13  and  C5_14 
ROOT
HETATM    1  C5  UNL     1       2.620 -26.380  36.492  1.00  0.00    -0.056 C 
HETATM    2  C6  UNL     1       3.784 -26.090  36.376  1.00  0.00     0.053 C 
HETATM    3  O1  UNL     1       5.100 -25.752  36.225  1.00  0.00    -0.314 OA
ATOM      4  H1  UNL     1       6.018 -25.523  36.133  1.00  0.00     0.230 HD
ENDROOT
BRANCH   1   5
HETATM    5  C4  UNL     1       1.199 -26.753  36.628  1.00  0.00     0.235 C 
BRANCH   5   6
HETATM    6  N4  UNL     1       1.019 -28.067  37.135  1.00  0.00    -0.215 N 
ATOM      7  H4  UNL     1       0.982 -28.162  38.150  1.00  0.00     0.178 HD
BRANCH   6   8
HETATM    8  C3  UNL     1       0.900 -29.138  36.459  1.00  0.00     0.683 A 
HETATM    9  N3  UNL     1       1.411 -29.184  35.211  1.00  0.00    -0.174 N 
HETATM   10  C2  UNL     1       1.317 -30.288  34.447  1.00  0.00     0.169 A 
ATOM     11  H3  UNL     1       1.881 -28.361  34.837  1.00  0.00     0.186 HD
HETATM   12  N2  UNL     1       1.731 -30.585  33.206  1.00  0.00    -0.174 N 
HETATM   13  C8  UNL     1       0.684 -31.417  34.932  1.00  0.00     0.162 A 
HETATM   14  C1  UNL     1       1.382 -31.833  32.914  1.00  0.00     0.678 A 
ATOM     15  H2  UNL     1       2.234 -29.951  32.584  1.00  0.00     0.186 HD
HETATM   16  N6  UNL     1       0.741 -32.346  33.970  1.00  0.00    -0.183 N 
ATOM     17  H6  UNL     1       0.357 -33.289  34.031  1.00  0.00     0.184 HD
HETATM   18  C7  UNL     1       0.162 -31.371  36.206  1.00  0.00     0.290 A 
HETATM   19  N5  UNL     1       0.284 -30.238  36.932  1.00  0.00    -0.154 N 
HETATM   20  O2  UNL     1      -0.418 -32.394  36.662  1.00  0.00    -0.265 OA
ATOM     21  H5  UNL     1      -0.106 -30.215  37.874  1.00  0.00     0.187 HD
BRANCH  14  22
HETATM   22  N1  UNL     1       1.601 -32.471  31.824  1.00  0.00    -0.234 N 
ATOM     23  H12 UNL     1       0.885 -32.685  31.130  1.00  0.00     0.174 HD
ATOM     24  H11 UNL     1       2.488 -32.850  31.492  1.00  0.00     0.174 HD
ENDBRANCH  14  22
ENDBRANCH   6   8
ENDBRANCH   5   6
ENDBRANCH   1   5
TORSDOF 4
ENDMDL
