MODEL 1
REMARK VINA RESULT: -8.027201725      0.000      0.000
REMARK  2 active torsions:
REMARK  status: ('A' for Active; 'I' for Inactive)
REMARK    1  A    between atoms: O1_1  and  C1_3 
REMARK    2  A    between atoms: C1_3  and  C2_4 
ROOT
HETATM    1  C1  UNL     1       0.327  -0.601  -7.192  1.00  0.00     0.091 C 
HETATM    2  C7  UNL     1       1.771  -0.774  -7.258  1.00  0.00     0.041 C 
HETATM    3  C8  UNL     1       2.476  -0.471  -8.572  1.00  0.00     0.010 C 
HETATM    4  C9  UNL     1       1.441  -0.800  -9.668  1.00  0.00     0.008 C 
HETATM    5  C10 UNL     1       2.003  -1.116 -11.005  1.00  0.00     0.119 C 
HETATM    6  N1  UNL     1       1.641  -2.425 -11.572  1.00  0.00    -0.417 N 
ATOM      7  H1  UNL     1       2.208  -3.261 -11.426  1.00  0.00     0.153 HD
HETATM    8  C11 UNL     1       0.390  -2.441 -12.370  1.00  0.00     0.148 C 
HETATM    9  C12 UNL     1      -0.548  -1.638 -11.547  1.00  0.00    -0.063 C 
HETATM   10  C13 UNL     1      -1.766  -0.904 -11.998  1.00  0.00     0.036 C 
HETATM   11  C14 UNL     1      -1.864   0.156 -10.858  1.00  0.00     0.005 C 
HETATM   12  C15 UNL     1      -0.558   0.744 -10.425  1.00  0.00     0.006 C 
HETATM   13  C16 UNL     1       0.337   0.133  -9.458  1.00  0.00     0.002 C 
HETATM   14  C17 UNL     1      -0.515  -0.660  -8.444  1.00  0.00     0.049 C 
HETATM   15  C18 UNL     1      -0.899  -1.981  -8.976  1.00  0.00    -0.018 C 
HETATM   16  C19 UNL     1      -0.934  -2.348 -10.386  1.00  0.00     0.001 C 
ENDROOT
BRANCH   1  17
HETATM   17  O1  UNL     1       0.197   0.825  -6.917  1.00  0.00    -0.387 OA
ATOM     18  H1  UNL     1      -0.186   1.144  -7.726  1.00  0.00     0.210 HD
ENDBRANCH   1  17
BRANCH   1  19
HETATM   19  C2  UNL     1      -0.281  -1.201  -5.967  1.00  0.00     0.156 C 
HETATM   20  C3  UNL     1      -1.641  -1.728  -5.993  1.00  0.00     0.035 C 
HETATM   21  C4  UNL     1      -2.582  -1.082  -4.963  1.00  0.00     0.005 C 
HETATM   22  C5  UNL     1      -1.952  -1.025  -3.601  1.00  0.00     0.026 C 
HETATM   23  C6  UNL     1      -0.438  -1.097  -3.676  1.00  0.00     0.168 C 
HETATM   24  O2  UNL     1      -0.084  -0.407  -4.832  1.00  0.00    -0.383 OA
ENDBRANCH   1  19
TORSDOF 2
ENDMDL
MODEL 2
REMARK VINA RESULT: -7.825493400      1.270      1.789
REMARK  2 active torsions:
REMARK  status: ('A' for Active; 'I' for Inactive)
REMARK    1  A    between atoms: O1_1  and  C1_3 
REMARK    2  A    between atoms: C1_3  and  C2_4 
ROOT
HETATM    1  C1  UNL     1       1.208   0.206  -7.244  1.00  0.00     0.091 C 
HETATM    2  C7  UNL     1       2.530  -0.294  -7.590  1.00  0.00     0.041 C 
HETATM    3  C8  UNL     1       2.926  -0.332  -9.060  1.00  0.00     0.010 C 
HETATM    4  C9  UNL     1       1.606  -0.562  -9.824  1.00  0.00     0.008 C 
HETATM    5  C10 UNL     1       1.744  -1.169 -11.172  1.00  0.00     0.119 C 
HETATM    6  N1  UNL     1       1.012  -2.426 -11.399  1.00  0.00    -0.417 N 
ATOM      7  H1  UNL     1       1.431  -3.341 -11.232  1.00  0.00     0.153 HD
HETATM    8  C11 UNL     1      -0.379  -2.266 -11.888  1.00  0.00     0.148 C 
HETATM    9  C12 UNL     1      -0.913  -1.171 -11.040  1.00  0.00    -0.063 C 
HETATM   10  C13 UNL     1      -2.046  -0.248 -11.339  1.00  0.00     0.036 C 
HETATM   11  C14 UNL     1      -1.654   0.947 -10.417  1.00  0.00     0.005 C 
HETATM   12  C15 UNL     1      -0.195   1.279 -10.394  1.00  0.00     0.006 C 
HETATM   13  C16 UNL     1       0.784   0.615  -9.551  1.00  0.00     0.002 C 
HETATM   14  C17 UNL     1       0.082   0.174  -8.250  1.00  0.00     0.049 C 
HETATM   15  C18 UNL     1      -0.664  -1.086  -8.436  1.00  0.00    -0.018 C 
HETATM   16  C19 UNL     1      -1.120  -1.617  -9.714  1.00  0.00     0.001 C 
ENDROOT
BRANCH   1  17
HETATM   17  O1  UNL     1       1.420   1.649  -7.210  1.00  0.00    -0.387 OA
ATOM     18  H1  UNL     1       2.249   1.710  -6.749  1.00  0.00     0.210 HD
ENDBRANCH   1  17
BRANCH   1  19
HETATM   19  C2  UNL     1       0.826  -0.076  -5.827  1.00  0.00     0.156 C 
HETATM   20  C3  UNL     1       1.540   0.558  -4.724  1.00  0.00     0.035 C 
HETATM   21  C4  UNL     1       2.167  -0.435  -3.732  1.00  0.00     0.005 C 
HETATM   22  C5  UNL     1       1.189  -1.498  -3.324  1.00  0.00     0.026 C 
HETATM   23  C6  UNL     1       0.074  -1.659  -4.340  1.00  0.00     0.168 C 
HETATM   24  O2  UNL     1       0.662  -1.444  -5.584  1.00  0.00    -0.383 OA
ENDBRANCH   1  19
TORSDOF 2
ENDMDL
MODEL 3
REMARK VINA RESULT: -7.741380632      3.544      5.335
REMARK  2 active torsions:
REMARK  status: ('A' for Active; 'I' for Inactive)
REMARK    1  A    between atoms: O1_1  and  C1_3 
REMARK    2  A    between atoms: C1_3  and  C2_4 
ROOT
HETATM    1  C1  UNL     1       3.183   1.716  -6.914  1.00  0.00     0.091 C 
HETATM    2  C7  UNL     1       2.471   1.321  -5.708  1.00  0.00     0.041 C 
HETATM    3  C8  UNL     1       1.492   0.158  -5.795  1.00  0.00     0.010 C 
HETATM    4  C9  UNL     1       0.944   0.202  -7.236  1.00  0.00     0.008 C 
HETATM    5  C10 UNL     1      -0.379  -0.440  -7.438  1.00  0.00     0.119 C 
HETATM    6  N1  UNL     1      -1.439   0.415  -7.999  1.00  0.00    -0.417 N 
ATOM      7  H1  UNL     1      -2.080   0.949  -7.413  1.00  0.00     0.153 HD
HETATM    8  C11 UNL     1      -1.506   0.443  -9.481  1.00  0.00     0.148 C 
HETATM    9  C12 UNL     1      -0.083   0.564  -9.883  1.00  0.00    -0.063 C 
HETATM   10  C13 UNL     1       0.541   0.175 -11.181  1.00  0.00     0.036 C 
HETATM   11  C14 UNL     1       2.014  -0.028 -10.709  1.00  0.00     0.005 C 
HETATM   12  C15 UNL     1       2.167  -0.713  -9.386  1.00  0.00     0.006 C 
HETATM   13  C16 UNL     1       2.097  -0.039  -8.101  1.00  0.00     0.002 C 
HETATM   14  C17 UNL     1       2.623   1.400  -8.280  1.00  0.00     0.049 C 
HETATM   15  C18 UNL     1       1.588   2.290  -8.842  1.00  0.00    -0.018 C 
HETATM   16  C19 UNL     1       0.415   1.856  -9.589  1.00  0.00     0.001 C 
ENDROOT
BRANCH   1  17
HETATM   17  O1  UNL     1       4.309   0.788  -6.928  1.00  0.00    -0.387 OA
ATOM     18  H1  UNL     1       4.208   0.350  -6.090  1.00  0.00     0.210 HD
ENDBRANCH   1  17
BRANCH   1  19
HETATM   19  C2  UNL     1       3.879   3.031  -6.780  1.00  0.00     0.156 C 
HETATM   20  C3  UNL     1       5.243   3.205  -7.266  1.00  0.00     0.035 C 
HETATM   21  C4  UNL     1       6.236   3.669  -6.189  1.00  0.00     0.005 C 
HETATM   22  C5  UNL     1       5.694   4.827  -5.402  1.00  0.00     0.026 C 
HETATM   23  C6  UNL     1       4.180   4.899  -5.474  1.00  0.00     0.168 C 
HETATM   24  O2  UNL     1       3.741   3.577  -5.500  1.00  0.00    -0.383 OA
ENDBRANCH   1  19
TORSDOF 2
ENDMDL
MODEL 4
REMARK VINA RESULT: -7.610395977      1.099      1.339
REMARK  2 active torsions:
REMARK  status: ('A' for Active; 'I' for Inactive)
REMARK    1  A    between atoms: O1_1  and  C1_3 
REMARK    2  A    between atoms: C1_3  and  C2_4 
ROOT
HETATM    1  C1  UNL     1       1.095  -0.326  -6.892  1.00  0.00     0.091 C 
HETATM    2  C7  UNL     1       2.506  -0.391  -7.240  1.00  0.00     0.041 C 
HETATM    3  C8  UNL     1       2.936   0.115  -8.611  1.00  0.00     0.010 C 
HETATM    4  C9  UNL     1       1.728  -0.151  -9.533  1.00  0.00     0.008 C 
HETATM    5  C10 UNL     1       2.041  -0.265 -10.980  1.00  0.00     0.119 C 
HETATM    6  N1  UNL     1       1.637  -1.520 -11.636  1.00  0.00    -0.417 N 
ATOM      7  H1  UNL     1       2.259  -2.326 -11.707  1.00  0.00     0.153 HD
HETATM    8  C11 UNL     1       0.260  -1.526 -12.189  1.00  0.00     0.148 C 
HETATM    9  C12 UNL     1      -0.541  -0.894 -11.112  1.00  0.00    -0.063 C 
HETATM   10  C13 UNL     1      -1.854  -0.196 -11.234  1.00  0.00     0.036 C 
HETATM   11  C14 UNL     1      -1.783   0.710  -9.967  1.00  0.00     0.005 C 
HETATM   12  C15 UNL     1      -0.446   1.332  -9.707  1.00  0.00     0.006 C 
HETATM   13  C16 UNL     1       0.642   0.672  -9.006  1.00  0.00     0.002 C 
HETATM   14  C17 UNL     1       0.034  -0.293  -7.966  1.00  0.00     0.049 C 
HETATM   15  C18 UNL     1      -0.383  -1.565  -8.587  1.00  0.00    -0.018 C 
HETATM   16  C19 UNL     1      -0.667  -1.762 -10.003  1.00  0.00     0.001 C 
ENDROOT
BRANCH   1  17
HETATM   17  O1  UNL     1       0.955   1.045  -6.414  1.00  0.00    -0.387 OA
ATOM     18  H1  UNL     1       1.634   1.490  -6.907  1.00  0.00     0.210 HD
ENDBRANCH   1  17
BRANCH   1  19
HETATM   19  C2  UNL     1       0.757  -1.109  -5.665  1.00  0.00     0.156 C 
HETATM   20  C3  UNL     1      -0.524  -0.924  -4.993  1.00  0.00     0.035 C 
HETATM   21  C4  UNL     1      -0.402  -0.510  -3.517  1.00  0.00     0.005 C 
HETATM   22  C5  UNL     1       0.577  -1.378  -2.781  1.00  0.00     0.026 C 
HETATM   23  C6  UNL     1       1.561  -2.044  -3.724  1.00  0.00     0.168 C 
HETATM   24  O2  UNL     1       1.803  -1.116  -4.735  1.00  0.00    -0.383 OA
ENDBRANCH   1  19
TORSDOF 2
ENDMDL
MODEL 5
REMARK VINA RESULT: -7.467251915      1.256      1.399
REMARK  2 active torsions:
REMARK  status: ('A' for Active; 'I' for Inactive)
REMARK    1  A    between atoms: O1_1  and  C1_3 
REMARK    2  A    between atoms: C1_3  and  C2_4 
ROOT
HETATM    1  C1  UNL     1      -0.171   0.091  -7.994  1.00  0.00     0.091 C 
HETATM    2  C7  UNL     1       1.110   0.779  -7.938  1.00  0.00     0.041 C 
HETATM    3  C8  UNL     1       1.597   1.503  -9.185  1.00  0.00     0.010 C 
HETATM    4  C9  UNL     1       1.013   0.701 -10.367  1.00  0.00     0.008 C 
HETATM    5  C10 UNL     1       1.740   0.838 -11.654  1.00  0.00     0.119 C 
HETATM    6  N1  UNL     1       2.234  -0.410 -12.259  1.00  0.00    -0.417 N 
ATOM      7  H1  UNL     1       3.167  -0.778 -12.073  1.00  0.00     0.153 HD
HETATM    8  C11 UNL     1       1.275  -1.095 -13.161  1.00  0.00     0.148 C 
HETATM    9  C12 UNL     1      -0.005  -1.019 -12.415  1.00  0.00    -0.063 C 
HETATM   10  C13 UNL     1      -1.392  -1.091 -12.962  1.00  0.00     0.036 C 
HETATM   11  C14 UNL     1      -2.155  -0.342 -11.826  1.00  0.00     0.005 C 
HETATM   12  C15 UNL     1      -1.456   0.864 -11.280  1.00  0.00     0.006 C 
HETATM   13  C16 UNL     1      -0.437   0.822 -10.244  1.00  0.00     0.002 C 
HETATM   14  C17 UNL     1      -0.743  -0.370  -9.313  1.00  0.00     0.049 C 
HETATM   15  C18 UNL     1      -0.262  -1.642  -9.885  1.00  0.00    -0.018 C 
HETATM   16  C19 UNL     1       0.012  -1.885 -11.296  1.00  0.00     0.001 C 
ENDROOT
BRANCH   1  17
HETATM   17  O1  UNL     1      -1.115   1.169  -7.719  1.00  0.00    -0.387 OA
ATOM     18  H1  UNL     1      -1.947   0.712  -7.762  1.00  0.00     0.210 HD
ENDBRANCH   1  17
BRANCH   1  19
HETATM   19  C2  UNL     1      -0.402  -0.815  -6.829  1.00  0.00     0.156 C 
HETATM   20  C3  UNL     1      -1.719  -1.392  -6.584  1.00  0.00     0.035 C 
HETATM   21  C4  UNL     1      -2.300  -1.060  -5.200  1.00  0.00     0.005 C 
HETATM   22  C5  UNL     1      -1.295  -1.296  -4.110  1.00  0.00     0.026 C 
HETATM   23  C6  UNL     1       0.127  -1.268  -4.638  1.00  0.00     0.168 C 
HETATM   24  O2  UNL     1       0.138  -0.305  -5.643  1.00  0.00    -0.383 OA
ENDBRANCH   1  19
TORSDOF 2
ENDMDL
