MODEL 1
REMARK VINA RESULT: -7.177501106      0.000      0.000
REMARK  3 active torsions:
REMARK  status: ('A' for Active; 'I' for Inactive)
REMARK    1  A    between atoms: C3_9  and  N3_10 
REMARK    2  A    between atoms: N3_10  and  C4_12 
REMARK    3  A    between atoms: C4_12  and  C5_13 
ROOT
HETATM    1  O1  UNL     1       5.444 -15.737   1.331  1.00  0.00    -0.245 OA
HETATM    2  C1  UNL     1       5.332 -14.476   1.288  1.00  0.00     0.340 A 
HETATM    3  N1  UNL     1       4.186 -13.929   0.833  1.00  0.00    -0.248 N 
ATOM      4  H1  UNL     1       3.410 -14.515   0.522  1.00  0.00     0.192 HD
HETATM    5  N2  UNL     1       4.098 -12.604   0.801  1.00  0.00    -0.259 N 
ATOM      6  H2  UNL     1       3.237 -12.177   0.459  1.00  0.00     0.190 HD
HETATM    7  C2  UNL     1       5.102 -11.802   1.202  1.00  0.00     0.303 A 
HETATM    8  O2  UNL     1       4.959 -10.547   1.147  1.00  0.00    -0.263 OA
HETATM    9  C3  UNL     1       6.255 -12.396   1.660  1.00  0.00     0.176 A 
HETATM   10  N7  UNL     1       6.352 -13.733   1.696  1.00  0.00    -0.289 N 
ATOM     11  H7  UNL     1       7.206 -14.176   2.036  1.00  0.00     0.172 HD
ENDROOT
BRANCH   9  12
HETATM   12  N3  UNL     1       7.211 -11.617   2.042  1.00  0.00    -0.366 N 
ATOM     13  H3  UNL     1       7.301 -10.716   1.573  1.00  0.00     0.161 HD
BRANCH  12  14
HETATM   14  C4  UNL     1       8.150 -11.919   3.071  1.00  0.00     0.185 C 
BRANCH  14  15
HETATM   15  C5  UNL     1       7.751 -11.384   4.399  1.00  0.00     0.110 A 
HETATM   16  N4  UNL     1       8.264 -11.753   5.586  1.00  0.00    -0.281 N 
HETATM   17  N5  UNL     1       7.663 -11.059   6.566  1.00  0.00    -0.019 NA
ATOM     18  H4  UNL     1       8.996 -12.451   5.721  1.00  0.00     0.184 HD
HETATM   19  N6  UNL     1       6.774 -10.256   6.003  1.00  0.00    -0.248 N 
HETATM   20  C6  UNL     1       6.796 -10.424   4.664  1.00  0.00     0.283 A 
ATOM     21  H6  UNL     1       6.166  -9.608   6.504  1.00  0.00     0.187 HD
HETATM   22  O3  UNL     1       6.072  -9.810   3.838  1.00  0.00    -0.265 OA
ENDBRANCH  14  15
ENDBRANCH  12  14
ENDBRANCH   9  12
TORSDOF 3
ENDMDL
MODEL 2
REMARK VINA RESULT: -7.084541390      1.960      2.919
REMARK  3 active torsions:
REMARK  status: ('A' for Active; 'I' for Inactive)
REMARK    1  A    between atoms: C3_9  and  N3_10 
REMARK    2  A    between atoms: N3_10  and  C4_12 
REMARK    3  A    between atoms: C4_12  and  C5_13 
ROOT
HETATM    1  O1  UNL     1       6.503 -15.086  -1.320  1.00  0.00    -0.245 OA
HETATM    2  C1  UNL     1       6.532 -14.916  -0.065  1.00  0.00     0.340 A 
HETATM    3  N1  UNL     1       7.319 -15.711   0.691  1.00  0.00    -0.248 N 
ATOM      4  H1  UNL     1       7.888 -16.444   0.267  1.00  0.00     0.192 HD
HETATM    5  N2  UNL     1       7.329 -15.508   2.004  1.00  0.00    -0.259 N 
ATOM      6  H2  UNL     1       7.919 -16.101   2.587  1.00  0.00     0.190 HD
HETATM    7  C2  UNL     1       6.590 -14.550   2.594  1.00  0.00     0.303 A 
HETATM    8  O2  UNL     1       6.643 -14.406   3.849  1.00  0.00    -0.263 OA
HETATM    9  C3  UNL     1       5.801 -13.760   1.791  1.00  0.00     0.176 A 
HETATM   10  N7  UNL     1       5.785 -13.957   0.465  1.00  0.00    -0.289 N 
ATOM     11  H7  UNL     1       5.201 -13.372  -0.133  1.00  0.00     0.172 HD
ENDROOT
BRANCH   9  12
HETATM   12  N3  UNL     1       5.097 -12.844   2.369  1.00  0.00    -0.366 N 
ATOM     13  H3  UNL     1       4.325 -13.148   2.962  1.00  0.00     0.161 HD
BRANCH  12  14
HETATM   14  C4  UNL     1       5.318 -11.442   2.242  1.00  0.00     0.185 C 
BRANCH  14  15
HETATM   15  C5  UNL     1       6.509 -10.970   2.997  1.00  0.00     0.110 A 
HETATM   16  N4  UNL     1       7.619 -10.431   2.462  1.00  0.00    -0.281 N 
HETATM   17  N5  UNL     1       8.481 -10.123   3.445  1.00  0.00    -0.019 NA
ATOM     18  H4  UNL     1       7.781 -10.281   1.466  1.00  0.00     0.184 HD
HETATM   19  N6  UNL     1       7.920 -10.465   4.594  1.00  0.00    -0.248 N 
HETATM   20  C6  UNL     1       6.700 -10.992   4.363  1.00  0.00     0.283 A 
ATOM     21  H6  UNL     1       8.346 -10.348   5.514  1.00  0.00     0.187 HD
HETATM   22  O3  UNL     1       5.907 -11.416   5.244  1.00  0.00    -0.265 OA
ENDBRANCH  14  15
ENDBRANCH  12  14
ENDBRANCH   9  12
TORSDOF 3
ENDMDL
MODEL 3
REMARK VINA RESULT: -6.969237955      1.047      2.155
REMARK  3 active torsions:
REMARK  status: ('A' for Active; 'I' for Inactive)
REMARK    1  A    between atoms: C3_9  and  N3_10 
REMARK    2  A    between atoms: N3_10  and  C4_12 
REMARK    3  A    between atoms: C4_12  and  C5_13 
ROOT
HETATM    1  O1  UNL     1       3.616 -11.633   1.196  1.00  0.00    -0.245 OA
HETATM    2  C1  UNL     1       4.511 -12.529   1.222  1.00  0.00     0.340 A 
HETATM    3  N1  UNL     1       4.372 -13.624   0.447  1.00  0.00    -0.248 N 
ATOM      4  H1  UNL     1       3.559 -13.741  -0.158  1.00  0.00     0.192 HD
HETATM    5  N2  UNL     1       5.327 -14.546   0.495  1.00  0.00    -0.259 N 
ATOM      6  H2  UNL     1       5.235 -15.379  -0.086  1.00  0.00     0.190 HD
HETATM    7  C2  UNL     1       6.412 -14.424   1.282  1.00  0.00     0.303 A 
HETATM    8  O2  UNL     1       7.287 -15.336   1.285  1.00  0.00    -0.263 OA
HETATM    9  C3  UNL     1       6.519 -13.294   2.059  1.00  0.00     0.176 A 
HETATM   10  N7  UNL     1       5.560 -12.358   2.016  1.00  0.00    -0.289 N 
ATOM     11  H7  UNL     1       5.636 -11.518   2.591  1.00  0.00     0.172 HD
ENDROOT
BRANCH   9  12
HETATM   12  N3  UNL     1       7.564 -13.188   2.810  1.00  0.00    -0.366 N 
ATOM     13  H3  UNL     1       7.950 -14.046   3.205  1.00  0.00     0.161 HD
BRANCH  12  14
HETATM   14  C4  UNL     1       8.220 -11.963   3.130  1.00  0.00     0.185 C 
BRANCH  14  15
HETATM   15  C5  UNL     1       7.734 -11.356   4.396  1.00  0.00     0.110 A 
HETATM   16  N4  UNL     1       8.206 -11.616   5.628  1.00  0.00    -0.281 N 
HETATM   17  N5  UNL     1       7.528 -10.884   6.527  1.00  0.00    -0.019 NA
ATOM     18  H4  UNL     1       8.961 -12.266   5.846  1.00  0.00     0.184 HD
HETATM   19  N6  UNL     1       6.633 -10.166   5.869  1.00  0.00    -0.248 N 
HETATM   20  C6  UNL     1       6.725 -10.427   4.548  1.00  0.00     0.283 A 
ATOM     21  H6  UNL     1       5.972  -9.515   6.295  1.00  0.00     0.187 HD
HETATM   22  O3  UNL     1       6.015  -9.908   3.649  1.00  0.00    -0.265 OA
ENDBRANCH  14  15
ENDBRANCH  12  14
ENDBRANCH   9  12
TORSDOF 3
ENDMDL
MODEL 4
REMARK VINA RESULT: -6.930111098      2.379      3.842
REMARK  3 active torsions:
REMARK  status: ('A' for Active; 'I' for Inactive)
REMARK    1  A    between atoms: C3_9  and  N3_10 
REMARK    2  A    between atoms: N3_10  and  C4_12 
REMARK    3  A    between atoms: C4_12  and  C5_13 
ROOT
HETATM    1  O1  UNL     1       6.554 -16.007   4.466  1.00  0.00    -0.245 OA
HETATM    2  C1  UNL     1       6.616 -15.719   3.234  1.00  0.00     0.340 A 
HETATM    3  N1  UNL     1       7.670 -16.146   2.508  1.00  0.00    -0.248 N 
ATOM      4  H1  UNL     1       8.415 -16.696   2.935  1.00  0.00     0.192 HD
HETATM    5  N2  UNL     1       7.706 -15.829   1.218  1.00  0.00    -0.259 N 
ATOM      6  H2  UNL     1       8.497 -16.146   0.657  1.00  0.00     0.190 HD
HETATM    7  C2  UNL     1       6.739 -15.106   0.623  1.00  0.00     0.303 A 
HETATM    8  O2  UNL     1       6.830 -14.836  -0.608  1.00  0.00    -0.263 OA
HETATM    9  C3  UNL     1       5.681 -14.688   1.396  1.00  0.00     0.176 A 
HETATM   10  N7  UNL     1       5.636 -15.004   2.698  1.00  0.00    -0.289 N 
ATOM     11  H7  UNL     1       4.852 -14.696   3.274  1.00  0.00     0.172 HD
ENDROOT
BRANCH   9  12
HETATM   12  N3  UNL     1       4.760 -13.995   0.814  1.00  0.00    -0.366 N 
ATOM     13  H3  UNL     1       4.434 -14.316  -0.098  1.00  0.00     0.161 HD
BRANCH  12  14
HETATM   14  C4  UNL     1       4.163 -12.816   1.349  1.00  0.00     0.185 C 
BRANCH  14  15
HETATM   15  C5  UNL     1       5.156 -11.760   1.680  1.00  0.00     0.110 A 
HETATM   16  N4  UNL     1       5.703 -10.892   0.811  1.00  0.00    -0.281 N 
HETATM   17  N5  UNL     1       6.555 -10.086   1.466  1.00  0.00    -0.019 NA
ATOM     18  H4  UNL     1       5.504 -10.852  -0.188  1.00  0.00     0.184 HD
HETATM   19  N6  UNL     1       6.546 -10.442   2.741  1.00  0.00    -0.248 N 
HETATM   20  C6  UNL     1       5.694 -11.473   2.917  1.00  0.00     0.283 A 
ATOM     21  H6  UNL     1       7.099 -10.004   3.478  1.00  0.00     0.187 HD
HETATM   22  O3  UNL     1       5.456 -12.046   4.012  1.00  0.00    -0.265 OA
ENDBRANCH  14  15
ENDBRANCH  12  14
ENDBRANCH   9  12
TORSDOF 3
ENDMDL
MODEL 5
REMARK VINA RESULT: -6.925513375      1.768      5.372
REMARK  3 active torsions:
REMARK  status: ('A' for Active; 'I' for Inactive)
REMARK    1  A    between atoms: C3_9  and  N3_10 
REMARK    2  A    between atoms: N3_10  and  C4_12 
REMARK    3  A    between atoms: C4_12  and  C5_13 
ROOT
HETATM    1  O1  UNL     1       6.281 -10.059   6.708  1.00  0.00    -0.245 OA
HETATM    2  C1  UNL     1       6.822 -10.554   5.676  1.00  0.00     0.340 A 
HETATM    3  N1  UNL     1       7.969 -11.254   5.802  1.00  0.00    -0.248 N 
ATOM      4  H1  UNL     1       8.406 -11.388   6.715  1.00  0.00     0.192 HD
HETATM    5  N2  UNL     1       8.513 -11.762   4.702  1.00  0.00    -0.259 N 
ATOM      6  H2  UNL     1       9.380 -12.293   4.783  1.00  0.00     0.190 HD
HETATM    7  C2  UNL     1       7.963 -11.603   3.484  1.00  0.00     0.303 A 
HETATM    8  O2  UNL     1       8.528 -12.110   2.473  1.00  0.00    -0.263 OA
HETATM    9  C3  UNL     1       6.794 -10.884   3.394  1.00  0.00     0.176 A 
HETATM   10  N7  UNL     1       6.238 -10.368   4.500  1.00  0.00    -0.289 N 
ATOM     11  H7  UNL     1       5.371  -9.834   4.437  1.00  0.00     0.172 HD
ENDROOT
BRANCH   9  12
HETATM   12  N3  UNL     1       6.276 -10.738   2.220  1.00  0.00    -0.366 N 
ATOM     13  H3  UNL     1       6.748 -10.106   1.572  1.00  0.00     0.161 HD
BRANCH  12  14
HETATM   14  C4  UNL     1       5.097 -11.393   1.759  1.00  0.00     0.185 C 
BRANCH  14  15
HETATM   15  C5  UNL     1       5.366 -12.732   1.173  1.00  0.00     0.110 A 
HETATM   16  N4  UNL     1       6.468 -13.086   0.487  1.00  0.00    -0.281 N 
HETATM   17  N5  UNL     1       6.364 -14.372   0.113  1.00  0.00    -0.019 NA
ATOM     18  H4  UNL     1       7.258 -12.475   0.284  1.00  0.00     0.184 HD
HETATM   19  N6  UNL     1       5.204 -14.828   0.558  1.00  0.00    -0.248 N 
HETATM   20  C6  UNL     1       4.555 -13.847   1.220  1.00  0.00     0.283 A 
ATOM     21  H6  UNL     1       4.853 -15.777   0.421  1.00  0.00     0.187 HD
HETATM   22  O3  UNL     1       3.426 -13.955   1.765  1.00  0.00    -0.265 OA
ENDBRANCH  14  15
ENDBRANCH  12  14
ENDBRANCH   9  12
TORSDOF 3
ENDMDL
