MODEL 1
REMARK VINA RESULT: -6.802509016      0.000      0.000
REMARK  5 active torsions:
REMARK  status: ('A' for Active; 'I' for Inactive)
REMARK    1  A    between atoms: N1_1  and  C1_5 
REMARK    2  A    between atoms: C1_5  and  C2_6 
REMARK    3  A    between atoms: C2_6  and  N2_7 
REMARK    4  A    between atoms: N2_7  and  C3_9 
REMARK    5  A    between atoms: N5_19  and  N6_20 
ROOT
HETATM    1  C3  UNL     1       6.796 -12.730   4.018  1.00  0.00     0.680 A 
HETATM    2  N3  UNL     1       5.852 -12.191   3.224  1.00  0.00    -0.182 N 
ATOM      3  H3  UNL     1       5.474 -11.247   3.308  1.00  0.00     0.184 HD
HETATM    4  C4  UNL     1       5.489 -13.100   2.301  1.00  0.00     0.163 A 
HETATM    5  C5  UNL     1       4.594 -13.125   1.252  1.00  0.00     0.280 A 
HETATM    6  O1  UNL     1       3.907 -12.097   1.023  1.00  0.00    -0.265 OA
HETATM    7  N4  UNL     1       4.501 -14.255   0.521  1.00  0.00    -0.272 N 
ATOM      8  H4  UNL     1       3.839 -14.273  -0.254  1.00  0.00     0.174 HD
HETATM    9  C6  UNL     1       5.224 -15.349   0.751  1.00  0.00     0.349 A 
HETATM   10  O2  UNL     1       5.088 -16.386   0.022  1.00  0.00    -0.244 OA
HETATM   11  N5  UNL     1       6.101 -15.329   1.778  1.00  0.00    -0.192 N 
HETATM   12  C7  UNL     1       6.249 -14.237   2.551  1.00  0.00     0.179 A 
HETATM   13  N7  UNL     1       7.049 -13.996   3.613  1.00  0.00    -0.172 N 
ATOM     14  H7  UNL     1       7.717 -14.644   4.029  1.00  0.00     0.186 HD
ENDROOT
BRANCH   1  15
HETATM   15  N2  UNL     1       7.393 -12.184   5.011  1.00  0.00    -0.224 N 
ATOM     16  H2  UNL     1       7.727 -12.769   5.778  1.00  0.00     0.177 HD
BRANCH  15  17
HETATM   17  C2  UNL     1       7.602 -10.750   5.066  1.00  0.00     0.165 C 
BRANCH  17  18
HETATM   18  C1  UNL     1       6.860 -10.268   6.320  1.00  0.00     0.249 C 
BRANCH  18  19
HETATM   19  N1  UNL     1       7.894  -9.887   7.273  1.00  0.00    -0.078 N 
ATOM     20  H13 UNL     1       7.733 -10.244   8.214  1.00  0.00     0.274 HD
ATOM     21  H12 UNL     1       8.786 -10.355   7.115  1.00  0.00     0.274 HD
ATOM     22  H11 UNL     1       7.954  -8.870   7.227  1.00  0.00     0.274 HD
ENDBRANCH  18  19
ENDBRANCH  17  18
ENDBRANCH  15  17
ENDBRANCH   1  15
BRANCH  11  23
HETATM   23  N6  UNL     1       6.864 -16.460   2.036  1.00  0.00    -0.333 N 
ATOM     24  H62 UNL     1       6.544 -17.369   1.704  1.00  0.00     0.177 HD
ATOM     25  H61 UNL     1       7.735 -16.362   2.557  1.00  0.00     0.177 HD
ENDBRANCH  11  23
TORSDOF 5
ENDMDL
MODEL 2
REMARK VINA RESULT: -6.784137847      2.303      5.598
REMARK  5 active torsions:
REMARK  status: ('A' for Active; 'I' for Inactive)
REMARK    1  A    between atoms: N1_1  and  C1_5 
REMARK    2  A    between atoms: C1_5  and  C2_6 
REMARK    3  A    between atoms: C2_6  and  N2_7 
REMARK    4  A    between atoms: N2_7  and  C3_9 
REMARK    5  A    between atoms: N5_19  and  N6_20 
ROOT
HETATM    1  C3  UNL     1       6.722 -14.319   1.114  1.00  0.00     0.680 A 
HETATM    2  N3  UNL     1       6.088 -13.233   0.636  1.00  0.00    -0.182 N 
ATOM      3  H3  UNL     1       5.711 -13.134  -0.307  1.00  0.00     0.184 HD
HETATM    4  C4  UNL     1       6.033 -12.300   1.602  1.00  0.00     0.163 A 
HETATM    5  C5  UNL     1       5.523 -11.022   1.702  1.00  0.00     0.280 A 
HETATM    6  O1  UNL     1       4.952 -10.524   0.698  1.00  0.00    -0.265 OA
HETATM    7  N4  UNL     1       5.661 -10.370   2.874  1.00  0.00    -0.272 N 
ATOM      8  H4  UNL     1       5.284  -9.425   2.946  1.00  0.00     0.174 HD
HETATM    9  C6  UNL     1       6.262 -10.887   3.944  1.00  0.00     0.349 A 
HETATM   10  O2  UNL     1       6.361 -10.216   5.024  1.00  0.00    -0.244 OA
HETATM   11  N5  UNL     1       6.764 -12.137   3.851  1.00  0.00    -0.192 N 
HETATM   12  C7  UNL     1       6.663 -12.850   2.714  1.00  0.00     0.179 A 
HETATM   13  N7  UNL     1       7.084 -14.094   2.399  1.00  0.00    -0.172 N 
ATOM     14  H7  UNL     1       7.579 -14.741   3.012  1.00  0.00     0.186 HD
ENDROOT
BRANCH   1  15
HETATM   15  N2  UNL     1       6.974 -15.417   0.503  1.00  0.00    -0.224 N 
ATOM     16  H2  UNL     1       7.791 -15.965   0.772  1.00  0.00     0.177 HD
BRANCH  15  17
HETATM   17  C2  UNL     1       6.118 -15.893  -0.567  1.00  0.00     0.165 C 
BRANCH  17  18
HETATM   18  C1  UNL     1       7.033 -16.070  -1.786  1.00  0.00     0.249 C 
BRANCH  18  19
HETATM   19  N1  UNL     1       6.923 -14.835  -2.551  1.00  0.00    -0.078 N 
ATOM     20  H13 UNL     1       6.569 -14.049  -2.006  1.00  0.00     0.274 HD
ATOM     21  H12 UNL     1       7.824 -14.422  -2.790  1.00  0.00     0.274 HD
ATOM     22  H11 UNL     1       6.349 -15.060  -3.363  1.00  0.00     0.274 HD
ENDBRANCH  18  19
ENDBRANCH  17  18
ENDBRANCH  15  17
ENDBRANCH   1  15
BRANCH  11  23
HETATM   23  N6  UNL     1       7.395 -12.695   4.955  1.00  0.00    -0.333 N 
ATOM     24  H62 UNL     1       8.413 -12.714   4.996  1.00  0.00     0.177 HD
ATOM     25  H61 UNL     1       6.826 -13.079   5.709  1.00  0.00     0.177 HD
ENDBRANCH  11  23
TORSDOF 5
ENDMDL
MODEL 3
REMARK VINA RESULT: -6.692250573      2.578      6.067
REMARK  5 active torsions:
REMARK  status: ('A' for Active; 'I' for Inactive)
REMARK    1  A    between atoms: N1_1  and  C1_5 
REMARK    2  A    between atoms: C1_5  and  C2_6 
REMARK    3  A    between atoms: C2_6  and  N2_7 
REMARK    4  A    between atoms: N2_7  and  C3_9 
REMARK    5  A    between atoms: N5_19  and  N6_20 
ROOT
HETATM    1  C3  UNL     1       6.133 -14.472   0.195  1.00  0.00     0.680 A 
HETATM    2  N3  UNL     1       6.464 -15.190   1.284  1.00  0.00    -0.182 N 
ATOM      3  H3  UNL     1       6.698 -16.183   1.292  1.00  0.00     0.184 HD
HETATM    4  C4  UNL     1       6.435 -14.385   2.361  1.00  0.00     0.163 A 
HETATM    5  C5  UNL     1       6.674 -14.545   3.711  1.00  0.00     0.280 A 
HETATM    6  O1  UNL     1       7.005 -15.684   4.130  1.00  0.00    -0.265 OA
HETATM    7  N4  UNL     1       6.540 -13.470   4.514  1.00  0.00    -0.272 N 
ATOM      8  H4  UNL     1       6.716 -13.591   5.511  1.00  0.00     0.174 HD
HETATM    9  C6  UNL     1       6.192 -12.261   4.081  1.00  0.00     0.349 A 
HETATM   10  O2  UNL     1       6.082 -11.284   4.894  1.00  0.00    -0.244 OA
HETATM   11  N5  UNL     1       5.956 -12.099   2.761  1.00  0.00    -0.192 N 
HETATM   12  C7  UNL     1       6.070 -13.125   1.899  1.00  0.00     0.179 A 
HETATM   13  N7  UNL     1       5.886 -13.193   0.562  1.00  0.00    -0.172 N 
ATOM     14  H7  UNL     1       5.613 -12.427  -0.053  1.00  0.00     0.186 HD
ENDROOT
BRANCH   1  15
HETATM   15  N2  UNL     1       6.047 -14.877  -1.017  1.00  0.00    -0.224 N 
ATOM     16  H2  UNL     1       5.564 -14.300  -1.706  1.00  0.00     0.177 HD
BRANCH  15  17
HETATM   17  C2  UNL     1       6.624 -16.143  -1.428  1.00  0.00     0.165 C 
BRANCH  17  18
HETATM   18  C1  UNL     1       7.888 -15.787  -2.223  1.00  0.00     0.249 C 
BRANCH  18  19
HETATM   19  N1  UNL     1       7.444 -14.933  -3.316  1.00  0.00    -0.078 N 
ATOM     20  H13 UNL     1       6.614 -15.282  -3.796  1.00  0.00     0.274 HD
ATOM     21  H12 UNL     1       7.042 -14.048  -3.005  1.00  0.00     0.274 HD
ATOM     22  H11 UNL     1       8.251 -14.820  -3.928  1.00  0.00     0.274 HD
ENDBRANCH  18  19
ENDBRANCH  17  18
ENDBRANCH  15  17
ENDBRANCH   1  15
BRANCH  11  23
HETATM   23  N6  UNL     1       5.591 -10.845   2.290  1.00  0.00    -0.333 N 
ATOM     24  H62 UNL     1       5.014 -10.238   2.871  1.00  0.00     0.177 HD
ATOM     25  H61 UNL     1       5.907 -10.551   1.366  1.00  0.00     0.177 HD
ENDBRANCH  11  23
TORSDOF 5
ENDMDL
MODEL 4
REMARK VINA RESULT: -6.578029632      1.625      2.586
REMARK  5 active torsions:
REMARK  status: ('A' for Active; 'I' for Inactive)
REMARK    1  A    between atoms: N1_1  and  C1_5 
REMARK    2  A    between atoms: C1_5  and  C2_6 
REMARK    3  A    between atoms: C2_6  and  N2_7 
REMARK    4  A    between atoms: N2_7  and  C3_9 
REMARK    5  A    between atoms: N5_19  and  N6_20 
ROOT
HETATM    1  C3  UNL     1       7.062 -11.767   4.286  1.00  0.00     0.680 A 
HETATM    2  N3  UNL     1       7.237 -13.077   4.542  1.00  0.00    -0.182 N 
ATOM      3  H3  UNL     1       7.741 -13.463   5.341  1.00  0.00     0.184 HD
HETATM    4  C4  UNL     1       6.640 -13.794   3.574  1.00  0.00     0.163 A 
HETATM    5  C5  UNL     1       6.486 -15.138   3.303  1.00  0.00     0.280 A 
HETATM    6  O1  UNL     1       6.991 -15.972   4.098  1.00  0.00    -0.265 OA
HETATM    7  N4  UNL     1       5.800 -15.491   2.197  1.00  0.00    -0.272 N 
ATOM      8  H4  UNL     1       5.688 -16.485   1.998  1.00  0.00     0.174 HD
HETATM    9  C6  UNL     1       5.259 -14.618   1.350  1.00  0.00     0.349 A 
HETATM   10  O2  UNL     1       4.622 -15.018   0.320  1.00  0.00    -0.244 OA
HETATM   11  N5  UNL     1       5.408 -13.301   1.610  1.00  0.00    -0.192 N 
HETATM   12  C7  UNL     1       6.079 -12.873   2.694  1.00  0.00     0.179 A 
HETATM   13  N7  UNL     1       6.348 -11.628   3.145  1.00  0.00    -0.172 N 
ATOM     14  H7  UNL     1       6.067 -10.751   2.708  1.00  0.00     0.186 HD
ENDROOT
BRANCH   1  15
HETATM   15  N2  UNL     1       7.480 -10.769   4.972  1.00  0.00    -0.224 N 
ATOM     16  H2  UNL     1       8.355 -10.314   4.713  1.00  0.00     0.177 HD
BRANCH  15  17
HETATM   17  C2  UNL     1       6.730 -10.275   6.111  1.00  0.00     0.165 C 
BRANCH  17  18
HETATM   18  C1  UNL     1       7.777  -9.911   7.173  1.00  0.00     0.249 C 
BRANCH  18  19
HETATM   19  N1  UNL     1       7.044  -9.251   8.245  1.00  0.00    -0.078 N 
ATOM     20  H13 UNL     1       6.300  -9.824   8.643  1.00  0.00     0.274 HD
ATOM     21  H12 UNL     1       7.586  -9.143   9.103  1.00  0.00     0.274 HD
ATOM     22  H11 UNL     1       6.716  -8.367   7.857  1.00  0.00     0.274 HD
ENDBRANCH  18  19
ENDBRANCH  17  18
ENDBRANCH  15  17
ENDBRANCH   1  15
BRANCH  11  23
HETATM   23  N6  UNL     1       4.852 -12.375   0.738  1.00  0.00    -0.333 N 
ATOM     24  H62 UNL     1       5.314 -12.180  -0.150  1.00  0.00     0.177 HD
ATOM     25  H61 UNL     1       3.989 -11.901   1.002  1.00  0.00     0.177 HD
ENDBRANCH  11  23
TORSDOF 5
ENDMDL
MODEL 5
REMARK VINA RESULT: -6.569428530      2.504      4.855
REMARK  5 active torsions:
REMARK  status: ('A' for Active; 'I' for Inactive)
REMARK    1  A    between atoms: N1_1  and  C1_5 
REMARK    2  A    between atoms: C1_5  and  C2_6 
REMARK    3  A    between atoms: C2_6  and  N2_7 
REMARK    4  A    between atoms: N2_7  and  C3_9 
REMARK    5  A    between atoms: N5_19  and  N6_20 
ROOT
HETATM    1  C3  UNL     1       6.782 -14.930   3.709  1.00  0.00     0.680 A 
HETATM    2  N3  UNL     1       7.100 -13.775   4.324  1.00  0.00    -0.182 N 
ATOM      3  H3  UNL     1       7.669 -13.689   5.166  1.00  0.00     0.184 HD
HETATM    4  C4  UNL     1       6.546 -12.754   3.646  1.00  0.00     0.163 A 
HETATM    5  C5  UNL     1       6.522 -11.382   3.789  1.00  0.00     0.280 A 
HETATM    6  O1  UNL     1       7.140 -10.869   4.758  1.00  0.00    -0.265 OA
HETATM    7  N4  UNL     1       5.836 -10.658   2.881  1.00  0.00    -0.272 N 
ATOM      8  H4  UNL     1       5.819  -9.644   2.989  1.00  0.00     0.174 HD
HETATM    9  C6  UNL     1       5.181 -11.190   1.852  1.00  0.00     0.349 A 
HETATM   10  O2  UNL     1       4.550 -10.448   1.028  1.00  0.00    -0.244 OA
HETATM   11  N5  UNL     1       5.200 -12.532   1.708  1.00  0.00    -0.192 N 
HETATM   12  C7  UNL     1       5.863 -13.320   2.574  1.00  0.00     0.179 A 
HETATM   13  N7  UNL     1       6.016 -14.661   2.626  1.00  0.00    -0.172 N 
ATOM     14  H7  UNL     1       5.628 -15.342   1.973  1.00  0.00     0.186 HD
ENDROOT
BRANCH   1  15
HETATM   15  N2  UNL     1       7.118 -16.119   4.047  1.00  0.00    -0.224 N 
ATOM     16  H2  UNL     1       7.580 -16.274   4.943  1.00  0.00     0.177 HD
BRANCH  15  17
HETATM   17  C2  UNL     1       6.853 -17.249   3.177  1.00  0.00     0.165 C 
BRANCH  17  18
HETATM   18  C1  UNL     1       8.191 -17.987   3.034  1.00  0.00     0.249 C 
BRANCH  18  19
HETATM   19  N1  UNL     1       8.925 -17.283   1.990  1.00  0.00    -0.078 N 
ATOM     20  H13 UNL     1       8.778 -17.670   1.057  1.00  0.00     0.274 HD
ATOM     21  H12 UNL     1       8.561 -16.351   1.794  1.00  0.00     0.274 HD
ATOM     22  H11 UNL     1       9.901 -17.286   2.284  1.00  0.00     0.274 HD
ENDBRANCH  18  19
ENDBRANCH  17  18
ENDBRANCH  15  17
ENDBRANCH   1  15
BRANCH  11  23
HETATM   23  N6  UNL     1       4.521 -13.106   0.642  1.00  0.00    -0.333 N 
ATOM     24  H62 UNL     1       4.410 -14.119   0.603  1.00  0.00     0.177 HD
ATOM     25  H61 UNL     1       4.146 -12.503  -0.090  1.00  0.00     0.177 HD
ENDBRANCH  11  23
TORSDOF 5
ENDMDL
