MODEL 1
REMARK VINA RESULT: -8.257394047      0.000      0.000
REMARK  12 active torsions:
REMARK  status: ('A' for Active; 'I' for Inactive)
REMARK    1  A    between atoms: C2_2  and  O1_5 
REMARK    2  A    between atoms: O1_5  and  C5_6 
REMARK       I    between atoms: C5_6  and  N1_8 
REMARK    3  A    between atoms: N1_8  and  C6_9 
REMARK    4  A    between atoms: C6_9  and  C7_10 
REMARK    5  A    between atoms: C8_15  and  S1_16 
REMARK    6  A    between atoms: S1_16  and  C9_17 
REMARK    7  A    between atoms: C9_17  and  C10_18 
REMARK    8  A    between atoms: C10_18  and  O3_19 
REMARK    9  A    between atoms: C10_18  and  N4_21 
REMARK   10  A    between atoms: N4_21  and  C11_22 
REMARK   11  A    between atoms: C11_22  and  C12_23 
REMARK   12  A    between atoms: N5_28  and  C15_29 
ROOT
HETATM    1  C7  UNL     1      24.422  26.235  25.905  1.00  0.00     0.154 A 
HETATM    2  N2  UNL     1      23.932  25.039  25.606  1.00  0.00    -0.281 N 
ATOM      3  H2  UNL     1      23.019  24.684  25.891  1.00  0.00     0.188 HD
HETATM    4  N3  UNL     1      24.817  24.385  24.880  1.00  0.00    -0.278 N 
ATOM      5  H3  UNL     1      24.687  23.440  24.516  1.00  0.00     0.189 HD
HETATM    6  C8  UNL     1      25.895  25.121  24.690  1.00  0.00     0.163 A 
HETATM    7  N5  UNL     1      25.645  26.305  25.340  1.00  0.00    -0.305 N 
ENDROOT
BRANCH   6   8
HETATM    8  S1  UNL     1      27.355  24.732  23.800  1.00  0.00    -0.083 SA
BRANCH   8   9
HETATM    9  C9  UNL     1      27.657  25.626  22.297  1.00  0.00     0.182 C 
BRANCH   9  10
HETATM   10  C10 UNL     1      28.345  24.764  21.252  1.00  0.00     0.198 C 
BRANCH  10  11
HETATM   11  O3  UNL     1      28.990  25.485  20.358  1.00  0.00    -0.338 OA
ATOM     12  H3  UNL     1      29.239  26.338  20.695  1.00  0.00     0.220 HD
ENDBRANCH  10  11
BRANCH  10  13
HETATM   13  N4  UNL     1      28.312  23.399  21.215  1.00  0.00    -0.398 NA
BRANCH  13  14
HETATM   14  C11 UNL     1      28.280  22.037  21.180  1.00  0.00     0.192 C 
BRANCH  14  15
HETATM   15  C12 UNL     1      28.960  21.392  19.974  1.00  0.00     0.200 C 
HETATM   16  C13 UNL     1      29.052  19.888  20.107  1.00  0.00     0.209 C 
HETATM   17  O4  UNL     1      30.276  19.669  19.440  1.00  0.00    -0.364 OA
HETATM   18  C14 UNL     1      31.066  20.678  20.031  1.00  0.00     0.338 C 
HETATM   19  O5  UNL     1      30.277  21.834  19.923  1.00  0.00    -0.353 OA
ENDBRANCH  14  15
ENDBRANCH  13  14
ENDBRANCH  10  13
ENDBRANCH   9  10
ENDBRANCH   8   9
ENDBRANCH   6   8
BRANCH   7  20
HETATM   20  C15 UNL     1      26.529  27.419  25.358  1.00  0.00     0.094 C 
HETATM   21  C16 UNL     1      26.134  28.574  24.486  1.00  0.00     0.026 C 
HETATM   22  C17 UNL     1      27.025  29.677  25.033  1.00  0.00     0.002 C 
HETATM   23  C18 UNL     1      26.895  29.439  26.532  1.00  0.00     0.002 C 
HETATM   24  C19 UNL     1      26.920  27.951  26.716  1.00  0.00     0.026 C 
ENDBRANCH   7  20
BRANCH   1  25
HETATM   25  C6  UNL     1      23.792  27.327  26.732  1.00  0.00     0.238 C 
BRANCH  25  26
HETATM   26  N1  UNL     1      22.596  27.049  27.361  1.00  0.00    -0.355 NA
HETATM   27  C5  UNL     1      21.386  26.724  27.912  1.00  0.00     0.440 C 
HETATM   28  O2  UNL     1      20.466  25.970  27.416  1.00  0.00    -0.221 OA
BRANCH  27  29
HETATM   29  O1  UNL     1      20.985  27.221  29.197  1.00  0.00    -0.282 OA
BRANCH  29  30
HETATM   30  C2  UNL     1      21.103  26.357  30.301  1.00  0.00     0.062 C 
HETATM   31  C1  UNL     1      19.686  25.893  30.668  1.00  0.00     0.046 C 
HETATM   32  C3  UNL     1      21.611  27.070  31.535  1.00  0.00     0.046 C 
HETATM   33  C4  UNL     1      22.003  25.164  30.018  1.00  0.00     0.046 C 
ENDBRANCH  29  30
ENDBRANCH  27  29
ENDBRANCH  25  26
ENDBRANCH   1  25
TORSDOF 12
ENDMDL
MODEL 2
REMARK VINA RESULT: -8.198405910      1.029      1.369
REMARK  12 active torsions:
REMARK  status: ('A' for Active; 'I' for Inactive)
REMARK    1  A    between atoms: C2_2  and  O1_5 
REMARK    2  A    between atoms: O1_5  and  C5_6 
REMARK       I    between atoms: C5_6  and  N1_8 
REMARK    3  A    between atoms: N1_8  and  C6_9 
REMARK    4  A    between atoms: C6_9  and  C7_10 
REMARK    5  A    between atoms: C8_15  and  S1_16 
REMARK    6  A    between atoms: S1_16  and  C9_17 
REMARK    7  A    between atoms: C9_17  and  C10_18 
REMARK    8  A    between atoms: C10_18  and  O3_19 
REMARK    9  A    between atoms: C10_18  and  N4_21 
REMARK   10  A    between atoms: N4_21  and  C11_22 
REMARK   11  A    between atoms: C11_22  and  C12_23 
REMARK   12  A    between atoms: N5_28  and  C15_29 
ROOT
HETATM    1  C7  UNL     1      24.879  26.210  25.618  1.00  0.00     0.154 A 
HETATM    2  N2  UNL     1      24.234  25.056  25.512  1.00  0.00    -0.281 N 
ATOM      3  H2  UNL     1      23.329  24.841  25.931  1.00  0.00     0.188 HD
HETATM    4  N3  UNL     1      24.954  24.231  24.775  1.00  0.00    -0.278 N 
ATOM      5  H3  UNL     1      24.682  23.276  24.538  1.00  0.00     0.189 HD
HETATM    6  C8  UNL     1      26.073  24.812  24.389  1.00  0.00     0.163 A 
HETATM    7  N5  UNL     1      26.027  26.078  24.922  1.00  0.00    -0.305 N 
ENDROOT
BRANCH   6   8
HETATM    8  S1  UNL     1      27.368  24.166  23.399  1.00  0.00    -0.083 SA
BRANCH   8   9
HETATM    9  C9  UNL     1      27.725  25.002  21.875  1.00  0.00     0.182 C 
BRANCH   9  10
HETATM   10  C10 UNL     1      28.482  24.113  20.904  1.00  0.00     0.198 C 
BRANCH  10  11
HETATM   11  O3  UNL     1      29.496  24.739  20.341  1.00  0.00    -0.338 OA
ATOM     12  H3  UNL     1      29.699  24.393  19.480  1.00  0.00     0.220 HD
ENDBRANCH  10  11
BRANCH  10  13
HETATM   13  N4  UNL     1      28.169  22.814  20.621  1.00  0.00    -0.398 NA
BRANCH  13  14
HETATM   14  C11 UNL     1      27.854  21.518  20.340  1.00  0.00     0.192 C 
BRANCH  14  15
HETATM   15  C12 UNL     1      28.788  20.809  19.361  1.00  0.00     0.200 C 
HETATM   16  C13 UNL     1      29.240  19.462  19.876  1.00  0.00     0.209 C 
HETATM   17  O4  UNL     1      30.539  19.425  19.325  1.00  0.00    -0.364 OA
HETATM   18  C14 UNL     1      30.990  20.719  19.663  1.00  0.00     0.338 C 
HETATM   19  O5  UNL     1      29.950  21.561  19.238  1.00  0.00    -0.353 OA
ENDBRANCH  14  15
ENDBRANCH  13  14
ENDBRANCH  10  13
ENDBRANCH   9  10
ENDBRANCH   8   9
ENDBRANCH   6   8
BRANCH   7  20
HETATM   20  C15 UNL     1      27.019  27.076  24.717  1.00  0.00     0.094 C 
HETATM   21  C16 UNL     1      26.621  28.211  23.821  1.00  0.00     0.026 C 
HETATM   22  C17 UNL     1      27.702  29.232  24.138  1.00  0.00     0.002 C 
HETATM   23  C18 UNL     1      27.781  29.109  25.654  1.00  0.00     0.002 C 
HETATM   24  C19 UNL     1      27.673  27.644  25.954  1.00  0.00     0.026 C 
ENDBRANCH   7  20
BRANCH   1  25
HETATM   25  C6  UNL     1      24.470  27.447  26.376  1.00  0.00     0.238 C 
BRANCH  25  26
HETATM   26  N1  UNL     1      23.233  27.447  26.988  1.00  0.00    -0.355 NA
HETATM   27  C5  UNL     1      22.032  27.521  27.638  1.00  0.00     0.440 C 
HETATM   28  O2  UNL     1      21.645  28.409  28.488  1.00  0.00    -0.221 OA
BRANCH  27  29
HETATM   29  O1  UNL     1      20.999  26.547  27.427  1.00  0.00    -0.282 OA
BRANCH  29  30
HETATM   30  C2  UNL     1      20.836  25.543  28.398  1.00  0.00     0.062 C 
HETATM   31  C1  UNL     1      20.561  24.229  27.653  1.00  0.00     0.046 C 
HETATM   32  C3  UNL     1      19.608  25.768  29.255  1.00  0.00     0.046 C 
HETATM   33  C4  UNL     1      22.048  25.403  29.306  1.00  0.00     0.046 C 
ENDBRANCH  29  30
ENDBRANCH  27  29
ENDBRANCH  25  26
ENDBRANCH   1  25
TORSDOF 12
ENDMDL
MODEL 3
REMARK VINA RESULT: -8.157998315      1.777      2.403
REMARK  12 active torsions:
REMARK  status: ('A' for Active; 'I' for Inactive)
REMARK    1  A    between atoms: C2_2  and  O1_5 
REMARK    2  A    between atoms: O1_5  and  C5_6 
REMARK       I    between atoms: C5_6  and  N1_8 
REMARK    3  A    between atoms: N1_8  and  C6_9 
REMARK    4  A    between atoms: C6_9  and  C7_10 
REMARK    5  A    between atoms: C8_15  and  S1_16 
REMARK    6  A    between atoms: S1_16  and  C9_17 
REMARK    7  A    between atoms: C9_17  and  C10_18 
REMARK    8  A    between atoms: C10_18  and  O3_19 
REMARK    9  A    between atoms: C10_18  and  N4_21 
REMARK   10  A    between atoms: N4_21  and  C11_22 
REMARK   11  A    between atoms: C11_22  and  C12_23 
REMARK   12  A    between atoms: N5_28  and  C15_29 
ROOT
HETATM    1  C7  UNL     1      24.420  27.242  26.676  1.00  0.00     0.154 A 
HETATM    2  N2  UNL     1      23.721  26.178  26.302  1.00  0.00    -0.281 N 
ATOM      3  H2  UNL     1      22.810  25.907  26.672  1.00  0.00     0.188 HD
HETATM    4  N3  UNL     1      24.396  25.529  25.374  1.00  0.00    -0.278 N 
ATOM      5  H3  UNL     1      24.079  24.674  24.916  1.00  0.00     0.189 HD
HETATM    6  C8  UNL     1      25.539  26.137  25.122  1.00  0.00     0.163 A 
HETATM    7  N5  UNL     1      25.556  27.235  25.948  1.00  0.00    -0.305 N 
ENDROOT
BRANCH   6   8
HETATM    8  S1  UNL     1      26.796  25.698  23.981  1.00  0.00    -0.083 SA
BRANCH   8   9
HETATM    9  C9  UNL     1      27.502  24.076  24.129  1.00  0.00     0.182 C 
BRANCH   9  10
HETATM   10  C10 UNL     1      26.546  22.995  23.655  1.00  0.00     0.198 C 
BRANCH  10  11
HETATM   11  O3  UNL     1      25.603  22.741  24.540  1.00  0.00    -0.338 OA
ATOM     12  H3  UNL     1      25.386  21.816  24.579  1.00  0.00     0.220 HD
ENDBRANCH  10  11
BRANCH  10  13
HETATM   13  N4  UNL     1      26.632  22.340  22.460  1.00  0.00    -0.398 NA
BRANCH  13  14
HETATM   14  C11 UNL     1      26.717  21.688  21.266  1.00  0.00     0.192 C 
BRANCH  14  15
HETATM   15  C12 UNL     1      27.662  22.310  20.240  1.00  0.00     0.200 C 
HETATM   16  C13 UNL     1      29.114  22.046  20.568  1.00  0.00     0.209 C 
HETATM   17  O4  UNL     1      29.684  23.244  20.086  1.00  0.00    -0.364 OA
HETATM   18  C14 UNL     1      28.790  24.186  20.638  1.00  0.00     0.338 C 
HETATM   19  O5  UNL     1      27.522  23.691  20.293  1.00  0.00    -0.353 OA
ENDBRANCH  14  15
ENDBRANCH  13  14
ENDBRANCH  10  13
ENDBRANCH   9  10
ENDBRANCH   8   9
ENDBRANCH   6   8
BRANCH   7  20
HETATM   20  C15 UNL     1      26.592  28.209  25.976  1.00  0.00     0.094 C 
HETATM   21  C16 UNL     1      26.520  29.262  24.911  1.00  0.00     0.026 C 
HETATM   22  C17 UNL     1      27.481  30.304  25.459  1.00  0.00     0.002 C 
HETATM   23  C18 UNL     1      27.091  30.313  26.931  1.00  0.00     0.002 C 
HETATM   24  C19 UNL     1      26.853  28.880  27.303  1.00  0.00     0.026 C 
ENDBRANCH   7  20
BRANCH   1  25
HETATM   25  C6  UNL     1      24.074  28.273  27.721  1.00  0.00     0.238 C 
BRANCH  25  26
HETATM   26  N1  UNL     1      23.037  27.988  28.586  1.00  0.00    -0.355 NA
HETATM   27  C5  UNL     1      22.062  27.735  29.511  1.00  0.00     0.440 C 
HETATM   28  O2  UNL     1      22.104  27.938  30.783  1.00  0.00    -0.221 OA
BRANCH  27  29
HETATM   29  O1  UNL     1      20.793  27.178  29.136  1.00  0.00    -0.282 OA
BRANCH  29  30
HETATM   30  C2  UNL     1      20.695  25.778  29.040  1.00  0.00     0.062 C 
HETATM   31  C1  UNL     1      19.753  25.310  30.158  1.00  0.00     0.046 C 
HETATM   32  C3  UNL     1      22.012  25.090  29.328  1.00  0.00     0.046 C 
HETATM   33  C4  UNL     1      20.188  25.317  27.682  1.00  0.00     0.046 C 
ENDBRANCH  29  30
ENDBRANCH  27  29
ENDBRANCH  25  26
ENDBRANCH   1  25
TORSDOF 12
ENDMDL
MODEL 4
REMARK VINA RESULT: -8.143558225      1.830      2.403
REMARK  12 active torsions:
REMARK  status: ('A' for Active; 'I' for Inactive)
REMARK    1  A    between atoms: C2_2  and  O1_5 
REMARK    2  A    between atoms: O1_5  and  C5_6 
REMARK       I    between atoms: C5_6  and  N1_8 
REMARK    3  A    between atoms: N1_8  and  C6_9 
REMARK    4  A    between atoms: C6_9  and  C7_10 
REMARK    5  A    between atoms: C8_15  and  S1_16 
REMARK    6  A    between atoms: S1_16  and  C9_17 
REMARK    7  A    between atoms: C9_17  and  C10_18 
REMARK    8  A    between atoms: C10_18  and  O3_19 
REMARK    9  A    between atoms: C10_18  and  N4_21 
REMARK   10  A    between atoms: N4_21  and  C11_22 
REMARK   11  A    between atoms: C11_22  and  C12_23 
REMARK   12  A    between atoms: N5_28  and  C15_29 
ROOT
HETATM    1  C7  UNL     1      24.510  27.084  26.468  1.00  0.00     0.154 A 
HETATM    2  N2  UNL     1      23.817  25.974  26.255  1.00  0.00    -0.281 N 
ATOM      3  H2  UNL     1      22.967  25.701  26.749  1.00  0.00     0.188 HD
HETATM    4  N3  UNL     1      24.406  25.280  25.300  1.00  0.00    -0.278 N 
ATOM      5  H3  UNL     1      24.072  24.384  24.943  1.00  0.00     0.189 HD
HETATM    6  C8  UNL     1      25.485  25.905  24.872  1.00  0.00     0.163 A 
HETATM    7  N5  UNL     1      25.553  27.061  25.613  1.00  0.00    -0.305 N 
ENDROOT
BRANCH   6   8
HETATM    8  S1  UNL     1      26.617  25.424  23.623  1.00  0.00    -0.083 SA
BRANCH   8   9
HETATM    9  C9  UNL     1      27.565  23.950  23.904  1.00  0.00     0.182 C 
BRANCH   9  10
HETATM   10  C10 UNL     1      26.774  22.695  23.575  1.00  0.00     0.198 C 
BRANCH  10  11
HETATM   11  O3  UNL     1      25.831  22.454  24.463  1.00  0.00    -0.338 OA
ATOM     12  H3  UNL     1      25.978  21.642  24.934  1.00  0.00     0.220 HD
ENDBRANCH  10  11
BRANCH  10  13
HETATM   13  N4  UNL     1      26.995  21.888  22.497  1.00  0.00    -0.398 NA
BRANCH  13  14
HETATM   14  C11 UNL     1      27.216  21.083  21.418  1.00  0.00     0.192 C 
BRANCH  14  15
HETATM   15  C12 UNL     1      28.015  21.712  20.279  1.00  0.00     0.200 C 
HETATM   16  C13 UNL     1      29.507  21.576  20.484  1.00  0.00     0.209 C 
HETATM   17  O4  UNL     1      29.935  22.782  19.890  1.00  0.00    -0.364 OA
HETATM   18  C14 UNL     1      29.021  23.686  20.473  1.00  0.00     0.338 C 
HETATM   19  O5  UNL     1      27.771  23.080  20.273  1.00  0.00    -0.353 OA
ENDBRANCH  14  15
ENDBRANCH  13  14
ENDBRANCH  10  13
ENDBRANCH   9  10
ENDBRANCH   8   9
ENDBRANCH   6   8
BRANCH   7  20
HETATM   20  C15 UNL     1      26.545  28.067  25.449  1.00  0.00     0.094 C 
HETATM   21  C16 UNL     1      27.966  27.589  25.490  1.00  0.00     0.026 C 
HETATM   22  C17 UNL     1      28.698  28.787  24.906  1.00  0.00     0.002 C 
HETATM   23  C18 UNL     1      27.777  29.153  23.749  1.00  0.00     0.002 C 
HETATM   24  C19 UNL     1      26.380  28.993  24.268  1.00  0.00     0.026 C 
ENDBRANCH   7  20
BRANCH   1  25
HETATM   25  C6  UNL     1      24.247  28.177  27.473  1.00  0.00     0.238 C 
BRANCH  25  26
HETATM   26  N1  UNL     1      23.219  27.987  28.374  1.00  0.00    -0.355 NA
HETATM   27  C5  UNL     1      22.255  27.829  29.332  1.00  0.00     0.440 C 
HETATM   28  O2  UNL     1      22.338  28.094  30.591  1.00  0.00    -0.221 OA
BRANCH  27  29
HETATM   29  O1  UNL     1      20.953  27.317  29.014  1.00  0.00    -0.282 OA
BRANCH  29  30
HETATM   30  C2  UNL     1      20.763  25.925  29.077  1.00  0.00     0.062 C 
HETATM   31  C1  UNL     1      20.136  25.490  27.745  1.00  0.00     0.046 C 
HETATM   32  C3  UNL     1      19.751  25.531  30.131  1.00  0.00     0.046 C 
HETATM   33  C4  UNL     1      22.057  25.167  29.334  1.00  0.00     0.046 C 
ENDBRANCH  29  30
ENDBRANCH  27  29
ENDBRANCH  25  26
ENDBRANCH   1  25
TORSDOF 12
ENDMDL
MODEL 5
REMARK VINA RESULT: -8.099897427      1.262      1.563
REMARK  12 active torsions:
REMARK  status: ('A' for Active; 'I' for Inactive)
REMARK    1  A    between atoms: C2_2  and  O1_5 
REMARK    2  A    between atoms: O1_5  and  C5_6 
REMARK       I    between atoms: C5_6  and  N1_8 
REMARK    3  A    between atoms: N1_8  and  C6_9 
REMARK    4  A    between atoms: C6_9  and  C7_10 
REMARK    5  A    between atoms: C8_15  and  S1_16 
REMARK    6  A    between atoms: S1_16  and  C9_17 
REMARK    7  A    between atoms: C9_17  and  C10_18 
REMARK    8  A    between atoms: C10_18  and  O3_19 
REMARK    9  A    between atoms: C10_18  and  N4_21 
REMARK   10  A    between atoms: N4_21  and  C11_22 
REMARK   11  A    between atoms: C11_22  and  C12_23 
REMARK   12  A    between atoms: N5_28  and  C15_29 
ROOT
HETATM    1  C7  UNL     1      24.050  26.610  26.192  1.00  0.00     0.154 A 
HETATM    2  N2  UNL     1      23.894  25.339  25.843  1.00  0.00    -0.281 N 
ATOM      3  H2  UNL     1      23.099  24.749  26.091  1.00  0.00     0.188 HD
HETATM    4  N3  UNL     1      24.934  24.963  25.124  1.00  0.00    -0.278 N 
ATOM      5  H3  UNL     1      25.060  24.031  24.729  1.00  0.00     0.189 HD
HETATM    6  C8  UNL     1      25.787  25.959  24.987  1.00  0.00     0.163 A 
HETATM    7  N5  UNL     1      25.224  27.015  25.665  1.00  0.00    -0.305 N 
ENDROOT
BRANCH   6   8
HETATM    8  S1  UNL     1      27.315  25.994  24.129  1.00  0.00    -0.083 SA
BRANCH   8   9
HETATM    9  C9  UNL     1      27.398  25.141  22.575  1.00  0.00     0.182 C 
BRANCH   9  10
HETATM   10  C10 UNL     1      27.521  23.638  22.758  1.00  0.00     0.198 C 
BRANCH  10  11
HETATM   11  O3  UNL     1      27.719  23.304  24.017  1.00  0.00    -0.338 OA
ATOM     12  H3  UNL     1      27.301  22.481  24.241  1.00  0.00     0.220 HD
ENDBRANCH  10  11
BRANCH  10  13
HETATM   13  N4  UNL     1      27.445  22.716  21.753  1.00  0.00    -0.398 NA
BRANCH  13  14
HETATM   14  C11 UNL     1      27.371  21.796  20.751  1.00  0.00     0.192 C 
BRANCH  14  15
HETATM   15  C12 UNL     1      28.646  20.996  20.495  1.00  0.00     0.200 C 
HETATM   16  C13 UNL     1      29.831  21.888  20.199  1.00  0.00     0.209 C 
HETATM   17  O4  UNL     1      30.524  21.062  19.288  1.00  0.00    -0.364 OA
HETATM   18  C14 UNL     1      29.459  20.667  18.450  1.00  0.00     0.338 C 
HETATM   19  O5  UNL     1      28.466  20.237  19.344  1.00  0.00    -0.353 OA
ENDBRANCH  14  15
ENDBRANCH  13  14
ENDBRANCH  10  13
ENDBRANCH   9  10
ENDBRANCH   8   9
ENDBRANCH   6   8
BRANCH   7  20
HETATM   20  C15 UNL     1      25.788  28.318  25.740  1.00  0.00     0.094 C 
HETATM   21  C16 UNL     1      26.906  28.484  26.725  1.00  0.00     0.026 C 
HETATM   22  C17 UNL     1      27.506  29.805  26.272  1.00  0.00     0.002 C 
HETATM   23  C18 UNL     1      27.497  29.625  24.760  1.00  0.00     0.002 C 
HETATM   24  C19 UNL     1      26.196  28.954  24.433  1.00  0.00     0.026 C 
ENDBRANCH   7  20
BRANCH   1  25
HETATM   25  C6  UNL     1      23.142  27.471  27.032  1.00  0.00     0.238 C 
BRANCH  25  26
HETATM   26  N1  UNL     1      21.995  26.893  27.537  1.00  0.00    -0.355 NA
HETATM   27  C5  UNL     1      20.850  26.276  27.961  1.00  0.00     0.440 C 
HETATM   28  O2  UNL     1      20.130  25.417  27.323  1.00  0.00    -0.221 OA
BRANCH  27  29
HETATM   29  O1  UNL     1      20.287  26.537  29.255  1.00  0.00    -0.282 OA
BRANCH  29  30
HETATM   30  C2  UNL     1      21.051  26.191  30.384  1.00  0.00     0.062 C 
HETATM   31  C1  UNL     1      20.073  25.977  31.548  1.00  0.00     0.046 C 
HETATM   32  C3  UNL     1      21.951  27.321  30.835  1.00  0.00     0.046 C 
HETATM   33  C4  UNL     1      21.900  24.949  30.160  1.00  0.00     0.046 C 
ENDBRANCH  29  30
ENDBRANCH  27  29
ENDBRANCH  25  26
ENDBRANCH   1  25
TORSDOF 12
ENDMDL
