MODEL 1
REMARK VINA RESULT: -6.984671878      0.000      0.000
REMARK  6 active torsions:
REMARK  status: ('A' for Active; 'I' for Inactive)
REMARK    1  A    between atoms: C2_2  and  O1_3 
REMARK    2  A    between atoms: C2_2  and  C3_5 
REMARK    3  A    between atoms: C2_2  and  C4_8 
REMARK    4  A    between atoms: C3_5  and  O2_6 
REMARK    5  A    between atoms: C4_8  and  C5_9 
REMARK    6  A    between atoms: C5_9  and  C6_10 
ROOT
HETATM    1  C6  UNL     1      10.059   6.080  21.912  1.00  0.00     0.001 C 
HETATM    2  C7  UNL     1      10.863   6.887  22.946  1.00  0.00    -0.043 C 
HETATM    3  C8  UNL     1      12.372   6.663  22.689  1.00  0.00     0.015 C 
HETATM    4  C9  UNL     1      10.668   8.362  22.732  1.00  0.00     0.015 C 
HETATM    5  C10 UNL     1      10.655   6.530  24.351  1.00  0.00     0.009 C 
HETATM    6  C11 UNL     1       9.430   5.860  24.804  1.00  0.00     0.001 C 
HETATM    7  C12 UNL     1       8.871   4.957  23.775  1.00  0.00     0.009 C 
HETATM    8  C13 UNL     1       8.732   5.725  22.465  1.00  0.00    -0.043 C 
HETATM    9  C14 UNL     1       7.967   7.047  22.750  1.00  0.00     0.015 C 
HETATM   10  C15 UNL     1       7.768   4.980  21.626  1.00  0.00     0.015 C 
ENDROOT
BRANCH   1  11
HETATM   11  C5  UNL     1      10.930   4.977  21.378  1.00  0.00     0.009 C 
BRANCH  11  12
HETATM   12  C4  UNL     1      10.738   4.564  19.962  1.00  0.00     0.040 C 
BRANCH  12  13
HETATM   13  C2  UNL     1      11.977   3.962  19.320  1.00  0.00     0.075 C 
HETATM   14  C1  UNL     1      11.753   2.424  19.471  1.00  0.00     0.048 C 
BRANCH  13  15
HETATM   15  O1  UNL     1      12.095   4.176  17.976  1.00  0.00    -0.388 OA
ATOM     16  H1  UNL     1      12.931   4.612  17.866  1.00  0.00     0.210 HD
ENDBRANCH  13  15
BRANCH  13  17
HETATM   17  C3  UNL     1      13.210   4.232  20.131  1.00  0.00     0.201 C 
BRANCH  17  18
HETATM   18  O2  UNL     1      13.870   5.388  19.805  1.00  0.00    -0.398 OA
ATOM     19  H2  UNL     1      13.566   6.163  20.263  1.00  0.00     0.209 HD
ENDBRANCH  17  18
ENDBRANCH  13  17
ENDBRANCH  12  13
ENDBRANCH  11  12
ENDBRANCH   1  11
TORSDOF 6
ENDMDL
MODEL 2
REMARK VINA RESULT: -6.975189983      0.927      1.000
REMARK  6 active torsions:
REMARK  status: ('A' for Active; 'I' for Inactive)
REMARK    1  A    between atoms: C2_2  and  O1_3 
REMARK    2  A    between atoms: C2_2  and  C3_5 
REMARK    3  A    between atoms: C2_2  and  C4_8 
REMARK    4  A    between atoms: C3_5  and  O2_6 
REMARK    5  A    between atoms: C4_8  and  C5_9 
REMARK    6  A    between atoms: C5_9  and  C6_10 
ROOT
HETATM    1  C6  UNL     1      10.171   5.803  21.767  1.00  0.00     0.001 C 
HETATM    2  C7  UNL     1      11.281   6.307  22.706  1.00  0.00    -0.043 C 
HETATM    3  C8  UNL     1      12.602   5.590  22.344  1.00  0.00     0.015 C 
HETATM    4  C9  UNL     1      11.568   7.761  22.450  1.00  0.00     0.015 C 
HETATM    5  C10 UNL     1      11.085   6.055  24.135  1.00  0.00     0.009 C 
HETATM    6  C11 UNL     1       9.750   5.837  24.704  1.00  0.00     0.001 C 
HETATM    7  C12 UNL     1       8.839   5.160  23.756  1.00  0.00     0.009 C 
HETATM    8  C13 UNL     1       8.853   5.916  22.431  1.00  0.00    -0.043 C 
HETATM    9  C14 UNL     1       8.596   7.421  22.722  1.00  0.00     0.015 C 
HETATM   10  C15 UNL     1       7.630   5.526  21.696  1.00  0.00     0.015 C 
ENDROOT
BRANCH   1  11
HETATM   11  C5  UNL     1      10.580   4.467  21.212  1.00  0.00     0.009 C 
BRANCH  11  12
HETATM   12  C4  UNL     1      10.094   4.101  19.854  1.00  0.00     0.040 C 
BRANCH  12  13
HETATM   13  C2  UNL     1      11.184   3.605  18.918  1.00  0.00     0.075 C 
HETATM   14  C1  UNL     1      12.150   2.827  19.867  1.00  0.00     0.048 C 
BRANCH  13  15
HETATM   15  O1  UNL     1      10.779   2.689  17.990  1.00  0.00    -0.388 OA
ATOM     16  H1  UNL     1      10.054   2.229  18.395  1.00  0.00     0.210 HD
ENDBRANCH  13  15
BRANCH  13  17
HETATM   17  C3  UNL     1      12.020   4.735  18.394  1.00  0.00     0.201 C 
BRANCH  17  18
HETATM   18  O2  UNL     1      13.169   4.977  19.100  1.00  0.00    -0.398 OA
ATOM     19  H2  UNL     1      13.725   4.217  19.227  1.00  0.00     0.209 HD
ENDBRANCH  17  18
ENDBRANCH  13  17
ENDBRANCH  12  13
ENDBRANCH  11  12
ENDBRANCH   1  11
TORSDOF 6
ENDMDL
MODEL 3
REMARK VINA RESULT: -6.852280448      0.884      1.366
REMARK  6 active torsions:
REMARK  status: ('A' for Active; 'I' for Inactive)
REMARK    1  A    between atoms: C2_2  and  O1_3 
REMARK    2  A    between atoms: C2_2  and  C3_5 
REMARK    3  A    between atoms: C2_2  and  C4_8 
REMARK    4  A    between atoms: C3_5  and  O2_6 
REMARK    5  A    between atoms: C4_8  and  C5_9 
REMARK    6  A    between atoms: C5_9  and  C6_10 
ROOT
HETATM    1  C6  UNL     1      10.224   5.900  21.922  1.00  0.00     0.001 C 
HETATM    2  C7  UNL     1      10.968   6.802  22.921  1.00  0.00    -0.043 C 
HETATM    3  C8  UNL     1      12.489   6.577  22.757  1.00  0.00     0.015 C 
HETATM    4  C9  UNL     1      10.770   8.251  22.573  1.00  0.00     0.015 C 
HETATM    5  C10 UNL     1      10.694   6.562  24.339  1.00  0.00     0.009 C 
HETATM    6  C11 UNL     1       9.455   5.917  24.788  1.00  0.00     0.001 C 
HETATM    7  C12 UNL     1       8.956   4.922  23.814  1.00  0.00     0.009 C 
HETATM    8  C13 UNL     1       8.874   5.574  22.438  1.00  0.00    -0.043 C 
HETATM    9  C14 UNL     1       8.084   6.906  22.572  1.00  0.00     0.015 C 
HETATM   10  C15 UNL     1       7.960   4.748  21.620  1.00  0.00     0.015 C 
ENDROOT
BRANCH   1  11
HETATM   11  C5  UNL     1      11.130   4.767  21.527  1.00  0.00     0.009 C 
BRANCH  11  12
HETATM   12  C4  UNL     1      10.632   3.800  20.512  1.00  0.00     0.040 C 
BRANCH  12  13
HETATM   13  C2  UNL     1      11.667   3.406  19.471  1.00  0.00     0.075 C 
HETATM   14  C1  UNL     1      12.848   4.390  19.744  1.00  0.00     0.048 C 
BRANCH  13  15
HETATM   15  O1  UNL     1      12.199   2.157  19.627  1.00  0.00    -0.388 OA
ATOM     16  H1  UNL     1      11.539   1.663  20.099  1.00  0.00     0.210 HD
ENDBRANCH  13  15
BRANCH  13  17
HETATM   17  C3  UNL     1      11.217   3.752  18.082  1.00  0.00     0.201 C 
BRANCH  17  18
HETATM   18  O2  UNL     1      11.909   4.777  17.493  1.00  0.00    -0.398 OA
ATOM     19  H2  UNL     1      11.642   4.978  16.604  1.00  0.00     0.209 HD
ENDBRANCH  17  18
ENDBRANCH  13  17
ENDBRANCH  12  13
ENDBRANCH  11  12
ENDBRANCH   1  11
TORSDOF 6
ENDMDL
MODEL 4
REMARK VINA RESULT: -6.526353894      1.090      3.047
REMARK  6 active torsions:
REMARK  status: ('A' for Active; 'I' for Inactive)
REMARK    1  A    between atoms: C2_2  and  O1_3 
REMARK    2  A    between atoms: C2_2  and  C3_5 
REMARK    3  A    between atoms: C2_2  and  C4_8 
REMARK    4  A    between atoms: C3_5  and  O2_6 
REMARK    5  A    between atoms: C4_8  and  C5_9 
REMARK    6  A    between atoms: C5_9  and  C6_10 
ROOT
HETATM    1  C6  UNL     1      10.491   5.473  22.450  1.00  0.00     0.001 C 
HETATM    2  C7  UNL     1       9.083   5.971  22.819  1.00  0.00    -0.043 C 
HETATM    3  C8  UNL     1       8.072   5.411  21.791  1.00  0.00     0.015 C 
HETATM    4  C9  UNL     1       8.641   5.381  24.130  1.00  0.00     0.015 C 
HETATM    5  C10 UNL     1       8.883   7.421  22.804  1.00  0.00     0.009 C 
HETATM    6  C11 UNL     1      10.005   8.356  22.957  1.00  0.00     0.001 C 
HETATM    7  C12 UNL     1      11.258   7.828  22.377  1.00  0.00     0.009 C 
HETATM    8  C13 UNL     1      11.512   6.431  22.933  1.00  0.00    -0.043 C 
HETATM    9  C14 UNL     1      11.409   6.493  24.482  1.00  0.00     0.015 C 
HETATM   10  C15 UNL     1      12.946   6.135  22.725  1.00  0.00     0.015 C 
ENDROOT
BRANCH   1  11
HETATM   11  C5  UNL     1      10.501   5.089  20.997  1.00  0.00     0.009 C 
BRANCH  11  12
HETATM   12  C4  UNL     1      10.669   3.650  20.659  1.00  0.00     0.040 C 
BRANCH  12  13
HETATM   13  C2  UNL     1      11.639   3.391  19.518  1.00  0.00     0.075 C 
HETATM   14  C1  UNL     1      12.798   4.399  19.791  1.00  0.00     0.048 C 
BRANCH  13  15
HETATM   15  O1  UNL     1      12.227   2.158  19.527  1.00  0.00    -0.388 OA
ATOM     16  H1  UNL     1      12.110   1.833  20.411  1.00  0.00     0.210 HD
ENDBRANCH  13  15
BRANCH  13  17
HETATM   17  C3  UNL     1      11.075   3.831  18.199  1.00  0.00     0.201 C 
BRANCH  17  18
HETATM   18  O2  UNL     1      11.866   4.702  17.498  1.00  0.00    -0.398 OA
ATOM     19  H2  UNL     1      11.411   5.459  17.146  1.00  0.00     0.209 HD
ENDBRANCH  17  18
ENDBRANCH  13  17
ENDBRANCH  12  13
ENDBRANCH  11  12
ENDBRANCH   1  11
TORSDOF 6
ENDMDL
MODEL 5
REMARK VINA RESULT: -6.425821762      1.408      3.039
REMARK  6 active torsions:
REMARK  status: ('A' for Active; 'I' for Inactive)
REMARK    1  A    between atoms: C2_2  and  O1_3 
REMARK    2  A    between atoms: C2_2  and  C3_5 
REMARK    3  A    between atoms: C2_2  and  C4_8 
REMARK    4  A    between atoms: C3_5  and  O2_6 
REMARK    5  A    between atoms: C4_8  and  C5_9 
REMARK    6  A    between atoms: C5_9  and  C6_10 
ROOT
HETATM    1  C6  UNL     1      10.256   6.741  22.977  1.00  0.00     0.001 C 
HETATM    2  C7  UNL     1       9.070   5.862  23.412  1.00  0.00    -0.043 C 
HETATM    3  C8  UNL     1       9.285   4.431  22.865  1.00  0.00     0.015 C 
HETATM    4  C9  UNL     1       9.062   5.689  24.905  1.00  0.00     0.015 C 
HETATM    5  C10 UNL     1       7.750   6.267  22.924  1.00  0.00     0.009 C 
HETATM    6  C11 UNL     1       7.468   7.648  22.516  1.00  0.00     0.001 C 
HETATM    7  C12 UNL     1       8.652   8.312  21.929  1.00  0.00     0.009 C 
HETATM    8  C13 UNL     1       9.832   8.156  22.882  1.00  0.00    -0.043 C 
HETATM    9  C14 UNL     1       9.383   8.613  24.298  1.00  0.00     0.015 C 
HETATM   10  C15 UNL     1      10.823   9.192  22.518  1.00  0.00     0.015 C 
ENDROOT
BRANCH   1  11
HETATM   11  C5  UNL     1      10.911   6.109  21.780  1.00  0.00     0.009 C 
BRANCH  11  12
HETATM   12  C4  UNL     1      12.339   5.708  21.900  1.00  0.00     0.040 C 
BRANCH  12  13
HETATM   13  C2  UNL     1      12.790   4.703  20.854  1.00  0.00     0.075 C 
HETATM   14  C1  UNL     1      11.523   4.516  19.961  1.00  0.00     0.048 C 
BRANCH  13  15
HETATM   15  O1  UNL     1      13.763   5.148  20.005  1.00  0.00    -0.388 OA
ATOM     16  H1  UNL     1      14.197   5.852  20.472  1.00  0.00     0.210 HD
ENDBRANCH  13  15
BRANCH  13  17
HETATM   17  C3  UNL     1      13.020   3.346  21.451  1.00  0.00     0.201 C 
BRANCH  17  18
HETATM   18  O2  UNL     1      11.934   2.511  21.415  1.00  0.00    -0.398 OA
ATOM     19  H2  UNL     1      11.806   2.059  20.590  1.00  0.00     0.209 HD
ENDBRANCH  17  18
ENDBRANCH  13  17
ENDBRANCH  12  13
ENDBRANCH  11  12
ENDBRANCH   1  11
TORSDOF 6
ENDMDL
