MODEL 1
REMARK VINA RESULT: -6.617660098      0.000      0.000
REMARK  5 active torsions:
REMARK  status: ('A' for Active; 'I' for Inactive)
REMARK    1  A    between atoms: C2_2  and  C3_3 
REMARK    2  A    between atoms: C2_2  and  N1_8 
REMARK    3  A    between atoms: C3_3  and  C4_4 
REMARK    4  A    between atoms: N1_8  and  C8_10 
REMARK    5  A    between atoms: C9_15  and  C10_16 
ROOT
HETATM    1  C8  UNL     1       9.990   6.889  23.174  1.00  0.00     0.161 A 
HETATM    2  N2  UNL     1       9.191   7.887  23.556  1.00  0.00    -0.279 N 
ATOM      3  H2  UNL     1       9.121   8.738  22.998  1.00  0.00     0.189 HD
HETATM    4  N3  UNL     1       8.522   7.758  24.624  1.00  0.00    -0.296 N 
ATOM      5  H3  UNL     1       7.909   8.515  24.927  1.00  0.00     0.187 HD
HETATM    6  C9  UNL     1       8.607   6.662  25.350  1.00  0.00     0.073 A 
HETATM    7  S1  UNL     1       9.724   5.754  24.437  1.00  0.00    -0.038 SA
ENDROOT
BRANCH   1   8
HETATM    8  N1  UNL     1      10.755   6.835  22.109  1.00  0.00    -0.365 N 
ATOM      9  H1  UNL     1      10.543   7.404  21.290  1.00  0.00     0.162 HD
BRANCH   8  10
HETATM   10  C2  UNL     1      11.927   5.941  22.116  1.00  0.00     0.080 C 
HETATM   11  C1  UNL     1      13.124   6.786  22.422  1.00  0.00     0.032 C 
BRANCH  10  12
HETATM   12  C3  UNL     1      11.957   5.228  20.815  1.00  0.00     0.033 C 
BRANCH  12  13
HETATM   13  C4  UNL     1      11.701   3.771  20.810  1.00  0.00    -0.050 C 
HETATM   14  C5  UNL     1      12.971   3.121  21.411  1.00  0.00     0.014 C 
HETATM   15  C6  UNL     1      10.585   3.282  21.674  1.00  0.00     0.014 C 
HETATM   16  C7  UNL     1      11.514   3.196  19.421  1.00  0.00     0.014 C 
ENDBRANCH  12  13
ENDBRANCH  10  12
ENDBRANCH   8  10
ENDBRANCH   1   8
BRANCH   6  17
HETATM   17  C10 UNL     1       7.906   6.307  26.639  1.00  0.00     0.036 C 
HETATM   18  C11 UNL     1       8.686   5.244  27.363  1.00  0.00     0.016 C 
HETATM   19  C12 UNL     1       7.994   7.573  27.499  1.00  0.00     0.016 C 
ENDBRANCH   6  17
TORSDOF 5
ENDMDL
MODEL 2
REMARK VINA RESULT: -6.565495044      0.071      1.064
REMARK  5 active torsions:
REMARK  status: ('A' for Active; 'I' for Inactive)
REMARK    1  A    between atoms: C2_2  and  C3_3 
REMARK    2  A    between atoms: C2_2  and  N1_8 
REMARK    3  A    between atoms: C3_3  and  C4_4 
REMARK    4  A    between atoms: N1_8  and  C8_10 
REMARK    5  A    between atoms: C9_15  and  C10_16 
ROOT
HETATM    1  C8  UNL     1       9.976   6.936  23.193  1.00  0.00     0.161 A 
HETATM    2  N2  UNL     1       9.177   7.932  23.580  1.00  0.00    -0.279 N 
ATOM      3  H2  UNL     1       9.107   8.786  23.027  1.00  0.00     0.189 HD
HETATM    4  N3  UNL     1       8.507   7.797  24.647  1.00  0.00    -0.296 N 
ATOM      5  H3  UNL     1       7.894   8.552  24.954  1.00  0.00     0.187 HD
HETATM    6  C9  UNL     1       8.591   6.696  25.367  1.00  0.00     0.073 A 
HETATM    7  S1  UNL     1       9.710   5.793  24.450  1.00  0.00    -0.038 SA
ENDROOT
BRANCH   1   8
HETATM    8  N1  UNL     1      10.743   6.888  22.129  1.00  0.00    -0.365 N 
ATOM      9  H1  UNL     1      10.562   7.499  21.333  1.00  0.00     0.162 HD
BRANCH   8  10
HETATM   10  C2  UNL     1      11.870   5.938  22.102  1.00  0.00     0.080 C 
HETATM   11  C1  UNL     1      13.112   6.720  22.387  1.00  0.00     0.032 C 
BRANCH  10  12
HETATM   12  C3  UNL     1      11.835   5.236  20.795  1.00  0.00     0.033 C 
BRANCH  12  13
HETATM   13  C4  UNL     1      11.798   3.757  20.796  1.00  0.00    -0.050 C 
HETATM   14  C5  UNL     1      10.567   3.369  21.649  1.00  0.00     0.014 C 
HETATM   15  C6  UNL     1      11.567   3.091  19.479  1.00  0.00     0.014 C 
HETATM   16  C7  UNL     1      13.014   3.124  21.442  1.00  0.00     0.014 C 
ENDBRANCH  12  13
ENDBRANCH  10  12
ENDBRANCH   8  10
ENDBRANCH   1   8
BRANCH   6  17
HETATM   17  C10 UNL     1       7.889   6.334  26.653  1.00  0.00     0.036 C 
HETATM   18  C11 UNL     1       8.670   5.269  27.373  1.00  0.00     0.016 C 
HETATM   19  C12 UNL     1       7.973   7.597  27.519  1.00  0.00     0.016 C 
ENDBRANCH   6  17
TORSDOF 5
ENDMDL
MODEL 3
REMARK VINA RESULT: -6.428781016      1.245      1.508
REMARK  5 active torsions:
REMARK  status: ('A' for Active; 'I' for Inactive)
REMARK    1  A    between atoms: C2_2  and  C3_3 
REMARK    2  A    between atoms: C2_2  and  N1_8 
REMARK    3  A    between atoms: C3_3  and  C4_4 
REMARK    4  A    between atoms: N1_8  and  C8_10 
REMARK    5  A    between atoms: C9_15  and  C10_16 
ROOT
HETATM    1  C8  UNL     1      10.296   6.298  23.392  1.00  0.00     0.161 A 
HETATM    2  N2  UNL     1      10.523   5.330  24.281  1.00  0.00    -0.279 N 
ATOM      3  H2  UNL     1      11.264   4.646  24.126  1.00  0.00     0.189 HD
HETATM    4  N3  UNL     1       9.802   5.275  25.321  1.00  0.00    -0.296 N 
ATOM      5  H3  UNL     1       9.965   4.539  26.008  1.00  0.00     0.187 HD
HETATM    6  C9  UNL     1       8.843   6.155  25.530  1.00  0.00     0.073 A 
HETATM    7  S1  UNL     1       8.986   7.127  24.136  1.00  0.00    -0.038 SA
ENDROOT
BRANCH   1   8
HETATM    8  N1  UNL     1      10.930   6.518  22.264  1.00  0.00    -0.365 N 
ATOM      9  H1  UNL     1      10.648   7.286  21.654  1.00  0.00     0.162 HD
BRANCH   8  10
HETATM   10  C2  UNL     1      12.054   5.640  21.892  1.00  0.00     0.080 C 
HETATM   11  C1  UNL     1      13.310   6.434  22.070  1.00  0.00     0.032 C 
BRANCH  10  12
HETATM   12  C3  UNL     1      11.798   5.139  20.520  1.00  0.00     0.033 C 
BRANCH  12  13
HETATM   13  C4  UNL     1      11.151   3.816  20.368  1.00  0.00    -0.050 C 
HETATM   14  C5  UNL     1      11.578   3.300  18.972  1.00  0.00     0.014 C 
HETATM   15  C6  UNL     1      11.584   2.745  21.313  1.00  0.00     0.014 C 
HETATM   16  C7  UNL     1       9.637   3.880  20.382  1.00  0.00     0.014 C 
ENDBRANCH  12  13
ENDBRANCH  10  12
ENDBRANCH   8  10
ENDBRANCH   1   8
BRANCH   6  17
HETATM   17  C10 UNL     1       7.881   6.270  26.686  1.00  0.00     0.036 C 
HETATM   18  C11 UNL     1       8.312   5.353  27.797  1.00  0.00     0.016 C 
HETATM   19  C12 UNL     1       8.060   7.701  27.209  1.00  0.00     0.016 C 
ENDBRANCH   6  17
TORSDOF 5
ENDMDL
MODEL 4
REMARK VINA RESULT: -6.427184044      1.261      1.328
REMARK  5 active torsions:
REMARK  status: ('A' for Active; 'I' for Inactive)
REMARK    1  A    between atoms: C2_2  and  C3_3 
REMARK    2  A    between atoms: C2_2  and  N1_8 
REMARK    3  A    between atoms: C3_3  and  C4_4 
REMARK    4  A    between atoms: N1_8  and  C8_10 
REMARK    5  A    between atoms: C9_15  and  C10_16 
ROOT
HETATM    1  C8  UNL     1      10.089   6.183  23.185  1.00  0.00     0.161 A 
HETATM    2  N2  UNL     1       9.916   5.026  23.826  1.00  0.00    -0.279 N 
ATOM      3  H2  UNL     1      10.331   4.167  23.467  1.00  0.00     0.189 HD
HETATM    4  N3  UNL     1       9.226   5.015  24.889  1.00  0.00    -0.296 N 
ATOM      5  H3  UNL     1       9.085   4.137  25.387  1.00  0.00     0.187 HD
HETATM    6  C9  UNL     1       8.686   6.122  25.359  1.00  0.00     0.073 A 
HETATM    7  S1  UNL     1       9.204   7.256  24.197  1.00  0.00    -0.038 SA
ENDROOT
BRANCH   1   8
HETATM    8  N1  UNL     1      10.764   6.397  22.079  1.00  0.00    -0.365 N 
ATOM      9  H1  UNL     1      10.493   7.148  21.445  1.00  0.00     0.162 HD
BRANCH   8  10
HETATM   10  C2  UNL     1      11.919   5.535  21.769  1.00  0.00     0.080 C 
HETATM   11  C1  UNL     1      13.152   6.337  22.040  1.00  0.00     0.032 C 
BRANCH  10  12
HETATM   12  C3  UNL     1      11.757   5.052  20.375  1.00  0.00     0.033 C 
BRANCH  12  13
HETATM   13  C4  UNL     1      11.062   3.764  20.157  1.00  0.00    -0.050 C 
HETATM   14  C5  UNL     1      11.581   2.816  21.266  1.00  0.00     0.014 C 
HETATM   15  C6  UNL     1       9.579   3.765  20.328  1.00  0.00     0.014 C 
HETATM   16  C7  UNL     1      11.387   3.121  18.824  1.00  0.00     0.014 C 
ENDBRANCH  12  13
ENDBRANCH  10  12
ENDBRANCH   8  10
ENDBRANCH   1   8
BRANCH   6  17
HETATM   17  C10 UNL     1       7.840   6.328  26.592  1.00  0.00     0.036 C 
HETATM   18  C11 UNL     1       8.316   5.417  27.690  1.00  0.00     0.016 C 
HETATM   19  C12 UNL     1       8.149   7.759  27.050  1.00  0.00     0.016 C 
ENDBRANCH   6  17
TORSDOF 5
ENDMDL
MODEL 5
REMARK VINA RESULT: -6.387812310      1.868      5.892
REMARK  5 active torsions:
REMARK  status: ('A' for Active; 'I' for Inactive)
REMARK    1  A    between atoms: C2_2  and  C3_3 
REMARK    2  A    between atoms: C2_2  and  N1_8 
REMARK    3  A    between atoms: C3_3  and  C4_4 
REMARK    4  A    between atoms: N1_8  and  C8_10 
REMARK    5  A    between atoms: C9_15  and  C10_16 
ROOT
HETATM    1  C8  UNL     1      11.824   7.336  22.281  1.00  0.00     0.161 A 
HETATM    2  N2  UNL     1      13.131   7.107  22.135  1.00  0.00    -0.279 N 
ATOM      3  H2  UNL     1      13.816   7.798  22.441  1.00  0.00     0.189 HD
HETATM    4  N3  UNL     1      13.503   6.016  21.609  1.00  0.00    -0.296 N 
ATOM      5  H3  UNL     1      14.499   5.830  21.491  1.00  0.00     0.187 HD
HETATM    6  C9  UNL     1      12.624   5.118  21.212  1.00  0.00     0.073 A 
HETATM    7  S1  UNL     1      11.162   5.894  21.621  1.00  0.00    -0.038 SA
ENDROOT
BRANCH   1   8
HETATM    8  N1  UNL     1      11.247   8.395  22.798  1.00  0.00    -0.365 N 
ATOM      9  H1  UNL     1      11.807   9.185  23.119  1.00  0.00     0.162 HD
BRANCH   8  10
HETATM   10  C2  UNL     1       9.777   8.428  22.905  1.00  0.00     0.080 C 
HETATM   11  C1  UNL     1       9.319   9.710  22.285  1.00  0.00     0.032 C 
BRANCH  10  12
HETATM   12  C3  UNL     1       9.427   8.242  24.335  1.00  0.00     0.033 C 
BRANCH  12  13
HETATM   13  C4  UNL     1       8.855   6.942  24.751  1.00  0.00    -0.050 C 
HETATM   14  C5  UNL     1       8.125   6.387  23.505  1.00  0.00     0.014 C 
HETATM   15  C6  UNL     1       9.826   5.870  25.125  1.00  0.00     0.014 C 
HETATM   16  C7  UNL     1       7.829   7.061  25.860  1.00  0.00     0.014 C 
ENDBRANCH  12  13
ENDBRANCH  10  12
ENDBRANCH   8  10
ENDBRANCH   1   8
BRANCH   6  17
HETATM   17  C10 UNL     1      12.850   3.771  20.570  1.00  0.00     0.036 C 
HETATM   18  C11 UNL     1      12.035   2.728  21.283  1.00  0.00     0.016 C 
HETATM   19  C12 UNL     1      12.258   3.899  19.161  1.00  0.00     0.016 C 
ENDBRANCH   6  17
TORSDOF 5
ENDMDL
