MODEL 1
REMARK VINA RESULT: -6.519998143      0.000      0.000
REMARK  6 active torsions:
REMARK  status: ('A' for Active; 'I' for Inactive)
REMARK    1  A    between atoms: N1_1  and  C1_4 
REMARK    2  A    between atoms: C2_9  and  S1_10 
REMARK    3  A    between atoms: S1_10  and  C3_11 
REMARK    4  A    between atoms: C3_11  and  C4_12 
REMARK    5  A    between atoms: C4_12  and  N4_13 
REMARK    6  A    between atoms: N4_13  and  C5_16 
ROOT
HETATM    1  C3  UNL     1     -11.104 -14.658   5.899  1.00  0.00     0.109 C 
ENDROOT
BRANCH   1   2
HETATM    2  S1  UNL     1     -12.307 -15.921   6.424  1.00  0.00    -0.102 SA
BRANCH   2   3
HETATM    3  C2  UNL     1     -11.871 -16.363   8.117  1.00  0.00     0.130 A 
HETATM    4  N3  UNL     1     -12.556 -16.184   9.232  1.00  0.00    -0.286 N 
HETATM    5  N2  UNL     1     -12.087 -16.562  10.349  1.00  0.00    -0.279 N 
ATOM      6  H3  UNL     1     -13.472 -15.736   9.196  1.00  0.00     0.188 HD
HETATM    7  C1  UNL     1     -10.885 -17.146  10.377  1.00  0.00     0.159 A 
ATOM      8  H2  UNL     1     -12.617 -16.424  11.209  1.00  0.00     0.189 HD
HETATM    9  S2  UNL     1     -10.452 -17.131   8.723  1.00  0.00    -0.027 SA
BRANCH   7  10
HETATM   10  N1  UNL     1     -10.237 -17.599  11.416  1.00  0.00    -0.379 N 
ATOM     11  H12 UNL     1     -10.022 -17.151  12.307  1.00  0.00     0.158 HD
ATOM     12  H11 UNL     1      -9.809 -18.518  11.538  1.00  0.00     0.158 HD
ENDBRANCH   7  10
ENDBRANCH   2   3
ENDBRANCH   1   2
BRANCH   1  13
HETATM   13  C4  UNL     1     -10.223 -15.208   4.784  1.00  0.00     0.243 C 
BRANCH  13  14
HETATM   14  N4  UNL     1      -9.033 -14.392   4.649  1.00  0.00    -0.069 N 
ATOM     15  H42 UNL     1      -9.266 -13.399   4.656  1.00  0.00     0.277 HD
ATOM     16  H41 UNL     1      -8.463 -14.434   5.493  1.00  0.00     0.277 HD
BRANCH  14  17
HETATM   17  C5  UNL     1      -8.263 -14.732   3.489  1.00  0.00     0.204 C 
HETATM   18  C6  UNL     1      -7.149 -13.749   3.275  1.00  0.00     0.018 C 
HETATM   19  C7  UNL     1      -7.812 -12.513   2.748  1.00  0.00     0.012 C 
HETATM   20  C9  UNL     1      -6.820 -14.046   1.802  1.00  0.00     0.012 C 
HETATM   21  C8  UNL     1      -8.204 -13.424   1.583  1.00  0.00     0.003 C 
HETATM   22  C10 UNL     1      -9.093 -14.440   2.219  1.00  0.00     0.093 C 
HETATM   23 BR1  UNL     1      -9.125 -16.032   1.139  1.00  0.00    -0.089 Br
ENDBRANCH  14  17
ENDBRANCH  13  14
ENDBRANCH   1  13
TORSDOF 6
ENDMDL
MODEL 2
REMARK VINA RESULT: -6.504493388      3.040      7.170
REMARK  6 active torsions:
REMARK  status: ('A' for Active; 'I' for Inactive)
REMARK    1  A    between atoms: N1_1  and  C1_4 
REMARK    2  A    between atoms: C2_9  and  S1_10 
REMARK    3  A    between atoms: S1_10  and  C3_11 
REMARK    4  A    between atoms: C3_11  and  C4_12 
REMARK    5  A    between atoms: C4_12  and  N4_13 
REMARK    6  A    between atoms: N4_13  and  C5_16 
ROOT
HETATM    1  C3  UNL     1      -7.773 -16.313   6.748  1.00  0.00     0.109 C 
ENDROOT
BRANCH   1   2
HETATM    2  S1  UNL     1      -8.072 -14.555   6.374  1.00  0.00    -0.102 SA
BRANCH   2   3
HETATM    3  C2  UNL     1      -8.135 -14.424   4.577  1.00  0.00     0.130 A 
HETATM    4  N3  UNL     1      -8.527 -15.315   3.685  1.00  0.00    -0.286 N 
HETATM    5  N2  UNL     1      -8.503 -15.046   2.446  1.00  0.00    -0.279 N 
ATOM      6  H3  UNL     1      -8.853 -16.231   3.997  1.00  0.00     0.188 HD
HETATM    7  C1  UNL     1      -8.072 -13.843   2.057  1.00  0.00     0.159 A 
ATOM      8  H2  UNL     1      -8.807 -15.736   1.759  1.00  0.00     0.189 HD
HETATM    9  S2  UNL     1      -7.701 -13.105   3.554  1.00  0.00    -0.027 SA
BRANCH   7  10
HETATM   10  N1  UNL     1      -7.972 -13.380   0.840  1.00  0.00    -0.379 N 
ATOM     11  H12 UNL     1      -7.161 -13.309   0.225  1.00  0.00     0.158 HD
ATOM     12  H11 UNL     1      -8.712 -12.990   0.254  1.00  0.00     0.158 HD
ENDBRANCH   7  10
ENDBRANCH   2   3
ENDBRANCH   1   2
BRANCH   1  13
HETATM   13  C4  UNL     1      -9.083 -17.090   6.691  1.00  0.00     0.243 C 
BRANCH  13  14
HETATM   14  N4  UNL     1      -9.748 -17.028   7.976  1.00  0.00    -0.069 N 
ATOM     15  H42 UNL     1      -9.858 -17.960   8.377  1.00  0.00     0.277 HD
ATOM     16  H41 UNL     1      -9.141 -16.615   8.684  1.00  0.00     0.277 HD
BRANCH  14  17
HETATM   17  C5  UNL     1     -11.006 -16.344   7.911  1.00  0.00     0.204 C 
HETATM   18  C6  UNL     1     -12.071 -17.102   8.648  1.00  0.00     0.018 C 
HETATM   19  C7  UNL     1     -12.406 -18.266   7.767  1.00  0.00     0.012 C 
HETATM   20  C9  UNL     1     -13.323 -16.446   8.041  1.00  0.00     0.012 C 
HETATM   21  C8  UNL     1     -12.843 -17.178   6.782  1.00  0.00     0.003 C 
HETATM   22  C10 UNL     1     -11.575 -16.452   6.480  1.00  0.00     0.093 C 
HETATM   23 BR1  UNL     1     -11.984 -14.679   5.855  1.00  0.00    -0.089 Br
ENDBRANCH  14  17
ENDBRANCH  13  14
ENDBRANCH   1  13
TORSDOF 6
ENDMDL
MODEL 3
REMARK VINA RESULT: -6.404708953      1.403      1.811
REMARK  6 active torsions:
REMARK  status: ('A' for Active; 'I' for Inactive)
REMARK    1  A    between atoms: N1_1  and  C1_4 
REMARK    2  A    between atoms: C2_9  and  S1_10 
REMARK    3  A    between atoms: S1_10  and  C3_11 
REMARK    4  A    between atoms: C3_11  and  C4_12 
REMARK    5  A    between atoms: C4_12  and  N4_13 
REMARK    6  A    between atoms: N4_13  and  C5_16 
ROOT
HETATM    1  C3  UNL     1     -10.846 -14.851   5.818  1.00  0.00     0.109 C 
ENDROOT
BRANCH   1   2
HETATM    2  S1  UNL     1     -12.176 -15.963   6.380  1.00  0.00    -0.102 SA
BRANCH   2   3
HETATM    3  C2  UNL     1     -11.795 -16.382   8.093  1.00  0.00     0.130 A 
HETATM    4  N3  UNL     1     -12.523 -16.206   9.180  1.00  0.00    -0.286 N 
HETATM    5  N2  UNL     1     -12.089 -16.566  10.316  1.00  0.00    -0.279 N 
ATOM      6  H3  UNL     1     -13.445 -15.775   9.106  1.00  0.00     0.188 HD
HETATM    7  C1  UNL     1     -10.879 -17.127  10.394  1.00  0.00     0.159 A 
ATOM      8  H2  UNL     1     -12.653 -16.430  11.155  1.00  0.00     0.189 HD
HETATM    9  S2  UNL     1     -10.385 -17.118   8.757  1.00  0.00    -0.027 SA
BRANCH   7  10
HETATM   10  N1  UNL     1     -10.261 -17.559  11.461  1.00  0.00    -0.379 N 
ATOM     11  H12 UNL     1      -9.497 -18.228  11.555  1.00  0.00     0.158 HD
ATOM     12  H11 UNL     1     -10.432 -17.301  12.433  1.00  0.00     0.158 HD
ENDBRANCH   7  10
ENDBRANCH   2   3
ENDBRANCH   1   2
BRANCH   1  13
HETATM   13  C4  UNL     1      -9.617 -15.663   5.427  1.00  0.00     0.243 C 
BRANCH  13  14
HETATM   14  N4  UNL     1      -9.544 -15.781   3.985  1.00  0.00    -0.069 N 
ATOM     15  H42 UNL     1      -8.903 -16.526   3.710  1.00  0.00     0.277 HD
ATOM     16  H41 UNL     1     -10.411 -16.160   3.604  1.00  0.00     0.277 HD
BRANCH  14  17
HETATM   17  C5  UNL     1      -9.199 -14.543   3.349  1.00  0.00     0.204 C 
HETATM   18  C6  UNL     1      -9.251 -14.673   1.855  1.00  0.00     0.018 C 
HETATM   19  C7  UNL     1      -8.031 -15.461   1.486  1.00  0.00     0.012 C 
HETATM   20  C9  UNL     1      -8.419 -13.441   1.458  1.00  0.00     0.012 C 
HETATM   21  C8  UNL     1      -7.285 -14.264   2.082  1.00  0.00     0.003 C 
HETATM   22  C10 UNL     1      -7.686 -14.284   3.519  1.00  0.00     0.093 C 
HETATM   23 BR1  UNL     1      -7.455 -12.530   4.275  1.00  0.00    -0.089 Br
ENDBRANCH  14  17
ENDBRANCH  13  14
ENDBRANCH   1  13
TORSDOF 6
ENDMDL
MODEL 4
REMARK VINA RESULT: -6.378667224      1.324      2.122
REMARK  6 active torsions:
REMARK  status: ('A' for Active; 'I' for Inactive)
REMARK    1  A    between atoms: N1_1  and  C1_4 
REMARK    2  A    between atoms: C2_9  and  S1_10 
REMARK    3  A    between atoms: S1_10  and  C3_11 
REMARK    4  A    between atoms: C3_11  and  C4_12 
REMARK    5  A    between atoms: C4_12  and  N4_13 
REMARK    6  A    between atoms: N4_13  and  C5_16 
ROOT
HETATM    1  C3  UNL     1      -8.516 -16.567   6.001  1.00  0.00     0.109 C 
ENDROOT
BRANCH   1   2
HETATM    2  S1  UNL     1      -8.625 -17.071   7.749  1.00  0.00    -0.102 SA
BRANCH   2   3
HETATM    3  C2  UNL     1     -10.346 -16.836   8.236  1.00  0.00     0.130 A 
HETATM    4  N3  UNL     1     -10.908 -16.984   9.421  1.00  0.00    -0.286 N 
HETATM    5  N2  UNL     1     -12.149 -16.773   9.581  1.00  0.00    -0.279 N 
ATOM      6  H3  UNL     1     -10.339 -17.270  10.218  1.00  0.00     0.188 HD
HETATM    7  C1  UNL     1     -12.879 -16.399   8.526  1.00  0.00     0.159 A 
ATOM      8  H2  UNL     1     -12.581 -16.887  10.497  1.00  0.00     0.189 HD
HETATM    9  S2  UNL     1     -11.703 -16.360   7.285  1.00  0.00    -0.027 SA
BRANCH   7  10
HETATM   10  N1  UNL     1     -14.158 -16.138   8.486  1.00  0.00    -0.379 N 
ATOM     11  H12 UNL     1     -14.698 -15.411   8.956  1.00  0.00     0.158 HD
ATOM     12  H11 UNL     1     -14.882 -16.628   7.961  1.00  0.00     0.158 HD
ENDBRANCH   7  10
ENDBRANCH   2   3
ENDBRANCH   1   2
BRANCH   1  13
HETATM   13  C4  UNL     1      -8.421 -15.050   5.900  1.00  0.00     0.243 C 
BRANCH  13  14
HETATM   14  N4  UNL     1      -9.052 -14.598   4.676  1.00  0.00    -0.069 N 
ATOM     15  H42 UNL     1      -9.977 -15.013   4.565  1.00  0.00     0.277 HD
ATOM     16  H41 UNL     1      -9.320 -13.616   4.744  1.00  0.00     0.277 HD
BRANCH  14  17
HETATM   17  C5  UNL     1      -8.238 -14.832   3.520  1.00  0.00     0.204 C 
HETATM   18  C6  UNL     1      -7.153 -13.802   3.407  1.00  0.00     0.018 C 
HETATM   19  C7  UNL     1      -7.841 -12.554   2.946  1.00  0.00     0.012 C 
HETATM   20  C9  UNL     1      -6.772 -13.986   1.928  1.00  0.00     0.012 C 
HETATM   21  C8  UNL     1      -8.170 -13.395   1.710  1.00  0.00     0.003 C 
HETATM   22  C10 UNL     1      -9.041 -14.480   2.249  1.00  0.00     0.093 C 
HETATM   23 BR1  UNL     1      -8.989 -15.994   1.062  1.00  0.00    -0.089 Br
ENDBRANCH  14  17
ENDBRANCH  13  14
ENDBRANCH   1  13
TORSDOF 6
ENDMDL
MODEL 5
REMARK VINA RESULT: -6.366783869      2.549      3.817
REMARK  6 active torsions:
REMARK  status: ('A' for Active; 'I' for Inactive)
REMARK    1  A    between atoms: N1_1  and  C1_4 
REMARK    2  A    between atoms: C2_9  and  S1_10 
REMARK    3  A    between atoms: S1_10  and  C3_11 
REMARK    4  A    between atoms: C3_11  and  C4_12 
REMARK    5  A    between atoms: C4_12  and  N4_13 
REMARK    6  A    between atoms: N4_13  and  C5_16 
ROOT
HETATM    1  C3  UNL     1      -7.817 -16.822   8.430  1.00  0.00     0.109 C 
ENDROOT
BRANCH   1   2
HETATM    2  S1  UNL     1      -8.837 -17.892   9.495  1.00  0.00    -0.102 SA
BRANCH   2   3
HETATM    3  C2  UNL     1     -10.537 -17.318   9.309  1.00  0.00     0.130 A 
HETATM    4  N3  UNL     1     -11.298 -16.662  10.166  1.00  0.00    -0.286 N 
HETATM    5  N2  UNL     1     -12.485 -16.336   9.861  1.00  0.00    -0.279 N 
ATOM      6  H3  UNL     1     -10.927 -16.416  11.084  1.00  0.00     0.188 HD
HETATM    7  C1  UNL     1     -12.954 -16.668   8.655  1.00  0.00     0.159 A 
ATOM      8  H2  UNL     1     -13.071 -15.829  10.524  1.00  0.00     0.189 HD
HETATM    9  S2  UNL     1     -11.610 -17.474   7.969  1.00  0.00    -0.027 SA
BRANCH   7  10
HETATM   10  N1  UNL     1     -14.137 -16.425   8.158  1.00  0.00    -0.379 N 
ATOM     11  H12 UNL     1     -14.734 -15.603   8.247  1.00  0.00     0.158 HD
ATOM     12  H11 UNL     1     -14.706 -17.032   7.567  1.00  0.00     0.158 HD
ENDBRANCH   7  10
ENDBRANCH   2   3
ENDBRANCH   1   2
BRANCH   1  13
HETATM   13  C4  UNL     1      -7.506 -17.533   7.119  1.00  0.00     0.243 C 
BRANCH  13  14
HETATM   14  N4  UNL     1      -8.355 -17.017   6.065  1.00  0.00    -0.069 N 
ATOM     15  H42 UNL     1      -7.905 -17.107   5.154  1.00  0.00     0.277 HD
ATOM     16  H41 UNL     1      -9.160 -17.624   5.912  1.00  0.00     0.277 HD
BRANCH  14  17
HETATM   17  C5  UNL     1      -8.767 -15.665   6.305  1.00  0.00     0.204 C 
HETATM   18  C6  UNL     1     -10.081 -15.377   5.640  1.00  0.00     0.018 C 
HETATM   19  C7  UNL     1      -9.766 -15.258   4.180  1.00  0.00     0.012 C 
HETATM   20  C9  UNL     1     -10.042 -13.839   5.643  1.00  0.00     0.012 C 
HETATM   21  C8  UNL     1      -8.911 -14.072   4.635  1.00  0.00     0.003 C 
HETATM   22  C10 UNL     1      -7.869 -14.704   5.495  1.00  0.00     0.093 C 
HETATM   23 BR1  UNL     1      -7.148 -13.389   6.702  1.00  0.00    -0.089 Br
ENDBRANCH  14  17
ENDBRANCH  13  14
ENDBRANCH   1  13
TORSDOF 6
ENDMDL
