MODEL 1
REMARK VINA RESULT: -5.543207224      0.000      0.000
REMARK  5 active torsions:
REMARK  status: ('A' for Active; 'I' for Inactive)
REMARK    1  A    between atoms: C2_2  and  O1_3 
REMARK    2  A    between atoms: C2_2  and  C3_5 
REMARK    3  A    between atoms: C3_5  and  N1_6 
REMARK    4  A    between atoms: N1_6  and  C4_8 
REMARK    5  A    between atoms: C10_14  and  O2_15 
ROOT
HETATM    1  C4  UNL     1     -39.215  16.883  14.980  1.00  0.00     0.029 C 
HETATM    2  C5  UNL     1     -38.206  16.955  16.100  1.00  0.00     0.035 C 
HETATM    3  C6  UNL     1     -37.317  15.749  16.057  1.00  0.00    -0.009 C 
HETATM    4  C7  UNL     1     -38.160  14.505  16.274  1.00  0.00     0.009 C 
HETATM    5  C8  UNL     1     -39.143  14.364  15.146  1.00  0.00    -0.009 C 
HETATM    6  C9  UNL     1     -38.429  14.318  13.804  1.00  0.00     0.042 C 
HETATM    7  C10 UNL     1     -37.609  15.541  13.647  1.00  0.00     0.061 C 
HETATM    8  C11 UNL     1     -36.582  15.596  14.744  1.00  0.00     0.042 C 
HETATM    9  C12 UNL     1     -38.399  16.824  13.705  1.00  0.00     0.068 C 
HETATM   10  C13 UNL     1     -40.015  15.597  15.125  1.00  0.00     0.035 C 
ENDROOT
BRANCH   1  11
HETATM   11  N1  UNL     1     -40.191  17.918  14.960  1.00  0.00    -0.410 N 
ATOM     12  H1  UNL     1     -39.935  18.875  14.715  1.00  0.00     0.154 HD
BRANCH  11  13
HETATM   13  C3  UNL     1     -41.526  17.584  15.289  1.00  0.00     0.145 C 
BRANCH  13  14
HETATM   14  C2  UNL     1     -42.431  18.468  14.420  1.00  0.00     0.131 C 
HETATM   15  C1  UNL     1     -43.850  18.434  14.949  1.00  0.00     0.041 C 
BRANCH  14  16
HETATM   16  O1  UNL     1     -42.408  17.954  13.144  1.00  0.00    -0.394 OA
ATOM     17  H1  UNL     1     -42.075  17.065  13.169  1.00  0.00     0.210 HD
ENDBRANCH  14  16
ENDBRANCH  13  14
ENDBRANCH  11  13
ENDBRANCH   1  11
BRANCH   7  18
HETATM   18  O2  UNL     1     -36.975  15.466  12.393  1.00  0.00    -0.390 OA
ATOM     19  H2  UNL     1     -36.133  15.047  12.523  1.00  0.00     0.210 HD
ENDBRANCH   7  18
TORSDOF 5
ENDMDL
MODEL 2
REMARK VINA RESULT: -5.535484868      1.245      2.037
REMARK  5 active torsions:
REMARK  status: ('A' for Active; 'I' for Inactive)
REMARK    1  A    between atoms: C2_2  and  O1_3 
REMARK    2  A    between atoms: C2_2  and  C3_5 
REMARK    3  A    between atoms: C3_5  and  N1_6 
REMARK    4  A    between atoms: N1_6  and  C4_8 
REMARK    5  A    between atoms: C10_14  and  O2_15 
ROOT
HETATM    1  C4  UNL     1     -38.882  16.801  14.226  1.00  0.00     0.029 C 
HETATM    2  C5  UNL     1     -37.680  16.716  13.317  1.00  0.00     0.035 C 
HETATM    3  C6  UNL     1     -36.843  15.532  13.697  1.00  0.00    -0.009 C 
HETATM    4  C7  UNL     1     -36.337  15.718  15.116  1.00  0.00     0.009 C 
HETATM    5  C8  UNL     1     -37.504  15.750  16.063  1.00  0.00    -0.009 C 
HETATM    6  C9  UNL     1     -38.341  14.487  15.939  1.00  0.00     0.042 C 
HETATM    7  C10 UNL     1     -38.795  14.341  14.537  1.00  0.00     0.061 C 
HETATM    8  C11 UNL     1     -37.598  14.223  13.636  1.00  0.00     0.042 C 
HETATM    9  C12 UNL     1     -39.626  15.495  14.035  1.00  0.00     0.068 C 
HETATM   10  C13 UNL     1     -38.401  16.899  15.666  1.00  0.00     0.035 C 
ENDROOT
BRANCH   1  11
HETATM   11  N1  UNL     1     -39.715  17.940  14.043  1.00  0.00    -0.410 N 
ATOM     12  H1  UNL     1     -39.597  18.550  13.234  1.00  0.00     0.154 HD
BRANCH  11  13
HETATM   13  C3  UNL     1     -40.712  18.202  15.012  1.00  0.00     0.145 C 
BRANCH  13  14
HETATM   14  C2  UNL     1     -41.918  18.785  14.262  1.00  0.00     0.131 C 
HETATM   15  C1  UNL     1     -43.089  18.942  15.209  1.00  0.00     0.041 C 
BRANCH  14  16
HETATM   16  O1  UNL     1     -42.253  17.898  13.266  1.00  0.00    -0.394 OA
ATOM     17  H1  UNL     1     -41.472  17.660  12.781  1.00  0.00     0.210 HD
ENDBRANCH  14  16
ENDBRANCH  13  14
ENDBRANCH  11  13
ENDBRANCH   1  11
BRANCH   7  18
HETATM   18  O2  UNL     1     -39.574  13.170  14.466  1.00  0.00    -0.390 OA
ATOM     19  H2  UNL     1     -39.014  12.440  14.705  1.00  0.00     0.210 HD
ENDBRANCH   7  18
TORSDOF 5
ENDMDL
MODEL 3
REMARK VINA RESULT: -5.337643290      0.978      1.026
REMARK  5 active torsions:
REMARK  status: ('A' for Active; 'I' for Inactive)
REMARK    1  A    between atoms: C2_2  and  O1_3 
REMARK    2  A    between atoms: C2_2  and  C3_5 
REMARK    3  A    between atoms: C3_5  and  N1_6 
REMARK    4  A    between atoms: N1_6  and  C4_8 
REMARK    5  A    between atoms: C10_14  and  O2_15 
ROOT
HETATM    1  C4  UNL     1     -39.201  16.855  14.951  1.00  0.00     0.029 C 
HETATM    2  C5  UNL     1     -38.211  16.954  16.085  1.00  0.00     0.035 C 
HETATM    3  C6  UNL     1     -37.315  15.753  16.079  1.00  0.00    -0.009 C 
HETATM    4  C7  UNL     1     -38.153  14.508  16.306  1.00  0.00     0.009 C 
HETATM    5  C8  UNL     1     -39.117  14.340  15.165  1.00  0.00    -0.009 C 
HETATM    6  C9  UNL     1     -38.382  14.273  13.836  1.00  0.00     0.042 C 
HETATM    7  C10 UNL     1     -37.566  15.497  13.669  1.00  0.00     0.061 C 
HETATM    8  C11 UNL     1     -36.558  15.579  14.781  1.00  0.00     0.042 C 
HETATM    9  C12 UNL     1     -38.365  16.777  13.690  1.00  0.00     0.068 C 
HETATM   10  C13 UNL     1     -39.996  15.566  15.107  1.00  0.00     0.035 C 
ENDROOT
BRANCH   1  11
HETATM   11  N1  UNL     1     -40.183  17.883  14.896  1.00  0.00    -0.410 N 
ATOM     12  H1  UNL     1     -40.108  18.644  14.221  1.00  0.00     0.154 HD
BRANCH  11  13
HETATM   13  C3  UNL     1     -41.268  17.821  15.803  1.00  0.00     0.145 C 
BRANCH  13  14
HETATM   14  C2  UNL     1     -42.313  18.833  15.314  1.00  0.00     0.131 C 
HETATM   15  C1  UNL     1     -42.335  18.862  13.800  1.00  0.00     0.041 C 
BRANCH  14  16
HETATM   16  O1  UNL     1     -41.945  20.070  15.788  1.00  0.00    -0.394 OA
ATOM     17  H1  UNL     1     -41.564  19.975  16.654  1.00  0.00     0.210 HD
ENDBRANCH  14  16
ENDBRANCH  13  14
ENDBRANCH  11  13
ENDBRANCH   1  11
BRANCH   7  18
HETATM   18  O2  UNL     1     -36.912  15.403  12.426  1.00  0.00    -0.390 OA
ATOM     19  H2  UNL     1     -37.091  16.204  11.948  1.00  0.00     0.210 HD
ENDBRANCH   7  18
TORSDOF 5
ENDMDL
MODEL 4
REMARK VINA RESULT: -5.182256320      1.560      2.539
REMARK  5 active torsions:
REMARK  status: ('A' for Active; 'I' for Inactive)
REMARK    1  A    between atoms: C2_2  and  O1_3 
REMARK    2  A    between atoms: C2_2  and  C3_5 
REMARK    3  A    between atoms: C3_5  and  N1_6 
REMARK    4  A    between atoms: N1_6  and  C4_8 
REMARK    5  A    between atoms: C10_14  and  O2_15 
ROOT
HETATM    1  C4  UNL     1     -39.116  16.662  14.298  1.00  0.00     0.029 C 
HETATM    2  C5  UNL     1     -39.587  15.393  13.632  1.00  0.00     0.035 C 
HETATM    3  C6  UNL     1     -38.660  14.267  13.979  1.00  0.00    -0.009 C 
HETATM    4  C7  UNL     1     -37.275  14.582  13.443  1.00  0.00     0.009 C 
HETATM    5  C8  UNL     1     -36.744  15.812  14.125  1.00  0.00    -0.009 C 
HETATM    6  C9  UNL     1     -36.722  15.630  15.634  1.00  0.00     0.042 C 
HETATM    7  C10 UNL     1     -38.088  15.307  16.106  1.00  0.00     0.061 C 
HETATM    8  C11 UNL     1     -38.545  14.026  15.467  1.00  0.00     0.042 C 
HETATM    9  C12 UNL     1     -39.116  16.363  15.783  1.00  0.00     0.068 C 
HETATM   10  C13 UNL     1     -37.692  16.953  13.845  1.00  0.00     0.035 C 
ENDROOT
BRANCH   1  11
HETATM   11  N1  UNL     1     -39.848  17.838  13.975  1.00  0.00    -0.410 N 
ATOM     12  H1  UNL     1     -39.766  18.269  13.053  1.00  0.00     0.154 HD
BRANCH  11  13
HETATM   13  C3  UNL     1     -40.693  18.394  14.965  1.00  0.00     0.145 C 
BRANCH  13  14
HETATM   14  C2  UNL     1     -41.977  18.840  14.252  1.00  0.00     0.131 C 
HETATM   15  C1  UNL     1     -43.128  18.878  15.235  1.00  0.00     0.041 C 
BRANCH  14  16
HETATM   16  O1  UNL     1     -42.247  17.916  13.270  1.00  0.00    -0.394 OA
ATOM     17  H1  UNL     1     -42.098  17.042  13.610  1.00  0.00     0.210 HD
ENDBRANCH  14  16
ENDBRANCH  13  14
ENDBRANCH  11  13
ENDBRANCH   1  11
BRANCH   7  18
HETATM   18  O2  UNL     1     -38.028  15.159  17.504  1.00  0.00    -0.390 OA
ATOM     19  H2  UNL     1     -38.920  15.081  17.821  1.00  0.00     0.210 HD
ENDBRANCH   7  18
TORSDOF 5
ENDMDL
MODEL 5
REMARK VINA RESULT: -5.079885301      2.533      4.424
REMARK  5 active torsions:
REMARK  status: ('A' for Active; 'I' for Inactive)
REMARK    1  A    between atoms: C2_2  and  O1_3 
REMARK    2  A    between atoms: C2_2  and  C3_5 
REMARK    3  A    between atoms: C3_5  and  N1_6 
REMARK    4  A    between atoms: N1_6  and  C4_8 
REMARK    5  A    between atoms: C10_14  and  O2_15 
ROOT
HETATM    1  C4  UNL     1     -38.740  14.246  14.834  1.00  0.00     0.029 C 
HETATM    2  C5  UNL     1     -38.168  14.596  16.187  1.00  0.00     0.035 C 
HETATM    3  C6  UNL     1     -37.525  15.948  16.129  1.00  0.00    -0.009 C 
HETATM    4  C7  UNL     1     -36.375  15.907  15.138  1.00  0.00     0.009 C 
HETATM    5  C8  UNL     1     -36.909  15.618  13.764  1.00  0.00    -0.009 C 
HETATM    6  C9  UNL     1     -37.950  16.648  13.356  1.00  0.00     0.042 C 
HETATM    7  C10 UNL     1     -39.039  16.663  14.359  1.00  0.00     0.061 C 
HETATM    8  C11 UNL     1     -38.476  17.044  15.699  1.00  0.00     0.042 C 
HETATM    9  C12 UNL     1     -39.741  15.338  14.524  1.00  0.00     0.068 C 
HETATM   10  C13 UNL     1     -37.619  14.286  13.805  1.00  0.00     0.035 C 
ENDROOT
BRANCH   1  11
HETATM   11  N1  UNL     1     -39.295  12.941  14.717  1.00  0.00    -0.410 N 
ATOM     12  H1  UNL     1     -39.864  12.545  15.465  1.00  0.00     0.154 HD
BRANCH  11  13
HETATM   13  C3  UNL     1     -39.036  12.208  13.534  1.00  0.00     0.145 C 
BRANCH  13  14
HETATM   14  C2  UNL     1     -40.299  11.387  13.237  1.00  0.00     0.131 C 
HETATM   15  C1  UNL     1     -40.065  10.498  12.033  1.00  0.00     0.041 C 
BRANCH  14  16
HETATM   16  O1  UNL     1     -41.312  12.274  12.959  1.00  0.00    -0.394 OA
ATOM     17  H1  UNL     1     -41.476  12.814  13.723  1.00  0.00     0.210 HD
ENDBRANCH  14  16
ENDBRANCH  13  14
ENDBRANCH  11  13
ENDBRANCH   1  11
BRANCH   7  18
HETATM   18  O2  UNL     1     -39.985  17.618  13.941  1.00  0.00    -0.390 OA
ATOM     19  H2  UNL     1     -40.781  17.467  14.437  1.00  0.00     0.210 HD
ENDBRANCH   7  18
TORSDOF 5
ENDMDL
