MODEL 1
REMARK VINA RESULT: -6.423377773      0.000      0.000
REMARK  2 active torsions:
REMARK  status: ('A' for Active; 'I' for Inactive)
REMARK    1  A    between atoms: N1_1  and  C1_4 
REMARK    2  A    between atoms: C2_7  and  N3_8 
ROOT
HETATM    1  C1  UNL     1       7.629  17.384  29.162  1.00  0.00     0.705 A 
HETATM    2  N2  UNL     1       8.350  17.254  30.283  1.00  0.00    -0.018 N 
ATOM      3  H2  UNL     1       8.931  17.992  30.682  1.00  0.00     0.203 HD
HETATM    4  C2  UNL     1       8.213  16.029  30.816  1.00  0.00     0.729 A 
HETATM    5  N6  UNL     1       7.361  15.388  29.967  1.00  0.00    -0.116 N 
ATOM      6  H6  UNL     1       7.037  14.426  30.074  1.00  0.00     0.206 HD
HETATM    7  N7  UNL     1       7.018  16.200  28.984  1.00  0.00    -0.117 N 
ATOM      8  H7  UNL     1       6.391  15.967  28.215  1.00  0.00     0.206 HD
ENDROOT
BRANCH   4   9
HETATM    9  N3  UNL     1       8.821  15.501  32.010  1.00  0.00    -0.110 N 
HETATM   10  C3  UNL     1       9.423  16.429  32.888  1.00  0.00     0.189 C 
HETATM   11  C4  UNL     1       9.727  16.060  34.258  1.00  0.00     0.156 C 
HETATM   12  N4  UNL     1       9.697  14.696  34.649  1.00  0.00    -0.300 N 
HETATM   13  S1  UNL     1      10.054  13.720  33.270  1.00  0.00     0.333 S 
ATOM     14  H4  UNL     1       9.498  14.350  35.588  1.00  0.00     0.173 HD
HETATM   15  O1  UNL     1      11.338  14.206  32.692  1.00  0.00    -0.181 OA
HETATM   16  O2  UNL     1      10.065  12.263  33.588  1.00  0.00    -0.181 OA
HETATM   17  N5  UNL     1       8.750  14.117  32.174  1.00  0.00    -0.193 N 
ATOM     18  H5  UNL     1       8.082  13.475  31.746  1.00  0.00     0.202 HD
ENDBRANCH   4   9
BRANCH   1  19
HETATM   19  N1  UNL     1       7.510  18.413  28.374  1.00  0.00    -0.233 N 
ATOM     20  H12 UNL     1       7.444  18.369  27.357  1.00  0.00     0.174 HD
ATOM     21  H11 UNL     1       7.466  19.404  28.610  1.00  0.00     0.174 HD
ENDBRANCH   1  19
TORSDOF 2
ENDMDL
MODEL 2
REMARK VINA RESULT: -6.396475076      1.790      1.984
REMARK  2 active torsions:
REMARK  status: ('A' for Active; 'I' for Inactive)
REMARK    1  A    between atoms: N1_1  and  C1_4 
REMARK    2  A    between atoms: C2_7  and  N3_8 
ROOT
HETATM    1  C1  UNL     1       7.761  17.311  29.209  1.00  0.00     0.705 A 
HETATM    2  N2  UNL     1       8.800  17.058  30.016  1.00  0.00    -0.018 N 
ATOM      3  H2  UNL     1       9.576  17.702  30.172  1.00  0.00     0.203 HD
HETATM    4  C2  UNL     1       8.690  15.852  30.595  1.00  0.00     0.729 A 
HETATM    5  N6  UNL     1       7.519  15.352  30.107  1.00  0.00    -0.116 N 
ATOM      6  H6  UNL     1       7.125  14.441  30.344  1.00  0.00     0.206 HD
HETATM    7  N7  UNL     1       6.972  16.226  29.282  1.00  0.00    -0.117 N 
ATOM      8  H7  UNL     1       6.093  16.098  28.782  1.00  0.00     0.206 HD
ENDROOT
BRANCH   4   9
HETATM    9  N3  UNL     1       9.595  15.219  31.520  1.00  0.00    -0.110 N 
HETATM   10  C3  UNL     1       9.019  14.506  32.594  1.00  0.00     0.189 C 
HETATM   11  C4  UNL     1       9.804  13.548  33.350  1.00  0.00     0.156 C 
HETATM   12  N4  UNL     1      11.217  13.526  33.217  1.00  0.00    -0.300 N 
HETATM   13  S1  UNL     1      11.754  15.110  32.787  1.00  0.00     0.333 S 
ATOM     14  H4  UNL     1      11.815  12.711  33.353  1.00  0.00     0.173 HD
HETATM   15  O1  UNL     1      11.207  16.063  33.793  1.00  0.00    -0.181 OA
HETATM   16  O2  UNL     1      13.236  15.192  32.643  1.00  0.00    -0.181 OA
HETATM   17  N5  UNL     1      10.955  15.380  31.254  1.00  0.00    -0.193 N 
ATOM     18  H5  UNL     1      11.390  15.607  30.359  1.00  0.00     0.202 HD
ENDBRANCH   4   9
BRANCH   1  19
HETATM   19  N1  UNL     1       7.519  18.365  28.484  1.00  0.00    -0.233 N 
ATOM     20  H12 UNL     1       8.161  18.768  27.802  1.00  0.00     0.174 HD
ATOM     21  H11 UNL     1       6.688  18.956  28.463  1.00  0.00     0.174 HD
ENDBRANCH   1  19
TORSDOF 2
ENDMDL
MODEL 3
REMARK VINA RESULT: -6.190832898      3.541      5.028
REMARK  2 active torsions:
REMARK  status: ('A' for Active; 'I' for Inactive)
REMARK    1  A    between atoms: N1_1  and  C1_4 
REMARK    2  A    between atoms: C2_7  and  N3_8 
ROOT
HETATM    1  C1  UNL     1      13.549  15.188  31.703  1.00  0.00     0.705 A 
HETATM    2  N2  UNL     1      12.436  15.596  31.080  1.00  0.00    -0.018 N 
ATOM      3  H2  UNL     1      12.384  15.825  30.086  1.00  0.00     0.203 HD
HETATM    4  C2  UNL     1      11.396  15.667  31.927  1.00  0.00     0.729 A 
HETATM    5  N6  UNL     1      11.915  15.278  33.126  1.00  0.00    -0.116 N 
ATOM      6  H6  UNL     1      11.392  15.215  34.000  1.00  0.00     0.206 HD
HETATM    7  N7  UNL     1      13.197  14.995  32.985  1.00  0.00    -0.117 N 
ATOM      8  H7  UNL     1      13.819  14.681  33.729  1.00  0.00     0.206 HD
ENDROOT
BRANCH   4   9
HETATM    9  N3  UNL     1      10.040  16.061  31.645  1.00  0.00    -0.110 N 
HETATM   10  C3  UNL     1       9.245  16.455  32.744  1.00  0.00     0.189 C 
HETATM   11  C4  UNL     1       8.019  17.203  32.539  1.00  0.00     0.156 C 
HETATM   12  N4  UNL     1       7.453  17.296  31.241  1.00  0.00    -0.300 N 
HETATM   13  S1  UNL     1       7.907  15.893  30.340  1.00  0.00     0.333 S 
ATOM     14  H4  UNL     1       6.875  18.063  30.896  1.00  0.00     0.173 HD
HETATM   15  O1  UNL     1       7.517  14.698  31.139  1.00  0.00    -0.181 OA
HETATM   16  O2  UNL     1       7.340  15.892  28.961  1.00  0.00    -0.181 OA
HETATM   17  N5  UNL     1       9.652  16.011  30.306  1.00  0.00    -0.193 N 
ATOM     18  H5  UNL     1      10.256  16.036  29.483  1.00  0.00     0.202 HD
ENDBRANCH   4   9
BRANCH   1  19
HETATM   19  N1  UNL     1      14.742  15.001  31.218  1.00  0.00    -0.233 N 
ATOM     20  H12 UNL     1      15.023  14.212  30.636  1.00  0.00     0.174 HD
ATOM     21  H11 UNL     1      15.578  15.577  31.323  1.00  0.00     0.174 HD
ENDBRANCH   1  19
TORSDOF 2
ENDMDL
MODEL 4
REMARK VINA RESULT: -6.094319736      3.708      5.279
REMARK  2 active torsions:
REMARK  status: ('A' for Active; 'I' for Inactive)
REMARK    1  A    between atoms: N1_1  and  C1_4 
REMARK    2  A    between atoms: C2_7  and  N3_8 
ROOT
HETATM    1  C1  UNL     1      13.519  15.170  31.784  1.00  0.00     0.705 A 
HETATM    2  N2  UNL     1      12.389  15.494  31.142  1.00  0.00    -0.018 N 
ATOM      3  H2  UNL     1      12.337  15.715  30.147  1.00  0.00     0.203 HD
HETATM    4  C2  UNL     1      11.333  15.490  31.972  1.00  0.00     0.729 A 
HETATM    5  N6  UNL     1      11.860  15.145  33.181  1.00  0.00    -0.116 N 
ATOM      6  H6  UNL     1      11.329  15.047  34.047  1.00  0.00     0.206 HD
HETATM    7  N7  UNL     1      13.161  14.957  33.062  1.00  0.00    -0.117 N 
ATOM      8  H7  UNL     1      13.793  14.693  33.817  1.00  0.00     0.206 HD
ENDROOT
BRANCH   4   9
HETATM    9  N3  UNL     1       9.956  15.782  31.668  1.00  0.00    -0.110 N 
HETATM   10  C3  UNL     1       9.194  14.745  31.087  1.00  0.00     0.189 C 
HETATM   11  C4  UNL     1       7.744  14.807  31.083  1.00  0.00     0.156 C 
HETATM   12  N4  UNL     1       7.085  16.026  31.392  1.00  0.00    -0.300 N 
HETATM   13  S1  UNL     1       8.123  17.338  30.961  1.00  0.00     0.333 S 
ATOM     14  H4  UNL     1       6.154  16.113  31.801  1.00  0.00     0.173 HD
HETATM   15  O1  UNL     1       8.519  17.152  29.537  1.00  0.00    -0.181 OA
HETATM   16  O2  UNL     1       7.505  18.667  31.233  1.00  0.00    -0.181 OA
HETATM   17  N5  UNL     1       9.519  17.070  31.980  1.00  0.00    -0.193 N 
ATOM     18  H5  UNL     1       9.926  17.716  32.658  1.00  0.00     0.202 HD
ENDBRANCH   4   9
BRANCH   1  19
HETATM   19  N1  UNL     1      14.730  15.071  31.319  1.00  0.00    -0.233 N 
ATOM     20  H12 UNL     1      15.125  14.238  30.882  1.00  0.00     0.174 HD
ATOM     21  H11 UNL     1      15.475  15.768  31.305  1.00  0.00     0.174 HD
ENDBRANCH   1  19
TORSDOF 2
ENDMDL
MODEL 5
REMARK VINA RESULT: -6.010425638      1.832      2.037
REMARK  2 active torsions:
REMARK  status: ('A' for Active; 'I' for Inactive)
REMARK    1  A    between atoms: N1_1  and  C1_4 
REMARK    2  A    between atoms: C2_7  and  N3_8 
ROOT
HETATM    1  C1  UNL     1       7.598  17.315  29.019  1.00  0.00     0.705 A 
HETATM    2  N2  UNL     1       8.530  17.434  29.974  1.00  0.00    -0.018 N 
ATOM      3  H2  UNL     1       9.138  18.246  30.086  1.00  0.00     0.203 HD
HETATM    4  C2  UNL     1       8.562  16.350  30.767  1.00  0.00     0.729 A 
HETATM    5  N6  UNL     1       7.595  15.535  30.258  1.00  0.00    -0.116 N 
ATOM      6  H6  UNL     1       7.348  14.616  30.625  1.00  0.00     0.206 HD
HETATM    7  N7  UNL     1       7.026  16.116  29.217  1.00  0.00    -0.117 N 
ATOM      8  H7  UNL     1       6.274  15.718  28.655  1.00  0.00     0.206 HD
ENDROOT
BRANCH   4   9
HETATM    9  N3  UNL     1       9.417  16.095  31.897  1.00  0.00    -0.110 N 
HETATM   10  C3  UNL     1      10.533  15.257  31.682  1.00  0.00     0.189 C 
HETATM   11  C4  UNL     1      11.633  15.235  32.628  1.00  0.00     0.156 C 
HETATM   12  N4  UNL     1      11.478  15.821  33.911  1.00  0.00    -0.300 N 
HETATM   13  S1  UNL     1       9.808  15.754  34.349  1.00  0.00     0.333 S 
ATOM     14  H4  UNL     1      12.227  16.216  34.480  1.00  0.00     0.173 HD
HETATM   15  O1  UNL     1       9.363  14.338  34.219  1.00  0.00    -0.181 OA
HETATM   16  O2  UNL     1       9.547  16.332  35.698  1.00  0.00    -0.181 OA
HETATM   17  N5  UNL     1       9.047  16.707  33.096  1.00  0.00    -0.193 N 
ATOM     18  H5  UNL     1       8.459  17.533  33.215  1.00  0.00     0.202 HD
ENDBRANCH   4   9
BRANCH   1  19
HETATM   19  N1  UNL     1       7.276  18.151  28.075  1.00  0.00    -0.233 N 
ATOM     20  H12 UNL     1       6.884  19.081  28.223  1.00  0.00     0.174 HD
ATOM     21  H11 UNL     1       7.349  18.041  27.063  1.00  0.00     0.174 HD
ENDBRANCH   1  19
TORSDOF 2
ENDMDL
