MODEL 1
REMARK VINA RESULT: -4.575163207      0.000      0.000
REMARK  3 active torsions:
REMARK  status: ('A' for Active; 'I' for Inactive)
REMARK    1  A    between atoms: C2_2  and  S1_3 
REMARK    2  A    between atoms: S1_3  and  C3_4 
REMARK       I    between atoms: C3_4  and  N1_6 
REMARK    3  A    between atoms: N1_6  and  C4_8 
ROOT
HETATM    1  C4  UNL     1      15.253  25.687  22.897  1.00  0.00     0.086 C 
HETATM    2  C5  UNL     1      14.327  25.403  21.740  1.00  0.00     0.034 C 
HETATM    3  C6  UNL     1      14.972  25.695  20.421  1.00  0.00    -0.041 C 
HETATM    4  C7  UNL     1      14.065  25.742  19.251  1.00  0.00     0.015 C 
HETATM    5  C8  UNL     1      16.258  24.930  20.213  1.00  0.00     0.018 C 
HETATM    6  C9  UNL     1      16.925  25.971  21.091  1.00  0.00    -0.041 C 
HETATM    7  C10 UNL     1      18.281  26.410  20.702  1.00  0.00     0.015 C 
HETATM    8  C11 UNL     1      16.707  25.561  22.521  1.00  0.00     0.034 C 
HETATM    9  C12 UNL     1      15.837  26.944  20.624  1.00  0.00     0.018 C 
ENDROOT
BRANCH   1  10
HETATM   10  N1  UNL     1      14.898  24.765  23.951  1.00  0.00    -0.347 N 
HETATM   11  C3  UNL     1      14.630  25.280  25.247  1.00  0.00     0.280 C 
HETATM   12  O1  UNL     1      14.706  26.533  25.455  1.00  0.00    -0.260 OA
ATOM     13  H1  UNL     1      14.841  23.764  23.767  1.00  0.00     0.163 HD
BRANCH  11  14
HETATM   14  S1  UNL     1      14.180  24.250  26.637  1.00  0.00    -0.070 SA
BRANCH  14  15
HETATM   15  C2  UNL     1      15.664  23.438  27.283  1.00  0.00     0.079 C 
HETATM   16  C1  UNL     1      16.764  24.460  27.407  1.00  0.00     0.016 C 
ENDBRANCH  14  15
ENDBRANCH  11  14
ENDBRANCH   1  10
TORSDOF 3
ENDMDL
MODEL 2
REMARK VINA RESULT: -4.443072398      1.061      2.413
REMARK  3 active torsions:
REMARK  status: ('A' for Active; 'I' for Inactive)
REMARK    1  A    between atoms: C2_2  and  S1_3 
REMARK    2  A    between atoms: S1_3  and  C3_4 
REMARK       I    between atoms: C3_4  and  N1_6 
REMARK    3  A    between atoms: N1_6  and  C4_8 
ROOT
HETATM    1  C4  UNL     1      15.197  24.884  22.662  1.00  0.00     0.086 C 
HETATM    2  C5  UNL     1      16.560  25.529  22.587  1.00  0.00     0.034 C 
HETATM    3  C6  UNL     1      16.867  26.030  21.211  1.00  0.00    -0.041 C 
HETATM    4  C7  UNL     1      18.278  26.400  20.955  1.00  0.00     0.015 C 
HETATM    5  C8  UNL     1      15.838  27.009  20.697  1.00  0.00     0.018 C 
HETATM    6  C9  UNL     1      14.973  25.807  20.374  1.00  0.00    -0.041 C 
HETATM    7  C10 UNL     1      14.199  25.854  19.116  1.00  0.00     0.015 C 
HETATM    8  C11 UNL     1      14.241  25.427  21.630  1.00  0.00     0.034 C 
HETATM    9  C12 UNL     1      16.275  25.011  20.230  1.00  0.00     0.018 C 
ENDROOT
BRANCH   1  10
HETATM   10  N1  UNL     1      14.706  25.101  24.003  1.00  0.00    -0.347 N 
HETATM   11  C3  UNL     1      14.886  24.078  24.970  1.00  0.00     0.280 C 
HETATM   12  O1  UNL     1      15.472  22.998  24.642  1.00  0.00    -0.260 OA
ATOM     13  H1  UNL     1      14.239  25.974  24.250  1.00  0.00     0.163 HD
BRANCH  11  14
HETATM   14  S1  UNL     1      14.328  24.220  26.663  1.00  0.00    -0.070 SA
BRANCH  14  15
HETATM   15  C2  UNL     1      15.695  23.810  27.778  1.00  0.00     0.079 C 
HETATM   16  C1  UNL     1      16.862  24.710  27.469  1.00  0.00     0.016 C 
ENDBRANCH  14  15
ENDBRANCH  11  14
ENDBRANCH   1  10
TORSDOF 3
ENDMDL
MODEL 3
REMARK VINA RESULT: -4.418567920      1.117      1.286
REMARK  3 active torsions:
REMARK  status: ('A' for Active; 'I' for Inactive)
REMARK    1  A    between atoms: C2_2  and  S1_3 
REMARK    2  A    between atoms: S1_3  and  C3_4 
REMARK       I    between atoms: C3_4  and  N1_6 
REMARK    3  A    between atoms: N1_6  and  C4_8 
ROOT
HETATM    1  C4  UNL     1      15.253  25.654  22.866  1.00  0.00     0.086 C 
HETATM    2  C5  UNL     1      14.298  25.422  21.721  1.00  0.00     0.034 C 
HETATM    3  C6  UNL     1      14.921  25.744  20.398  1.00  0.00    -0.041 C 
HETATM    4  C7  UNL     1      13.991  25.844  19.250  1.00  0.00     0.015 C 
HETATM    5  C8  UNL     1      16.189  24.965  20.139  1.00  0.00     0.018 C 
HETATM    6  C9  UNL     1      16.892  25.966  21.035  1.00  0.00    -0.041 C 
HETATM    7  C10 UNL     1      18.247  26.394  20.630  1.00  0.00     0.015 C 
HETATM    8  C11 UNL     1      16.697  25.515  22.455  1.00  0.00     0.034 C 
HETATM    9  C12 UNL     1      15.813  26.972  20.621  1.00  0.00     0.018 C 
ENDROOT
BRANCH   1  10
HETATM   10  N1  UNL     1      14.904  24.706  23.899  1.00  0.00    -0.347 N 
HETATM   11  C3  UNL     1      14.662  25.185  25.213  1.00  0.00     0.280 C 
HETATM   12  O1  UNL     1      14.755  26.430  25.456  1.00  0.00    -0.260 OA
ATOM     13  H1  UNL     1      14.833  23.710  23.687  1.00  0.00     0.163 HD
BRANCH  11  14
HETATM   14  S1  UNL     1      14.221  24.120  26.579  1.00  0.00    -0.070 SA
BRANCH  14  15
HETATM   15  C2  UNL     1      13.884  25.134  28.041  1.00  0.00     0.079 C 
HETATM   16  C1  UNL     1      12.751  24.512  28.815  1.00  0.00     0.016 C 
ENDBRANCH  14  15
ENDBRANCH  11  14
ENDBRANCH   1  10
TORSDOF 3
ENDMDL
MODEL 4
REMARK VINA RESULT: -4.411610346      4.717      6.453
REMARK  3 active torsions:
REMARK  status: ('A' for Active; 'I' for Inactive)
REMARK    1  A    between atoms: C2_2  and  S1_3 
REMARK    2  A    between atoms: S1_3  and  C3_4 
REMARK       I    between atoms: C3_4  and  N1_6 
REMARK    3  A    between atoms: N1_6  and  C4_8 
ROOT
HETATM    1  C4  UNL     1      12.024  26.414  19.380  1.00  0.00     0.086 C 
HETATM    2  C5  UNL     1      12.946  26.091  20.531  1.00  0.00     0.034 C 
HETATM    3  C6  UNL     1      14.383  26.085  20.113  1.00  0.00    -0.041 C 
HETATM    4  C7  UNL     1      15.337  25.489  21.076  1.00  0.00     0.015 C 
HETATM    5  C8  UNL     1      14.821  27.391  19.492  1.00  0.00     0.018 C 
HETATM    6  C9  UNL     1      14.152  26.915  18.216  1.00  0.00    -0.041 C 
HETATM    7  C10 UNL     1      14.839  27.221  16.943  1.00  0.00     0.015 C 
HETATM    8  C11 UNL     1      12.691  27.252  18.320  1.00  0.00     0.034 C 
HETATM    9  C12 UNL     1      14.426  25.488  18.701  1.00  0.00     0.018 C 
ENDROOT
BRANCH   1  10
HETATM   10  N1  UNL     1      10.876  27.088  19.942  1.00  0.00    -0.347 N 
HETATM   11  C3  UNL     1       9.665  26.364  20.093  1.00  0.00     0.280 C 
HETATM   12  O1  UNL     1       9.612  25.145  19.734  1.00  0.00    -0.260 OA
ATOM     13  H1  UNL     1      10.936  28.067  20.225  1.00  0.00     0.163 HD
BRANCH  11  14
HETATM   14  S1  UNL     1       8.174  27.078  20.774  1.00  0.00    -0.070 SA
BRANCH  14  15
HETATM   15  C2  UNL     1       8.539  28.739  21.396  1.00  0.00     0.079 C 
HETATM   16  C1  UNL     1       7.278  29.563  21.352  1.00  0.00     0.016 C 
ENDBRANCH  14  15
ENDBRANCH  11  14
ENDBRANCH   1  10
TORSDOF 3
ENDMDL
MODEL 5
REMARK VINA RESULT: -4.344454762      1.613      2.731
REMARK  3 active torsions:
REMARK  status: ('A' for Active; 'I' for Inactive)
REMARK    1  A    between atoms: C2_2  and  S1_3 
REMARK    2  A    between atoms: S1_3  and  C3_4 
REMARK       I    between atoms: C3_4  and  N1_6 
REMARK    3  A    between atoms: N1_6  and  C4_8 
ROOT
HETATM    1  C4  UNL     1      16.092  25.013  23.329  1.00  0.00     0.086 C 
HETATM    2  C5  UNL     1      17.240  25.688  22.620  1.00  0.00     0.034 C 
HETATM    3  C6  UNL     1      16.874  26.101  21.229  1.00  0.00    -0.041 C 
HETATM    4  C7  UNL     1      18.000  26.491  20.350  1.00  0.00     0.015 C 
HETATM    5  C8  UNL     1      15.672  27.015  21.184  1.00  0.00     0.018 C 
HETATM    6  C9  UNL     1      14.820  25.770  21.343  1.00  0.00    -0.041 C 
HETATM    7  C10 UNL     1      13.565  25.711  20.565  1.00  0.00     0.015 C 
HETATM    8  C11 UNL     1      14.748  25.458  22.811  1.00  0.00     0.034 C 
HETATM    9  C12 UNL     1      15.963  25.002  20.670  1.00  0.00     0.018 C 
ENDROOT
BRANCH   1  10
HETATM   10  N1  UNL     1      16.239  25.308  24.736  1.00  0.00    -0.347 N 
HETATM   11  C3  UNL     1      16.414  24.232  25.645  1.00  0.00     0.280 C 
HETATM   12  O1  UNL     1      16.438  23.037  25.209  1.00  0.00    -0.260 OA
ATOM     13  H1  UNL     1      16.219  26.272  25.069  1.00  0.00     0.163 HD
BRANCH  11  14
HETATM   14  S1  UNL     1      16.610  24.459  27.408  1.00  0.00    -0.070 SA
BRANCH  14  15
HETATM   15  C2  UNL     1      15.038  24.105  28.233  1.00  0.00     0.079 C 
HETATM   16  C1  UNL     1      13.908  24.463  27.303  1.00  0.00     0.016 C 
ENDBRANCH  14  15
ENDBRANCH  11  14
ENDBRANCH   1  10
TORSDOF 3
ENDMDL
