MODEL 1
REMARK VINA RESULT: -9.241502309      0.000      0.000
REMARK  2 active torsions:
REMARK  status: ('A' for Active; 'I' for Inactive)
REMARK       I    between atoms: N1_12  and  C11_13 
REMARK    1  A    between atoms: C11_13  and  C12_15 
REMARK    2  A    between atoms: C34_43  and  O5_44 
ROOT
HETATM    1  O1  UNL     1      36.007 115.075  50.182  1.00  0.00    -0.265 OA
HETATM    2  C1  UNL     1      36.854 114.247  50.596  1.00  0.00     0.258 C 
HETATM    3  C2  UNL     1      38.276 114.371  50.209  1.00  0.00     0.111 C 
HETATM    4  C3  UNL     1      38.517 115.749  49.604  1.00  0.00     0.010 C 
HETATM    5  C4  UNL     1      40.019 115.963  49.572  1.00  0.00     0.000 C 
HETATM    6  C5  UNL     1      40.433 117.009  48.588  1.00  0.00     0.000 C 
HETATM    7  C6  UNL     1      41.654 116.546  47.821  1.00  0.00     0.004 C 
HETATM    8  C7  UNL     1      42.865 116.629  48.726  1.00  0.00     0.027 C 
HETATM    9  C8  UNL     1      43.157 115.272  49.280  1.00  0.00    -0.029 C 
HETATM   10  C9  UNL     1      43.816 115.036  50.383  1.00  0.00    -0.011 C 
HETATM   11  C10 UNL     1      44.401 116.048  51.295  1.00  0.00     0.153 C 
HETATM   12  N1  UNL     1      45.825 116.328  50.959  1.00  0.00    -0.335 N 
HETATM   13  C11 UNL     1      46.203 117.678  51.079  1.00  0.00     0.225 C 
HETATM   14  O2  UNL     1      45.275 118.506  51.452  1.00  0.00    -0.273 OA
HETATM   15  C15 UNL     1      46.637 115.212  50.558  1.00  0.00     0.185 C 
HETATM   16  C16 UNL     1      47.559 115.501  49.444  1.00  0.00     0.241 C 
HETATM   17  O3  UNL     1      47.323 116.160  48.414  1.00  0.00    -0.271 OA
HETATM   18  N2  UNL     1      48.802 114.884  49.749  1.00  0.00    -0.359 N 
ATOM     19  H2  UNL     1      49.500 114.566  49.076  1.00  0.00     0.162 HD
HETATM   20  C17 UNL     1      48.895 114.789  51.202  1.00  0.00     0.130 C 
HETATM   21  C18 UNL     1      47.479 114.604  51.609  1.00  0.00     0.036 C 
HETATM   22  C19 UNL     1      47.185 115.110  53.003  1.00  0.00     0.009 C 
HETATM   23  C20 UNL     1      48.220 114.458  53.926  1.00  0.00     0.001 C 
HETATM   24  C21 UNL     1      47.838 113.053  54.295  1.00  0.00     0.000 C 
HETATM   25  C22 UNL     1      46.927 112.971  55.491  1.00  0.00     0.000 C 
HETATM   26  C23 UNL     1      47.250 111.776  56.361  1.00  0.00     0.000 C 
HETATM   27  C24 UNL     1      46.793 110.478  55.777  1.00  0.00     0.000 C 
HETATM   28  C25 UNL     1      45.430 110.042  56.279  1.00  0.00     0.000 C 
HETATM   29  C26 UNL     1      45.081 108.748  55.571  1.00  0.00     0.000 C 
HETATM   30  C27 UNL     1      43.836 108.137  56.177  1.00  0.00     0.000 C 
HETATM   31  C28 UNL     1      42.712 109.129  56.102  1.00  0.00     0.000 C 
HETATM   32  C29 UNL     1      41.411 108.438  55.748  1.00  0.00     0.000 C 
HETATM   33  C30 UNL     1      40.336 108.958  56.691  1.00  0.00     0.002 C 
HETATM   34  C31 UNL     1      38.990 108.783  56.053  1.00  0.00     0.020 C 
HETATM   35  C32 UNL     1      38.721 109.939  55.135  1.00  0.00     0.122 C 
HETATM   36  N3  UNL     1      37.571 109.633  54.282  1.00  0.00    -0.359 N 
ATOM     37  H3  UNL     1      37.156 108.703  54.342  1.00  0.00     0.162 HD
HETATM   38  C33 UNL     1      37.012 110.560  53.385  1.00  0.00     0.248 C 
HETATM   39  O4  UNL     1      35.758 110.549  53.225  1.00  0.00    -0.271 OA
HETATM   40  C34 UNL     1      37.785 111.549  52.610  1.00  0.00     0.234 C 
HETATM   41  C35 UNL     1      37.043 111.905  51.335  1.00  0.00     0.220 C 
HETATM   42  O6  UNL     1      36.478 113.203  51.421  1.00  0.00    -0.318 OA
ENDROOT
BRANCH  13  43
HETATM   43  C12 UNL     1      47.504 118.302  50.843  1.00  0.00     0.078 A 
HETATM   44  C13 UNL     1      47.811 119.601  51.595  1.00  0.00     0.015 A 
HETATM   45  C14 UNL     1      48.417 118.380  52.120  1.00  0.00     0.015 A 
ENDBRANCH  13  43
BRANCH  40  46
HETATM   46  O5  UNL     1      39.042 111.055  52.246  1.00  0.00    -0.384 OA
ATOM     47  H5  UNL     1      39.594 111.735  51.878  1.00  0.00     0.210 HD
ENDBRANCH  40  46
TORSDOF 2
ENDMDL
MODEL 2
REMARK VINA RESULT: -9.060361983      3.817     11.967
REMARK  2 active torsions:
REMARK  status: ('A' for Active; 'I' for Inactive)
REMARK       I    between atoms: N1_12  and  C11_13 
REMARK    1  A    between atoms: C11_13  and  C12_15 
REMARK    2  A    between atoms: C34_43  and  O5_44 
ROOT
HETATM    1  O1  UNL     1      45.006 107.265  58.788  1.00  0.00    -0.265 OA
HETATM    2  C1  UNL     1      44.869 108.055  57.823  1.00  0.00     0.258 C 
HETATM    3  C2  UNL     1      43.923 107.747  56.729  1.00  0.00     0.111 C 
HETATM    4  C3  UNL     1      42.999 106.614  57.163  1.00  0.00     0.010 C 
HETATM    5  C4  UNL     1      41.839 106.589  56.186  1.00  0.00     0.000 C 
HETATM    6  C5  UNL     1      41.127 105.275  56.168  1.00  0.00     0.000 C 
HETATM    7  C6  UNL     1      40.822 104.871  54.741  1.00  0.00     0.004 C 
HETATM    8  C7  UNL     1      39.684 105.723  54.220  1.00  0.00     0.027 C 
HETATM    9  C8  UNL     1      40.244 106.835  53.393  1.00  0.00    -0.029 C 
HETATM   10  C9  UNL     1      39.642 107.970  53.153  1.00  0.00    -0.011 C 
HETATM   11  C10 UNL     1      38.304 108.379  53.641  1.00  0.00     0.153 C 
HETATM   12  N1  UNL     1      37.238 108.048  52.656  1.00  0.00    -0.335 N 
HETATM   13  C11 UNL     1      36.036 107.587  53.224  1.00  0.00     0.225 C 
HETATM   14  O2  UNL     1      36.007 107.496  54.519  1.00  0.00    -0.273 OA
HETATM   15  C15 UNL     1      37.548 108.232  51.265  1.00  0.00     0.185 C 
HETATM   16  C16 UNL     1      37.037 107.167  50.382  1.00  0.00     0.241 C 
HETATM   17  O3  UNL     1      37.043 105.939  50.591  1.00  0.00    -0.271 OA
HETATM   18  N2  UNL     1      36.518 107.792  49.216  1.00  0.00    -0.359 N 
ATOM     19  H2  UNL     1      36.444 107.374  48.289  1.00  0.00     0.162 HD
HETATM   20  C17 UNL     1      36.109 109.142  49.593  1.00  0.00     0.130 C 
HETATM   21  C18 UNL     1      37.087 109.496  50.653  1.00  0.00     0.036 C 
HETATM   22  C19 UNL     1      36.555 110.503  51.646  1.00  0.00     0.009 C 
HETATM   23  C20 UNL     1      36.028 111.684  50.824  1.00  0.00     0.001 C 
HETATM   24  C21 UNL     1      37.132 112.607  50.396  1.00  0.00     0.000 C 
HETATM   25  C22 UNL     1      37.473 113.655  51.420  1.00  0.00     0.000 C 
HETATM   26  C23 UNL     1      37.813 114.981  50.775  1.00  0.00     0.000 C 
HETATM   27  C24 UNL     1      39.165 114.999  50.137  1.00  0.00     0.000 C 
HETATM   28  C25 UNL     1      40.248 115.551  51.042  1.00  0.00     0.000 C 
HETATM   29  C26 UNL     1      41.558 115.463  50.285  1.00  0.00     0.000 C 
HETATM   30  C27 UNL     1      42.650 116.194  51.036  1.00  0.00     0.000 C 
HETATM   31  C28 UNL     1      42.770 115.617  52.417  1.00  0.00     0.000 C 
HETATM   32  C29 UNL     1      44.224 115.520  52.831  1.00  0.00     0.000 C 
HETATM   33  C30 UNL     1      44.342 116.067  54.247  1.00  0.00     0.002 C 
HETATM   34  C31 UNL     1      45.559 115.484  54.903  1.00  0.00     0.020 C 
HETATM   35  C32 UNL     1      45.222 114.136  55.468  1.00  0.00     0.122 C 
HETATM   36  N3  UNL     1      46.453 113.432  55.830  1.00  0.00    -0.359 N 
ATOM     37  H3  UNL     1      47.346 113.868  55.601  1.00  0.00     0.162 HD
HETATM   38  C33 UNL     1      46.463 112.184  56.479  1.00  0.00     0.248 C 
HETATM   39  O4  UNL     1      47.371 111.965  57.330  1.00  0.00    -0.271 OA
HETATM   40  C34 UNL     1      45.486 111.106  56.238  1.00  0.00     0.234 C 
HETATM   41  C35 UNL     1      46.111 109.759  56.549  1.00  0.00     0.220 C 
HETATM   42  O6  UNL     1      45.598 109.228  57.761  1.00  0.00    -0.318 OA
ENDROOT
BRANCH  13  43
HETATM   43  C12 UNL     1      34.792 107.186  52.567  1.00  0.00     0.078 A 
HETATM   44  C13 UNL     1      33.497 107.297  53.376  1.00  0.00     0.015 A 
HETATM   45  C14 UNL     1      33.752 108.352  52.398  1.00  0.00     0.015 A 
ENDBRANCH  13  43
BRANCH  40  46
HETATM   46  O5  UNL     1      45.062 111.078  54.904  1.00  0.00    -0.384 OA
ATOM     47  H5  UNL     1      44.994 110.190  54.575  1.00  0.00     0.210 HD
ENDBRANCH  40  46
TORSDOF 2
ENDMDL
MODEL 3
REMARK VINA RESULT: -9.000995669      4.633     13.026
REMARK  2 active torsions:
REMARK  status: ('A' for Active; 'I' for Inactive)
REMARK       I    between atoms: N1_12  and  C11_13 
REMARK    1  A    between atoms: C11_13  and  C12_15 
REMARK    2  A    between atoms: C34_43  and  O5_44 
ROOT
HETATM    1  O1  UNL     1      45.193 106.372  59.132  1.00  0.00    -0.265 OA
HETATM    2  C1  UNL     1      44.873 107.020  58.106  1.00  0.00     0.258 C 
HETATM    3  C2  UNL     1      43.745 106.575  57.259  1.00  0.00     0.111 C 
HETATM    4  C3  UNL     1      42.929 105.529  58.012  1.00  0.00     0.010 C 
HETATM    5  C4  UNL     1      41.609 105.385  57.278  1.00  0.00     0.000 C 
HETATM    6  C5  UNL     1      40.921 104.092  57.578  1.00  0.00     0.000 C 
HETATM    7  C6  UNL     1      40.363 103.496  56.302  1.00  0.00     0.004 C 
HETATM    8  C7  UNL     1      39.139 104.283  55.884  1.00  0.00     0.027 C 
HETATM    9  C8  UNL     1      39.525 105.259  54.820  1.00  0.00    -0.029 C 
HETATM   10  C9  UNL     1      38.877 106.357  54.535  1.00  0.00    -0.011 C 
HETATM   11  C10 UNL     1      37.648 106.853  55.198  1.00  0.00     0.153 C 
HETATM   12  N1  UNL     1      36.422 106.402  54.483  1.00  0.00    -0.335 N 
HETATM   13  C11 UNL     1      35.350 106.044  55.321  1.00  0.00     0.225 C 
HETATM   14  O2  UNL     1      35.560 106.138  56.599  1.00  0.00    -0.273 OA
HETATM   15  C15 UNL     1      36.469 106.383  53.046  1.00  0.00     0.185 C 
HETATM   16  C16 UNL     1      35.815 105.212  52.432  1.00  0.00     0.241 C 
HETATM   17  O3  UNL     1      35.873 104.026  52.808  1.00  0.00    -0.271 OA
HETATM   18  N2  UNL     1      35.084 105.674  51.305  1.00  0.00    -0.359 N 
ATOM     19  H2  UNL     1      34.846 105.131  50.475  1.00  0.00     0.162 HD
HETATM   20  C17 UNL     1      34.737 107.070  51.555  1.00  0.00     0.130 C 
HETATM   21  C18 UNL     1      35.890 107.555  52.357  1.00  0.00     0.036 C 
HETATM   22  C19 UNL     1      35.538 108.700  53.278  1.00  0.00     0.009 C 
HETATM   23  C20 UNL     1      34.856 109.761  52.408  1.00  0.00     0.001 C 
HETATM   24  C21 UNL     1      35.853 110.597  51.658  1.00  0.00     0.000 C 
HETATM   25  C22 UNL     1      36.365 111.774  52.443  1.00  0.00     0.000 C 
HETATM   26  C23 UNL     1      36.566 112.990  51.566  1.00  0.00     0.000 C 
HETATM   27  C24 UNL     1      37.777 112.897  50.694  1.00  0.00     0.000 C 
HETATM   28  C25 UNL     1      39.002 113.554  51.297  1.00  0.00     0.000 C 
HETATM   29  C26 UNL     1      40.151 113.340  50.332  1.00  0.00     0.000 C 
HETATM   30  C27 UNL     1      41.355 114.153  50.759  1.00  0.00     0.000 C 
HETATM   31  C28 UNL     1      41.734 113.775  52.162  1.00  0.00     0.000 C 
HETATM   32  C29 UNL     1      43.240 113.715  52.312  1.00  0.00     0.000 C 
HETATM   33  C30 UNL     1      43.610 114.454  53.589  1.00  0.00     0.002 C 
HETATM   34  C31 UNL     1      44.933 113.951  54.087  1.00  0.00     0.020 C 
HETATM   35  C32 UNL     1      44.720 112.702  54.890  1.00  0.00     0.122 C 
HETATM   36  N3  UNL     1      46.005 112.037  55.115  1.00  0.00    -0.359 N 
ATOM     37  H3  UNL     1      46.836 112.422  54.667  1.00  0.00     0.162 HD
HETATM   38  C33 UNL     1      46.147 110.893  55.921  1.00  0.00     0.248 C 
HETATM   39  O4  UNL     1      47.199 110.782  56.613  1.00  0.00    -0.271 OA
HETATM   40  C34 UNL     1      45.154 109.806  56.019  1.00  0.00     0.234 C 
HETATM   41  C35 UNL     1      45.841 108.508  56.398  1.00  0.00     0.220 C 
HETATM   42  O6  UNL     1      45.565 108.161  57.746  1.00  0.00    -0.318 OA
ENDROOT
BRANCH  13  43
HETATM   43  C12 UNL     1      34.011 105.574  54.967  1.00  0.00     0.078 A 
HETATM   44  C13 UNL     1      32.864 105.924  55.919  1.00  0.00     0.015 A 
HETATM   45  C14 UNL     1      32.976 106.727  54.703  1.00  0.00     0.015 A 
ENDBRANCH  13  43
BRANCH  40  46
HETATM   46  O5  UNL     1      44.493 109.598  54.803  1.00  0.00    -0.384 OA
ATOM     47  H5  UNL     1      44.490 108.680  54.557  1.00  0.00     0.210 HD
ENDBRANCH  40  46
TORSDOF 2
ENDMDL
MODEL 4
REMARK VINA RESULT: -8.876607467      3.637      8.467
REMARK  2 active torsions:
REMARK  status: ('A' for Active; 'I' for Inactive)
REMARK       I    between atoms: N1_12  and  C11_13 
REMARK    1  A    between atoms: C11_13  and  C12_15 
REMARK    2  A    between atoms: C34_43  and  O5_44 
ROOT
HETATM    1  O1  UNL     1      49.285 110.196  55.451  1.00  0.00    -0.265 OA
HETATM    2  C1  UNL     1      48.045 110.066  55.589  1.00  0.00     0.258 C 
HETATM    3  C2  UNL     1      47.134 111.189  55.277  1.00  0.00     0.111 C 
HETATM    4  C3  UNL     1      47.894 112.254  54.494  1.00  0.00     0.010 C 
HETATM    5  C4  UNL     1      46.858 113.183  53.889  1.00  0.00     0.000 C 
HETATM    6  C5  UNL     1      47.423 114.517  53.521  1.00  0.00     0.000 C 
HETATM    7  C6  UNL     1      46.467 115.616  53.936  1.00  0.00     0.004 C 
HETATM    8  C7  UNL     1      45.288 115.629  52.987  1.00  0.00     0.027 C 
HETATM    9  C8  UNL     1      44.143 114.904  53.619  1.00  0.00    -0.029 C 
HETATM   10  C9  UNL     1      43.153 114.351  52.970  1.00  0.00    -0.011 C 
HETATM   11  C10 UNL     1      42.965 114.329  51.500  1.00  0.00     0.153 C 
HETATM   12  N1  UNL     1      42.122 115.467  51.041  1.00  0.00    -0.335 N 
HETATM   13  C11 UNL     1      42.530 116.047  49.825  1.00  0.00     0.225 C 
HETATM   14  O2  UNL     1      43.584 115.534  49.266  1.00  0.00    -0.273 OA
HETATM   15  C15 UNL     1      41.010 115.839  51.871  1.00  0.00     0.185 C 
HETATM   16  C16 UNL     1      40.807 117.294  52.000  1.00  0.00     0.241 C 
HETATM   17  O3  UNL     1      41.678 118.172  52.154  1.00  0.00    -0.271 OA
HETATM   18  N2  UNL     1      39.410 117.540  51.917  1.00  0.00    -0.359 N 
ATOM     19  H2  UNL     1      38.910 118.328  52.327  1.00  0.00     0.162 HD
HETATM   20  C17 UNL     1      38.825 116.455  51.135  1.00  0.00     0.130 C 
HETATM   21  C18 UNL     1      39.691 115.298  51.480  1.00  0.00     0.036 C 
HETATM   22  C19 UNL     1      39.753 114.251  50.393  1.00  0.00     0.009 C 
HETATM   23  C20 UNL     1      38.302 113.899  50.048  1.00  0.00     0.001 C 
HETATM   24  C21 UNL     1      37.712 112.926  51.029  1.00  0.00     0.000 C 
HETATM   25  C22 UNL     1      37.992 111.487  50.692  1.00  0.00     0.000 C 
HETATM   26  C23 UNL     1      36.812 110.596  51.011  1.00  0.00     0.000 C 
HETATM   27  C24 UNL     1      36.641 110.342  52.474  1.00  0.00     0.000 C 
HETATM   28  C25 UNL     1      37.298 109.058  52.941  1.00  0.00     0.000 C 
HETATM   29  C26 UNL     1      37.085 108.959  54.438  1.00  0.00     0.000 C 
HETATM   30  C27 UNL     1      37.522 107.601  54.943  1.00  0.00     0.000 C 
HETATM   31  C28 UNL     1      38.960 107.375  54.573  1.00  0.00     0.000 C 
HETATM   32  C29 UNL     1      39.701 106.687  55.701  1.00  0.00     0.000 C 
HETATM   33  C30 UNL     1      40.518 105.554  55.098  1.00  0.00     0.002 C 
HETATM   34  C31 UNL     1      41.668 105.234  56.007  1.00  0.00     0.020 C 
HETATM   35  C32 UNL     1      42.799 106.178  55.728  1.00  0.00     0.122 C 
HETATM   36  N3  UNL     1      43.794 106.084  56.799  1.00  0.00    -0.359 N 
ATOM     37  H3  UNL     1      43.587 105.491  57.602  1.00  0.00     0.162 HD
HETATM   38  C33 UNL     1      45.019 106.774  56.772  1.00  0.00     0.248 C 
HETATM   39  O4  UNL     1      46.035 106.198  57.256  1.00  0.00    -0.271 OA
HETATM   40  C34 UNL     1      45.208 108.128  56.219  1.00  0.00     0.234 C 
HETATM   41  C35 UNL     1      46.382 108.808  56.899  1.00  0.00     0.220 C 
HETATM   42  O6  UNL     1      47.503 108.875  56.033  1.00  0.00    -0.318 OA
ENDROOT
BRANCH  13  43
HETATM   43  C12 UNL     1      41.939 117.160  49.083  1.00  0.00     0.078 A 
HETATM   44  C13 UNL     1      42.062 117.136  47.556  1.00  0.00     0.015 A 
HETATM   45  C14 UNL     1      40.772 116.738  48.118  1.00  0.00     0.015 A 
ENDBRANCH  13  43
BRANCH  40  46
HETATM   46  O5  UNL     1      44.080 108.932  56.418  1.00  0.00    -0.384 OA
ATOM     47  H5  UNL     1      44.159 109.767  55.972  1.00  0.00     0.210 HD
ENDBRANCH  40  46
TORSDOF 2
ENDMDL
MODEL 5
REMARK VINA RESULT: -8.812793879      2.885      5.999
REMARK  2 active torsions:
REMARK  status: ('A' for Active; 'I' for Inactive)
REMARK       I    between atoms: N1_12  and  C11_13 
REMARK    1  A    between atoms: C11_13  and  C12_15 
REMARK    2  A    between atoms: C34_43  and  O5_44 
ROOT
HETATM    1  O1  UNL     1      36.520 108.528  55.247  1.00  0.00    -0.265 OA
HETATM    2  C1  UNL     1      37.739 108.696  55.004  1.00  0.00     0.258 C 
HETATM    3  C2  UNL     1      38.169 109.625  53.936  1.00  0.00     0.111 C 
HETATM    4  C3  UNL     1      36.991 110.500  53.521  1.00  0.00     0.010 C 
HETATM    5  C4  UNL     1      37.559 111.655  52.718  1.00  0.00     0.000 C 
HETATM    6  C5  UNL     1      36.535 112.309  51.845  1.00  0.00     0.000 C 
HETATM    7  C6  UNL     1      37.125 112.592  50.480  1.00  0.00     0.004 C 
HETATM    8  C7  UNL     1      38.077 113.765  50.587  1.00  0.00     0.027 C 
HETATM    9  C8  UNL     1      39.478 113.252  50.676  1.00  0.00    -0.029 C 
HETATM   10  C9  UNL     1      40.485 113.902  51.196  1.00  0.00    -0.011 C 
HETATM   11  C10 UNL     1      40.447 115.258  51.793  1.00  0.00     0.153 C 
HETATM   12  N1  UNL     1      40.786 116.306  50.791  1.00  0.00    -0.335 N 
HETATM   13  C11 UNL     1      40.031 117.488  50.898  1.00  0.00     0.225 C 
HETATM   14  O2  UNL     1      39.134 117.517  51.837  1.00  0.00    -0.273 OA
HETATM   15  C15 UNL     1      41.825 116.000  49.846  1.00  0.00     0.185 C 
HETATM   16  C16 UNL     1      41.552 116.463  48.472  1.00  0.00     0.241 C 
HETATM   17  O3  UNL     1      40.474 116.403  47.851  1.00  0.00    -0.271 OA
HETATM   18  N2  UNL     1      42.760 117.005  47.957  1.00  0.00    -0.359 N 
ATOM     19  H2  UNL     1      43.028 117.057  46.974  1.00  0.00     0.162 HD
HETATM   20  C17 UNL     1      43.545 117.473  49.095  1.00  0.00     0.130 C 
HETATM   21  C18 UNL     1      43.173 116.514  50.166  1.00  0.00     0.036 C 
HETATM   22  C19 UNL     1      43.297 117.092  51.557  1.00  0.00     0.009 C 
HETATM   23  C20 UNL     1      44.714 117.668  51.660  1.00  0.00     0.001 C 
HETATM   24  C21 UNL     1      45.733 116.604  51.951  1.00  0.00     0.000 C 
HETATM   25  C22 UNL     1      45.897 116.312  53.419  1.00  0.00     0.000 C 
HETATM   26  C23 UNL     1      47.339 116.028  53.777  1.00  0.00     0.000 C 
HETATM   27  C24 UNL     1      47.803 114.677  53.337  1.00  0.00     0.000 C 
HETATM   28  C25 UNL     1      47.685 113.621  54.418  1.00  0.00     0.000 C 
HETATM   29  C26 UNL     1      48.142 112.307  53.818  1.00  0.00     0.000 C 
HETATM   30  C27 UNL     1      48.261 111.250  54.894  1.00  0.00     0.000 C 
HETATM   31  C28 UNL     1      46.939 111.108  55.595  1.00  0.00     0.000 C 
HETATM   32  C29 UNL     1      46.647 109.652  55.895  1.00  0.00     0.000 C 
HETATM   33  C30 UNL     1      46.169 109.562  57.337  1.00  0.00     0.002 C 
HETATM   34  C31 UNL     1      45.340 108.323  57.508  1.00  0.00     0.020 C 
HETATM   35  C32 UNL     1      43.932 108.603  57.074  1.00  0.00     0.122 C 
HETATM   36  N3  UNL     1      43.198 107.343  56.941  1.00  0.00    -0.359 N 
ATOM     37  H3  UNL     1      43.708 106.469  57.069  1.00  0.00     0.162 HD
HETATM   38  C33 UNL     1      41.825 107.281  56.646  1.00  0.00     0.248 C 
HETATM   39  O4  UNL     1      41.142 106.366  57.189  1.00  0.00    -0.271 OA
HETATM   40  C34 UNL     1      41.117 108.209  55.744  1.00  0.00     0.234 C 
HETATM   41  C35 UNL     1      39.902 107.527  55.145  1.00  0.00     0.220 C 
HETATM   42  O6  UNL     1      38.704 108.019  55.724  1.00  0.00    -0.318 OA
ENDROOT
BRANCH  13  43
HETATM   43  C12 UNL     1      40.102 118.712  50.099  1.00  0.00     0.078 A 
HETATM   44  C13 UNL     1      39.636 120.014  50.758  1.00  0.00     0.015 A 
HETATM   45  C14 UNL     1      41.079 119.798  50.678  1.00  0.00     0.015 A 
ENDBRANCH  13  43
BRANCH  40  46
HETATM   46  O5  UNL     1      41.933 108.627  54.687  1.00  0.00    -0.384 OA
ATOM     47  H5  UNL     1      41.798 108.100  53.908  1.00  0.00     0.210 HD
ENDBRANCH  40  46
TORSDOF 2
ENDMDL
