MODEL 1
REMARK VINA RESULT: -10.802689932      0.000      0.000
REMARK  5 active torsions:
REMARK  status: ('A' for Active; 'I' for Inactive)
REMARK    1  A    between atoms: C13_13  and  O1_14 
REMARK    2  A    between atoms: C16_18  and  O2_19 
REMARK    3  A    between atoms: O2_19  and  C17_20 
REMARK       I    between atoms: C17_20  and  N1_22 
REMARK    4  A    between atoms: C24_29  and  O4_30 
REMARK    5  A    between atoms: C27_34  and  C29_36 
ROOT
HETATM    1  C17 UNL     1      38.539 113.000  52.627  1.00  0.00     0.363 C 
HETATM    2  O3  UNL     1      39.753 112.731  52.675  1.00  0.00    -0.238 OA
HETATM    3  N1  UNL     1      37.997 114.170  52.036  1.00  0.00    -0.318 N 
HETATM    4  C18 UNL     1      36.580 114.470  51.966  1.00  0.00     0.133 C 
HETATM    5  C19 UNL     1      36.429 115.210  50.635  1.00  0.00     0.006 C 
HETATM    6  C20 UNL     1      36.046 116.621  50.975  1.00  0.00     0.007 C 
HETATM    7  C21 UNL     1      37.241 117.417  51.378  1.00  0.00     0.008 C 
HETATM    8  C22 UNL     1      38.268 116.602  52.089  1.00  0.00     0.021 C 
HETATM    9  C23 UNL     1      39.496 117.378  52.439  1.00  0.00     0.026 C 
HETATM   10  C24 UNL     1      39.208 118.615  53.243  1.00  0.00     0.123 C 
HETATM   11  C25 UNL     1      40.496 119.042  53.918  1.00  0.00     0.033 C 
HETATM   12  C26 UNL     1      41.704 118.442  53.292  1.00  0.00     0.023 C 
HETATM   13  C27 UNL     1      41.636 118.331  51.776  1.00  0.00     0.049 C 
HETATM   14  C28 UNL     1      42.937 117.608  51.397  1.00  0.00     0.027 C 
HETATM   15  C30 UNL     1      40.415 117.636  51.280  1.00  0.00     0.011 C 
HETATM   16  C31 UNL     1      40.629 116.389  50.503  1.00  0.00     0.009 C 
HETATM   17  C32 UNL     1      40.093 115.140  51.189  1.00  0.00     0.032 C 
HETATM   18  C33 UNL     1      38.630 115.306  51.401  1.00  0.00     0.042 C 
HETATM   19  C34 UNL     1      37.855 115.280  50.075  1.00  0.00     0.038 C 
ENDROOT
BRANCH   1  20
HETATM   20  O2  UNL     1      37.725 112.031  53.218  1.00  0.00    -0.297 OA
BRANCH  20  21
HETATM   21  C16 UNL     1      37.895 110.638  53.077  1.00  0.00     0.150 C 
HETATM   22  C15 UNL     1      36.908 110.031  52.122  1.00  0.00     0.027 C 
HETATM   23  C9  UNL     1      37.442 108.859  51.341  1.00  0.00    -0.034 C 
HETATM   24  C14 UNL     1      35.531 109.842  52.674  1.00  0.00     0.039 C 
HETATM   25  C8  UNL     1      38.635 108.209  51.946  1.00  0.00    -0.001 A 
HETATM   26  C10 UNL     1      37.914 109.289  49.933  1.00  0.00     0.016 C 
HETATM   27  C11 UNL     1      36.415 107.795  51.068  1.00  0.00     0.012 C 
HETATM   28  C6  UNL     1      38.225 107.747  53.354  1.00  0.00    -0.000 A 
HETATM   29  C7  UNL     1      38.769 106.836  52.380  1.00  0.00     0.011 A 
HETATM   30  C4  UNL     1      38.950 108.678  54.257  1.00  0.00    -0.026 C 
HETATM   31  C3  UNL     1      38.909 108.251  55.724  1.00  0.00     0.022 C 
HETATM   32  C5  UNL     1      40.364 108.942  53.914  1.00  0.00     0.016 C 
HETATM   33  C35 UNL     1      38.060 109.914  54.358  1.00  0.00     0.094 C 
HETATM   34  C2  UNL     1      39.245 109.593  56.375  1.00  0.00     0.052 C 
HETATM   35  C1  UNL     1      38.520 109.656  57.690  1.00  0.00     0.018 C 
HETATM   36  C36 UNL     1      38.776 110.627  55.409  1.00  0.00     0.138 C 
HETATM   37  O7  UNL     1      39.000 111.806  55.557  1.00  0.00    -0.297 OA
HETATM   38  C12 UNL     1      35.177 108.484  50.574  1.00  0.00     0.032 C 
HETATM   39  C13 UNL     1      34.582 109.146  51.781  1.00  0.00     0.118 C 
BRANCH  39  40
HETATM   40  O1  UNL     1      33.872 108.135  52.473  1.00  0.00    -0.396 OA
ATOM     41  H1  UNL     1      33.211 107.817  51.869  1.00  0.00     0.210 HD
ENDBRANCH  39  40
ENDBRANCH  20  21
ENDBRANCH   1  20
BRANCH  10  42
HETATM   42  O4  UNL     1      38.762 119.682  52.497  1.00  0.00    -0.395 OA
ATOM     43  H4  UNL     1      39.454 120.197  52.101  1.00  0.00     0.210 HD
ENDBRANCH  10  42
BRANCH  13  44
HETATM   44  C29 UNL     1      41.795 119.714  51.241  1.00  0.00     0.181 C 
HETATM   45  O5  UNL     1      42.757 120.458  51.483  1.00  0.00    -0.647 OA
HETATM   46  O6  UNL     1      40.778 120.189  50.410  1.00  0.00    -0.647 OA
ENDBRANCH  13  44
TORSDOF 5
ENDMDL
MODEL 2
REMARK VINA RESULT: -10.391039000      1.330      1.693
REMARK  5 active torsions:
REMARK  status: ('A' for Active; 'I' for Inactive)
REMARK    1  A    between atoms: C13_13  and  O1_14 
REMARK    2  A    between atoms: C16_18  and  O2_19 
REMARK    3  A    between atoms: O2_19  and  C17_20 
REMARK       I    between atoms: C17_20  and  N1_22 
REMARK    4  A    between atoms: C24_29  and  O4_30 
REMARK    5  A    between atoms: C27_34  and  C29_36 
ROOT
HETATM    1  C17 UNL     1      38.365 111.981  53.624  1.00  0.00     0.363 C 
HETATM    2  O3  UNL     1      39.449 112.178  54.200  1.00  0.00    -0.238 OA
HETATM    3  N1  UNL     1      37.900 112.723  52.508  1.00  0.00    -0.318 N 
HETATM    4  C18 UNL     1      36.643 112.475  51.828  1.00  0.00     0.133 C 
HETATM    5  C19 UNL     1      36.950 112.804  50.366  1.00  0.00     0.006 C 
HETATM    6  C20 UNL     1      36.143 114.025  50.027  1.00  0.00     0.007 C 
HETATM    7  C21 UNL     1      36.806 115.261  50.531  1.00  0.00     0.008 C 
HETATM    8  C22 UNL     1      37.553 115.040  51.803  1.00  0.00     0.021 C 
HETATM    9  C23 UNL     1      38.274 116.259  52.282  1.00  0.00     0.026 C 
HETATM   10  C24 UNL     1      37.378 117.456  52.440  1.00  0.00     0.123 C 
HETATM   11  C25 UNL     1      38.083 118.449  53.342  1.00  0.00     0.033 C 
HETATM   12  C26 UNL     1      39.544 118.197  53.450  1.00  0.00     0.023 C 
HETATM   13  C27 UNL     1      40.200 117.743  52.155  1.00  0.00     0.049 C 
HETATM   14  C28 UNL     1      41.657 117.467  52.553  1.00  0.00     0.027 C 
HETATM   15  C30 UNL     1      39.533 116.569  51.524  1.00  0.00     0.011 C 
HETATM   16  C31 UNL     1      40.355 115.343  51.367  1.00  0.00     0.009 C 
HETATM   17  C32 UNL     1      39.868 114.165  52.200  1.00  0.00     0.032 C 
HETATM   18  C33 UNL     1      38.474 113.842  51.794  1.00  0.00     0.042 C 
HETATM   19  C34 UNL     1      38.416 113.254  50.375  1.00  0.00     0.038 C 
ENDROOT
BRANCH   1  20
HETATM   20  O2  UNL     1      37.617 110.938  54.177  1.00  0.00    -0.297 OA
BRANCH  20  21
HETATM   21  C16 UNL     1      37.680 109.591  53.763  1.00  0.00     0.150 C 
HETATM   22  C15 UNL     1      36.799 109.310  52.580  1.00  0.00     0.027 C 
HETATM   23  C9  UNL     1      37.339 108.261  51.643  1.00  0.00    -0.034 C 
HETATM   24  C14 UNL     1      35.343 109.182  52.894  1.00  0.00     0.039 C 
HETATM   25  C8  UNL     1      38.361 107.365  52.244  1.00  0.00    -0.001 A 
HETATM   26  C10 UNL     1      38.057 108.903  50.434  1.00  0.00     0.016 C 
HETATM   27  C11 UNL     1      36.274 107.404  51.016  1.00  0.00     0.012 C 
HETATM   28  C6  UNL     1      37.702 106.684  53.455  1.00  0.00    -0.000 A 
HETATM   29  C7  UNL     1      38.303 105.928  52.387  1.00  0.00     0.011 A 
HETATM   30  C4  UNL     1      38.361 107.323  54.623  1.00  0.00    -0.026 C 
HETATM   31  C3  UNL     1      38.058 106.621  55.946  1.00  0.00     0.022 C 
HETATM   32  C5  UNL     1      39.828 107.478  54.532  1.00  0.00     0.016 C 
HETATM   33  C35 UNL     1      37.581 108.611  54.870  1.00  0.00     0.094 C 
HETATM   34  C2  UNL     1      38.410 107.755  56.908  1.00  0.00     0.052 C 
HETATM   35  C1  UNL     1      37.502 107.641  58.100  1.00  0.00     0.018 C 
HETATM   36  C36 UNL     1      38.190 109.010  56.133  1.00  0.00     0.138 C 
HETATM   37  O7  UNL     1      38.494 110.100  56.559  1.00  0.00    -0.297 OA
HETATM   38  C12 UNL     1      35.193 108.322  50.524  1.00  0.00     0.032 C 
HETATM   39  C13 UNL     1      34.483 108.796  51.756  1.00  0.00     0.118 C 
BRANCH  39  40
HETATM   40  O1  UNL     1      33.587 107.761  52.117  1.00  0.00    -0.396 OA
ATOM     41  H1  UNL     1      33.134 108.063  52.895  1.00  0.00     0.210 HD
ENDBRANCH  39  40
ENDBRANCH  20  21
ENDBRANCH   1  20
BRANCH  10  42
HETATM   42  O4  UNL     1      37.090 118.104  51.261  1.00  0.00    -0.395 OA
ATOM     43  H4  UNL     1      36.320 117.774  50.813  1.00  0.00     0.210 HD
ENDBRANCH  10  42
BRANCH  13  44
HETATM   44  C29 UNL     1      40.264 118.940  51.268  1.00  0.00     0.181 C 
HETATM   45  O5  UNL     1      40.807 120.014  51.570  1.00  0.00    -0.647 OA
HETATM   46  O6  UNL     1      39.665 118.827  50.011  1.00  0.00    -0.647 OA
ENDBRANCH  13  44
TORSDOF 5
ENDMDL
MODEL 3
REMARK VINA RESULT: -10.107165226      2.052      9.200
REMARK  5 active torsions:
REMARK  status: ('A' for Active; 'I' for Inactive)
REMARK    1  A    between atoms: C13_13  and  O1_14 
REMARK    2  A    between atoms: C16_18  and  O2_19 
REMARK    3  A    between atoms: O2_19  and  C17_20 
REMARK       I    between atoms: C17_20  and  N1_22 
REMARK    4  A    between atoms: C24_29  and  O4_30 
REMARK    5  A    between atoms: C27_34  and  C29_36 
ROOT
HETATM    1  C17 UNL     1      40.389 113.648  51.638  1.00  0.00     0.363 C 
HETATM    2  O3  UNL     1      40.932 113.046  52.581  1.00  0.00    -0.238 OA
HETATM    3  N1  UNL     1      39.023 113.518  51.280  1.00  0.00    -0.318 N 
HETATM    4  C18 UNL     1      38.391 114.238  50.190  1.00  0.00     0.133 C 
HETATM    5  C19 UNL     1      36.967 114.483  50.693  1.00  0.00     0.006 C 
HETATM    6  C20 UNL     1      36.061 113.668  49.815  1.00  0.00     0.007 C 
HETATM    7  C21 UNL     1      36.053 112.238  50.236  1.00  0.00     0.008 C 
HETATM    8  C22 UNL     1      37.365 111.788  50.784  1.00  0.00     0.021 C 
HETATM    9  C23 UNL     1      37.348 110.373  51.267  1.00  0.00     0.026 C 
HETATM   10  C24 UNL     1      36.888 109.394  50.223  1.00  0.00     0.123 C 
HETATM   11  C25 UNL     1      37.346 108.013  50.647  1.00  0.00     0.033 C 
HETATM   12  C26 UNL     1      37.697 107.937  52.090  1.00  0.00     0.023 C 
HETATM   13  C27 UNL     1      36.793 108.756  52.999  1.00  0.00     0.049 C 
HETATM   14  C28 UNL     1      37.414 108.584  54.393  1.00  0.00     0.027 C 
HETATM   15  C30 UNL     1      36.660 110.182  52.589  1.00  0.00     0.011 C 
HETATM   16  C31 UNL     1      37.125 111.200  53.564  1.00  0.00     0.009 C 
HETATM   17  C32 UNL     1      38.327 112.003  53.087  1.00  0.00     0.032 C 
HETATM   18  C33 UNL     1      37.961 112.704  51.828  1.00  0.00     0.042 C 
HETATM   19  C34 UNL     1      36.931 113.817  52.074  1.00  0.00     0.038 C 
ENDROOT
BRANCH   1  20
HETATM   20  O2  UNL     1      41.256 114.490  50.936  1.00  0.00    -0.297 OA
BRANCH  20  21
HETATM   21  C16 UNL     1      41.381 115.879  51.148  1.00  0.00     0.150 C 
HETATM   22  C15 UNL     1      40.141 116.634  50.764  1.00  0.00     0.027 C 
HETATM   23  C9  UNL     1      39.869 117.850  51.611  1.00  0.00    -0.034 C 
HETATM   24  C14 UNL     1      39.958 116.839  49.294  1.00  0.00     0.039 C 
HETATM   25  C8  UNL     1      41.055 118.368  52.343  1.00  0.00    -0.001 A 
HETATM   26  C10 UNL     1      38.839 117.542  52.723  1.00  0.00     0.016 C 
HETATM   27  C11 UNL     1      39.250 118.990  50.852  1.00  0.00     0.012 C 
HETATM   28  C6  UNL     1      42.120 118.704  51.285  1.00  0.00    -0.000 A 
HETATM   29  C7  UNL     1      41.655 119.679  52.237  1.00  0.00     0.011 A 
HETATM   30  C4  UNL     1      43.147 117.647  51.469  1.00  0.00    -0.026 C 
HETATM   31  C3  UNL     1      44.440 117.921  50.702  1.00  0.00     0.022 C 
HETATM   32  C5  UNL     1      43.520 117.343  52.867  1.00  0.00     0.016 C 
HETATM   33  C35 UNL     1      42.650 116.457  50.651  1.00  0.00     0.094 C 
HETATM   34  C2  UNL     1      45.011 116.504  50.675  1.00  0.00     0.052 C 
HETATM   35  C1  UNL     1      45.778 116.345  49.393  1.00  0.00     0.018 C 
HETATM   36  C36 UNL     1      43.826 115.601  50.753  1.00  0.00     0.138 C 
HETATM   37  O7  UNL     1      43.928 114.403  50.879  1.00  0.00    -0.297 OA
HETATM   38  C12 UNL     1      38.132 118.424  50.026  1.00  0.00     0.032 C 
HETATM   39  C13 UNL     1      38.801 117.675  48.913  1.00  0.00     0.118 C 
BRANCH  39  40
HETATM   40  O1  UNL     1      39.163 118.646  47.948  1.00  0.00    -0.396 OA
ATOM     41  H1  UNL     1      39.749 118.209  47.341  1.00  0.00     0.210 HD
ENDBRANCH  39  40
ENDBRANCH  20  21
ENDBRANCH   1  20
BRANCH  10  42
HETATM   42  O4  UNL     1      35.523 109.343  50.059  1.00  0.00    -0.395 OA
ATOM     43  H4  UNL     1      35.236 109.417  49.157  1.00  0.00     0.210 HD
ENDBRANCH  10  42
BRANCH  13  44
HETATM   44  C29 UNL     1      35.491 108.031  53.068  1.00  0.00     0.181 C 
HETATM   45  O5  UNL     1      35.347 106.877  53.499  1.00  0.00    -0.647 OA
HETATM   46  O6  UNL     1      34.363 108.716  52.609  1.00  0.00    -0.647 OA
ENDBRANCH  13  44
TORSDOF 5
ENDMDL
MODEL 4
REMARK VINA RESULT: -10.096601164      2.318      9.039
REMARK  5 active torsions:
REMARK  status: ('A' for Active; 'I' for Inactive)
REMARK    1  A    between atoms: C13_13  and  O1_14 
REMARK    2  A    between atoms: C16_18  and  O2_19 
REMARK    3  A    between atoms: O2_19  and  C17_20 
REMARK       I    between atoms: C17_20  and  N1_22 
REMARK    4  A    between atoms: C24_29  and  O4_30 
REMARK    5  A    between atoms: C27_34  and  C29_36 
ROOT
HETATM    1  C17 UNL     1      40.869 112.966  51.976  1.00  0.00     0.363 C 
HETATM    2  O3  UNL     1      41.218 112.284  52.956  1.00  0.00    -0.238 OA
HETATM    3  N1  UNL     1      39.532 113.090  51.517  1.00  0.00    -0.318 N 
HETATM    4  C18 UNL     1      39.128 113.901  50.385  1.00  0.00     0.133 C 
HETATM    5  C19 UNL     1      37.743 114.415  50.782  1.00  0.00     0.006 C 
HETATM    6  C20 UNL     1      36.766 113.774  49.838  1.00  0.00     0.007 C 
HETATM    7  C21 UNL     1      36.459 112.376  50.255  1.00  0.00     0.008 C 
HETATM    8  C22 UNL     1      37.620 111.694  50.898  1.00  0.00     0.021 C 
HETATM    9  C23 UNL     1      37.301 110.315  51.376  1.00  0.00     0.026 C 
HETATM   10  C24 UNL     1      36.744 109.426  50.299  1.00  0.00     0.123 C 
HETATM   11  C25 UNL     1      36.902 107.989  50.754  1.00  0.00     0.033 C 
HETATM   12  C26 UNL     1      37.126 107.867  52.219  1.00  0.00     0.023 C 
HETATM   13  C27 UNL     1      36.328 108.851  53.061  1.00  0.00     0.049 C 
HETATM   14  C28 UNL     1      36.803 108.584  54.496  1.00  0.00     0.027 C 
HETATM   15  C30 UNL     1      36.496 110.272  52.643  1.00  0.00     0.011 C 
HETATM   16  C31 UNL     1      37.071 111.197  53.652  1.00  0.00     0.009 C 
HETATM   17  C32 UNL     1      38.434 111.754  53.266  1.00  0.00     0.032 C 
HETATM   18  C33 UNL     1      38.299 112.496  51.984  1.00  0.00     0.042 C 
HETATM   19  C34 UNL     1      37.481 113.785  52.156  1.00  0.00     0.038 C 
ENDROOT
BRANCH   1  20
HETATM   20  O2  UNL     1      41.927 113.621  51.341  1.00  0.00    -0.297 OA
BRANCH  20  21
HETATM   21  C16 UNL     1      42.228 114.992  51.482  1.00  0.00     0.150 C 
HETATM   22  C15 UNL     1      41.400 115.860  50.578  1.00  0.00     0.027 C 
HETATM   23  C9  UNL     1      41.067 117.212  51.153  1.00  0.00    -0.034 C 
HETATM   24  C14 UNL     1      41.834 115.875  49.147  1.00  0.00     0.039 C 
HETATM   25  C8  UNL     1      41.962 117.648  52.258  1.00  0.00    -0.001 A 
HETATM   26  C10 UNL     1      39.653 117.225  51.778  1.00  0.00     0.016 C 
HETATM   27  C11 UNL     1      41.018 118.310  50.127  1.00  0.00     0.012 C 
HETATM   28  C6  UNL     1      43.392 117.665  51.694  1.00  0.00    -0.000 A 
HETATM   29  C7  UNL     1      42.799 118.826  52.304  1.00  0.00     0.011 A 
HETATM   30  C4  UNL     1      44.046 116.505  52.351  1.00  0.00    -0.026 C 
HETATM   31  C3  UNL     1      45.560 116.470  52.149  1.00  0.00     0.022 C 
HETATM   32  C5  UNL     1      43.792 116.355  53.800  1.00  0.00     0.016 C 
HETATM   33  C35 UNL     1      43.678 115.297  51.494  1.00  0.00     0.094 C 
HETATM   34  C2  UNL     1      45.811 114.995  52.458  1.00  0.00     0.052 C 
HETATM   35  C1  UNL     1      46.963 114.539  51.606  1.00  0.00     0.018 C 
HETATM   36  C36 UNL     1      44.536 114.299  52.122  1.00  0.00     0.138 C 
HETATM   37  O7  UNL     1      44.347 113.130  52.366  1.00  0.00    -0.297 OA
HETATM   38  C12 UNL     1      40.212 117.803  48.967  1.00  0.00     0.032 C 
HETATM   39  C13 UNL     1      41.096 116.809  48.273  1.00  0.00     0.118 C 
BRANCH  39  40
HETATM   40  O1  UNL     1      41.979 117.565  47.465  1.00  0.00    -0.396 OA
ATOM     41  H1  UNL     1      41.558 117.645  46.618  1.00  0.00     0.210 HD
ENDBRANCH  39  40
ENDBRANCH  20  21
ENDBRANCH   1  20
BRANCH  10  42
HETATM   42  O4  UNL     1      35.409 109.630  50.035  1.00  0.00    -0.395 OA
ATOM     43  H4  UNL     1      35.218 110.454  49.603  1.00  0.00     0.210 HD
ENDBRANCH  10  42
BRANCH  13  44
HETATM   44  C29 UNL     1      34.912 108.384  53.031  1.00  0.00     0.181 C 
HETATM   45  O5  UNL     1      34.516 107.300  53.485  1.00  0.00    -0.647 OA
HETATM   46  O6  UNL     1      33.977 109.243  52.448  1.00  0.00    -0.647 OA
ENDBRANCH  13  44
TORSDOF 5
ENDMDL
MODEL 5
REMARK VINA RESULT: -9.993964341      3.615      9.001
REMARK  5 active torsions:
REMARK  status: ('A' for Active; 'I' for Inactive)
REMARK    1  A    between atoms: C13_13  and  O1_14 
REMARK    2  A    between atoms: C16_18  and  O2_19 
REMARK    3  A    between atoms: O2_19  and  C17_20 
REMARK       I    between atoms: C17_20  and  N1_22 
REMARK    4  A    between atoms: C24_29  and  O4_30 
REMARK    5  A    between atoms: C27_34  and  C29_36 
ROOT
HETATM    1  C17 UNL     1      40.900 110.245  54.025  1.00  0.00     0.363 C 
HETATM    2  O3  UNL     1      40.951 109.136  54.585  1.00  0.00    -0.238 OA
HETATM    3  N1  UNL     1      39.721 110.817  53.481  1.00  0.00    -0.318 N 
HETATM    4  C18 UNL     1      39.663 112.120  52.845  1.00  0.00     0.133 C 
HETATM    5  C19 UNL     1      38.275 112.645  53.217  1.00  0.00     0.006 C 
HETATM    6  C20 UNL     1      37.489 112.709  51.939  1.00  0.00     0.007 C 
HETATM    7  C21 UNL     1      36.970 111.364  51.562  1.00  0.00     0.008 C 
HETATM    8  C22 UNL     1      37.886 110.257  51.961  1.00  0.00     0.021 C 
HETATM    9  C23 UNL     1      37.345 108.900  51.644  1.00  0.00     0.026 C 
HETATM   10  C24 UNL     1      36.973 108.732  50.197  1.00  0.00     0.123 C 
HETATM   11  C25 UNL     1      36.893 107.247  49.906  1.00  0.00     0.033 C 
HETATM   12  C26 UNL     1      36.762 106.423  51.137  1.00  0.00     0.023 C 
HETATM   13  C27 UNL     1      35.883 107.039  52.214  1.00  0.00     0.049 C 
HETATM   14  C28 UNL     1      35.988 106.055  53.388  1.00  0.00     0.027 C 
HETATM   15  C30 UNL     1      36.268 108.431  52.580  1.00  0.00     0.011 C 
HETATM   16  C31 UNL     1      36.675 108.659  53.990  1.00  0.00     0.009 C 
HETATM   17  C32 UNL     1      38.135 109.061  54.149  1.00  0.00     0.032 C 
HETATM   18  C33 UNL     1      38.365 110.321  53.393  1.00  0.00     0.042 C 
HETATM   19  C34 UNL     1      37.648 111.515  54.043  1.00  0.00     0.038 C 
ENDROOT
BRANCH   1  20
HETATM   20  O2  UNL     1      42.130 110.906  53.971  1.00  0.00    -0.297 OA
BRANCH  20  21
HETATM   21  C16 UNL     1      42.781 111.491  55.077  1.00  0.00     0.150 C 
HETATM   22  C15 UNL     1      42.063 111.234  56.370  1.00  0.00     0.027 C 
HETATM   23  C9  UNL     1      42.971 111.100  57.566  1.00  0.00    -0.034 C 
HETATM   24  C14 UNL     1      40.848 112.075  56.595  1.00  0.00     0.039 C 
HETATM   25  C8  UNL     1      44.322 111.692  57.382  1.00  0.00    -0.001 A 
HETATM   26  C10 UNL     1      43.246 109.616  57.900  1.00  0.00     0.016 C 
HETATM   27  C11 UNL     1      42.384 111.653  58.835  1.00  0.00     0.012 C 
HETATM   28  C6  UNL     1      44.116 113.180  57.053  1.00  0.00    -0.000 A 
HETATM   29  C7  UNL     1      44.937 112.748  58.155  1.00  0.00     0.011 A 
HETATM   30  C4  UNL     1      44.473 113.279  55.615  1.00  0.00    -0.026 C 
HETATM   31  C3  UNL     1      44.600 114.719  55.121  1.00  0.00     0.022 C 
HETATM   32  C5  UNL     1      45.699 112.561  55.202  1.00  0.00     0.016 C 
HETATM   33  C35 UNL     1      43.204 112.894  54.859  1.00  0.00     0.094 C 
HETATM   34  C2  UNL     1      44.445 114.474  53.620  1.00  0.00     0.052 C 
HETATM   35  C1  UNL     1      43.759 115.673  53.030  1.00  0.00     0.018 C 
HETATM   36  C36 UNL     1      43.632 113.230  53.506  1.00  0.00     0.138 C 
HETATM   37  O7  UNL     1      43.425 112.681  52.449  1.00  0.00    -0.297 OA
HETATM   38  C12 UNL     1      40.977 111.141  58.939  1.00  0.00     0.032 C 
HETATM   39  C13 UNL     1      40.199 111.908  57.912  1.00  0.00     0.118 C 
BRANCH  39  40
HETATM   40  O1  UNL     1      39.899 113.160  58.501  1.00  0.00    -0.396 OA
ATOM     41  H1  UNL     1      39.795 113.772  57.781  1.00  0.00     0.210 HD
ENDBRANCH  39  40
ENDBRANCH  20  21
ENDBRANCH   1  20
BRANCH  10  42
HETATM   42  O4  UNL     1      35.759 109.284  49.858  1.00  0.00    -0.395 OA
ATOM     43  H4  UNL     1      35.016 108.713  50.011  1.00  0.00     0.210 HD
ENDBRANCH  10  42
BRANCH  13  44
HETATM   44  C29 UNL     1      34.475 106.917  51.735  1.00  0.00     0.181 C 
HETATM   45  O5  UNL     1      33.975 105.880  51.273  1.00  0.00    -0.647 OA
HETATM   46  O6  UNL     1      33.678 108.061  51.821  1.00  0.00    -0.647 OA
ENDBRANCH  13  44
TORSDOF 5
ENDMDL
