MODEL 1
REMARK VINA RESULT: -8.424204891      0.000      0.000
REMARK  7 active torsions:
REMARK  status: ('A' for Active; 'I' for Inactive)
REMARK    1  A    between atoms: C2_2  and  C3_4 
REMARK    2  A    between atoms: C3_4  and  N1_5 
REMARK    3  A    between atoms: C3_4  and  C18_27 
REMARK       I    between atoms: N1_5  and  C4_7 
REMARK    4  A    between atoms: C4_7  and  C5_9 
REMARK    5  A    between atoms: C8_12  and  N2_13 
REMARK    6  A    between atoms: N2_13  and  S1_15 
REMARK    7  A    between atoms: S1_15  and  C10_18 
ROOT
HETATM    1  C5  UNL     1      -4.016  10.278  19.254  1.00  0.00     0.032 A 
HETATM    2  C6  UNL     1      -3.338  11.439  18.953  1.00  0.00     0.019 A 
HETATM    3  C7  UNL     1      -2.633  12.091  19.919  1.00  0.00     0.031 A 
HETATM    4  C8  UNL     1      -2.570  11.619  21.230  1.00  0.00     0.044 A 
HETATM    5  C16 UNL     1      -3.242  10.469  21.532  1.00  0.00     0.031 A 
HETATM    6  C17 UNL     1      -3.958   9.809  20.539  1.00  0.00     0.019 A 
ENDROOT
BRANCH   4   7
HETATM    7  N2  UNL     1      -1.840  12.291  22.241  1.00  0.00    -0.276 N 
HETATM    8  C9  UNL     1      -2.278  13.610  22.641  1.00  0.00     0.170 C 
BRANCH   7   9
HETATM    9  S1  UNL     1      -0.479  11.532  22.952  1.00  0.00     0.264 S 
HETATM   10  O3  UNL     1       0.190  10.727  21.867  1.00  0.00    -0.200 OA
HETATM   11  O4  UNL     1       0.477  12.595  23.409  1.00  0.00    -0.200 OA
BRANCH   9  12
HETATM   12  C10 UNL     1      -0.914  10.530  24.304  1.00  0.00     0.080 A 
HETATM   13  C11 UNL     1      -0.234   9.366  24.584  1.00  0.00     0.027 A 
HETATM   14  C12 UNL     1      -0.588   8.564  25.674  1.00  0.00     0.020 A 
HETATM   15  C13 UNL     1      -1.625   8.931  26.483  1.00  0.00     0.011 A 
HETATM   16 BR1  UNL     1      -2.092   7.818  27.970  1.00  0.00    -0.051 Br
HETATM   17  C14 UNL     1      -2.311  10.097  26.210  1.00  0.00     0.020 A 
HETATM   18  C15 UNL     1      -1.956  10.882  25.133  1.00  0.00     0.027 A 
ENDBRANCH   9  12
ENDBRANCH   7   9
ENDBRANCH   4   7
BRANCH   1  19
HETATM   19  C4  UNL     1      -4.773   9.567  18.210  1.00  0.00     0.252 C 
HETATM   20  N1  UNL     1      -5.345   8.310  18.450  1.00  0.00    -0.339 N 
ATOM     21  H1  UNL     1      -5.223   7.902  19.376  1.00  0.00     0.164 HD
HETATM   22  O2  UNL     1      -4.879  10.137  17.103  1.00  0.00    -0.268 OA
BRANCH  20  23
HETATM   23  C3  UNL     1      -6.103   7.546  17.468  1.00  0.00     0.223 C 
BRANCH  23  24
HETATM   24  C2  UNL     1      -5.990   6.101  17.693  1.00  0.00     0.152 C 
HETATM   25  C1  UNL     1      -7.029   5.080  17.472  1.00  0.00     0.093 C 
HETATM   26  O1  UNL     1      -4.902   5.656  18.119  1.00  0.00    -0.296 OA
ENDBRANCH  23  24
BRANCH  23  27
HETATM   27  C18 UNL     1      -7.510   7.993  17.412  1.00  0.00     0.152 C 
HETATM   28  C19 UNL     1      -8.261   8.082  16.148  1.00  0.00     0.093 C 
HETATM   29  O5  UNL     1      -8.118   8.314  18.438  1.00  0.00    -0.296 OA
ENDBRANCH  23  27
ENDBRANCH  20  23
ENDBRANCH   1  19
TORSDOF 7
ENDMDL
MODEL 2
REMARK VINA RESULT: -8.217124674      1.005      1.915
REMARK  7 active torsions:
REMARK  status: ('A' for Active; 'I' for Inactive)
REMARK    1  A    between atoms: C2_2  and  C3_4 
REMARK    2  A    between atoms: C3_4  and  N1_5 
REMARK    3  A    between atoms: C3_4  and  C18_27 
REMARK       I    between atoms: N1_5  and  C4_7 
REMARK    4  A    between atoms: C4_7  and  C5_9 
REMARK    5  A    between atoms: C8_12  and  N2_13 
REMARK    6  A    between atoms: N2_13  and  S1_15 
REMARK    7  A    between atoms: S1_15  and  C10_18 
ROOT
HETATM    1  C5  UNL     1      -4.829  10.046  20.359  1.00  0.00     0.032 A 
HETATM    2  C6  UNL     1      -3.503   9.816  20.063  1.00  0.00     0.019 A 
HETATM    3  C7  UNL     1      -2.530  10.571  20.646  1.00  0.00     0.031 A 
HETATM    4  C8  UNL     1      -2.830  11.590  21.549  1.00  0.00     0.044 A 
HETATM    5  C16 UNL     1      -4.144  11.821  21.844  1.00  0.00     0.031 A 
HETATM    6  C17 UNL     1      -5.131  11.045  21.246  1.00  0.00     0.019 A 
ENDROOT
BRANCH   4   7
HETATM    7  N2  UNL     1      -1.826  12.381  22.159  1.00  0.00    -0.276 N 
HETATM    8  C9  UNL     1      -1.983  13.819  22.145  1.00  0.00     0.170 C 
BRANCH   7   9
HETATM    9  S1  UNL     1      -0.473  11.623  22.885  1.00  0.00     0.264 S 
HETATM   10  O3  UNL     1       0.208  10.817  21.810  1.00  0.00    -0.200 OA
HETATM   11  O4  UNL     1       0.478  12.687  23.352  1.00  0.00    -0.200 OA
BRANCH   9  12
HETATM   12  C10 UNL     1      -0.923  10.622  24.234  1.00  0.00     0.080 A 
HETATM   13  C11 UNL     1      -0.252   9.454  24.517  1.00  0.00     0.027 A 
HETATM   14  C12 UNL     1      -0.619   8.653  25.603  1.00  0.00     0.020 A 
HETATM   15  C13 UNL     1      -1.660   9.026  26.406  1.00  0.00     0.011 A 
HETATM   16 BR1  UNL     1      -2.143   7.913  27.889  1.00  0.00    -0.051 Br
HETATM   17  C14 UNL     1      -2.336  10.195  26.130  1.00  0.00     0.020 A 
HETATM   18  C15 UNL     1      -1.969  10.980  25.056  1.00  0.00     0.027 A 
ENDBRANCH   9  12
ENDBRANCH   7   9
ENDBRANCH   4   7
BRANCH   1  19
HETATM   19  C4  UNL     1      -5.882   9.226  19.737  1.00  0.00     0.252 C 
HETATM   20  N1  UNL     1      -5.570   8.175  18.863  1.00  0.00    -0.339 N 
ATOM     21  H1  UNL     1      -4.585   7.994  18.672  1.00  0.00     0.164 HD
HETATM   22  O2  UNL     1      -7.064   9.512  20.026  1.00  0.00    -0.268 OA
BRANCH  20  23
HETATM   23  C3  UNL     1      -6.555   7.325  18.209  1.00  0.00     0.223 C 
BRANCH  23  24
HETATM   24  C2  UNL     1      -6.975   7.870  16.913  1.00  0.00     0.152 C 
HETATM   25  C1  UNL     1      -8.339   8.243  16.503  1.00  0.00     0.093 C 
HETATM   26  O1  UNL     1      -6.099   8.049  16.039  1.00  0.00    -0.296 OA
ENDBRANCH  23  24
BRANCH  23  27
HETATM   27  C18 UNL     1      -6.071   5.934  18.098  1.00  0.00     0.152 C 
HETATM   28  C19 UNL     1      -6.982   4.794  17.894  1.00  0.00     0.093 C 
HETATM   29  O5  UNL     1      -4.867   5.670  18.174  1.00  0.00    -0.296 OA
ENDBRANCH  23  27
ENDBRANCH  20  23
ENDBRANCH   1  19
TORSDOF 7
ENDMDL
MODEL 3
REMARK VINA RESULT: -8.153720574      1.470      2.182
REMARK  7 active torsions:
REMARK  status: ('A' for Active; 'I' for Inactive)
REMARK    1  A    between atoms: C2_2  and  C3_4 
REMARK    2  A    between atoms: C3_4  and  N1_5 
REMARK    3  A    between atoms: C3_4  and  C18_27 
REMARK       I    between atoms: N1_5  and  C4_7 
REMARK    4  A    between atoms: C4_7  and  C5_9 
REMARK    5  A    between atoms: C8_12  and  N2_13 
REMARK    6  A    between atoms: N2_13  and  S1_15 
REMARK    7  A    between atoms: S1_15  and  C10_18 
ROOT
HETATM    1  C5  UNL     1      -5.022  10.083  20.576  1.00  0.00     0.032 A 
HETATM    2  C6  UNL     1      -5.294  11.246  21.263  1.00  0.00     0.019 A 
HETATM    3  C7  UNL     1      -4.282  12.092  21.603  1.00  0.00     0.031 A 
HETATM    4  C8  UNL     1      -2.954  11.820  21.279  1.00  0.00     0.044 A 
HETATM    5  C16 UNL     1      -2.681  10.667  20.598  1.00  0.00     0.031 A 
HETATM    6  C17 UNL     1      -3.720   9.809  20.253  1.00  0.00     0.019 A 
ENDROOT
BRANCH   4   7
HETATM    7  N2  UNL     1      -1.894  12.693  21.630  1.00  0.00    -0.276 N 
HETATM    8  C9  UNL     1      -1.997  14.083  21.245  1.00  0.00     0.170 C 
BRANCH   7   9
HETATM    9  S1  UNL     1      -0.543  12.086  22.488  1.00  0.00     0.264 S 
HETATM   10  O3  UNL     1       0.278  11.290  21.507  1.00  0.00    -0.200 OA
HETATM   11  O4  UNL     1       0.283  13.247  22.963  1.00  0.00    -0.200 OA
BRANCH   9  12
HETATM   12  C10 UNL     1      -1.010  11.116  23.853  1.00  0.00     0.080 A 
HETATM   13  C11 UNL     1      -0.435   9.888  24.092  1.00  0.00     0.027 A 
HETATM   14  C12 UNL     1      -0.815   9.112  25.192  1.00  0.00     0.020 A 
HETATM   15  C13 UNL     1      -1.771   9.570  26.053  1.00  0.00     0.011 A 
HETATM   16 BR1  UNL     1      -2.274   8.491  27.554  1.00  0.00    -0.051 Br
HETATM   17  C14 UNL     1      -2.350  10.800  25.822  1.00  0.00     0.020 A 
HETATM   18  C15 UNL     1      -1.971  11.559  24.734  1.00  0.00     0.027 A 
ENDBRANCH   9  12
ENDBRANCH   7   9
ENDBRANCH   4   7
BRANCH   1  19
HETATM   19  C4  UNL     1      -6.115   9.170  20.198  1.00  0.00     0.252 C 
HETATM   20  N1  UNL     1      -5.991   8.290  19.114  1.00  0.00    -0.339 N 
ATOM     21  H1  UNL     1      -5.115   8.300  18.593  1.00  0.00     0.164 HD
HETATM   22  O2  UNL     1      -7.155   9.218  20.890  1.00  0.00    -0.268 OA
BRANCH  20  23
HETATM   23  C3  UNL     1      -7.027   7.363  18.680  1.00  0.00     0.223 C 
BRANCH  23  24
HETATM   24  C2  UNL     1      -7.797   7.892  17.549  1.00  0.00     0.152 C 
HETATM   25  C1  UNL     1      -8.359   9.246  17.409  1.00  0.00     0.093 C 
HETATM   26  O1  UNL     1      -8.015   7.132  16.580  1.00  0.00    -0.296 OA
ENDBRANCH  23  24
BRANCH  23  27
HETATM   27  C18 UNL     1      -6.464   6.027  18.395  1.00  0.00     0.152 C 
HETATM   28  C19 UNL     1      -5.081   5.837  17.920  1.00  0.00     0.093 C 
HETATM   29  O5  UNL     1      -7.140   5.005  18.545  1.00  0.00    -0.296 OA
ENDBRANCH  23  27
ENDBRANCH  20  23
ENDBRANCH   1  19
TORSDOF 7
ENDMDL
MODEL 4
REMARK VINA RESULT: -7.844602685      1.654      2.536
REMARK  7 active torsions:
REMARK  status: ('A' for Active; 'I' for Inactive)
REMARK    1  A    between atoms: C2_2  and  C3_4 
REMARK    2  A    between atoms: C3_4  and  N1_5 
REMARK    3  A    between atoms: C3_4  and  C18_27 
REMARK       I    between atoms: N1_5  and  C4_7 
REMARK    4  A    between atoms: C4_7  and  C5_9 
REMARK    5  A    between atoms: C8_12  and  N2_13 
REMARK    6  A    between atoms: N2_13  and  S1_15 
REMARK    7  A    between atoms: S1_15  and  C10_18 
ROOT
HETATM    1  C5  UNL     1      -4.588  10.260  20.267  1.00  0.00     0.032 A 
HETATM    2  C6  UNL     1      -3.316   9.737  20.342  1.00  0.00     0.019 A 
HETATM    3  C7  UNL     1      -2.247  10.561  20.529  1.00  0.00     0.031 A 
HETATM    4  C8  UNL     1      -2.394  11.942  20.648  1.00  0.00     0.044 A 
HETATM    5  C16 UNL     1      -3.655  12.463  20.574  1.00  0.00     0.031 A 
HETATM    6  C17 UNL     1      -4.741  11.615  20.385  1.00  0.00     0.019 A 
ENDROOT
BRANCH   4   7
HETATM    7  N2  UNL     1      -1.289  12.808  20.842  1.00  0.00    -0.276 N 
HETATM    8  C9  UNL     1      -0.459  13.125  19.700  1.00  0.00     0.170 C 
BRANCH   7   9
HETATM    9  S1  UNL     1      -0.971  13.443  22.400  1.00  0.00     0.264 S 
HETATM   10  O3  UNL     1       0.476  13.862  22.416  1.00  0.00    -0.200 OA
HETATM   11  O4  UNL     1      -1.819  14.666  22.600  1.00  0.00    -0.200 OA
BRANCH   9  12
HETATM   12  C10 UNL     1      -1.310  12.296  23.662  1.00  0.00     0.080 A 
HETATM   13  C11 UNL     1      -0.432  11.279  23.963  1.00  0.00     0.027 A 
HETATM   14  C12 UNL     1      -0.711  10.360  24.979  1.00  0.00     0.020 A 
HETATM   15  C13 UNL     1      -1.870  10.461  25.694  1.00  0.00     0.011 A 
HETATM   16 BR1  UNL     1      -2.230   9.191  27.082  1.00  0.00    -0.051 Br
HETATM   17  C14 UNL     1      -2.754  11.478  25.399  1.00  0.00     0.020 A 
HETATM   18  C15 UNL     1      -2.473  12.381  24.394  1.00  0.00     0.027 A 
ENDBRANCH   9  12
ENDBRANCH   7   9
ENDBRANCH   4   7
BRANCH   1  19
HETATM   19  C4  UNL     1      -5.747   9.371  20.073  1.00  0.00     0.252 C 
HETATM   20  N1  UNL     1      -5.802   8.464  19.005  1.00  0.00    -0.339 N 
ATOM     21  H1  UNL     1      -5.009   8.438  18.364  1.00  0.00     0.164 HD
HETATM   22  O2  UNL     1      -6.675   9.463  20.905  1.00  0.00    -0.268 OA
BRANCH  20  23
HETATM   23  C3  UNL     1      -6.912   7.557  18.747  1.00  0.00     0.223 C 
BRANCH  23  24
HETATM   24  C2  UNL     1      -7.801   8.065  17.697  1.00  0.00     0.152 C 
HETATM   25  C1  UNL     1      -8.037   7.476  16.367  1.00  0.00     0.093 C 
HETATM   26  O1  UNL     1      -8.443   9.112  17.927  1.00  0.00    -0.296 OA
ENDBRANCH  23  24
BRANCH  23  27
HETATM   27  C18 UNL     1      -6.430   6.191  18.458  1.00  0.00     0.152 C 
HETATM   28  C19 UNL     1      -5.077   5.923  17.940  1.00  0.00     0.093 C 
HETATM   29  O5  UNL     1      -7.155   5.208  18.641  1.00  0.00    -0.296 OA
ENDBRANCH  23  27
ENDBRANCH  20  23
ENDBRANCH   1  19
TORSDOF 7
ENDMDL
MODEL 5
REMARK VINA RESULT: -7.780005757      1.699      2.150
REMARK  7 active torsions:
REMARK  status: ('A' for Active; 'I' for Inactive)
REMARK    1  A    between atoms: C2_2  and  C3_4 
REMARK    2  A    between atoms: C3_4  and  N1_5 
REMARK    3  A    between atoms: C3_4  and  C18_27 
REMARK       I    between atoms: N1_5  and  C4_7 
REMARK    4  A    between atoms: C4_7  and  C5_9 
REMARK    5  A    between atoms: C8_12  and  N2_13 
REMARK    6  A    between atoms: N2_13  and  S1_15 
REMARK    7  A    between atoms: S1_15  and  C10_18 
ROOT
HETATM    1  C5  UNL     1      -3.876  10.434  19.800  1.00  0.00     0.032 A 
HETATM    2  C6  UNL     1      -2.974   9.675  20.513  1.00  0.00     0.019 A 
HETATM    3  C7  UNL     1      -2.404  10.172  21.646  1.00  0.00     0.031 A 
HETATM    4  C8  UNL     1      -2.703  11.448  22.122  1.00  0.00     0.044 A 
HETATM    5  C16 UNL     1      -3.597  12.204  21.417  1.00  0.00     0.031 A 
HETATM    6  C17 UNL     1      -4.175  11.688  20.262  1.00  0.00     0.019 A 
ENDROOT
BRANCH   4   7
HETATM    7  N2  UNL     1      -2.115  11.974  23.299  1.00  0.00    -0.276 N 
HETATM    8  C9  UNL     1      -0.901  12.750  23.170  1.00  0.00     0.170 C 
BRANCH   7   9
HETATM    9  S1  UNL     1      -2.848  11.681  24.818  1.00  0.00     0.264 S 
HETATM   10  O3  UNL     1      -2.618  12.909  25.660  1.00  0.00    -0.200 OA
HETATM   11  O4  UNL     1      -4.327  11.519  24.613  1.00  0.00    -0.200 OA
BRANCH   9  12
HETATM   12  C10 UNL     1      -2.216  10.258  25.592  1.00  0.00     0.080 A 
HETATM   13  C11 UNL     1      -2.776   9.758  26.746  1.00  0.00     0.027 A 
HETATM   14  C12 UNL     1      -2.263   8.613  27.363  1.00  0.00     0.020 A 
HETATM   15  C13 UNL     1      -1.187   7.969  26.821  1.00  0.00     0.011 A 
HETATM   16 BR1  UNL     1      -0.502   6.402  27.684  1.00  0.00    -0.051 Br
HETATM   17  C14 UNL     1      -0.621   8.463  25.665  1.00  0.00     0.020 A 
HETATM   18  C15 UNL     1      -1.132   9.593  25.062  1.00  0.00     0.027 A 
ENDBRANCH   9  12
ENDBRANCH   7   9
ENDBRANCH   4   7
BRANCH   1  19
HETATM   19  C4  UNL     1      -4.500   9.896  18.579  1.00  0.00     0.252 C 
HETATM   20  N1  UNL     1      -5.385   8.811  18.629  1.00  0.00    -0.339 N 
ATOM     21  H1  UNL     1      -5.587   8.404  19.542  1.00  0.00     0.164 HD
HETATM   22  O2  UNL     1      -4.202  10.453  17.501  1.00  0.00    -0.268 OA
BRANCH  20  23
HETATM   23  C3  UNL     1      -6.037   8.223  17.467  1.00  0.00     0.223 C 
BRANCH  23  24
HETATM   24  C2  UNL     1      -5.811   6.775  17.386  1.00  0.00     0.152 C 
HETATM   25  C1  UNL     1      -6.303   5.743  18.315  1.00  0.00     0.093 C 
HETATM   26  O1  UNL     1      -5.130   6.340  16.433  1.00  0.00    -0.296 OA
ENDBRANCH  23  24
BRANCH  23  27
HETATM   27  C18 UNL     1      -7.474   8.565  17.429  1.00  0.00     0.152 C 
HETATM   28  C19 UNL     1      -8.351   8.173  16.311  1.00  0.00     0.093 C 
HETATM   29  O5  UNL     1      -8.001   9.203  18.345  1.00  0.00    -0.296 OA
ENDBRANCH  23  27
ENDBRANCH  20  23
ENDBRANCH   1  19
TORSDOF 7
ENDMDL
