MODEL 1
REMARK VINA RESULT: -8.414580684      0.000      0.000
REMARK  9 active torsions:
REMARK  status: ('A' for Active; 'I' for Inactive)
REMARK    1  A    between atoms: C2_2  and  C3_3 
REMARK    2  A    between atoms: C3_3  and  C4_4 
REMARK    3  A    between atoms: C4_4  and  C5_5 
REMARK    4  A    between atoms: C5_5  and  N1_6 
REMARK    5  A    between atoms: N2_15  and  C14_16 
REMARK    6  A    between atoms: C14_16  and  O1_17 
REMARK    7  A    between atoms: C14_16  and  N3_19 
REMARK    8  A    between atoms: N3_19  and  C16_21 
REMARK       I    between atoms: N4_24  and  C19_25 
REMARK    9  A    between atoms: C19_25  and  C20_27 
ROOT
HETATM    1  C3  UNL     1       7.227   4.557  20.106  1.00  0.00    -0.036 C 
HETATM    2  C12 UNL     1       7.361   5.993  20.659  1.00  0.00     0.029 C 
HETATM    3  C13 UNL     1       6.025   6.642  20.805  1.00  0.00     0.127 C 
HETATM    4  N2  UNL     1       5.102   5.709  21.542  1.00  0.00    -0.343 N 
HETATM    5  C23 UNL     1       4.805   4.556  20.746  1.00  0.00     0.084 C 
HETATM    6  C24 UNL     1       3.431   4.665  20.085  1.00  0.00     0.032 C 
HETATM    7  C25 UNL     1       5.811   4.498  19.583  1.00  0.00     0.034 C 
ENDROOT
BRANCH   4   8
HETATM    8  C14 UNL     1       4.684   6.087  22.798  1.00  0.00     0.217 C 
BRANCH   8   9
HETATM    9  O1  UNL     1       4.610   5.034  23.630  1.00  0.00    -0.332 OA
ATOM     10  H1  UNL     1       5.369   4.988  24.200  1.00  0.00     0.220 HD
ENDBRANCH   8   9
BRANCH   8  11
HETATM   11  N3  UNL     1       4.318   7.243  23.450  1.00  0.00    -0.347 N 
HETATM   12  C15 UNL     1       2.841   7.574  23.489  1.00  0.00     0.153 C 
BRANCH  11  13
HETATM   13  C16 UNL     1       5.192   8.198  24.078  1.00  0.00     0.090 C 
HETATM   14  C17 UNL     1       5.179   9.480  23.291  1.00  0.00     0.045 C 
HETATM   15  C18 UNL     1       6.204   9.572  22.234  1.00  0.00     0.128 C 
HETATM   16  N4  UNL     1       7.509   9.229  22.739  1.00  0.00    -0.343 N 
HETATM   17  C19 UNL     1       8.652   9.398  21.939  1.00  0.00     0.320 C 
HETATM   18  C21 UNL     1       7.652   8.694  24.081  1.00  0.00     0.128 C 
HETATM   19  O2  UNL     1       9.777   9.091  22.464  1.00  0.00    -0.261 OA
HETATM   20  C22 UNL     1       6.584   7.654  24.344  1.00  0.00     0.045 C 
BRANCH  17  21
HETATM   21  C20 UNL     1       8.683   9.883  20.578  1.00  0.00     0.270 C 
HETATM   22  O3  UNL     1       8.711   9.086  19.620  1.00  0.00    -0.640 OA
HETATM   23  O4  UNL     1       8.684  11.239  20.312  1.00  0.00    -0.640 OA
ENDBRANCH  17  21
ENDBRANCH  11  13
ENDBRANCH   8  11
ENDBRANCH   4   8
BRANCH   1  24
HETATM   24  C2  UNL     1       7.476   3.649  21.242  1.00  0.00     0.005 C 
HETATM   25  C1  UNL     1       7.155   2.217  21.119  1.00  0.00     0.006 C 
ENDBRANCH   1  24
BRANCH   1  26
HETATM   26  C4  UNL     1       8.168   4.501  18.950  1.00  0.00     0.037 C 
BRANCH  26  27
HETATM   27  C5  UNL     1       7.682   3.952  17.672  1.00  0.00     0.237 C 
BRANCH  27  28
HETATM   28  N1  UNL     1       8.343   2.668  17.339  1.00  0.00    -0.071 N 
HETATM   29  C6  UNL     1       8.517   2.548  15.912  1.00  0.00     0.272 C 
HETATM   30  C7  UNL     1       7.411   1.653  17.758  1.00  0.00     0.237 C 
HETATM   31  C8  UNL     1       7.985   0.281  17.849  1.00  0.00     0.028 C 
HETATM   32  C9  UNL     1       9.246   0.317  18.694  1.00  0.00     0.003 C 
HETATM   33  C10 UNL     1      10.204   1.243  18.019  1.00  0.00     0.028 C 
HETATM   34  C11 UNL     1       9.607   2.641  17.997  1.00  0.00     0.237 C 
ENDBRANCH  27  28
ENDBRANCH  26  27
ENDBRANCH   1  26
TORSDOF 9
ENDMDL
MODEL 2
REMARK VINA RESULT: -8.272403136      2.144      3.310
REMARK  9 active torsions:
REMARK  status: ('A' for Active; 'I' for Inactive)
REMARK    1  A    between atoms: C2_2  and  C3_3 
REMARK    2  A    between atoms: C3_3  and  C4_4 
REMARK    3  A    between atoms: C4_4  and  C5_5 
REMARK    4  A    between atoms: C5_5  and  N1_6 
REMARK    5  A    between atoms: N2_15  and  C14_16 
REMARK    6  A    between atoms: C14_16  and  O1_17 
REMARK    7  A    between atoms: C14_16  and  N3_19 
REMARK    8  A    between atoms: N3_19  and  C16_21 
REMARK       I    between atoms: N4_24  and  C19_25 
REMARK    9  A    between atoms: C19_25  and  C20_27 
ROOT
HETATM    1  C3  UNL     1       6.303   3.860  20.066  1.00  0.00    -0.036 C 
HETATM    2  C12 UNL     1       7.785   4.270  20.206  1.00  0.00     0.029 C 
HETATM    3  C13 UNL     1       8.110   5.432  19.327  1.00  0.00     0.127 C 
HETATM    4  N2  UNL     1       7.079   6.509  19.535  1.00  0.00    -0.343 N 
HETATM    5  C23 UNL     1       5.801   6.091  19.043  1.00  0.00     0.084 C 
HETATM    6  C24 UNL     1       5.498   6.696  17.673  1.00  0.00     0.032 C 
HETATM    7  C25 UNL     1       5.845   4.570  18.814  1.00  0.00     0.034 C 
ENDROOT
BRANCH   4   8
HETATM    8  C14 UNL     1       7.496   7.685  20.118  1.00  0.00     0.217 C 
BRANCH   8   9
HETATM    9  O1  UNL     1       8.829   7.831  20.034  1.00  0.00    -0.332 OA
ATOM     10  H1  UNL     1       9.073   8.744  19.930  1.00  0.00     0.220 HD
ENDBRANCH   8   9
BRANCH   8  11
HETATM   11  N3  UNL     1       6.933   8.761  20.766  1.00  0.00    -0.347 N 
HETATM   12  C15 UNL     1       6.717  10.019  19.951  1.00  0.00     0.153 C 
BRANCH  11  13
HETATM   13  C16 UNL     1       6.550   8.837  22.151  1.00  0.00     0.090 C 
HETATM   14  C17 UNL     1       7.236  10.010  22.795  1.00  0.00     0.045 C 
HETATM   15  C18 UNL     1       8.545   9.707  23.403  1.00  0.00     0.128 C 
HETATM   16  N4  UNL     1       8.469   8.553  24.263  1.00  0.00    -0.343 N 
HETATM   17  C19 UNL     1       9.565   8.181  25.060  1.00  0.00     0.320 C 
HETATM   18  C21 UNL     1       7.256   7.755  24.301  1.00  0.00     0.128 C 
HETATM   19  O2  UNL     1       9.413   7.157  25.810  1.00  0.00    -0.261 OA
HETATM   20  C22 UNL     1       6.736   7.529  22.898  1.00  0.00     0.045 C 
BRANCH  17  21
HETATM   21  C20 UNL     1      10.849   8.842  25.116  1.00  0.00     0.270 C 
HETATM   22  O3  UNL     1      11.093   9.681  26.005  1.00  0.00    -0.640 OA
HETATM   23  O4  UNL     1      11.831   8.556  24.187  1.00  0.00    -0.640 OA
ENDBRANCH  17  21
ENDBRANCH  11  13
ENDBRANCH   8  11
ENDBRANCH   4   8
BRANCH   1  24
HETATM   24  C2  UNL     1       5.625   4.325  21.292  1.00  0.00     0.005 C 
HETATM   25  C1  UNL     1       4.889   3.365  22.131  1.00  0.00     0.006 C 
ENDBRANCH   1  24
BRANCH   1  26
HETATM   26  C4  UNL     1       6.334   2.393  19.801  1.00  0.00     0.037 C 
BRANCH  26  27
HETATM   27  C5  UNL     1       6.083   1.919  18.429  1.00  0.00     0.237 C 
BRANCH  27  28
HETATM   28  N1  UNL     1       7.307   1.355  17.811  1.00  0.00    -0.071 N 
HETATM   29  C6  UNL     1       6.982   0.185  17.031  1.00  0.00     0.272 C 
HETATM   30  C7  UNL     1       8.122   0.934  18.922  1.00  0.00     0.237 C 
HETATM   31  C8  UNL     1       9.544   0.653  18.577  1.00  0.00     0.028 C 
HETATM   32  C9  UNL     1      10.126   1.839  17.827  1.00  0.00     0.003 C 
HETATM   33  C10 UNL     1       9.312   2.019  16.588  1.00  0.00     0.028 C 
HETATM   34  C11 UNL     1       7.883   2.360  16.980  1.00  0.00     0.237 C 
ENDBRANCH  27  28
ENDBRANCH  26  27
ENDBRANCH   1  26
TORSDOF 9
ENDMDL
MODEL 3
REMARK VINA RESULT: -8.209834281      1.672      2.745
REMARK  9 active torsions:
REMARK  status: ('A' for Active; 'I' for Inactive)
REMARK    1  A    between atoms: C2_2  and  C3_3 
REMARK    2  A    between atoms: C3_3  and  C4_4 
REMARK    3  A    between atoms: C4_4  and  C5_5 
REMARK    4  A    between atoms: C5_5  and  N1_6 
REMARK    5  A    between atoms: N2_15  and  C14_16 
REMARK    6  A    between atoms: C14_16  and  O1_17 
REMARK    7  A    between atoms: C14_16  and  N3_19 
REMARK    8  A    between atoms: N3_19  and  C16_21 
REMARK       I    between atoms: N4_24  and  C19_25 
REMARK    9  A    between atoms: C19_25  and  C20_27 
ROOT
HETATM    1  C3  UNL     1       6.005   3.608  19.572  1.00  0.00    -0.036 C 
HETATM    2  C12 UNL     1       5.282   4.950  19.324  1.00  0.00     0.029 C 
HETATM    3  C13 UNL     1       4.267   5.221  20.385  1.00  0.00     0.127 C 
HETATM    4  N2  UNL     1       4.902   5.025  21.735  1.00  0.00    -0.343 N 
HETATM    5  C23 UNL     1       5.222   3.646  21.952  1.00  0.00     0.084 C 
HETATM    6  C24 UNL     1       4.186   2.960  22.842  1.00  0.00     0.032 C 
HETATM    7  C25 UNL     1       5.143   2.914  20.600  1.00  0.00     0.034 C 
ENDROOT
BRANCH   4   8
HETATM    8  C14 UNL     1       5.059   6.137  22.533  1.00  0.00     0.217 C 
BRANCH   8   9
HETATM    9  O1  UNL     1       5.070   5.809  23.836  1.00  0.00    -0.332 OA
ATOM     10  H1  UNL     1       5.003   6.580  24.389  1.00  0.00     0.220 HD
ENDBRANCH   8   9
BRANCH   8  11
HETATM   11  N3  UNL     1       5.209   7.496  22.375  1.00  0.00    -0.347 N 
HETATM   12  C15 UNL     1       4.170   8.384  23.028  1.00  0.00     0.153 C 
BRANCH  11  13
HETATM   13  C16 UNL     1       6.234   8.175  21.628  1.00  0.00     0.090 C 
HETATM   14  C17 UNL     1       7.503   7.368  21.675  1.00  0.00     0.045 C 
HETATM   15  C18 UNL     1       8.409   7.698  22.791  1.00  0.00     0.128 C 
HETATM   16  N4  UNL     1       8.636   9.118  22.879  1.00  0.00    -0.343 N 
HETATM   17  C19 UNL     1       9.587   9.635  23.775  1.00  0.00     0.320 C 
HETATM   18  C21 UNL     1       7.872  10.029  22.046  1.00  0.00     0.128 C 
HETATM   19  O2  UNL     1       9.746  10.904  23.781  1.00  0.00    -0.261 OA
HETATM   20  C22 UNL     1       6.412   9.626  22.036  1.00  0.00     0.045 C 
BRANCH  17  21
HETATM   21  C20 UNL     1      10.404   8.875  24.693  1.00  0.00     0.270 C 
HETATM   22  O3  UNL     1      11.553   8.515  24.371  1.00  0.00    -0.640 OA
HETATM   23  O4  UNL     1       9.930   8.534  25.945  1.00  0.00    -0.640 OA
ENDBRANCH  17  21
ENDBRANCH  11  13
ENDBRANCH   8  11
ENDBRANCH   4   8
BRANCH   1  24
HETATM   24  C2  UNL     1       7.355   3.947  20.064  1.00  0.00     0.005 C 
HETATM   25  C1  UNL     1       8.262   4.742  19.221  1.00  0.00     0.006 C 
ENDBRANCH   1  24
BRANCH   1  26
HETATM   26  C4  UNL     1       5.899   2.870  18.280  1.00  0.00     0.037 C 
BRANCH  26  27
HETATM   27  C5  UNL     1       6.104   1.411  18.283  1.00  0.00     0.237 C 
BRANCH  27  28
HETATM   28  N1  UNL     1       7.412   1.040  17.692  1.00  0.00    -0.071 N 
HETATM   29  C6  UNL     1       7.291  -0.183  16.935  1.00  0.00     0.272 C 
HETATM   30  C7  UNL     1       8.268   0.780  18.820  1.00  0.00     0.237 C 
HETATM   31  C8  UNL     1       9.721   0.726  18.497  1.00  0.00     0.028 C 
HETATM   32  C9  UNL     1      10.114   1.973  17.726  1.00  0.00     0.003 C 
HETATM   33  C10 UNL     1       9.300   1.994  16.475  1.00  0.00     0.028 C 
HETATM   34  C11 UNL     1       7.830   2.107  16.844  1.00  0.00     0.237 C 
ENDBRANCH  27  28
ENDBRANCH  26  27
ENDBRANCH   1  26
TORSDOF 9
ENDMDL
MODEL 4
REMARK VINA RESULT: -8.175356555      2.452      3.576
REMARK  9 active torsions:
REMARK  status: ('A' for Active; 'I' for Inactive)
REMARK    1  A    between atoms: C2_2  and  C3_3 
REMARK    2  A    between atoms: C3_3  and  C4_4 
REMARK    3  A    between atoms: C4_4  and  C5_5 
REMARK    4  A    between atoms: C5_5  and  N1_6 
REMARK    5  A    between atoms: N2_15  and  C14_16 
REMARK    6  A    between atoms: C14_16  and  O1_17 
REMARK    7  A    between atoms: C14_16  and  N3_19 
REMARK    8  A    between atoms: N3_19  and  C16_21 
REMARK       I    between atoms: N4_24  and  C19_25 
REMARK    9  A    between atoms: C19_25  and  C20_27 
ROOT
HETATM    1  C3  UNL     1       6.665   4.455  19.813  1.00  0.00    -0.036 C 
HETATM    2  C12 UNL     1       7.655   5.558  19.379  1.00  0.00     0.029 C 
HETATM    3  C13 UNL     1       7.226   6.896  19.882  1.00  0.00     0.127 C 
HETATM    4  N2  UNL     1       6.916   6.794  21.351  1.00  0.00    -0.343 N 
HETATM    5  C23 UNL     1       5.751   5.989  21.570  1.00  0.00     0.084 C 
HETATM    6  C24 UNL     1       4.513   6.847  21.829  1.00  0.00     0.032 C 
HETATM    7  C25 UNL     1       5.446   5.218  20.273  1.00  0.00     0.034 C 
ENDROOT
BRANCH   4   8
HETATM    8  C14 UNL     1       7.739   7.469  22.224  1.00  0.00     0.217 C 
BRANCH   8   9
HETATM    9  O1  UNL     1       8.584   6.631  22.851  1.00  0.00    -0.332 OA
ATOM     10  H1  UNL     1       8.409   6.595  23.784  1.00  0.00     0.220 HD
ENDBRANCH   8   9
BRANCH   8  11
HETATM   11  N3  UNL     1       7.947   8.764  22.641  1.00  0.00    -0.347 N 
HETATM   12  C15 UNL     1       8.069   9.822  21.565  1.00  0.00     0.153 C 
BRANCH  11  13
HETATM   13  C16 UNL     1       8.092   9.227  23.996  1.00  0.00     0.090 C 
HETATM   14  C17 UNL     1       9.352  10.038  24.114  1.00  0.00     0.045 C 
HETATM   15  C18 UNL     1      10.555   9.270  24.483  1.00  0.00     0.128 C 
HETATM   16  N4  UNL     1      10.310   8.433  25.630  1.00  0.00    -0.343 N 
HETATM   17  C19 UNL     1      11.363   7.731  26.241  1.00  0.00     0.320 C 
HETATM   18  C21 UNL     1       8.964   8.298  26.158  1.00  0.00     0.128 C 
HETATM   19  O2  UNL     1      11.070   7.025  27.267  1.00  0.00    -0.261 OA
HETATM   20  C22 UNL     1       7.976   8.116  25.025  1.00  0.00     0.045 C 
BRANCH  17  21
HETATM   21  C20 UNL     1      12.748   7.727  25.826  1.00  0.00     0.270 C 
HETATM   22  O3  UNL     1      13.063   8.048  24.663  1.00  0.00    -0.640 OA
HETATM   23  O4  UNL     1      13.748   7.369  26.709  1.00  0.00    -0.640 OA
ENDBRANCH  17  21
ENDBRANCH  11  13
ENDBRANCH   8  11
ENDBRANCH   4   8
BRANCH   1  24
HETATM   24  C2  UNL     1       7.331   3.698  20.891  1.00  0.00     0.005 C 
HETATM   25  C1  UNL     1       6.857   2.348  21.238  1.00  0.00     0.006 C 
ENDBRANCH   1  24
BRANCH   1  26
HETATM   26  C4  UNL     1       6.328   3.726  18.556  1.00  0.00     0.037 C 
BRANCH  26  27
HETATM   27  C5  UNL     1       7.208   3.893  17.386  1.00  0.00     0.237 C 
BRANCH  27  28
HETATM   28  N1  UNL     1       8.029   2.683  17.139  1.00  0.00    -0.071 N 
HETATM   29  C6  UNL     1       8.210   2.480  15.722  1.00  0.00     0.272 C 
HETATM   30  C7  UNL     1       7.238   1.590  17.646  1.00  0.00     0.237 C 
HETATM   31  C8  UNL     1       7.986   0.315  17.829  1.00  0.00     0.028 C 
HETATM   32  C9  UNL     1       9.237   0.576  18.650  1.00  0.00     0.003 C 
HETATM   33  C10 UNL     1      10.063   1.565  17.894  1.00  0.00     0.028 C 
HETATM   34  C11 UNL     1       9.290   2.869  17.778  1.00  0.00     0.237 C 
ENDBRANCH  27  28
ENDBRANCH  26  27
ENDBRANCH   1  26
TORSDOF 9
ENDMDL
MODEL 5
REMARK VINA RESULT: -8.144658636      1.742      2.577
REMARK  9 active torsions:
REMARK  status: ('A' for Active; 'I' for Inactive)
REMARK    1  A    between atoms: C2_2  and  C3_3 
REMARK    2  A    between atoms: C3_3  and  C4_4 
REMARK    3  A    between atoms: C4_4  and  C5_5 
REMARK    4  A    between atoms: C5_5  and  N1_6 
REMARK    5  A    between atoms: N2_15  and  C14_16 
REMARK    6  A    between atoms: C14_16  and  O1_17 
REMARK    7  A    between atoms: C14_16  and  N3_19 
REMARK    8  A    between atoms: N3_19  and  C16_21 
REMARK       I    between atoms: N4_24  and  C19_25 
REMARK    9  A    between atoms: C19_25  and  C20_27 
ROOT
HETATM    1  C3  UNL     1       5.732   3.599  20.226  1.00  0.00    -0.036 C 
HETATM    2  C12 UNL     1       5.920   5.084  19.848  1.00  0.00     0.029 C 
HETATM    3  C13 UNL     1       4.874   5.940  20.482  1.00  0.00     0.127 C 
HETATM    4  N2  UNL     1       4.793   5.612  21.949  1.00  0.00    -0.343 N 
HETATM    5  C23 UNL     1       4.279   4.289  22.146  1.00  0.00     0.084 C 
HETATM    6  C24 UNL     1       2.800   4.311  22.531  1.00  0.00     0.032 C 
HETATM    7  C25 UNL     1       4.337   3.542  20.802  1.00  0.00     0.034 C 
ENDROOT
BRANCH   4   8
HETATM    8  C14 UNL     1       5.184   6.584  22.842  1.00  0.00     0.217 C 
BRANCH   8   9
HETATM    9  O1  UNL     1       5.221   6.111  24.099  1.00  0.00    -0.332 OA
ATOM     10  H1  UNL     1       6.085   5.785  24.323  1.00  0.00     0.220 HD
ENDBRANCH   8   9
BRANCH   8  11
HETATM   11  N3  UNL     1       5.553   7.910  22.814  1.00  0.00    -0.347 N 
HETATM   12  C15 UNL     1       4.727   8.871  23.643  1.00  0.00     0.153 C 
BRANCH  11  13
HETATM   13  C16 UNL     1       6.625   8.497  22.054  1.00  0.00     0.090 C 
HETATM   14  C17 UNL     1       7.818   7.581  22.085  1.00  0.00     0.045 C 
HETATM   15  C18 UNL     1       8.763   7.827  23.190  1.00  0.00     0.128 C 
HETATM   16  N4  UNL     1       9.116   9.222  23.276  1.00  0.00    -0.343 N 
HETATM   17  C19 UNL     1      10.119   9.651  24.162  1.00  0.00     0.320 C 
HETATM   18  C21 UNL     1       8.425  10.199  22.454  1.00  0.00     0.128 C 
HETATM   19  O2  UNL     1      10.390  10.901  24.167  1.00  0.00    -0.261 OA
HETATM   20  C22 UNL     1       6.936   9.926  22.461  1.00  0.00     0.045 C 
BRANCH  17  21
HETATM   21  C20 UNL     1      10.877   8.820  25.069  1.00  0.00     0.270 C 
HETATM   22  O3  UNL     1      10.462   8.596  26.223  1.00  0.00    -0.640 OA
HETATM   23  O4  UNL     1      12.077   8.258  24.676  1.00  0.00    -0.640 OA
ENDBRANCH  17  21
ENDBRANCH  11  13
ENDBRANCH   8  11
ENDBRANCH   4   8
BRANCH   1  24
HETATM   24  C2  UNL     1       6.789   3.281  21.205  1.00  0.00     0.005 C 
HETATM   25  C1  UNL     1       7.100   1.876  21.517  1.00  0.00     0.006 C 
ENDBRANCH   1  24
BRANCH   1  26
HETATM   26  C4  UNL     1       5.744   2.867  18.926  1.00  0.00     0.037 C 
BRANCH  26  27
HETATM   27  C5  UNL     1       6.481   3.454  17.793  1.00  0.00     0.237 C 
BRANCH  27  28
HETATM   28  N1  UNL     1       7.619   2.599  17.377  1.00  0.00    -0.071 N 
HETATM   29  C6  UNL     1       7.729   2.576  15.939  1.00  0.00     0.272 C 
HETATM   30  C7  UNL     1       7.266   1.274  17.816  1.00  0.00     0.237 C 
HETATM   31  C8  UNL     1       8.394   0.301  17.824  1.00  0.00     0.028 C 
HETATM   32  C9  UNL     1       9.563   0.891  18.592  1.00  0.00     0.003 C 
HETATM   33  C10 UNL     1       9.961   2.149  17.894  1.00  0.00     0.028 C 
HETATM   34  C11 UNL     1       8.806   3.135  17.956  1.00  0.00     0.237 C 
ENDBRANCH  27  28
ENDBRANCH  26  27
ENDBRANCH   1  26
TORSDOF 9
ENDMDL
