MODEL 1
REMARK VINA RESULT: -8.400102227      0.000      0.000
REMARK  6 active torsions:
REMARK  status: ('A' for Active; 'I' for Inactive)
REMARK    1  A    between atoms: C2_2  and  C3_3 
REMARK       I    between atoms: N1_9  and  C8_10 
REMARK    2  A    between atoms: C8_10  and  C9_12 
REMARK    3  A    between atoms: C9_12  and  N2_13 
REMARK    4  A    between atoms: C14_18  and  C15_19 
REMARK    5  A    between atoms: C15_19  and  C16_20 
REMARK    6  A    between atoms: C21_30  and  O3_31 
ROOT
HETATM    1  C3  UNL     1       6.668   9.152  20.155  1.00  0.00     0.005 C 
HETATM    2  C4  UNL     1       7.386  10.506  19.953  1.00  0.00     0.022 C 
HETATM    3  C5  UNL     1       5.323   9.475  20.630  1.00  0.00     0.088 C 
HETATM    4  C6  UNL     1       4.208   8.626  19.976  1.00  0.00     0.021 C 
HETATM    5  C7  UNL     1       5.057   9.584  22.075  1.00  0.00     0.235 C 
HETATM    6  O1  UNL     1       4.101  10.314  22.388  1.00  0.00    -0.272 OA
HETATM    7  N1  UNL     1       5.755   8.952  23.194  1.00  0.00    -0.252 N 
HETATM    8  C8  UNL     1       4.901   8.405  24.172  1.00  0.00     0.257 C 
HETATM    9  O2  UNL     1       5.299   7.648  25.090  1.00  0.00    -0.271 OA
HETATM   10  C13 UNL     1       7.168   8.800  23.157  1.00  0.00     0.049 C 
HETATM   11  C14 UNL     1       8.092   8.931  24.240  1.00  0.00     0.006 C 
HETATM   12  C21 UNL     1       7.377   7.670  22.146  1.00  0.00     0.188 C 
HETATM   13  C22 UNL     1       7.510   8.115  20.738  1.00  0.00     0.057 C 
HETATM   14  C23 UNL     1       9.018   8.411  20.556  1.00  0.00     0.032 C 
HETATM   15 BR1  UNL     1       7.330   6.437  19.705  1.00  0.00    -0.082 Br
ENDROOT
BRANCH  11  16
HETATM   16  C15 UNL     1       8.205   8.219  25.492  1.00  0.00     0.071 C 
BRANCH  16  17
HETATM   17  C16 UNL     1       9.697   7.988  25.740  1.00  0.00    -0.011 A 
HETATM   18  C17 UNL     1      10.619   8.417  24.815  1.00  0.00     0.012 A 
HETATM   19  C18 UNL     1      11.966   8.221  25.045  1.00  0.00     0.018 A 
HETATM   20  C19 UNL     1      12.389   7.590  26.214  1.00  0.00     0.089 A 
HETATM   21  N3  UNL     1      11.485   7.180  27.101  1.00  0.00    -0.352 N 
HETATM   22  C20 UNL     1      10.175   7.374  26.869  1.00  0.00     0.105 A 
ATOM     23  H3  UNL     1      11.787   6.717  27.958  1.00  0.00     0.166 HD
HETATM   24  N4  UNL     1       9.344   6.943  27.754  1.00  0.00    -0.385 N 
ATOM     25  H42 UNL     1       8.350   7.091  27.577  1.00  0.00     0.157 HD
ATOM     26  H41 UNL     1       9.700   6.486  28.593  1.00  0.00     0.157 HD
ENDBRANCH  16  17
ENDBRANCH  11  16
BRANCH  12  27
HETATM   27  O3  UNL     1       8.509   6.917  22.449  1.00  0.00    -0.388 OA
ATOM     28  H3  UNL     1       8.643   6.220  21.817  1.00  0.00     0.210 HD
ENDBRANCH  12  27
BRANCH   8  29
HETATM   29  C9  UNL     1       3.438   8.678  24.205  1.00  0.00     0.339 C 
BRANCH  29  30
HETATM   30  N2  UNL     1       2.678   7.487  23.813  1.00  0.00    -0.070 N 
HETATM   31  C10 UNL     1       3.467   6.593  22.995  1.00  0.00     0.272 C 
HETATM   32  C11 UNL     1       1.590   7.981  22.987  1.00  0.00     0.272 C 
HETATM   33  C12 UNL     1       2.091   6.829  24.961  1.00  0.00     0.272 C 
ENDBRANCH  29  30
ENDBRANCH   8  29
BRANCH   1  34
HETATM   34  C2  UNL     1       6.449   8.698  18.702  1.00  0.00    -0.025 C 
HETATM   35  C1  UNL     1       6.675   9.477  17.673  1.00  0.00     0.008 C 
ENDBRANCH   1  34
TORSDOF 6
ENDMDL
MODEL 2
REMARK VINA RESULT: -7.771192253      2.672      4.110
REMARK  6 active torsions:
REMARK  status: ('A' for Active; 'I' for Inactive)
REMARK    1  A    between atoms: C2_2  and  C3_3 
REMARK       I    between atoms: N1_9  and  C8_10 
REMARK    2  A    between atoms: C8_10  and  C9_12 
REMARK    3  A    between atoms: C9_12  and  N2_13 
REMARK    4  A    between atoms: C14_18  and  C15_19 
REMARK    5  A    between atoms: C15_19  and  C16_20 
REMARK    6  A    between atoms: C21_30  and  O3_31 
ROOT
HETATM    1  C3  UNL     1       6.985   6.402  19.379  1.00  0.00     0.005 C 
HETATM    2  C4  UNL     1       8.232   5.576  18.988  1.00  0.00     0.022 C 
HETATM    3  C5  UNL     1       7.047   7.628  18.585  1.00  0.00     0.088 C 
HETATM    4  C6  UNL     1       5.687   8.058  17.988  1.00  0.00     0.021 C 
HETATM    5  C7  UNL     1       7.733   8.818  19.119  1.00  0.00     0.235 C 
HETATM    6  O1  UNL     1       8.178   9.605  18.266  1.00  0.00    -0.272 OA
HETATM    7  N1  UNL     1       7.962   9.208  20.510  1.00  0.00    -0.252 N 
HETATM    8  C8  UNL     1       7.701  10.567  20.779  1.00  0.00     0.257 C 
HETATM    9  O2  UNL     1       7.637  11.040  21.939  1.00  0.00    -0.271 OA
HETATM   10  C13 UNL     1       8.267   8.220  21.485  1.00  0.00     0.049 C 
HETATM   11  C14 UNL     1       9.178   8.323  22.582  1.00  0.00     0.006 C 
HETATM   12  C21 UNL     1       6.927   7.514  21.707  1.00  0.00     0.188 C 
HETATM   13  C22 UNL     1       6.673   6.368  20.802  1.00  0.00     0.057 C 
HETATM   14  C23 UNL     1       7.310   5.150  21.515  1.00  0.00     0.032 C 
HETATM   15 BR1  UNL     1       4.748   5.992  21.065  1.00  0.00    -0.082 Br
ENDROOT
BRANCH  11  16
HETATM   16  C15 UNL     1       9.218   9.224  23.710  1.00  0.00     0.071 C 
BRANCH  16  17
HETATM   17  C16 UNL     1       9.830   8.449  24.878  1.00  0.00    -0.011 A 
HETATM   18  C17 UNL     1      11.196   8.407  25.031  1.00  0.00     0.012 A 
HETATM   19  C18 UNL     1      11.747   7.720  26.093  1.00  0.00     0.018 A 
HETATM   20  C19 UNL     1      10.921   7.070  27.008  1.00  0.00     0.089 A 
HETATM   21  N3  UNL     1       9.600   7.118  26.848  1.00  0.00    -0.352 N 
HETATM   22  C20 UNL     1       9.071   7.790  25.810  1.00  0.00     0.105 A 
ATOM     23  H3  UNL     1       8.989   6.645  27.513  1.00  0.00     0.166 HD
HETATM   24  N4  UNL     1       7.788   7.791  25.695  1.00  0.00    -0.385 N 
ATOM     25  H42 UNL     1       7.386   8.301  24.908  1.00  0.00     0.157 HD
ATOM     26  H41 UNL     1       7.223   7.300  26.389  1.00  0.00     0.157 HD
ENDBRANCH  16  17
ENDBRANCH  11  16
BRANCH  12  27
HETATM   27  O3  UNL     1       6.809   7.042  23.013  1.00  0.00    -0.388 OA
ATOM     28  H3  UNL     1       7.650   7.027  23.454  1.00  0.00     0.210 HD
ENDBRANCH  12  27
BRANCH   8  29
HETATM   29  C9  UNL     1       7.477  11.570  19.703  1.00  0.00     0.339 C 
BRANCH  29  30
HETATM   30  N2  UNL     1       6.074  11.995  19.672  1.00  0.00    -0.070 N 
HETATM   31  C10 UNL     1       5.234  11.126  20.466  1.00  0.00     0.272 C 
HETATM   32  C11 UNL     1       5.659  11.849  18.288  1.00  0.00     0.272 C 
HETATM   33  C12 UNL     1       5.933  13.391  20.025  1.00  0.00     0.272 C 
ENDBRANCH  29  30
ENDBRANCH   8  29
BRANCH   1  34
HETATM   34  C2  UNL     1       5.856   5.590  18.719  1.00  0.00    -0.025 C 
HETATM   35  C1  UNL     1       6.080   4.512  18.008  1.00  0.00     0.008 C 
ENDBRANCH   1  34
TORSDOF 6
ENDMDL
MODEL 3
REMARK VINA RESULT: -7.599112874      4.374      5.907
REMARK  6 active torsions:
REMARK  status: ('A' for Active; 'I' for Inactive)
REMARK    1  A    between atoms: C2_2  and  C3_3 
REMARK       I    between atoms: N1_9  and  C8_10 
REMARK    2  A    between atoms: C8_10  and  C9_12 
REMARK    3  A    between atoms: C9_12  and  N2_13 
REMARK    4  A    between atoms: C14_18  and  C15_19 
REMARK    5  A    between atoms: C15_19  and  C16_20 
REMARK    6  A    between atoms: C21_30  and  O3_31 
ROOT
HETATM    1  C3  UNL     1       7.361   8.636  21.796  1.00  0.00     0.005 C 
HETATM    2  C4  UNL     1       8.616   8.309  22.638  1.00  0.00     0.022 C 
HETATM    3  C5  UNL     1       6.214   8.218  22.602  1.00  0.00     0.088 C 
HETATM    4  C6  UNL     1       5.038   9.221  22.585  1.00  0.00     0.021 C 
HETATM    5  C7  UNL     1       5.679   6.851  22.471  1.00  0.00     0.235 C 
HETATM    6  O1  UNL     1       5.085   6.412  23.470  1.00  0.00    -0.272 OA
HETATM    7  N1  UNL     1       5.744   5.938  21.330  1.00  0.00    -0.252 N 
HETATM    8  C8  UNL     1       4.529   5.283  21.045  1.00  0.00     0.257 C 
HETATM    9  O2  UNL     1       4.328   4.631  19.992  1.00  0.00    -0.271 OA
HETATM   10  C13 UNL     1       6.917   5.882  20.529  1.00  0.00     0.049 C 
HETATM   11  C14 UNL     1       7.515   4.730  19.929  1.00  0.00     0.006 C 
HETATM   12  C21 UNL     1       6.859   7.182  19.723  1.00  0.00     0.188 C 
HETATM   13  C22 UNL     1       7.507   8.345  20.375  1.00  0.00     0.057 C 
HETATM   14  C23 UNL     1       8.991   8.268  19.941  1.00  0.00     0.032 C 
HETATM   15 BR1  UNL     1       6.880   9.884  19.301  1.00  0.00    -0.082 Br
ENDROOT
BRANCH  11  16
HETATM   16  C15 UNL     1       7.005   3.777  18.972  1.00  0.00     0.071 C 
BRANCH  16  17
HETATM   17  C16 UNL     1       8.121   2.764  18.713  1.00  0.00    -0.011 A 
HETATM   18  C17 UNL     1       9.265   3.159  18.060  1.00  0.00     0.012 A 
HETATM   19  C18 UNL     1      10.279   2.249  17.839  1.00  0.00     0.018 A 
HETATM   20  C19 UNL     1      10.142   0.932  18.276  1.00  0.00     0.089 A 
HETATM   21  N3  UNL     1       9.029   0.563  18.906  1.00  0.00    -0.352 N 
HETATM   22  C20 UNL     1       8.046   1.457  19.118  1.00  0.00     0.105 A 
ATOM     23  H3  UNL     1       8.922  -0.398  19.229  1.00  0.00     0.166 HD
HETATM   24  N4  UNL     1       6.985   1.041  19.719  1.00  0.00    -0.385 N 
ATOM     25  H42 UNL     1       6.239   1.719  19.879  1.00  0.00     0.157 HD
ATOM     26  H41 UNL     1       6.930   0.068  20.020  1.00  0.00     0.157 HD
ENDBRANCH  16  17
ENDBRANCH  11  16
BRANCH  12  27
HETATM   27  O3  UNL     1       7.447   7.033  18.469  1.00  0.00    -0.388 OA
ATOM     28  H3  UNL     1       8.177   7.629  18.354  1.00  0.00     0.210 HD
ENDBRANCH  12  27
BRANCH   8  29
HETATM   29  C9  UNL     1       3.366   5.309  21.972  1.00  0.00     0.339 C 
BRANCH  29  30
HETATM   30  N2  UNL     1       3.049   3.959  22.448  1.00  0.00    -0.070 N 
HETATM   31  C10 UNL     1       2.041   3.326  21.626  1.00  0.00     0.272 C 
HETATM   32  C11 UNL     1       2.475   4.143  23.769  1.00  0.00     0.272 C 
HETATM   33  C12 UNL     1       4.242   3.154  22.597  1.00  0.00     0.272 C 
ENDBRANCH  29  30
ENDBRANCH   8  29
BRANCH   1  34
HETATM   34  C2  UNL     1       7.327  10.172  21.873  1.00  0.00    -0.025 C 
HETATM   35  C1  UNL     1       8.186  10.866  22.578  1.00  0.00     0.008 C 
ENDBRANCH   1  34
TORSDOF 6
ENDMDL
MODEL 4
REMARK VINA RESULT: -7.588676392      3.884      6.086
REMARK  6 active torsions:
REMARK  status: ('A' for Active; 'I' for Inactive)
REMARK    1  A    between atoms: C2_2  and  C3_3 
REMARK       I    between atoms: N1_9  and  C8_10 
REMARK    2  A    between atoms: C8_10  and  C9_12 
REMARK    3  A    between atoms: C9_12  and  N2_13 
REMARK    4  A    between atoms: C14_18  and  C15_19 
REMARK    5  A    between atoms: C15_19  and  C16_20 
REMARK    6  A    between atoms: C21_30  and  O3_31 
ROOT
HETATM    1  C3  UNL     1       6.227   9.841  18.408  1.00  0.00     0.005 C 
HETATM    2  C4  UNL     1       6.797   9.735  16.975  1.00  0.00     0.022 C 
HETATM    3  C5  UNL     1       7.338  10.276  19.254  1.00  0.00     0.088 C 
HETATM    4  C6  UNL     1       6.950  11.359  20.288  1.00  0.00     0.021 C 
HETATM    5  C7  UNL     1       8.204   9.279  19.906  1.00  0.00     0.235 C 
HETATM    6  O1  UNL     1       9.356   9.663  20.170  1.00  0.00    -0.272 OA
HETATM    7  N1  UNL     1       7.900   7.901  20.292  1.00  0.00    -0.252 N 
HETATM    8  C8  UNL     1       8.350   7.550  21.580  1.00  0.00     0.257 C 
HETATM    9  O2  UNL     1       8.007   6.495  22.167  1.00  0.00    -0.271 OA
HETATM   10  C13 UNL     1       7.082   7.092  19.457  1.00  0.00     0.049 C 
HETATM   11  C14 UNL     1       7.221   5.696  19.181  1.00  0.00     0.006 C 
HETATM   12  C21 UNL     1       5.678   7.661  19.676  1.00  0.00     0.188 C 
HETATM   13  C22 UNL     1       5.307   8.767  18.762  1.00  0.00     0.057 C 
HETATM   14  C23 UNL     1       4.712   8.069  17.515  1.00  0.00     0.032 C 
HETATM   15 BR1  UNL     1       3.673   9.519  19.586  1.00  0.00    -0.082 Br
ENDROOT
BRANCH  11  16
HETATM   16  C15 UNL     1       7.202   4.544  20.051  1.00  0.00     0.071 C 
BRANCH  16  17
HETATM   17  C16 UNL     1       8.026   3.453  19.364  1.00  0.00    -0.011 A 
HETATM   18  C17 UNL     1       8.952   3.796  18.407  1.00  0.00     0.012 A 
HETATM   19  C18 UNL     1       9.706   2.814  17.797  1.00  0.00     0.018 A 
HETATM   20  C19 UNL     1       9.528   1.478  18.151  1.00  0.00     0.089 A 
HETATM   21  N3  UNL     1       8.628   1.160  19.078  1.00  0.00    -0.352 N 
HETATM   22  C20 UNL     1       7.897   2.123  19.668  1.00  0.00     0.105 A 
ATOM     23  H3  UNL     1       8.493   0.184  19.343  1.00  0.00     0.166 HD
HETATM   24  N4  UNL     1       7.030   1.757  20.547  1.00  0.00    -0.385 N 
ATOM     25  H42 UNL     1       6.476   2.488  20.995  1.00  0.00     0.157 HD
ATOM     26  H41 UNL     1       6.935   0.767  20.774  1.00  0.00     0.157 HD
ENDBRANCH  16  17
ENDBRANCH  11  16
BRANCH  12  27
HETATM   27  O3  UNL     1       4.702   6.676  19.548  1.00  0.00    -0.388 OA
ATOM     28  H3  UNL     1       3.975   6.827  20.140  1.00  0.00     0.210 HD
ENDBRANCH  12  27
BRANCH   8  29
HETATM   29  C9  UNL     1       9.280   8.405  22.367  1.00  0.00     0.339 C 
BRANCH  29  30
HETATM   30  N2  UNL     1       8.593   8.998  23.519  1.00  0.00    -0.070 N 
HETATM   31  C10 UNL     1       7.159   9.016  23.335  1.00  0.00     0.272 C 
HETATM   32  C11 UNL     1       9.040  10.379  23.561  1.00  0.00     0.272 C 
HETATM   33  C12 UNL     1       8.995   8.370  24.759  1.00  0.00     0.272 C 
ENDBRANCH  29  30
ENDBRANCH   8  29
BRANCH   1  34
HETATM   34  C2  UNL     1       5.335  11.090  18.296  1.00  0.00    -0.025 C 
HETATM   35  C1  UNL     1       5.226  11.787  17.191  1.00  0.00     0.008 C 
ENDBRANCH   1  34
TORSDOF 6
ENDMDL
MODEL 5
REMARK VINA RESULT: -7.482001305      4.228      5.770
REMARK  6 active torsions:
REMARK  status: ('A' for Active; 'I' for Inactive)
REMARK    1  A    between atoms: C2_2  and  C3_3 
REMARK       I    between atoms: N1_9  and  C8_10 
REMARK    2  A    between atoms: C8_10  and  C9_12 
REMARK    3  A    between atoms: C9_12  and  N2_13 
REMARK    4  A    between atoms: C14_18  and  C15_19 
REMARK    5  A    between atoms: C15_19  and  C16_20 
REMARK    6  A    between atoms: C21_30  and  O3_31 
ROOT
HETATM    1  C3  UNL     1       7.591   8.627  21.960  1.00  0.00     0.005 C 
HETATM    2  C4  UNL     1       8.883   8.284  22.736  1.00  0.00     0.022 C 
HETATM    3  C5  UNL     1       6.481   8.227  22.825  1.00  0.00     0.088 C 
HETATM    4  C6  UNL     1       5.320   9.247  22.867  1.00  0.00     0.021 C 
HETATM    5  C7  UNL     1       5.921   6.868  22.724  1.00  0.00     0.235 C 
HETATM    6  O1  UNL     1       5.373   6.438  23.754  1.00  0.00    -0.272 OA
HETATM    7  N1  UNL     1       5.914   5.952  21.583  1.00  0.00    -0.252 N 
HETATM    8  C8  UNL     1       4.677   5.315  21.362  1.00  0.00     0.257 C 
HETATM    9  O2  UNL     1       4.412   4.664  20.323  1.00  0.00    -0.271 OA
HETATM   10  C13 UNL     1       7.043   5.879  20.723  1.00  0.00     0.049 C 
HETATM   11  C14 UNL     1       7.593   4.718  20.095  1.00  0.00     0.006 C 
HETATM   12  C21 UNL     1       6.962   7.179  19.919  1.00  0.00     0.188 C 
HETATM   13  C22 UNL     1       7.659   8.333  20.534  1.00  0.00     0.057 C 
HETATM   14  C23 UNL     1       9.117   8.235  20.023  1.00  0.00     0.032 C 
HETATM   15 BR1  UNL     1       6.999   9.880  19.491  1.00  0.00    -0.082 Br
ENDROOT
BRANCH  11  16
HETATM   16  C15 UNL     1       7.020   3.771  19.167  1.00  0.00     0.071 C 
BRANCH  16  17
HETATM   17  C16 UNL     1       8.117   2.760  18.828  1.00  0.00    -0.011 A 
HETATM   18  C17 UNL     1       9.239   3.171  18.147  1.00  0.00     0.012 A 
HETATM   19  C18 UNL     1      10.235   2.262  17.853  1.00  0.00     0.018 A 
HETATM   20  C19 UNL     1      10.103   0.931  18.246  1.00  0.00     0.089 A 
HETATM   21  N3  UNL     1       9.012   0.547  18.904  1.00  0.00    -0.352 N 
HETATM   22  C20 UNL     1       8.046   1.439  19.187  1.00  0.00     0.105 A 
ATOM     23  H3  UNL     1       8.909  -0.425  19.195  1.00  0.00     0.166 HD
HETATM   24  N4  UNL     1       7.005   1.009  19.812  1.00  0.00    -0.385 N 
ATOM     25  H42 UNL     1       6.272   1.686  20.026  1.00  0.00     0.157 HD
ATOM     26  H41 UNL     1       6.952   0.026  20.079  1.00  0.00     0.157 HD
ENDBRANCH  16  17
ENDBRANCH  11  16
BRANCH  12  27
HETATM   27  O3  UNL     1       7.482   7.020  18.636  1.00  0.00    -0.388 OA
ATOM     28  H3  UNL     1       6.855   6.603  18.056  1.00  0.00     0.210 HD
ENDBRANCH  12  27
BRANCH   8  29
HETATM   29  C9  UNL     1       3.563   5.358  22.349  1.00  0.00     0.339 C 
BRANCH  29  30
HETATM   30  N2  UNL     1       2.451   6.168  21.843  1.00  0.00    -0.070 N 
HETATM   31  C10 UNL     1       2.897   7.144  20.873  1.00  0.00     0.272 C 
HETATM   32  C11 UNL     1       1.956   6.902  22.996  1.00  0.00     0.272 C 
HETATM   33  C12 UNL     1       1.369   5.341  21.354  1.00  0.00     0.272 C 
ENDBRANCH  29  30
ENDBRANCH   8  29
BRANCH   1  34
HETATM   34  C2  UNL     1       7.582  10.164  22.036  1.00  0.00    -0.025 C 
HETATM   35  C1  UNL     1       8.430  10.843  22.769  1.00  0.00     0.008 C 
ENDBRANCH   1  34
TORSDOF 6
ENDMDL
