MODEL 1
REMARK VINA RESULT: -8.447897696      0.000      0.000
REMARK  6 active torsions:
REMARK  status: ('A' for Active; 'I' for Inactive)
REMARK    1  A    between atoms: C4_4  and  N1_5 
REMARK       I    between atoms: N1_5  and  C5_7 
REMARK    2  A    between atoms: C5_7  and  C6_9 
REMARK    3  A    between atoms: C7_10  and  C8_11 
REMARK       I    between atoms: C8_11  and  N2_13 
REMARK    4  A    between atoms: N2_13  and  C9_14 
REMARK    5  A    between atoms: N2_13  and  C13_18 
REMARK    6  A    between atoms: C9_14  and  C10_15 
ROOT
HETATM    1  C8  UNL     1       6.311   8.394  22.191  1.00  0.00     0.249 C 
HETATM    2  O2  UNL     1       5.518   9.322  22.585  1.00  0.00    -0.268 OA
HETATM    3  N2  UNL     1       5.727   7.137  21.887  1.00  0.00    -0.300 N 
ENDROOT
BRANCH   1   4
HETATM    4  C7  UNL     1       7.708   8.643  22.080  1.00  0.00     0.080 C 
HETATM    5  C6  UNL     1       8.649   8.510  22.959  1.00  0.00     0.080 C 
BRANCH   5   6
HETATM    6  C5  UNL     1       8.634   8.082  24.307  1.00  0.00     0.246 C 
HETATM    7  N1  UNL     1       9.413   8.827  25.273  1.00  0.00    -0.308 N 
ATOM      8  H1  UNL     1       9.346   9.845  25.302  1.00  0.00     0.170 HD
HETATM    9  O1  UNL     1       8.026   7.128  24.787  1.00  0.00    -0.268 OA
BRANCH   7  10
HETATM   10  C4  UNL     1      10.192   8.212  26.098  1.00  0.00     0.124 A 
HETATM   11  C3  UNL     1      11.566   8.132  25.914  1.00  0.00     0.076 A 
HETATM   12  C2  UNL     1      12.125   7.412  26.958  1.00  0.00     0.025 A 
HETATM   13  C1  UNL     1      13.564   7.087  27.162  1.00  0.00     0.070 C 
HETATM   14  N5  UNL     1      11.090   7.073  27.745  1.00  0.00    -0.304 N 
HETATM   15  N4  UNL     1       9.949   7.549  27.230  1.00  0.00    -0.285 N 
ATOM     16  H5  UNL     1      11.162   6.534  28.608  1.00  0.00     0.186 HD
ATOM     17  H4  UNL     1       9.026   7.424  27.644  1.00  0.00     0.188 HD
ENDBRANCH   7  10
ENDBRANCH   5   6
ENDBRANCH   1   4
BRANCH   3  18
HETATM   18  C9  UNL     1       4.382   6.930  22.415  1.00  0.00     0.137 C 
BRANCH  18  19
HETATM   19  C10 UNL     1       4.332   6.299  23.767  1.00  0.00    -0.004 C 
HETATM   20  C11 UNL     1       3.362   5.100  23.722  1.00  0.00     0.011 C 
HETATM   21  C12 UNL     1       3.707   7.222  24.827  1.00  0.00     0.011 C 
ENDBRANCH  18  19
ENDBRANCH   3  18
BRANCH   3  22
HETATM   22  C13 UNL     1       6.377   6.137  21.136  1.00  0.00     0.111 A 
HETATM   23  C14 UNL     1       7.112   6.433  19.982  1.00  0.00     0.050 A 
HETATM   24  C15 UNL     1       7.776   5.437  19.276  1.00  0.00     0.026 A 
HETATM   25  C16 UNL     1       7.721   4.132  19.706  1.00  0.00     0.045 A 
HETATM   26 BR1  UNL     1       8.606   2.706  18.791  1.00  0.00    -0.048 Br
HETATM   27  C17 UNL     1       6.994   3.851  20.844  1.00  0.00     0.098 A 
HETATM   28 BR2  UNL     1       6.844   2.077  21.537  1.00  0.00    -0.030 Br
HETATM   29  N3  UNL     1       6.387   4.833  21.470  1.00  0.00    -0.335 N 
ATOM     30  H3  UNL     1       5.861   4.578  22.306  1.00  0.00     0.168 HD
ENDBRANCH   3  22
TORSDOF 6
ENDMDL
MODEL 2
REMARK VINA RESULT: -8.138436026      2.867      4.298
REMARK  6 active torsions:
REMARK  status: ('A' for Active; 'I' for Inactive)
REMARK    1  A    between atoms: C4_4  and  N1_5 
REMARK       I    between atoms: N1_5  and  C5_7 
REMARK    2  A    between atoms: C5_7  and  C6_9 
REMARK    3  A    between atoms: C7_10  and  C8_11 
REMARK       I    between atoms: C8_11  and  N2_13 
REMARK    4  A    between atoms: N2_13  and  C9_14 
REMARK    5  A    between atoms: N2_13  and  C13_18 
REMARK    6  A    between atoms: C9_14  and  C10_15 
ROOT
HETATM    1  C8  UNL     1       7.871   9.166  21.654  1.00  0.00     0.249 C 
HETATM    2  O2  UNL     1       8.934   9.153  20.937  1.00  0.00    -0.268 OA
HETATM    3  N2  UNL     1       6.779   8.385  21.196  1.00  0.00    -0.300 N 
ENDROOT
BRANCH   1   4
HETATM    4  C7  UNL     1       7.819   9.943  22.846  1.00  0.00     0.080 C 
HETATM    5  C6  UNL     1       8.060   9.603  24.071  1.00  0.00     0.080 C 
BRANCH   5   6
HETATM    6  C5  UNL     1       8.451   8.376  24.656  1.00  0.00     0.246 C 
HETATM    7  N1  UNL     1       8.591   8.314  26.096  1.00  0.00    -0.308 N 
ATOM      8  H1  UNL     1       7.852   8.687  26.694  1.00  0.00     0.170 HD
HETATM    9  O1  UNL     1       8.695   7.315  24.087  1.00  0.00    -0.268 OA
BRANCH   7  10
HETATM   10  C4  UNL     1       9.645   7.792  26.627  1.00  0.00     0.124 A 
HETATM   11  C3  UNL     1      10.920   7.994  26.116  1.00  0.00     0.076 A 
HETATM   12  C2  UNL     1      11.838   7.308  26.897  1.00  0.00     0.025 A 
HETATM   13  C1  UNL     1      13.314   7.248  26.714  1.00  0.00     0.070 C 
HETATM   14  N5  UNL     1      11.107   6.711  27.855  1.00  0.00    -0.304 N 
HETATM   15  N4  UNL     1       9.811   7.002  27.689  1.00  0.00    -0.285 N 
ATOM     16  H5  UNL     1      11.485   6.124  28.599  1.00  0.00     0.186 HD
ATOM     17  H4  UNL     1       9.058   6.666  28.289  1.00  0.00     0.188 HD
ENDBRANCH   7  10
ENDBRANCH   5   6
ENDBRANCH   1   4
BRANCH   3  18
HETATM   18  C9  UNL     1       6.849   7.975  19.797  1.00  0.00     0.137 C 
BRANCH  18  19
HETATM   19  C10 UNL     1       6.496   6.546  19.547  1.00  0.00    -0.004 C 
HETATM   20  C11 UNL     1       7.785   5.699  19.595  1.00  0.00     0.011 C 
HETATM   21  C12 UNL     1       5.967   6.308  18.124  1.00  0.00     0.011 C 
ENDBRANCH  18  19
ENDBRANCH   3  18
BRANCH   3  22
HETATM   22  C13 UNL     1       5.687   8.020  22.009  1.00  0.00     0.111 A 
HETATM   23  C14 UNL     1       5.740   6.924  22.877  1.00  0.00     0.050 A 
HETATM   24  C15 UNL     1       4.665   6.602  23.697  1.00  0.00     0.026 A 
HETATM   25  C16 UNL     1       3.522   7.365  23.668  1.00  0.00     0.045 A 
HETATM   26 BR1  UNL     1       2.001   6.988  24.765  1.00  0.00    -0.048 Br
HETATM   27  C17 UNL     1       3.480   8.444  22.810  1.00  0.00     0.098 A 
HETATM   28 BR2  UNL     1       1.946   9.576  22.681  1.00  0.00    -0.030 Br
HETATM   29  N3  UNL     1       4.526   8.700  22.057  1.00  0.00    -0.335 N 
ATOM     30  H3  UNL     1       4.449   9.506  21.438  1.00  0.00     0.168 HD
ENDBRANCH   3  22
TORSDOF 6
ENDMDL
MODEL 3
REMARK VINA RESULT: -8.092957046      0.937      1.191
REMARK  6 active torsions:
REMARK  status: ('A' for Active; 'I' for Inactive)
REMARK    1  A    between atoms: C4_4  and  N1_5 
REMARK       I    between atoms: N1_5  and  C5_7 
REMARK    2  A    between atoms: C5_7  and  C6_9 
REMARK    3  A    between atoms: C7_10  and  C8_11 
REMARK       I    between atoms: C8_11  and  N2_13 
REMARK    4  A    between atoms: N2_13  and  C9_14 
REMARK    5  A    between atoms: N2_13  and  C13_18 
REMARK    6  A    between atoms: C9_14  and  C10_15 
ROOT
HETATM    1  C8  UNL     1       5.953   8.720  22.889  1.00  0.00     0.249 C 
HETATM    2  O2  UNL     1       5.112   9.507  23.453  1.00  0.00    -0.268 OA
HETATM    3  N2  UNL     1       5.476   7.442  22.503  1.00  0.00    -0.300 N 
ENDROOT
BRANCH   1   4
HETATM    4  C7  UNL     1       7.299   9.137  22.681  1.00  0.00     0.080 C 
HETATM    5  C6  UNL     1       8.358   8.913  23.390  1.00  0.00     0.080 C 
BRANCH   5   6
HETATM    6  C5  UNL     1       8.560   8.195  24.593  1.00  0.00     0.246 C 
HETATM    7  N1  UNL     1       9.323   8.826  25.649  1.00  0.00    -0.308 N 
ATOM      8  H1  UNL     1       9.108   9.783  25.928  1.00  0.00     0.170 HD
HETATM    9  O1  UNL     1       8.161   7.067  24.872  1.00  0.00    -0.268 OA
BRANCH   7  10
HETATM   10  C4  UNL     1      10.275   8.184  26.240  1.00  0.00     0.124 A 
HETATM   11  C3  UNL     1      11.589   8.212  25.792  1.00  0.00     0.076 A 
HETATM   12  C2  UNL     1      12.372   7.430  26.627  1.00  0.00     0.025 A 
HETATM   13  C1  UNL     1      13.836   7.180  26.519  1.00  0.00     0.070 C 
HETATM   14  N5  UNL     1      11.526   6.949  27.553  1.00  0.00    -0.304 N 
HETATM   15  N4  UNL     1      10.287   7.398  27.317  1.00  0.00    -0.285 N 
ATOM     16  H5  UNL     1      11.788   6.332  28.322  1.00  0.00     0.186 HD
ATOM     17  H4  UNL     1       9.468   7.173  27.883  1.00  0.00     0.188 HD
ENDBRANCH   7  10
ENDBRANCH   5   6
ENDBRANCH   1   4
BRANCH   3  18
HETATM   18  C9  UNL     1       4.220   7.031  23.124  1.00  0.00     0.137 C 
BRANCH  18  19
HETATM   19  C10 UNL     1       3.039   7.041  22.210  1.00  0.00    -0.004 C 
HETATM   20  C11 UNL     1       1.863   7.738  22.924  1.00  0.00     0.011 C 
HETATM   21  C12 UNL     1       2.498   5.630  21.927  1.00  0.00     0.011 C 
ENDBRANCH  18  19
ENDBRANCH   3  18
BRANCH   3  22
HETATM   22  C13 UNL     1       6.147   6.602  21.591  1.00  0.00     0.111 A 
HETATM   23  C14 UNL     1       6.829   7.108  20.478  1.00  0.00     0.050 A 
HETATM   24  C15 UNL     1       7.515   6.266  19.610  1.00  0.00     0.026 A 
HETATM   25  C16 UNL     1       7.534   4.910  19.836  1.00  0.00     0.045 A 
HETATM   26 BR1  UNL     1       8.454   3.687  18.689  1.00  0.00    -0.048 Br
HETATM   27  C17 UNL     1       6.859   4.422  20.935  1.00  0.00     0.098 A 
HETATM   28 BR2  UNL     1       6.814   2.558  21.349  1.00  0.00    -0.030 Br
HETATM   29  N3  UNL     1       6.227   5.265  21.720  1.00  0.00    -0.335 N 
ATOM     30  H3  UNL     1       5.742   4.858  22.520  1.00  0.00     0.168 HD
ENDBRANCH   3  22
TORSDOF 6
ENDMDL
MODEL 4
REMARK VINA RESULT: -8.085478447      2.632      4.312
REMARK  6 active torsions:
REMARK  status: ('A' for Active; 'I' for Inactive)
REMARK    1  A    between atoms: C4_4  and  N1_5 
REMARK       I    between atoms: N1_5  and  C5_7 
REMARK    2  A    between atoms: C5_7  and  C6_9 
REMARK    3  A    between atoms: C7_10  and  C8_11 
REMARK       I    between atoms: C8_11  and  N2_13 
REMARK    4  A    between atoms: N2_13  and  C9_14 
REMARK    5  A    between atoms: N2_13  and  C13_18 
REMARK    6  A    between atoms: C9_14  and  C10_15 
ROOT
HETATM    1  C8  UNL     1       7.967   9.484  21.538  1.00  0.00     0.249 C 
HETATM    2  O2  UNL     1       9.026   9.359  20.825  1.00  0.00    -0.268 OA
HETATM    3  N2  UNL     1       6.793   8.847  21.060  1.00  0.00    -0.300 N 
ENDROOT
BRANCH   1   4
HETATM    4  C7  UNL     1       8.000  10.238  22.745  1.00  0.00     0.080 C 
HETATM    5  C6  UNL     1       8.238   9.854  23.958  1.00  0.00     0.080 C 
BRANCH   5   6
HETATM    6  C5  UNL     1       8.541   8.588  24.511  1.00  0.00     0.246 C 
HETATM    7  N1  UNL     1       8.582   8.459  25.953  1.00  0.00    -0.308 N 
ATOM      8  H1  UNL     1       7.820   8.836  26.518  1.00  0.00     0.170 HD
HETATM    9  O1  UNL     1       8.782   7.543  23.912  1.00  0.00    -0.268 OA
BRANCH   7  10
HETATM   10  C4  UNL     1       9.577   7.872  26.528  1.00  0.00     0.124 A 
HETATM   11  C3  UNL     1      10.887   8.013  26.088  1.00  0.00     0.076 A 
HETATM   12  C2  UNL     1      11.724   7.265  26.901  1.00  0.00     0.025 A 
HETATM   13  C1  UNL     1      13.203   7.129  26.793  1.00  0.00     0.070 C 
HETATM   14  N5  UNL     1      10.914   6.693  27.807  1.00  0.00    -0.304 N 
HETATM   15  N4  UNL     1       9.646   7.056  27.580  1.00  0.00    -0.285 N 
ATOM     16  H5  UNL     1      11.220   6.073  28.558  1.00  0.00     0.186 HD
ATOM     17  H4  UNL     1       8.845   6.751  28.134  1.00  0.00     0.188 HD
ENDBRANCH   7  10
ENDBRANCH   5   6
ENDBRANCH   1   4
BRANCH   3  18
HETATM   18  C9  UNL     1       6.822   8.460  19.653  1.00  0.00     0.137 C 
BRANCH  18  19
HETATM   19  C10 UNL     1       5.998   9.318  18.752  1.00  0.00    -0.004 C 
HETATM   20  C11 UNL     1       5.271   8.417  17.732  1.00  0.00     0.011 C 
HETATM   21  C12 UNL     1       6.853  10.239  17.867  1.00  0.00     0.011 C 
ENDBRANCH  18  19
ENDBRANCH   3  18
BRANCH   3  22
HETATM   22  C13 UNL     1       5.661   8.598  21.862  1.00  0.00     0.111 A 
HETATM   23  C14 UNL     1       4.808   9.624  22.285  1.00  0.00     0.050 A 
HETATM   24  C15 UNL     1       3.677   9.352  23.045  1.00  0.00     0.026 A 
HETATM   25  C16 UNL     1       3.375   8.057  23.394  1.00  0.00     0.045 A 
HETATM   26 BR1  UNL     1       1.837   7.602  24.436  1.00  0.00    -0.048 Br
HETATM   27  C17 UNL     1       4.221   7.053  22.972  1.00  0.00     0.098 A 
HETATM   28 BR2  UNL     1       3.905   5.218  23.397  1.00  0.00    -0.030 Br
HETATM   29  N3  UNL     1       5.276   7.369  22.257  1.00  0.00    -0.335 N 
ATOM     30  H3  UNL     1       5.873   6.595  21.968  1.00  0.00     0.168 HD
ENDBRANCH   3  22
TORSDOF 6
ENDMDL
MODEL 5
REMARK VINA RESULT: -8.056608868      1.201      1.545
REMARK  6 active torsions:
REMARK  status: ('A' for Active; 'I' for Inactive)
REMARK    1  A    between atoms: C4_4  and  N1_5 
REMARK       I    between atoms: N1_5  and  C5_7 
REMARK    2  A    between atoms: C5_7  and  C6_9 
REMARK    3  A    between atoms: C7_10  and  C8_11 
REMARK       I    between atoms: C8_11  and  N2_13 
REMARK    4  A    between atoms: N2_13  and  C9_14 
REMARK    5  A    between atoms: N2_13  and  C13_18 
REMARK    6  A    between atoms: C9_14  and  C10_15 
ROOT
HETATM    1  C8  UNL     1       6.197   8.975  22.467  1.00  0.00     0.249 C 
HETATM    2  O2  UNL     1       5.462   9.883  22.997  1.00  0.00    -0.268 OA
HETATM    3  N2  UNL     1       5.559   7.758  22.115  1.00  0.00    -0.300 N 
ENDROOT
BRANCH   1   4
HETATM    4  C7  UNL     1       7.586   9.208  22.259  1.00  0.00     0.080 C 
HETATM    5  C6  UNL     1       8.599   8.917  23.011  1.00  0.00     0.080 C 
BRANCH   5   6
HETATM    6  C5  UNL     1       8.693   8.283  24.272  1.00  0.00     0.246 C 
HETATM    7  N1  UNL     1       9.434   8.949  25.322  1.00  0.00    -0.308 N 
ATOM      8  H1  UNL     1       9.261   9.936  25.517  1.00  0.00     0.170 HD
HETATM    9  O1  UNL     1       8.213   7.204  24.610  1.00  0.00    -0.268 OA
BRANCH   7  10
HETATM   10  C4  UNL     1      10.313   8.303  26.012  1.00  0.00     0.124 A 
HETATM   11  C3  UNL     1      11.654   8.249  25.657  1.00  0.00     0.076 A 
HETATM   12  C2  UNL     1      12.342   7.485  26.586  1.00  0.00     0.025 A 
HETATM   13  C1  UNL     1      13.797   7.167  26.596  1.00  0.00     0.070 C 
HETATM   14  N5  UNL     1      11.413   7.094  27.476  1.00  0.00    -0.304 N 
HETATM   15  N4  UNL     1      10.215   7.582  27.130  1.00  0.00    -0.285 N 
ATOM     16  H5  UNL     1      11.595   6.513  28.295  1.00  0.00     0.186 HD
ATOM     17  H4  UNL     1       9.351   7.424  27.648  1.00  0.00     0.188 HD
ENDBRANCH   7  10
ENDBRANCH   5   6
ENDBRANCH   1   4
BRANCH   3  18
HETATM   18  C9  UNL     1       4.257   7.534  22.735  1.00  0.00     0.137 C 
BRANCH  18  19
HETATM   19  C10 UNL     1       4.291   6.700  23.973  1.00  0.00    -0.004 C 
HETATM   20  C11 UNL     1       3.067   5.761  23.975  1.00  0.00     0.011 C 
HETATM   21  C12 UNL     1       4.102   7.532  25.252  1.00  0.00     0.011 C 
ENDBRANCH  18  19
ENDBRANCH   3  18
BRANCH   3  22
HETATM   22  C13 UNL     1       6.121   6.810  21.236  1.00  0.00     0.111 A 
HETATM   23  C14 UNL     1       7.052   5.858  21.666  1.00  0.00     0.050 A 
HETATM   24  C15 UNL     1       7.567   4.908  20.791  1.00  0.00     0.026 A 
HETATM   25  C16 UNL     1       7.163   4.890  19.477  1.00  0.00     0.045 A 
HETATM   26 BR1  UNL     1       7.824   3.617  18.212  1.00  0.00    -0.048 Br
HETATM   27  C17 UNL     1       6.245   5.832  19.064  1.00  0.00     0.098 A 
HETATM   28 BR2  UNL     1       5.611   5.907  17.263  1.00  0.00    -0.030 Br
HETATM   29  N3  UNL     1       5.794   6.706  19.934  1.00  0.00    -0.335 N 
ATOM     30  H3  UNL     1       5.117   7.384  19.584  1.00  0.00     0.168 HD
ENDBRANCH   3  22
TORSDOF 6
ENDMDL
