MODEL 1
REMARK VINA RESULT: -9.147359035      0.000      0.000
REMARK  7 active torsions:
REMARK  status: ('A' for Active; 'I' for Inactive)
REMARK       I    between atoms: C1_2  and  N1_3 
REMARK       I    between atoms: C1_2  and  N5_23 
REMARK    1  A    between atoms: N1_3  and  C2_5 
REMARK    2  A    between atoms: C2_5  and  C3_6 
REMARK    3  A    between atoms: C3_6  and  C4_7 
REMARK    4  A    between atoms: C4_7  and  N2_8 
REMARK    5  A    between atoms: N3_11  and  C7_12 
REMARK    6  A    between atoms: C7_12  and  N4_14 
REMARK    7  A    between atoms: N5_23  and  C15_25 
ROOT
HETATM    1  C2  UNL     1       6.622   6.895  20.098  1.00  0.00     0.129 C 
ENDROOT
BRANCH   1   2
HETATM    2  N1  UNL     1       7.091   5.553  20.394  1.00  0.00    -0.343 N 
HETATM    3  C1  UNL     1       7.362   4.636  19.345  1.00  0.00     0.316 C 
HETATM    4  O1  UNL     1       7.182   5.025  18.154  1.00  0.00    -0.247 OA
HETATM    5  N5  UNL     1       7.821   3.326  19.631  1.00  0.00    -0.333 N 
ATOM      6  H5  UNL     1       7.943   3.082  20.614  1.00  0.00     0.165 HD
ATOM      7  H1  UNL     1       7.226   5.268  21.364  1.00  0.00     0.164 HD
BRANCH   5   8
HETATM    8  C15 UNL     1       8.127   2.316  18.671  1.00  0.00     0.040 C 
HETATM    9  C16 UNL     1       8.588   1.018  19.351  1.00  0.00     0.036 C 
HETATM   10  C17 UNL     1       9.354   0.383  18.200  1.00  0.00    -0.010 C 
HETATM   11  C18 UNL     1      10.278   1.553  17.835  1.00  0.00     0.012 C 
HETATM   12  C22 UNL     1       8.435   0.087  17.050  1.00  0.00     0.030 C 
HETATM   13  C19 UNL     1       9.227   2.668  17.709  1.00  0.00     0.016 C 
HETATM   14  C20 UNL     1       8.641   2.463  16.315  1.00  0.00     0.033 C 
HETATM   15  C21 UNL     1       7.679   1.304  16.612  1.00  0.00     0.040 C 
HETATM   16 CL1  UNL     1       6.614   0.966  15.264  1.00  0.00    -0.119 Cl
HETATM   17  C23 UNL     1       6.936   1.900  17.815  1.00  0.00     0.057 C 
ENDBRANCH   5   8
ENDBRANCH   1   2
BRANCH   1  18
HETATM   18  C3  UNL     1       7.817   7.785  19.768  1.00  0.00     0.064 C 
BRANCH  18  19
HETATM   19  C4  UNL     1       7.380   9.149  19.313  1.00  0.00     0.060 C 
BRANCH  19  20
HETATM   20  N2  UNL     1       7.099  10.071  20.329  1.00  0.00    -0.390 N 
HETATM   21  C5  UNL     1       8.152  10.719  21.003  1.00  0.00     0.141 C 
HETATM   22  C6  UNL     1       7.547  11.361  22.276  1.00  0.00     0.145 C 
HETATM   23  N3  UNL     1       6.586  10.434  22.724  1.00  0.00    -0.355 N 
HETATM   24  C13 UNL     1       5.308  10.505  21.948  1.00  0.00     0.145 C 
HETATM   25  C14 UNL     1       5.778  10.535  20.502  1.00  0.00     0.141 C 
BRANCH  23  26
HETATM   26  C7  UNL     1       6.666   9.491  23.719  1.00  0.00     0.172 C 
HETATM   27  S1  UNL     1       5.319   9.336  24.753  1.00  0.00    -0.041 SA
BRANCH  26  28
HETATM   28  N4  UNL     1       7.696   8.618  24.018  1.00  0.00    -0.358 N 
HETATM   29  C8  UNL     1       8.847   8.284  23.254  1.00  0.00     0.128 C 
HETATM   30  C9  UNL     1      10.022   9.044  23.870  1.00  0.00     0.057 C 
HETATM   31  C10 UNL     1       9.820   9.066  25.381  1.00  0.00     0.173 C 
HETATM   32  F1  UNL     1      11.050   9.088  25.972  1.00  0.00    -0.249 F 
HETATM   33  C11 UNL     1       9.071   7.823  25.831  1.00  0.00     0.057 C 
HETATM   34  C12 UNL     1       7.643   7.934  25.354  1.00  0.00     0.128 C 
ENDBRANCH  26  28
ENDBRANCH  23  26
ENDBRANCH  19  20
ENDBRANCH  18  19
ENDBRANCH   1  18
TORSDOF 7
ENDMDL
MODEL 2
REMARK VINA RESULT: -8.989445799      1.121      1.757
REMARK  7 active torsions:
REMARK  status: ('A' for Active; 'I' for Inactive)
REMARK       I    between atoms: C1_2  and  N1_3 
REMARK       I    between atoms: C1_2  and  N5_23 
REMARK    1  A    between atoms: N1_3  and  C2_5 
REMARK    2  A    between atoms: C2_5  and  C3_6 
REMARK    3  A    between atoms: C3_6  and  C4_7 
REMARK    4  A    between atoms: C4_7  and  N2_8 
REMARK    5  A    between atoms: N3_11  and  C7_12 
REMARK    6  A    between atoms: C7_12  and  N4_14 
REMARK    7  A    between atoms: N5_23  and  C15_25 
ROOT
HETATM    1  C2  UNL     1       6.553   6.996  20.257  1.00  0.00     0.129 C 
ENDROOT
BRANCH   1   2
HETATM    2  N1  UNL     1       7.710   6.210  19.867  1.00  0.00    -0.343 N 
HETATM    3  C1  UNL     1       7.546   4.934  19.267  1.00  0.00     0.316 C 
HETATM    4  O1  UNL     1       6.367   4.509  19.087  1.00  0.00    -0.247 OA
HETATM    5  N5  UNL     1       8.673   4.165  18.884  1.00  0.00    -0.333 N 
ATOM      6  H5  UNL     1       9.592   4.570  19.059  1.00  0.00     0.165 HD
ATOM      7  H1  UNL     1       8.648   6.578  20.026  1.00  0.00     0.164 HD
BRANCH   5   8
HETATM    8  C15 UNL     1       8.640   2.875  18.276  1.00  0.00     0.040 C 
HETATM    9  C16 UNL     1       8.067   2.943  16.852  1.00  0.00     0.036 C 
HETATM   10  C17 UNL     1       7.622   1.498  16.684  1.00  0.00    -0.010 C 
HETATM   11  C18 UNL     1       6.778   1.344  17.957  1.00  0.00     0.012 C 
HETATM   12  C22 UNL     1       8.801   0.569  16.743  1.00  0.00     0.030 C 
HETATM   13  C19 UNL     1       7.795   1.857  18.990  1.00  0.00     0.016 C 
HETATM   14  C20 UNL     1       8.706   0.659  19.235  1.00  0.00     0.033 C 
HETATM   15  C21 UNL     1       9.603   0.764  17.993  1.00  0.00     0.040 C 
HETATM   16 CL1  UNL     1      10.972  -0.324  18.071  1.00  0.00    -0.119 Cl
HETATM   17  C23 UNL     1      10.014   2.238  18.107  1.00  0.00     0.057 C 
ENDBRANCH   5   8
ENDBRANCH   1   2
BRANCH   1  18
HETATM   18  C3  UNL     1       6.235   8.004  19.156  1.00  0.00     0.064 C 
BRANCH  18  19
HETATM   19  C4  UNL     1       7.184   9.169  19.184  1.00  0.00     0.060 C 
BRANCH  19  20
HETATM   20  N2  UNL     1       6.994  10.086  20.226  1.00  0.00    -0.390 N 
HETATM   21  C5  UNL     1       8.108  10.641  20.886  1.00  0.00     0.141 C 
HETATM   22  C6  UNL     1       7.581  11.297  22.187  1.00  0.00     0.145 C 
HETATM   23  N3  UNL     1       6.566  10.431  22.640  1.00  0.00    -0.355 N 
HETATM   24  C13 UNL     1       5.279  10.611  21.898  1.00  0.00     0.145 C 
HETATM   25  C14 UNL     1       5.715  10.640  20.442  1.00  0.00     0.141 C 
BRANCH  23  26
HETATM   26  C7  UNL     1       6.602   9.463  23.613  1.00  0.00     0.172 C 
HETATM   27  S1  UNL     1       5.209   9.281  24.579  1.00  0.00    -0.041 SA
BRANCH  26  28
HETATM   28  N4  UNL     1       7.618   8.582  23.936  1.00  0.00    -0.358 N 
HETATM   29  C8  UNL     1       8.755   8.197  23.176  1.00  0.00     0.128 C 
HETATM   30  C9  UNL     1       9.950   8.957  23.752  1.00  0.00     0.057 C 
HETATM   31  C10 UNL     1       9.763   9.042  25.263  1.00  0.00     0.173 C 
HETATM   32  F1  UNL     1      10.998   9.063  25.841  1.00  0.00    -0.249 F 
HETATM   33  C11 UNL     1       8.995   7.831  25.767  1.00  0.00     0.057 C 
HETATM   34  C12 UNL     1       7.565   7.952  25.299  1.00  0.00     0.128 C 
ENDBRANCH  26  28
ENDBRANCH  23  26
ENDBRANCH  19  20
ENDBRANCH  18  19
ENDBRANCH   1  18
TORSDOF 7
ENDMDL
MODEL 3
REMARK VINA RESULT: -8.820336338      2.258      2.966
REMARK  7 active torsions:
REMARK  status: ('A' for Active; 'I' for Inactive)
REMARK       I    between atoms: C1_2  and  N1_3 
REMARK       I    between atoms: C1_2  and  N5_23 
REMARK    1  A    between atoms: N1_3  and  C2_5 
REMARK    2  A    between atoms: C2_5  and  C3_6 
REMARK    3  A    between atoms: C3_6  and  C4_7 
REMARK    4  A    between atoms: C4_7  and  N2_8 
REMARK    5  A    between atoms: N3_11  and  C7_12 
REMARK    6  A    between atoms: C7_12  and  N4_14 
REMARK    7  A    between atoms: N5_23  and  C15_25 
ROOT
HETATM    1  C2  UNL     1       4.666   3.401  22.592  1.00  0.00     0.129 C 
ENDROOT
BRANCH   1   2
HETATM    2  N1  UNL     1       5.819   3.690  21.758  1.00  0.00    -0.343 N 
HETATM    3  C1  UNL     1       6.210   2.790  20.733  1.00  0.00     0.316 C 
HETATM    4  O1  UNL     1       5.527   1.736  20.573  1.00  0.00    -0.247 OA
HETATM    5  N5  UNL     1       7.335   3.069  19.916  1.00  0.00    -0.333 N 
ATOM      6  H5  UNL     1       7.838   3.937  20.101  1.00  0.00     0.165 HD
ATOM      7  H1  UNL     1       6.351   4.547  21.910  1.00  0.00     0.164 HD
BRANCH   5   8
HETATM    8  C15 UNL     1       7.827   2.248  18.858  1.00  0.00     0.040 C 
HETATM    9  C16 UNL     1       8.486   0.971  19.402  1.00  0.00     0.036 C 
HETATM   10  C17 UNL     1       9.374   0.615  18.219  1.00  0.00    -0.010 C 
HETATM   11  C18 UNL     1      10.095   1.956  18.031  1.00  0.00     0.012 C 
HETATM   12  C22 UNL     1       8.543   0.312  17.005  1.00  0.00     0.030 C 
HETATM   13  C19 UNL     1       8.873   2.889  17.990  1.00  0.00     0.016 C 
HETATM   14  C20 UNL     1       8.361   2.762  16.559  1.00  0.00     0.033 C 
HETATM   15  C21 UNL     1       7.602   1.432  16.680  1.00  0.00     0.040 C 
HETATM   16 CL1  UNL     1       6.639   1.088  15.258  1.00  0.00    -0.119 Cl
HETATM   17  C23 UNL     1       6.743   1.747  17.911  1.00  0.00     0.057 C 
ENDBRANCH   5   8
ENDBRANCH   1   2
BRANCH   1  18
HETATM   18  C3  UNL     1       3.693   4.576  22.531  1.00  0.00     0.064 C 
BRANCH  18  19
HETATM   19  C4  UNL     1       4.323   5.781  21.891  1.00  0.00     0.060 C 
BRANCH  19  20
HETATM   20  N2  UNL     1       4.482   6.899  22.719  1.00  0.00    -0.390 N 
HETATM   21  C5  UNL     1       4.578   8.185  22.155  1.00  0.00     0.141 C 
HETATM   22  C6  UNL     1       5.109   9.128  23.264  1.00  0.00     0.145 C 
HETATM   23  N3  UNL     1       6.043   8.352  23.977  1.00  0.00    -0.355 N 
HETATM   24  C13 UNL     1       5.395   7.405  24.939  1.00  0.00     0.145 C 
HETATM   25  C14 UNL     1       4.291   6.767  24.111  1.00  0.00     0.141 C 
BRANCH  23  26
HETATM   26  C7  UNL     1       7.414   8.324  23.896  1.00  0.00     0.172 C 
HETATM   27  S1  UNL     1       8.097   7.493  22.573  1.00  0.00    -0.041 SA
BRANCH  26  28
HETATM   28  N4  UNL     1       8.353   8.887  24.740  1.00  0.00    -0.358 N 
HETATM   29  C8  UNL     1       8.654   8.573  26.093  1.00  0.00     0.128 C 
HETATM   30  C9  UNL     1       9.940   7.746  26.080  1.00  0.00     0.057 C 
HETATM   31  C10 UNL     1      10.837   8.299  24.978  1.00  0.00     0.173 C 
HETATM   32  F1  UNL     1      12.135   8.104  25.352  1.00  0.00    -0.249 F 
HETATM   33  C11 UNL     1      10.589   9.787  24.795  1.00  0.00     0.057 C 
HETATM   34  C12 UNL     1       9.228   9.964  24.165  1.00  0.00     0.128 C 
ENDBRANCH  26  28
ENDBRANCH  23  26
ENDBRANCH  19  20
ENDBRANCH  18  19
ENDBRANCH   1  18
TORSDOF 7
ENDMDL
MODEL 4
REMARK VINA RESULT: -8.781494583      1.667      2.218
REMARK  7 active torsions:
REMARK  status: ('A' for Active; 'I' for Inactive)
REMARK       I    between atoms: C1_2  and  N1_3 
REMARK       I    between atoms: C1_2  and  N5_23 
REMARK    1  A    between atoms: N1_3  and  C2_5 
REMARK    2  A    between atoms: C2_5  and  C3_6 
REMARK    3  A    between atoms: C3_6  and  C4_7 
REMARK    4  A    between atoms: C4_7  and  N2_8 
REMARK    5  A    between atoms: N3_11  and  C7_12 
REMARK    6  A    between atoms: C7_12  and  N4_14 
REMARK    7  A    between atoms: N5_23  and  C15_25 
ROOT
HETATM    1  C2  UNL     1       6.171   7.333  19.513  1.00  0.00     0.129 C 
ENDROOT
BRANCH   1   2
HETATM    2  N1  UNL     1       6.572   6.018  19.979  1.00  0.00    -0.343 N 
HETATM    3  C1  UNL     1       6.969   5.016  19.055  1.00  0.00     0.316 C 
HETATM    4  O1  UNL     1       6.961   5.307  17.822  1.00  0.00    -0.247 OA
HETATM    5  N5  UNL     1       7.362   3.731  19.506  1.00  0.00    -0.333 N 
ATOM      6  H5  UNL     1       7.345   3.568  20.512  1.00  0.00     0.165 HD
ATOM      7  H1  UNL     1       6.568   5.812  20.978  1.00  0.00     0.164 HD
BRANCH   5   8
HETATM    8  C15 UNL     1       7.780   2.645  18.681  1.00  0.00     0.040 C 
HETATM    9  C16 UNL     1       8.177   1.423  19.524  1.00  0.00     0.036 C 
HETATM   10  C17 UNL     1       9.070   0.701  18.526  1.00  0.00    -0.010 C 
HETATM   11  C18 UNL     1      10.016   1.850  18.155  1.00  0.00     0.012 C 
HETATM   12  C22 UNL     1       8.283   0.283  17.316  1.00  0.00     0.030 C 
HETATM   13  C19 UNL     1       8.974   2.928  17.814  1.00  0.00     0.016 C 
HETATM   14  C20 UNL     1       8.545   2.586  16.390  1.00  0.00     0.033 C 
HETATM   15  C21 UNL     1       7.567   1.441  16.689  1.00  0.00     0.040 C 
HETATM   16 CL1  UNL     1       6.658   0.960  15.273  1.00  0.00    -0.119 Cl
HETATM   17  C23 UNL     1       6.693   2.128  17.746  1.00  0.00     0.057 C 
ENDBRANCH   5   8
ENDBRANCH   1   2
BRANCH   1  18
HETATM   18  C3  UNL     1       4.743   7.616  19.972  1.00  0.00     0.064 C 
BRANCH  18  19
HETATM   19  C4  UNL     1       4.661   8.887  20.769  1.00  0.00     0.060 C 
BRANCH  19  20
HETATM   20  N2  UNL     1       4.810   8.749  22.155  1.00  0.00    -0.390 N 
HETATM   21  C5  UNL     1       4.924   9.893  22.968  1.00  0.00     0.141 C 
HETATM   22  C6  UNL     1       5.440   9.417  24.349  1.00  0.00     0.145 C 
HETATM   23  N3  UNL     1       6.356   8.388  24.055  1.00  0.00    -0.355 N 
HETATM   24  C13 UNL     1       5.684   7.089  23.735  1.00  0.00     0.145 C 
HETATM   25  C14 UNL     1       4.592   7.492  22.756  1.00  0.00     0.141 C 
BRANCH  23  26
HETATM   26  C7  UNL     1       7.727   8.417  23.996  1.00  0.00     0.172 C 
HETATM   27  S1  UNL     1       8.458   7.794  22.588  1.00  0.00    -0.041 SA
BRANCH  26  28
HETATM   28  N4  UNL     1       8.634   8.893  24.926  1.00  0.00    -0.358 N 
HETATM   29  C8  UNL     1       8.814   8.519  26.286  1.00  0.00     0.128 C 
HETATM   30  C9  UNL     1      10.044   7.613  26.335  1.00  0.00     0.057 C 
HETATM   31  C10 UNL     1      11.053   8.142  25.322  1.00  0.00     0.173 C 
HETATM   32  F1  UNL     1      12.305   7.853  25.781  1.00  0.00    -0.249 F 
HETATM   33  C11 UNL     1      10.910   9.648  25.174  1.00  0.00     0.057 C 
HETATM   34  C12 UNL     1       9.613   9.930  24.454  1.00  0.00     0.128 C 
ENDBRANCH  26  28
ENDBRANCH  23  26
ENDBRANCH  19  20
ENDBRANCH  18  19
ENDBRANCH   1  18
TORSDOF 7
ENDMDL
MODEL 5
REMARK VINA RESULT: -8.737175804      2.322      3.738
REMARK  7 active torsions:
REMARK  status: ('A' for Active; 'I' for Inactive)
REMARK       I    between atoms: C1_2  and  N1_3 
REMARK       I    between atoms: C1_2  and  N5_23 
REMARK    1  A    between atoms: N1_3  and  C2_5 
REMARK    2  A    between atoms: C2_5  and  C3_6 
REMARK    3  A    between atoms: C3_6  and  C4_7 
REMARK    4  A    between atoms: C4_7  and  N2_8 
REMARK    5  A    between atoms: N3_11  and  C7_12 
REMARK    6  A    between atoms: C7_12  and  N4_14 
REMARK    7  A    between atoms: N5_23  and  C15_25 
ROOT
HETATM    1  C2  UNL     1       6.403   5.935  21.512  1.00  0.00     0.129 C 
ENDROOT
BRANCH   1   2
HETATM    2  N1  UNL     1       6.893   4.570  21.446  1.00  0.00    -0.343 N 
HETATM    3  C1  UNL     1       7.272   4.000  20.203  1.00  0.00     0.316 C 
HETATM    4  O1  UNL     1       7.169   4.716  19.164  1.00  0.00    -0.247 OA
HETATM    5  N5  UNL     1       7.751   2.667  20.135  1.00  0.00    -0.333 N 
ATOM      6  H5  UNL     1       7.808   2.150  21.012  1.00  0.00     0.165 HD
ATOM      7  H1  UNL     1       6.964   4.017  22.300  1.00  0.00     0.164 HD
BRANCH   5   8
HETATM    8  C15 UNL     1       8.161   1.983  18.952  1.00  0.00     0.040 C 
HETATM    9  C16 UNL     1       8.870   0.662  19.287  1.00  0.00     0.036 C 
HETATM   10  C17 UNL     1       9.661   0.461  18.003  1.00  0.00    -0.010 C 
HETATM   11  C18 UNL     1      10.356   1.827  17.917  1.00  0.00     0.012 C 
HETATM   12  C22 UNL     1       8.735   0.290  16.832  1.00  0.00     0.030 C 
HETATM   13  C19 UNL     1       9.129   2.739  18.085  1.00  0.00     0.016 C 
HETATM   14  C20 UNL     1       8.503   2.771  16.694  1.00  0.00     0.033 C 
HETATM   15  C21 UNL     1       7.764   1.425  16.718  1.00  0.00     0.040 C 
HETATM   16 CL1  UNL     1       6.691   1.235  15.347  1.00  0.00    -0.119 Cl
HETATM   17  C23 UNL     1       7.007   1.580  18.043  1.00  0.00     0.057 C 
ENDBRANCH   5   8
ENDBRANCH   1   2
BRANCH   1  18
HETATM   18  C3  UNL     1       4.952   5.927  21.984  1.00  0.00     0.064 C 
BRANCH  18  19
HETATM   19  C4  UNL     1       4.836   6.361  23.418  1.00  0.00     0.060 C 
BRANCH  19  20
HETATM   20  N2  UNL     1       5.026   7.728  23.660  1.00  0.00    -0.390 N 
HETATM   21  C5  UNL     1       4.432   8.682  22.811  1.00  0.00     0.141 C 
HETATM   22  C6  UNL     1       5.117  10.039  23.107  1.00  0.00     0.145 C 
HETATM   23  N3  UNL     1       6.468   9.716  23.344  1.00  0.00    -0.355 N 
HETATM   24  C13 UNL     1       6.700   9.173  24.719  1.00  0.00     0.145 C 
HETATM   25  C14 UNL     1       5.590   8.147  24.883  1.00  0.00     0.141 C 
BRANCH  23  26
HETATM   26  C7  UNL     1       7.554   9.799  22.509  1.00  0.00     0.172 C 
HETATM   27  S1  UNL     1       8.786   8.639  22.719  1.00  0.00    -0.041 SA
BRANCH  26  28
HETATM   28  N4  UNL     1       7.811  10.701  21.492  1.00  0.00    -0.358 N 
HETATM   29  C8  UNL     1       7.789  10.504  20.084  1.00  0.00     0.128 C 
HETATM   30  C9  UNL     1       6.482  11.111  19.574  1.00  0.00     0.057 C 
HETATM   31  C10 UNL     1       6.200  12.366  20.394  1.00  0.00     0.173 C 
HETATM   32  F1  UNL     1       5.522  13.245  19.601  1.00  0.00    -0.249 F 
HETATM   33  C11 UNL     1       7.504  13.003  20.846  1.00  0.00     0.057 C 
HETATM   34  C12 UNL     1       8.125  12.113  21.896  1.00  0.00     0.128 C 
ENDBRANCH  26  28
ENDBRANCH  23  26
ENDBRANCH  19  20
ENDBRANCH  18  19
ENDBRANCH   1  18
TORSDOF 7
ENDMDL
