MODEL 1
REMARK VINA RESULT: -7.287902663      0.000      0.000
REMARK  5 active torsions:
REMARK  status: ('A' for Active; 'I' for Inactive)
REMARK    1  A    between atoms: C8_10  and  C9_11 
REMARK    2  A    between atoms: C9_11  and  C10_12 
REMARK    3  A    between atoms: C10_12  and  C11_13 
REMARK    4  A    between atoms: C10_12  and  C13_16 
REMARK       I    between atoms: C13_16  and  N1_18 
REMARK    5  A    between atoms: N1_18  and  C14_20 
ROOT
HETATM    1  C1  UNL     1       3.682   1.482  18.829  1.00  0.00     0.018 C 
HETATM    2  C2  UNL     1       4.728   2.060  18.980  1.00  0.00    -0.074 C 
HETATM    3  C3  UNL     1       5.986   2.766  19.184  1.00  0.00     0.063 A 
HETATM    4  C4  UNL     1       7.160   2.302  18.633  1.00  0.00     0.049 A 
HETATM    5 BR1  UNL     1       7.108   0.703  17.590  1.00  0.00    -0.048 Br
HETATM    6  C5  UNL     1       8.377   2.940  18.802  1.00  0.00     0.030 A 
HETATM    7 BR2  UNL     1       9.975   2.243  18.012  1.00  0.00    -0.050 Br
HETATM    8  C6  UNL     1       8.393   4.091  19.560  1.00  0.00     0.034 A 
HETATM    9  C7  UNL     1       7.235   4.576  20.121  1.00  0.00     0.001 A 
HETATM   10  C8  UNL     1       6.930   5.686  20.921  1.00  0.00    -0.029 A 
HETATM   11  C18 UNL     1       5.577   5.651  21.181  1.00  0.00     0.096 A 
HETATM   12  N3  UNL     1       5.065   4.579  20.577  1.00  0.00    -0.363 N 
ATOM     13  H3  UNL     1       4.083   4.304  20.600  1.00  0.00     0.165 HD
HETATM   14  C19 UNL     1       6.039   3.918  19.935  1.00  0.00     0.063 A 
ENDROOT
BRANCH  10  15
HETATM   15  C9  UNL     1       7.979   6.626  21.336  1.00  0.00     0.062 C 
BRANCH  15  16
HETATM   16  C10 UNL     1       7.594   8.051  21.408  1.00  0.00     0.151 C 
BRANCH  16  17
HETATM   17  C11 UNL     1       8.116   8.937  20.381  1.00  0.00     0.136 C 
HETATM   18  C12 UNL     1       7.340   9.188  19.138  1.00  0.00     0.091 C 
HETATM   19  O1  UNL     1       9.186   9.491  20.512  1.00  0.00    -0.297 OA
ENDBRANCH  16  17
BRANCH  16  20
HETATM   20  C13 UNL     1       7.974   8.608  22.751  1.00  0.00     0.230 C 
HETATM   21  O2  UNL     1       7.260   9.513  23.277  1.00  0.00    -0.273 OA
HETATM   22  N1  UNL     1       9.106   8.157  23.452  1.00  0.00    -0.338 N 
ATOM     23  H1  UNL     1       9.700   7.431  23.051  1.00  0.00     0.164 HD
BRANCH  22  24
HETATM   24  C14 UNL     1       9.426   8.726  24.744  1.00  0.00     0.122 A 
HETATM   25  C15 UNL     1      10.313   9.885  24.643  1.00  0.00     0.091 C 
HETATM   26  N2  UNL     1      11.032  10.791  24.569  1.00  0.00    -0.195 NA
HETATM   27  C16 UNL     1       8.574   8.541  25.927  1.00  0.00     0.050 A 
HETATM   28  C17 UNL     1       9.808   7.696  25.813  1.00  0.00     0.050 A 
ENDBRANCH  22  24
ENDBRANCH  16  20
ENDBRANCH  15  16
ENDBRANCH  10  15
TORSDOF 5
ENDMDL
MODEL 2
REMARK VINA RESULT: -7.272284462      2.594      3.771
REMARK  5 active torsions:
REMARK  status: ('A' for Active; 'I' for Inactive)
REMARK    1  A    between atoms: C8_10  and  C9_11 
REMARK    2  A    between atoms: C9_11  and  C10_12 
REMARK    3  A    between atoms: C10_12  and  C11_13 
REMARK    4  A    between atoms: C10_12  and  C13_16 
REMARK       I    between atoms: C13_16  and  N1_18 
REMARK    5  A    between atoms: N1_18  and  C14_20 
ROOT
HETATM    1  C1  UNL     1       4.393   5.862  15.694  1.00  0.00     0.018 C 
HETATM    2  C2  UNL     1       5.187   5.685  16.582  1.00  0.00    -0.074 C 
HETATM    3  C3  UNL     1       6.130   5.479  17.674  1.00  0.00     0.063 A 
HETATM    4  C4  UNL     1       7.055   4.459  17.632  1.00  0.00     0.049 A 
HETATM    5 BR1  UNL     1       7.077   3.311  16.107  1.00  0.00    -0.048 Br
HETATM    6  C5  UNL     1       7.969   4.226  18.645  1.00  0.00     0.030 A 
HETATM    7 BR2  UNL     1       9.229   2.790  18.529  1.00  0.00    -0.050 Br
HETATM    8  C6  UNL     1       7.936   5.066  19.739  1.00  0.00     0.034 A 
HETATM    9  C7  UNL     1       7.022   6.091  19.805  1.00  0.00     0.001 A 
HETATM   10  C8  UNL     1       6.740   7.085  20.753  1.00  0.00    -0.029 A 
HETATM   11  C18 UNL     1       5.696   7.841  20.264  1.00  0.00     0.096 A 
HETATM   12  N3  UNL     1       5.345   7.347  19.078  1.00  0.00    -0.363 N 
ATOM     13  H3  UNL     1       4.597   7.711  18.487  1.00  0.00     0.165 HD
HETATM   14  C19 UNL     1       6.125   6.297  18.780  1.00  0.00     0.063 A 
ENDROOT
BRANCH  10  15
HETATM   15  C9  UNL     1       7.505   7.171  22.004  1.00  0.00     0.062 C 
BRANCH  15  16
HETATM   16  C10 UNL     1       8.677   8.071  21.998  1.00  0.00     0.151 C 
BRANCH  16  17
HETATM   17  C11 UNL     1       9.209   8.486  23.285  1.00  0.00     0.136 C 
HETATM   18  C12 UNL     1       8.596   7.993  24.546  1.00  0.00     0.091 C 
HETATM   19  O1  UNL     1      10.157   9.237  23.362  1.00  0.00    -0.297 OA
ENDBRANCH  16  17
BRANCH  16  20
HETATM   20  C13 UNL     1       8.360   9.305  21.198  1.00  0.00     0.230 C 
HETATM   21  O2  UNL     1       8.862   9.447  20.044  1.00  0.00    -0.273 OA
HETATM   22  N1  UNL     1       7.518  10.317  21.691  1.00  0.00    -0.338 N 
ATOM     23  H1  UNL     1       7.103  10.229  22.618  1.00  0.00     0.164 HD
BRANCH  22  24
HETATM   24  C14 UNL     1       7.244  11.483  20.880  1.00  0.00     0.122 A 
HETATM   25  C15 UNL     1       8.092  12.623  21.229  1.00  0.00     0.091 C 
HETATM   26  N2  UNL     1       8.747  13.534  21.516  1.00  0.00    -0.195 NA
HETATM   27  C16 UNL     1       6.622  11.398  19.550  1.00  0.00     0.050 A 
HETATM   28  C17 UNL     1       5.754  11.799  20.706  1.00  0.00     0.050 A 
ENDBRANCH  22  24
ENDBRANCH  16  20
ENDBRANCH  15  16
ENDBRANCH  10  15
TORSDOF 5
ENDMDL
MODEL 3
REMARK VINA RESULT: -7.254746395      1.788      2.099
REMARK  5 active torsions:
REMARK  status: ('A' for Active; 'I' for Inactive)
REMARK    1  A    between atoms: C8_10  and  C9_11 
REMARK    2  A    between atoms: C9_11  and  C10_12 
REMARK    3  A    between atoms: C10_12  and  C11_13 
REMARK    4  A    between atoms: C10_12  and  C13_16 
REMARK       I    between atoms: C13_16  and  N1_18 
REMARK    5  A    between atoms: N1_18  and  C14_20 
ROOT
HETATM    1  C1  UNL     1       4.162   2.111  15.722  1.00  0.00     0.018 C 
HETATM    2  C2  UNL     1       5.123   2.411  16.383  1.00  0.00    -0.074 C 
HETATM    3  C3  UNL     1       6.271   2.787  17.198  1.00  0.00     0.063 A 
HETATM    4  C4  UNL     1       7.351   1.944  17.336  1.00  0.00     0.049 A 
HETATM    5 BR1  UNL     1       7.316   0.261  16.435  1.00  0.00    -0.048 Br
HETATM    6  C5  UNL     1       8.462   2.259  18.100  1.00  0.00     0.030 A 
HETATM    7 BR2  UNL     1       9.932   1.044  18.255  1.00  0.00    -0.050 Br
HETATM    8  C6  UNL     1       8.467   3.478  18.744  1.00  0.00     0.034 A 
HETATM    9  C7  UNL     1       7.401   4.338  18.623  1.00  0.00     0.001 A 
HETATM   10  C8  UNL     1       7.110   5.609  19.138  1.00  0.00    -0.029 A 
HETATM   11  C18 UNL     1       5.869   5.975  18.664  1.00  0.00     0.096 A 
HETATM   12  N3  UNL     1       5.409   4.989  17.896  1.00  0.00    -0.363 N 
ATOM     13  H3  UNL     1       4.511   4.989  17.412  1.00  0.00     0.165 HD
HETATM   14  C19 UNL     1       6.310   3.995  17.855  1.00  0.00     0.063 A 
ENDROOT
BRANCH  10  15
HETATM   15  C9  UNL     1       8.059   6.298  20.023  1.00  0.00     0.062 C 
BRANCH  15  16
HETATM   16  C10 UNL     1       7.648   7.628  20.518  1.00  0.00     0.151 C 
BRANCH  16  17
HETATM   17  C11 UNL     1       8.215   8.792  19.858  1.00  0.00     0.136 C 
HETATM   18  C12 UNL     1       7.412   9.564  18.873  1.00  0.00     0.091 C 
HETATM   19  O1  UNL     1       9.345   9.161  20.092  1.00  0.00    -0.297 OA
ENDBRANCH  16  17
BRANCH  16  20
HETATM   20  C13 UNL     1       7.941   7.730  21.990  1.00  0.00     0.230 C 
HETATM   21  O2  UNL     1       7.978   6.678  22.694  1.00  0.00    -0.273 OA
HETATM   22  N1  UNL     1       8.176   8.965  22.618  1.00  0.00    -0.338 N 
ATOM     23  H1  UNL     1       8.149   9.829  22.076  1.00  0.00     0.164 HD
BRANCH  22  24
HETATM   24  C14 UNL     1       8.455   9.008  24.038  1.00  0.00     0.122 A 
HETATM   25  C15 UNL     1       7.249   9.208  24.842  1.00  0.00     0.091 C 
HETATM   26  N2  UNL     1       6.300   9.386  25.481  1.00  0.00    -0.195 NA
HETATM   27  C16 UNL     1       9.653   8.396  24.631  1.00  0.00     0.050 A 
HETATM   28  C17 UNL     1       9.655   9.882  24.422  1.00  0.00     0.050 A 
ENDBRANCH  22  24
ENDBRANCH  16  20
ENDBRANCH  15  16
ENDBRANCH  10  15
TORSDOF 5
ENDMDL
MODEL 4
REMARK VINA RESULT: -7.189413609      2.750      3.987
REMARK  5 active torsions:
REMARK  status: ('A' for Active; 'I' for Inactive)
REMARK    1  A    between atoms: C8_10  and  C9_11 
REMARK    2  A    between atoms: C9_11  and  C10_12 
REMARK    3  A    between atoms: C10_12  and  C11_13 
REMARK    4  A    between atoms: C10_12  and  C13_16 
REMARK       I    between atoms: C13_16  and  N1_18 
REMARK    5  A    between atoms: N1_18  and  C14_20 
ROOT
HETATM    1  C1  UNL     1       5.886   4.894  14.756  1.00  0.00     0.018 C 
HETATM    2  C2  UNL     1       6.386   4.651  15.825  1.00  0.00    -0.074 C 
HETATM    3  C3  UNL     1       6.973   4.371  17.129  1.00  0.00     0.063 A 
HETATM    4  C4  UNL     1       7.596   3.170  17.385  1.00  0.00     0.049 A 
HETATM    5 BR1  UNL     1       7.675   1.868  15.991  1.00  0.00    -0.048 Br
HETATM    6  C5  UNL     1       8.167   2.861  18.608  1.00  0.00     0.030 A 
HETATM    7 BR2  UNL     1       9.017   1.172  18.904  1.00  0.00    -0.050 Br
HETATM    8  C6  UNL     1       8.098   3.814  19.602  1.00  0.00     0.034 A 
HETATM    9  C7  UNL     1       7.481   5.022  19.372  1.00  0.00     0.001 A 
HETATM   10  C8  UNL     1       7.251   6.163  20.153  1.00  0.00    -0.029 A 
HETATM   11  C18 UNL     1       6.570   7.070  19.371  1.00  0.00     0.096 A 
HETATM   12  N3  UNL     1       6.385   6.528  18.169  1.00  0.00    -0.363 N 
ATOM     13  H3  UNL     1       5.908   6.977  17.387  1.00  0.00     0.165 HD
HETATM   14  C19 UNL     1       6.922   5.299  18.144  1.00  0.00     0.063 A 
ENDROOT
BRANCH  10  15
HETATM   15  C9  UNL     1       7.707   6.226  21.548  1.00  0.00     0.062 C 
BRANCH  15  16
HETATM   16  C10 UNL     1       7.504   7.510  22.249  1.00  0.00     0.151 C 
BRANCH  16  17
HETATM   17  C11 UNL     1       8.388   7.813  23.362  1.00  0.00     0.136 C 
HETATM   18  C12 UNL     1       9.541   8.732  23.177  1.00  0.00     0.091 C 
HETATM   19  O1  UNL     1       8.208   7.329  24.458  1.00  0.00    -0.297 OA
ENDBRANCH  16  17
BRANCH  16  20
HETATM   20  C13 UNL     1       6.084   7.599  22.735  1.00  0.00     0.230 C 
HETATM   21  O2  UNL     1       5.432   8.671  22.569  1.00  0.00    -0.273 OA
HETATM   22  N1  UNL     1       5.449   6.522  23.378  1.00  0.00    -0.338 N 
ATOM     23  H1  UNL     1       5.951   5.647  23.528  1.00  0.00     0.164 HD
BRANCH  22  24
HETATM   24  C14 UNL     1       4.079   6.658  23.826  1.00  0.00     0.122 A 
HETATM   25  C15 UNL     1       3.967   7.432  25.062  1.00  0.00     0.091 C 
HETATM   26  N2  UNL     1       3.875   8.027  26.052  1.00  0.00    -0.195 NA
HETATM   27  C16 UNL     1       2.930   6.535  22.917  1.00  0.00     0.050 A 
HETATM   28  C17 UNL     1       3.266   5.359  23.786  1.00  0.00     0.050 A 
ENDBRANCH  22  24
ENDBRANCH  16  20
ENDBRANCH  15  16
ENDBRANCH  10  15
TORSDOF 5
ENDMDL
MODEL 5
REMARK VINA RESULT: -7.100348138      2.935      3.906
REMARK  5 active torsions:
REMARK  status: ('A' for Active; 'I' for Inactive)
REMARK    1  A    between atoms: C8_10  and  C9_11 
REMARK    2  A    between atoms: C9_11  and  C10_12 
REMARK    3  A    between atoms: C10_12  and  C11_13 
REMARK    4  A    between atoms: C10_12  and  C13_16 
REMARK       I    between atoms: C13_16  and  N1_18 
REMARK    5  A    between atoms: N1_18  and  C14_20 
ROOT
HETATM    1  C1  UNL     1       6.025   4.740  14.565  1.00  0.00     0.018 C 
HETATM    2  C2  UNL     1       6.473   4.504  15.657  1.00  0.00    -0.074 C 
HETATM    3  C3  UNL     1       6.996   4.231  16.990  1.00  0.00     0.063 A 
HETATM    4  C4  UNL     1       7.619   3.037  17.278  1.00  0.00     0.049 A 
HETATM    5 BR1  UNL     1       7.784   1.736  15.890  1.00  0.00    -0.048 Br
HETATM    6  C5  UNL     1       8.131   2.735  18.528  1.00  0.00     0.030 A 
HETATM    7 BR2  UNL     1       8.984   1.056  18.868  1.00  0.00    -0.050 Br
HETATM    8  C6  UNL     1       8.000   3.687  19.517  1.00  0.00     0.034 A 
HETATM    9  C7  UNL     1       7.382   4.887  19.255  1.00  0.00     0.001 A 
HETATM   10  C8  UNL     1       7.099   6.025  20.023  1.00  0.00    -0.029 A 
HETATM   11  C18 UNL     1       6.447   6.925  19.206  1.00  0.00     0.096 A 
HETATM   12  N3  UNL     1       6.331   6.380  17.997  1.00  0.00    -0.363 N 
ATOM     13  H3  UNL     1       5.889   6.824  17.191  1.00  0.00     0.165 HD
HETATM   14  C19 UNL     1       6.883   5.158  18.000  1.00  0.00     0.063 A 
ENDROOT
BRANCH  10  15
HETATM   15  C9  UNL     1       7.482   6.094  21.439  1.00  0.00     0.062 C 
BRANCH  15  16
HETATM   16  C10 UNL     1       7.311   7.402  22.104  1.00  0.00     0.151 C 
BRANCH  16  17
HETATM   17  C11 UNL     1       8.372   7.844  22.994  1.00  0.00     0.136 C 
HETATM   18  C12 UNL     1       9.350   8.870  22.548  1.00  0.00     0.091 C 
HETATM   19  O1  UNL     1       8.483   7.392  24.113  1.00  0.00    -0.297 OA
ENDBRANCH  16  17
BRANCH  16  20
HETATM   20  C13 UNL     1       6.017   7.412  22.869  1.00  0.00     0.230 C 
HETATM   21  O2  UNL     1       5.327   6.353  22.945  1.00  0.00    -0.273 OA
HETATM   22  N1  UNL     1       5.540   8.569  23.509  1.00  0.00    -0.338 N 
ATOM     23  H1  UNL     1       6.074   9.437  23.463  1.00  0.00     0.164 HD
BRANCH  22  24
HETATM   24  C14 UNL     1       4.288   8.525  24.235  1.00  0.00     0.122 A 
HETATM   25  C15 UNL     1       3.124   8.537  23.348  1.00  0.00     0.091 C 
HETATM   26  N2  UNL     1       2.200   8.566  22.651  1.00  0.00    -0.195 NA
HETATM   27  C16 UNL     1       4.179   7.990  25.600  1.00  0.00     0.050 A 
HETATM   28  C17 UNL     1       4.214   9.481  25.431  1.00  0.00     0.050 A 
ENDBRANCH  22  24
ENDBRANCH  16  20
ENDBRANCH  15  16
ENDBRANCH  10  15
TORSDOF 5
ENDMDL
