MODEL 1
REMARK VINA RESULT: -6.631506629      0.000      0.000
REMARK  6 active torsions:
REMARK  status: ('A' for Active; 'I' for Inactive)
REMARK    1  A    between atoms: C3_3  and  C5_5 
REMARK    2  A    between atoms: C10_12  and  N1_14 
REMARK    3  A    between atoms: C14_17  and  N2_18 
REMARK       I    between atoms: N2_18  and  C15_20 
REMARK    4  A    between atoms: C15_20  and  C16_22 
REMARK    5  A    between atoms: C16_22  and  N3_23 
REMARK    6  A    between atoms: C20_27  and  O2_28 
ROOT
HETATM    1  C1  UNL     1      10.006   2.001  18.163  1.00  0.00     0.012 C 
HETATM    2  C2  UNL     1       8.708   2.638  17.870  1.00  0.00     0.002 C 
HETATM    3  C3  UNL     1       7.819   1.907  16.890  1.00  0.00    -0.021 C 
HETATM    4  C4  UNL     1       8.050   2.514  15.523  1.00  0.00     0.020 C 
HETATM    5  C7  UNL     1       6.377   2.235  17.305  1.00  0.00     0.021 C 
HETATM    6  C8  UNL     1       6.552   3.345  18.301  1.00  0.00     0.032 C 
HETATM    7  C9  UNL     1       5.407   3.529  19.256  1.00  0.00     0.215 C 
HETATM    8  F1  UNL     1       4.304   3.078  18.507  1.00  0.00    -0.246 F 
HETATM    9  C10 UNL     1       5.175   5.031  19.504  1.00  0.00     0.208 C 
HETATM   10  C11 UNL     1       5.239   5.676  18.139  1.00  0.00     0.055 C 
HETATM   11  C14 UNL     1       6.277   5.553  20.391  1.00  0.00     0.154 C 
HETATM   12  C20 UNL     1       7.275   4.482  20.853  1.00  0.00     0.144 C 
HETATM   13  C21 UNL     1       8.262   4.080  19.779  1.00  0.00     0.044 C 
HETATM   14  C22 UNL     1       7.787   2.846  19.041  1.00  0.00    -0.031 C 
HETATM   15  C23 UNL     1       7.545   1.658  19.885  1.00  0.00     0.016 C 
ENDROOT
BRANCH  11  16
HETATM   16  N2  UNL     1       5.890   6.352  21.525  1.00  0.00    -0.347 N 
HETATM   17  C15 UNL     1       5.939   7.767  21.640  1.00  0.00     0.265 C 
HETATM   18  O1  UNL     1       6.351   8.502  20.728  1.00  0.00    -0.267 OA
ATOM     19  H2  UNL     1       5.540   5.845  22.338  1.00  0.00     0.163 HD
BRANCH  17  20
HETATM   20  C16 UNL     1       5.494   8.430  22.870  1.00  0.00     0.274 C 
BRANCH  20  21
HETATM   21  N3  UNL     1       6.511   8.905  23.721  1.00  0.00    -0.053 N 
HETATM   22  C17 UNL     1       7.455   7.828  24.071  1.00  0.00     0.277 C 
HETATM   23  C18 UNL     1       7.265  10.016  23.274  1.00  0.00     0.277 C 
HETATM   24  C19 UNL     1       5.893   9.265  25.009  1.00  0.00     0.277 C 
ENDBRANCH  20  21
ENDBRANCH  17  20
ENDBRANCH  11  16
BRANCH   9  25
HETATM   25  N1  UNL     1       3.910   5.303  20.163  1.00  0.00     0.094 N 
HETATM   26  C12 UNL     1       3.281   4.128  20.758  1.00  0.00     0.310 C 
HETATM   27  C13 UNL     1       2.905   5.706  19.168  1.00  0.00     0.310 C 
ENDBRANCH   9  25
BRANCH  12  28
HETATM   28  O2  UNL     1       8.130   5.200  21.745  1.00  0.00    -0.393 OA
ATOM     29  H2  UNL     1       7.518   5.621  22.338  1.00  0.00     0.210 HD
ENDBRANCH  12  28
BRANCH   3  30
HETATM   30  C5  UNL     1       8.086   0.468  16.927  1.00  0.00    -0.010 C 
HETATM   31  C6  UNL     1       7.368  -0.421  16.284  1.00  0.00     0.052 C 
HETATM   32 BR1  UNL     1       5.890   0.121  15.225  1.00  0.00    -0.064 Br
ENDBRANCH   3  30
TORSDOF 6
ENDMDL
MODEL 2
REMARK VINA RESULT: -6.593412551      1.230      1.599
REMARK  6 active torsions:
REMARK  status: ('A' for Active; 'I' for Inactive)
REMARK    1  A    between atoms: C3_3  and  C5_5 
REMARK    2  A    between atoms: C10_12  and  N1_14 
REMARK    3  A    between atoms: C14_17  and  N2_18 
REMARK       I    between atoms: N2_18  and  C15_20 
REMARK    4  A    between atoms: C15_20  and  C16_22 
REMARK    5  A    between atoms: C16_22  and  N3_23 
REMARK    6  A    between atoms: C20_27  and  O2_28 
ROOT
HETATM    1  C1  UNL     1       9.623   2.459  17.751  1.00  0.00     0.012 C 
HETATM    2  C2  UNL     1       8.201   2.848  17.789  1.00  0.00     0.002 C 
HETATM    3  C3  UNL     1       7.261   1.999  16.963  1.00  0.00    -0.021 C 
HETATM    4  C4  UNL     1       7.071   2.691  15.631  1.00  0.00     0.020 C 
HETATM    5  C7  UNL     1       5.911   2.031  17.698  1.00  0.00     0.021 C 
HETATM    6  C8  UNL     1       6.103   3.114  18.719  1.00  0.00     0.032 C 
HETATM    7  C9  UNL     1       5.184   3.040  19.905  1.00  0.00     0.215 C 
HETATM    8  F1  UNL     1       4.040   2.417  19.371  1.00  0.00    -0.246 F 
HETATM    9  C10 UNL     1       4.751   4.460  20.314  1.00  0.00     0.208 C 
HETATM   10  C11 UNL     1       4.394   5.157  19.022  1.00  0.00     0.055 C 
HETATM   11  C14 UNL     1       5.911   5.147  20.988  1.00  0.00     0.154 C 
HETATM   12  C20 UNL     1       7.160   4.269  21.143  1.00  0.00     0.144 C 
HETATM   13  C21 UNL     1       7.940   4.104  19.857  1.00  0.00     0.044 C 
HETATM   14  C22 UNL     1       7.540   2.831  19.140  1.00  0.00    -0.031 C 
HETATM   15  C23 UNL     1       7.705   1.587  19.920  1.00  0.00     0.016 C 
ENDROOT
BRANCH  11  16
HETATM   16  N2  UNL     1       5.649   5.814  22.238  1.00  0.00    -0.347 N 
HETATM   17  C15 UNL     1       5.590   7.213  22.472  1.00  0.00     0.265 C 
HETATM   18  O1  UNL     1       5.776   8.054  21.578  1.00  0.00    -0.267 OA
ATOM     19  H2  UNL     1       5.487   5.213  23.045  1.00  0.00     0.163 HD
BRANCH  17  20
HETATM   20  C16 UNL     1       5.300   7.732  23.813  1.00  0.00     0.274 C 
BRANCH  20  21
HETATM   21  N3  UNL     1       3.968   8.125  24.051  1.00  0.00    -0.053 N 
HETATM   22  C17 UNL     1       3.813   9.584  23.910  1.00  0.00     0.277 C 
HETATM   23  C18 UNL     1       2.960   7.502  23.277  1.00  0.00     0.277 C 
HETATM   24  C19 UNL     1       3.669   7.874  25.472  1.00  0.00     0.277 C 
ENDBRANCH  20  21
ENDBRANCH  17  20
ENDBRANCH  11  16
BRANCH   9  25
HETATM   25  N1  UNL     1       3.634   4.461  21.244  1.00  0.00     0.094 N 
HETATM   26  C12 UNL     1       3.361   3.161  21.849  1.00  0.00     0.310 C 
HETATM   27  C13 UNL     1       2.382   4.722  20.521  1.00  0.00     0.310 C 
ENDBRANCH   9  25
BRANCH  12  28
HETATM   28  O2  UNL     1       8.050   5.102  21.888  1.00  0.00    -0.393 OA
ATOM     29  H2  UNL     1       8.216   4.591  22.673  1.00  0.00     0.210 HD
ENDBRANCH  12  28
BRANCH   3  30
HETATM   30  C5  UNL     1       7.779   0.637  16.830  1.00  0.00    -0.010 C 
HETATM   31  C6  UNL     1       7.146  -0.324  16.200  1.00  0.00     0.052 C 
HETATM   32 BR1  UNL     1       5.460   0.004  15.394  1.00  0.00    -0.064 Br
ENDBRANCH   3  30
TORSDOF 6
ENDMDL
MODEL 3
REMARK VINA RESULT: -6.561095227      2.171      3.067
REMARK  6 active torsions:
REMARK  status: ('A' for Active; 'I' for Inactive)
REMARK    1  A    between atoms: C3_3  and  C5_5 
REMARK    2  A    between atoms: C10_12  and  N1_14 
REMARK    3  A    between atoms: C14_17  and  N2_18 
REMARK       I    between atoms: N2_18  and  C15_20 
REMARK    4  A    between atoms: C15_20  and  C16_22 
REMARK    5  A    between atoms: C16_22  and  N3_23 
REMARK    6  A    between atoms: C20_27  and  O2_28 
ROOT
HETATM    1  C1  UNL     1       7.324   1.407  20.451  1.00  0.00     0.012 C 
HETATM    2  C2  UNL     1       7.588   2.762  19.931  1.00  0.00     0.002 C 
HETATM    3  C3  UNL     1       8.000   2.845  18.479  1.00  0.00    -0.021 C 
HETATM    4  C4  UNL     1       9.512   2.894  18.435  1.00  0.00     0.020 C 
HETATM    5  C7  UNL     1       7.478   4.198  17.971  1.00  0.00     0.021 C 
HETATM    6  C8  UNL     1       7.064   4.900  19.232  1.00  0.00     0.032 C 
HETATM    7  C9  UNL     1       6.059   6.001  19.045  1.00  0.00     0.215 C 
HETATM    8  F1  UNL     1       6.335   6.454  17.741  1.00  0.00    -0.246 F 
HETATM    9  C10 UNL     1       6.393   7.172  19.988  1.00  0.00     0.208 C 
HETATM   10  C11 UNL     1       7.886   7.371  19.865  1.00  0.00     0.055 C 
HETATM   11  C14 UNL     1       6.022   6.783  21.397  1.00  0.00     0.154 C 
HETATM   12  C20 UNL     1       5.375   5.396  21.518  1.00  0.00     0.144 C 
HETATM   13  C21 UNL     1       6.368   4.260  21.412  1.00  0.00     0.044 C 
HETATM   14  C22 UNL     1       6.443   3.735  19.993  1.00  0.00    -0.031 C 
HETATM   15  C23 UNL     1       5.164   3.259  19.426  1.00  0.00     0.016 C 
ENDROOT
BRANCH  11  16
HETATM   16  N2  UNL     1       5.251   7.728  22.163  1.00  0.00    -0.347 N 
HETATM   17  C15 UNL     1       5.735   8.671  23.107  1.00  0.00     0.265 C 
HETATM   18  O1  UNL     1       6.938   8.781  23.393  1.00  0.00    -0.267 OA
ATOM     19  H2  UNL     1       4.242   7.719  22.009  1.00  0.00     0.163 HD
BRANCH  17  20
HETATM   20  C16 UNL     1       4.809   9.575  23.798  1.00  0.00     0.274 C 
BRANCH  20  21
HETATM   21  N3  UNL     1       3.949   8.980  24.742  1.00  0.00    -0.053 N 
HETATM   22  C17 UNL     1       2.642   8.660  24.139  1.00  0.00     0.277 C 
HETATM   23  C18 UNL     1       4.418   7.822  25.406  1.00  0.00     0.277 C 
HETATM   24  C19 UNL     1       3.629   9.992  25.763  1.00  0.00     0.277 C 
ENDBRANCH  20  21
ENDBRANCH  17  20
ENDBRANCH  11  16
BRANCH   9  25
HETATM   25  N1  UNL     1       5.665   8.385  19.658  1.00  0.00     0.094 N 
HETATM   26  C12 UNL     1       4.588   8.190  18.693  1.00  0.00     0.310 C 
HETATM   27  C13 UNL     1       6.545   9.315  18.937  1.00  0.00     0.310 C 
ENDBRANCH   9  25
BRANCH  12  28
HETATM   28  O2  UNL     1       5.030   5.320  22.902  1.00  0.00    -0.393 OA
ATOM     29  H2  UNL     1       4.080   5.314  22.887  1.00  0.00     0.210 HD
ENDBRANCH  12  28
BRANCH   3  30
HETATM   30  C5  UNL     1       7.443   1.723  17.721  1.00  0.00    -0.010 C 
HETATM   31  C6  UNL     1       8.127   0.650  17.403  1.00  0.00     0.052 C 
HETATM   32 BR1  UNL     1       9.943   0.478  17.925  1.00  0.00    -0.064 Br
ENDBRANCH   3  30
TORSDOF 6
ENDMDL
MODEL 4
REMARK VINA RESULT: -6.465474945      2.207      3.265
REMARK  6 active torsions:
REMARK  status: ('A' for Active; 'I' for Inactive)
REMARK    1  A    between atoms: C3_3  and  C5_5 
REMARK    2  A    between atoms: C10_12  and  N1_14 
REMARK    3  A    between atoms: C14_17  and  N2_18 
REMARK       I    between atoms: N2_18  and  C15_20 
REMARK    4  A    between atoms: C15_20  and  C16_22 
REMARK    5  A    between atoms: C16_22  and  N3_23 
REMARK    6  A    between atoms: C20_27  and  O2_28 
ROOT
HETATM    1  C1  UNL     1       7.067   1.639  20.508  1.00  0.00     0.012 C 
HETATM    2  C2  UNL     1       7.394   2.983  19.996  1.00  0.00     0.002 C 
HETATM    3  C3  UNL     1       7.725   3.066  18.523  1.00  0.00    -0.021 C 
HETATM    4  C4  UNL     1       9.232   3.013  18.390  1.00  0.00     0.020 C 
HETATM    5  C7  UNL     1       7.270   4.461  18.068  1.00  0.00     0.021 C 
HETATM    6  C8  UNL     1       6.980   5.165  19.363  1.00  0.00     0.032 C 
HETATM    7  C9  UNL     1       6.044   6.335  19.254  1.00  0.00     0.215 C 
HETATM    8  F1  UNL     1       6.275   6.795  17.943  1.00  0.00    -0.246 F 
HETATM    9  C10 UNL     1       6.512   7.462  20.194  1.00  0.00     0.208 C 
HETATM   10  C11 UNL     1       8.006   7.562  19.986  1.00  0.00     0.055 C 
HETATM   11  C14 UNL     1       6.198   7.071  21.616  1.00  0.00     0.154 C 
HETATM   12  C20 UNL     1       5.464   5.730  21.753  1.00  0.00     0.144 C 
HETATM   13  C21 UNL     1       6.369   4.531  21.570  1.00  0.00     0.044 C 
HETATM   14  C22 UNL     1       6.324   4.031  20.141  1.00  0.00    -0.031 C 
HETATM   15  C23 UNL     1       4.985   3.654  19.644  1.00  0.00     0.016 C 
ENDROOT
BRANCH  11  16
HETATM   16  N2  UNL     1       5.540   8.051  22.441  1.00  0.00    -0.347 N 
HETATM   17  C15 UNL     1       5.921   8.480  23.740  1.00  0.00     0.265 C 
HETATM   18  O1  UNL     1       6.911   8.025  24.336  1.00  0.00    -0.267 OA
ATOM     19  H2  UNL     1       4.706   8.486  22.048  1.00  0.00     0.163 HD
BRANCH  17  20
HETATM   20  C16 UNL     1       5.142   9.503  24.445  1.00  0.00     0.274 C 
BRANCH  20  21
HETATM   21  N3  UNL     1       3.925   9.074  25.013  1.00  0.00    -0.053 N 
HETATM   22  C17 UNL     1       2.819   9.193  24.046  1.00  0.00     0.277 C 
HETATM   23  C18 UNL     1       3.889   7.769  25.558  1.00  0.00     0.277 C 
HETATM   24  C19 UNL     1       3.565  10.023  26.080  1.00  0.00     0.277 C 
ENDBRANCH  20  21
ENDBRANCH  17  20
ENDBRANCH  11  16
BRANCH   9  25
HETATM   25  N1  UNL     1       5.852   8.728  19.927  1.00  0.00     0.094 N 
HETATM   26  C12 UNL     1       4.670   8.617  19.079  1.00  0.00     0.310 C 
HETATM   27  C13 UNL     1       6.725   9.584  19.110  1.00  0.00     0.310 C 
ENDBRANCH   9  25
BRANCH  12  28
HETATM   28  O2  UNL     1       5.197   5.649  23.154  1.00  0.00    -0.393 OA
ATOM     29  H2  UNL     1       6.065   5.680  23.541  1.00  0.00     0.210 HD
ENDBRANCH  12  28
BRANCH   3  30
HETATM   30  C5  UNL     1       7.049   2.001  17.782  1.00  0.00    -0.010 C 
HETATM   31  C6  UNL     1       6.579   2.147  16.566  1.00  0.00     0.052 C 
HETATM   32 BR1  UNL     1       6.754   3.805  15.661  1.00  0.00    -0.064 Br
ENDBRANCH   3  30
TORSDOF 6
ENDMDL
MODEL 5
REMARK VINA RESULT: -6.269523185      2.294      3.390
REMARK  6 active torsions:
REMARK  status: ('A' for Active; 'I' for Inactive)
REMARK    1  A    between atoms: C3_3  and  C5_5 
REMARK    2  A    between atoms: C10_12  and  N1_14 
REMARK    3  A    between atoms: C14_17  and  N2_18 
REMARK       I    between atoms: N2_18  and  C15_20 
REMARK    4  A    between atoms: C15_20  and  C16_22 
REMARK    5  A    between atoms: C16_22  and  N3_23 
REMARK    6  A    between atoms: C20_27  and  O2_28 
ROOT
HETATM    1  C1  UNL     1       6.847   1.321  19.605  1.00  0.00     0.012 C 
HETATM    2  C2  UNL     1       7.230   2.743  19.674  1.00  0.00     0.002 C 
HETATM    3  C3  UNL     1       7.805   3.335  18.408  1.00  0.00    -0.021 C 
HETATM    4  C4  UNL     1       9.313   3.267  18.515  1.00  0.00     0.020 C 
HETATM    5  C7  UNL     1       7.407   4.820  18.419  1.00  0.00     0.021 C 
HETATM    6  C8  UNL     1       6.889   5.024  19.813  1.00  0.00     0.032 C 
HETATM    7  C9  UNL     1       5.964   6.195  19.982  1.00  0.00     0.215 C 
HETATM    8  F1  UNL     1       6.404   7.084  18.983  1.00  0.00    -0.246 F 
HETATM    9  C10 UNL     1       6.244   6.887  21.329  1.00  0.00     0.208 C 
HETATM   10  C11 UNL     1       7.749   6.989  21.420  1.00  0.00     0.055 C 
HETATM   11  C14 UNL     1       5.701   6.025  22.441  1.00  0.00     0.154 C 
HETATM   12  C20 UNL     1       4.979   4.759  21.961  1.00  0.00     0.144 C 
HETATM   13  C21 UNL     1       5.924   3.666  21.509  1.00  0.00     0.044 C 
HETATM   14  C22 UNL     1       6.132   3.715  20.010  1.00  0.00    -0.031 C 
HETATM   15  C23 UNL     1       4.904   3.602  19.196  1.00  0.00     0.016 C 
ENDROOT
BRANCH  11  16
HETATM   16  N2  UNL     1       4.893   6.672  23.444  1.00  0.00    -0.347 N 
HETATM   17  C15 UNL     1       5.344   7.348  24.608  1.00  0.00     0.265 C 
HETATM   18  O1  UNL     1       6.546   7.452  24.904  1.00  0.00    -0.267 OA
ATOM     19  H2  UNL     1       3.884   6.641  23.301  1.00  0.00     0.163 HD
BRANCH  17  20
HETATM   20  C16 UNL     1       4.384   7.966  25.529  1.00  0.00     0.274 C 
BRANCH  20  21
HETATM   21  N3  UNL     1       3.753   9.140  25.071  1.00  0.00    -0.053 N 
HETATM   22  C17 UNL     1       3.505  10.076  26.183  1.00  0.00     0.277 C 
HETATM   23  C18 UNL     1       4.392   9.857  24.032  1.00  0.00     0.277 C 
HETATM   24  C19 UNL     1       2.403   8.776  24.608  1.00  0.00     0.277 C 
ENDBRANCH  20  21
ENDBRANCH  17  20
ENDBRANCH  11  16
BRANCH   9  25
HETATM   25  N1  UNL     1       5.615   8.192  21.432  1.00  0.00     0.094 N 
HETATM   26  C12 UNL     1       4.566   8.429  20.446  1.00  0.00     0.310 C 
HETATM   27  C13 UNL     1       6.586   9.243  21.093  1.00  0.00     0.310 C 
ENDBRANCH   9  25
BRANCH  12  28
HETATM   28  O2  UNL     1       4.479   4.192  23.174  1.00  0.00    -0.393 OA
ATOM     29  H2  UNL     1       3.951   3.463  22.869  1.00  0.00     0.210 HD
ENDBRANCH  12  28
BRANCH   3  30
HETATM   30  C5  UNL     1       7.284   2.638  17.231  1.00  0.00    -0.010 C 
HETATM   31  C6  UNL     1       7.952   1.717  16.578  1.00  0.00     0.052 C 
HETATM   32 BR1  UNL     1       9.693   1.213  17.137  1.00  0.00    -0.064 Br
ENDBRANCH   3  30
TORSDOF 6
ENDMDL
