MODEL 1
REMARK VINA RESULT: -7.469079525      0.000      0.000
REMARK  14 active torsions:
REMARK  status: ('A' for Active; 'I' for Inactive)
REMARK    1  A    between atoms: C2_2  and  O1_3 
REMARK    2  A    between atoms: O1_3  and  C3_4 
REMARK    3  A    between atoms: C3_4  and  C4_6 
REMARK    4  A    between atoms: C6_8  and  C7_9 
REMARK    5  A    between atoms: C7_9  and  C8_11 
REMARK    6  A    between atoms: C8_11  and  C9_12 
REMARK    7  A    between atoms: C8_11  and  N1_18 
REMARK    8  A    between atoms: C9_12  and  C10_13 
REMARK       I    between atoms: N1_18  and  C15_20 
REMARK    9  A    between atoms: C15_20  and  C16_22 
REMARK       I    between atoms: N2_26  and  C20_27 
REMARK   10  A    between atoms: C20_27  and  C21_29 
REMARK   11  A    between atoms: C21_29  and  N3_30 
REMARK   12  A    between atoms: N3_30  and  C22_32 
REMARK   13  A    between atoms: C22_32  and  O6_33 
REMARK   14  A    between atoms: C22_32  and  C23_35 
ROOT
HETATM    1  N1  UNL     1      -7.620  26.920  -1.422  1.00  0.00    -0.348 N 
ATOM      2  H1  UNL     1      -7.301  27.886  -1.336  1.00  0.00     0.163 HD
HETATM    3  C15 UNL     1      -7.596  26.094  -0.257  1.00  0.00     0.241 C 
HETATM    4  O4  UNL     1      -7.981  24.909  -0.348  1.00  0.00    -0.271 OA
ENDROOT
BRANCH   3   5
HETATM    5  C16 UNL     1      -7.109  26.728   0.990  1.00  0.00     0.179 C 
HETATM    6  C17 UNL     1      -6.574  25.633   1.920  1.00  0.00     0.037 C 
HETATM    7  C18 UNL     1      -6.532  26.333   3.242  1.00  0.00     0.022 C 
HETATM    8  C19 UNL     1      -7.506  27.468   3.147  1.00  0.00     0.127 C 
HETATM    9  N2  UNL     1      -8.029  27.432   1.788  1.00  0.00    -0.337 N 
HETATM   10  C20 UNL     1      -9.222  28.072   1.455  1.00  0.00     0.237 C 
HETATM   11  O5  UNL     1      -9.678  28.131   0.318  1.00  0.00    -0.272 OA
BRANCH  10  12
HETATM   12  C21 UNL     1     -10.020  28.747   2.555  1.00  0.00     0.219 C 
BRANCH  12  13
HETATM   13  N3  UNL     1      -9.854  30.147   2.491  1.00  0.00    -0.388 N 
ATOM     14  H3  UNL     1     -10.529  30.702   1.965  1.00  0.00     0.156 HD
BRANCH  13  15
HETATM   15  C22 UNL     1      -8.787  30.799   3.129  1.00  0.00     0.217 C 
BRANCH  15  16
HETATM   16  O6  UNL     1      -9.158  31.211   4.452  1.00  0.00    -0.377 OA
ATOM     17  H6  UNL     1      -9.544  30.490   4.936  1.00  0.00     0.212 HD
ENDBRANCH  15  16
BRANCH  15  18
HETATM   18  C23 UNL     1      -8.119  31.935   2.423  1.00  0.00     0.034 C 
HETATM   19  C24 UNL     1      -6.698  31.461   1.999  1.00  0.00     0.009 C 
HETATM   20  C25 UNL     1      -5.904  32.717   1.681  1.00  0.00     0.001 C 
HETATM   21  C26 UNL     1      -6.597  33.489   0.557  1.00  0.00     0.000 C 
HETATM   22  C27 UNL     1      -7.774  32.715   0.047  1.00  0.00     0.001 C 
HETATM   23  C28 UNL     1      -8.769  32.343   1.136  1.00  0.00     0.009 C 
ENDBRANCH  15  18
ENDBRANCH  13  15
ENDBRANCH  12  13
ENDBRANCH  10  12
ENDBRANCH   3   5
BRANCH   1  24
HETATM   24  C8  UNL     1      -8.073  26.459  -2.721  1.00  0.00     0.155 C 
BRANCH  24  25
HETATM   25  C7  UNL     1      -6.916  26.029  -3.561  1.00  0.00     0.154 C 
HETATM   26  O3  UNL     1      -7.127  25.372  -4.557  1.00  0.00    -0.295 OA
BRANCH  25  27
HETATM   27  C6  UNL     1      -5.508  26.359  -3.249  1.00  0.00     0.072 A 
HETATM   28  C4  UNL     1      -4.381  25.647  -3.897  1.00  0.00     0.097 A 
HETATM   29  C5  UNL     1      -4.762  27.038  -4.362  1.00  0.00     0.028 A 
BRANCH  28  30
HETATM   30  C3  UNL     1      -3.126  25.579  -3.087  1.00  0.00     0.263 C 
HETATM   31  O2  UNL     1      -2.085  25.038  -3.526  1.00  0.00    -0.265 OA
BRANCH  30  32
HETATM   32  O1  UNL     1      -3.063  26.120  -1.796  1.00  0.00    -0.322 OA
BRANCH  32  33
HETATM   33  C2  UNL     1      -2.762  25.273  -0.684  1.00  0.00     0.174 C 
HETATM   34  C1  UNL     1      -3.184  26.007   0.568  1.00  0.00     0.034 C 
ENDBRANCH  32  33
ENDBRANCH  30  32
ENDBRANCH  28  30
ENDBRANCH  25  27
ENDBRANCH  24  25
BRANCH  24  35
HETATM   35  C9  UNL     1      -8.736  27.597  -3.474  1.00  0.00     0.037 C 
BRANCH  35  36
HETATM   36  C10 UNL     1      -7.967  28.872  -3.466  1.00  0.00    -0.012 C 
HETATM   37  C11 UNL     1      -8.726  30.053  -2.944  1.00  0.00     0.005 C 
HETATM   38  C12 UNL     1      -9.540  30.547  -4.130  1.00  0.00     0.000 C 
HETATM   39  C13 UNL     1      -9.021  29.835  -5.342  1.00  0.00     0.000 C 
HETATM   40  C14 UNL     1      -7.675  29.256  -4.901  1.00  0.00     0.005 C 
ENDBRANCH  35  36
ENDBRANCH  24  35
ENDBRANCH   1  24
TORSDOF 14
ENDMDL
MODEL 2
REMARK VINA RESULT: -7.393990091      2.086      7.749
REMARK  14 active torsions:
REMARK  status: ('A' for Active; 'I' for Inactive)
REMARK    1  A    between atoms: C2_2  and  O1_3 
REMARK    2  A    between atoms: O1_3  and  C3_4 
REMARK    3  A    between atoms: C3_4  and  C4_6 
REMARK    4  A    between atoms: C6_8  and  C7_9 
REMARK    5  A    between atoms: C7_9  and  C8_11 
REMARK    6  A    between atoms: C8_11  and  C9_12 
REMARK    7  A    between atoms: C8_11  and  N1_18 
REMARK    8  A    between atoms: C9_12  and  C10_13 
REMARK       I    between atoms: N1_18  and  C15_20 
REMARK    9  A    between atoms: C15_20  and  C16_22 
REMARK       I    between atoms: N2_26  and  C20_27 
REMARK   10  A    between atoms: C20_27  and  C21_29 
REMARK   11  A    between atoms: C21_29  and  N3_30 
REMARK   12  A    between atoms: N3_30  and  C22_32 
REMARK   13  A    between atoms: C22_32  and  O6_33 
REMARK   14  A    between atoms: C22_32  and  C23_35 
ROOT
HETATM    1  N1  UNL     1      -8.368  29.734  -1.284  1.00  0.00    -0.348 N 
ATOM      2  H1  UNL     1      -7.348  29.714  -1.299  1.00  0.00     0.163 HD
HETATM    3  C15 UNL     1      -9.065  29.657  -2.528  1.00  0.00     0.241 C 
HETATM    4  O4  UNL     1     -10.314  29.683  -2.524  1.00  0.00    -0.271 OA
ENDROOT
BRANCH   3   5
HETATM    5  C16 UNL     1      -8.229  29.547  -3.745  1.00  0.00     0.179 C 
HETATM    6  C17 UNL     1      -9.053  30.013  -4.950  1.00  0.00     0.037 C 
HETATM    7  C18 UNL     1      -8.276  29.455  -6.101  1.00  0.00     0.022 C 
HETATM    8  C19 UNL     1      -7.479  28.310  -5.553  1.00  0.00     0.127 C 
HETATM    9  N2  UNL     1      -7.762  28.274  -4.125  1.00  0.00    -0.337 N 
HETATM   10  C20 UNL     1      -7.518  27.130  -3.368  1.00  0.00     0.237 C 
HETATM   11  O5  UNL     1      -7.675  27.061  -2.154  1.00  0.00    -0.272 OA
BRANCH  10  12
HETATM   12  C21 UNL     1      -7.022  25.881  -4.072  1.00  0.00     0.219 C 
BRANCH  12  13
HETATM   13  N3  UNL     1      -6.015  25.255  -3.306  1.00  0.00    -0.388 N 
ATOM     14  H3  UNL     1      -6.259  24.445  -2.736  1.00  0.00     0.156 HD
BRANCH  13  15
HETATM   15  C22 UNL     1      -4.688  25.713  -3.305  1.00  0.00     0.217 C 
BRANCH  15  16
HETATM   16  O6  UNL     1      -3.828  24.789  -3.985  1.00  0.00    -0.377 OA
ATOM     17  H6  UNL     1      -3.397  25.206  -4.723  1.00  0.00     0.212 HD
ENDBRANCH  15  16
BRANCH  15  18
HETATM   18  C23 UNL     1      -4.068  26.104  -2.002  1.00  0.00     0.034 C 
HETATM   19  C24 UNL     1      -5.019  25.633  -0.863  1.00  0.00     0.009 C 
HETATM   20  C25 UNL     1      -4.602  26.393   0.385  1.00  0.00     0.001 C 
HETATM   21  C26 UNL     1      -3.139  26.081   0.709  1.00  0.00     0.000 C 
HETATM   22  C27 UNL     1      -2.610  25.045  -0.234  1.00  0.00     0.001 C 
HETATM   23  C28 UNL     1      -2.766  25.425  -1.698  1.00  0.00     0.009 C 
ENDBRANCH  15  18
ENDBRANCH  13  15
ENDBRANCH  12  13
ENDBRANCH  10  12
ENDBRANCH   3   5
BRANCH   1  24
HETATM   24  C8  UNL     1      -9.034  29.840   0.001  1.00  0.00     0.155 C 
BRANCH  24  25
HETATM   25  C7  UNL     1      -9.144  31.269   0.422  1.00  0.00     0.154 C 
HETATM   26  O3  UNL     1     -10.118  31.907   0.082  1.00  0.00    -0.295 OA
BRANCH  25  27
HETATM   27  C6  UNL     1      -8.125  31.965   1.237  1.00  0.00     0.072 A 
HETATM   28  C4  UNL     1      -7.456  33.198   0.758  1.00  0.00     0.097 A 
HETATM   29  C5  UNL     1      -8.563  33.291   1.789  1.00  0.00     0.028 A 
BRANCH  28  30
HETATM   30  C3  UNL     1      -6.079  33.420   1.295  1.00  0.00     0.263 C 
HETATM   31  O2  UNL     1      -5.683  34.555   1.648  1.00  0.00    -0.265 OA
BRANCH  30  32
HETATM   32  O1  UNL     1      -5.169  32.362   1.427  1.00  0.00    -0.322 OA
BRANCH  32  33
HETATM   33  C2  UNL     1      -4.768  31.927   2.728  1.00  0.00     0.174 C 
HETATM   34  C1  UNL     1      -5.481  30.623   3.006  1.00  0.00     0.034 C 
ENDBRANCH  32  33
ENDBRANCH  30  32
ENDBRANCH  28  30
ENDBRANCH  25  27
ENDBRANCH  24  25
BRANCH  24  35
HETATM   35  C9  UNL     1      -8.208  29.152   1.073  1.00  0.00     0.037 C 
BRANCH  35  36
HETATM   36  C10 UNL     1      -8.899  28.023   1.753  1.00  0.00    -0.012 C 
HETATM   37  C11 UNL     1      -9.270  28.290   3.179  1.00  0.00     0.005 C 
HETATM   38  C12 UNL     1      -8.006  27.999   3.971  1.00  0.00     0.000 C 
HETATM   39  C13 UNL     1      -7.055  27.312   3.038  1.00  0.00     0.000 C 
HETATM   40  C14 UNL     1      -7.925  26.869   1.861  1.00  0.00     0.005 C 
ENDBRANCH  35  36
ENDBRANCH  24  35
ENDBRANCH   1  24
TORSDOF 14
ENDMDL
MODEL 3
REMARK VINA RESULT: -7.380006818      2.153      2.958
REMARK  14 active torsions:
REMARK  status: ('A' for Active; 'I' for Inactive)
REMARK    1  A    between atoms: C2_2  and  O1_3 
REMARK    2  A    between atoms: O1_3  and  C3_4 
REMARK    3  A    between atoms: C3_4  and  C4_6 
REMARK    4  A    between atoms: C6_8  and  C7_9 
REMARK    5  A    between atoms: C7_9  and  C8_11 
REMARK    6  A    between atoms: C8_11  and  C9_12 
REMARK    7  A    between atoms: C8_11  and  N1_18 
REMARK    8  A    between atoms: C9_12  and  C10_13 
REMARK       I    between atoms: N1_18  and  C15_20 
REMARK    9  A    between atoms: C15_20  and  C16_22 
REMARK       I    between atoms: N2_26  and  C20_27 
REMARK   10  A    between atoms: C20_27  and  C21_29 
REMARK   11  A    between atoms: C21_29  and  N3_30 
REMARK   12  A    between atoms: N3_30  and  C22_32 
REMARK   13  A    between atoms: C22_32  and  O6_33 
REMARK   14  A    between atoms: C22_32  and  C23_35 
ROOT
HETATM    1  N1  UNL     1      -8.135  26.722  -2.244  1.00  0.00    -0.348 N 
ATOM      2  H1  UNL     1      -8.668  27.591  -2.219  1.00  0.00     0.163 HD
HETATM    3  C15 UNL     1      -8.172  25.872  -1.097  1.00  0.00     0.241 C 
HETATM    4  O4  UNL     1      -7.522  24.805  -1.112  1.00  0.00    -0.271 OA
ENDROOT
BRANCH   3   5
HETATM    5  C16 UNL     1      -9.000  26.336   0.040  1.00  0.00     0.179 C 
HETATM    6  C17 UNL     1     -10.400  26.681  -0.480  1.00  0.00     0.037 C 
HETATM    7  C18 UNL     1     -10.956  27.512   0.632  1.00  0.00     0.022 C 
HETATM    8  C19 UNL     1      -9.777  28.059   1.379  1.00  0.00     0.127 C 
HETATM    9  N2  UNL     1      -8.600  27.496   0.732  1.00  0.00    -0.337 N 
HETATM   10  C20 UNL     1      -7.341  28.071   0.893  1.00  0.00     0.237 C 
HETATM   11  O5  UNL     1      -6.306  27.607   0.427  1.00  0.00    -0.272 OA
BRANCH  10  12
HETATM   12  C21 UNL     1      -7.222  29.353   1.696  1.00  0.00     0.219 C 
BRANCH  12  13
HETATM   13  N3  UNL     1      -5.905  29.507   2.180  1.00  0.00    -0.388 N 
ATOM     14  H3  UNL     1      -5.279  28.702   2.173  1.00  0.00     0.156 HD
BRANCH  13  15
HETATM   15  C22 UNL     1      -5.432  30.734   2.671  1.00  0.00     0.217 C 
BRANCH  15  16
HETATM   16  O6  UNL     1      -4.966  30.599   4.020  1.00  0.00    -0.377 OA
ATOM     17  H6  UNL     1      -4.475  31.368   4.288  1.00  0.00     0.212 HD
ENDBRANCH  15  16
BRANCH  15  18
HETATM   18  C23 UNL     1      -6.318  31.933   2.568  1.00  0.00     0.034 C 
HETATM   19  C24 UNL     1      -6.036  32.840   3.801  1.00  0.00     0.009 C 
HETATM   20  C25 UNL     1      -7.208  33.801   3.904  1.00  0.00     0.001 C 
HETATM   21  C26 UNL     1      -7.311  34.621   2.616  1.00  0.00     0.000 C 
HETATM   22  C27 UNL     1      -6.164  34.302   1.706  1.00  0.00     0.001 C 
HETATM   23  C28 UNL     1      -6.041  32.819   1.390  1.00  0.00     0.009 C 
ENDBRANCH  15  18
ENDBRANCH  13  15
ENDBRANCH  12  13
ENDBRANCH  10  12
ENDBRANCH   3   5
BRANCH   1  24
HETATM   24  C8  UNL     1      -7.378  26.414  -3.443  1.00  0.00     0.155 C 
BRANCH  24  25
HETATM   25  C7  UNL     1      -6.299  27.423  -3.660  1.00  0.00     0.154 C 
HETATM   26  O3  UNL     1      -6.566  28.451  -4.243  1.00  0.00    -0.295 OA
BRANCH  25  27
HETATM   27  C6  UNL     1      -4.904  27.243  -3.202  1.00  0.00     0.072 A 
HETATM   28  C4  UNL     1      -4.051  26.146  -3.720  1.00  0.00     0.097 A 
HETATM   29  C5  UNL     1      -3.860  27.558  -4.235  1.00  0.00     0.028 A 
BRANCH  28  30
HETATM   30  C3  UNL     1      -2.990  25.672  -2.781  1.00  0.00     0.263 C 
HETATM   31  O2  UNL     1      -2.056  24.928  -3.160  1.00  0.00    -0.265 OA
BRANCH  30  32
HETATM   32  O1  UNL     1      -2.996  26.043  -1.429  1.00  0.00    -0.322 OA
BRANCH  32  33
HETATM   33  C2  UNL     1      -2.784  25.052  -0.419  1.00  0.00     0.174 C 
HETATM   34  C1  UNL     1      -4.145  24.576   0.036  1.00  0.00     0.034 C 
ENDBRANCH  32  33
ENDBRANCH  30  32
ENDBRANCH  28  30
ENDBRANCH  25  27
ENDBRANCH  24  25
BRANCH  24  35
HETATM   35  C9  UNL     1      -8.279  26.498  -4.661  1.00  0.00     0.037 C 
BRANCH  35  36
HETATM   36  C10 UNL     1      -9.237  25.367  -4.799  1.00  0.00    -0.012 C 
HETATM   37  C11 UNL     1      -9.110  24.598  -6.079  1.00  0.00     0.005 C 
HETATM   38  C12 UNL     1      -9.907  25.400  -7.094  1.00  0.00     0.000 C 
HETATM   39  C13 UNL     1     -10.688  26.424  -6.327  1.00  0.00     0.000 C 
HETATM   40  C14 UNL     1     -10.636  25.938  -4.878  1.00  0.00     0.005 C 
ENDBRANCH  35  36
ENDBRANCH  24  35
ENDBRANCH   1  24
TORSDOF 14
ENDMDL
MODEL 4
REMARK VINA RESULT: -7.357693760      2.208      3.704
REMARK  14 active torsions:
REMARK  status: ('A' for Active; 'I' for Inactive)
REMARK    1  A    between atoms: C2_2  and  O1_3 
REMARK    2  A    between atoms: O1_3  and  C3_4 
REMARK    3  A    between atoms: C3_4  and  C4_6 
REMARK    4  A    between atoms: C6_8  and  C7_9 
REMARK    5  A    between atoms: C7_9  and  C8_11 
REMARK    6  A    between atoms: C8_11  and  C9_12 
REMARK    7  A    between atoms: C8_11  and  N1_18 
REMARK    8  A    between atoms: C9_12  and  C10_13 
REMARK       I    between atoms: N1_18  and  C15_20 
REMARK    9  A    between atoms: C15_20  and  C16_22 
REMARK       I    between atoms: N2_26  and  C20_27 
REMARK   10  A    between atoms: C20_27  and  C21_29 
REMARK   11  A    between atoms: C21_29  and  N3_30 
REMARK   12  A    between atoms: N3_30  and  C22_32 
REMARK   13  A    between atoms: C22_32  and  O6_33 
REMARK   14  A    between atoms: C22_32  and  C23_35 
ROOT
HETATM    1  N1  UNL     1      -8.268  25.981   0.076  1.00  0.00    -0.348 N 
ATOM      2  H1  UNL     1      -7.880  25.711   0.979  1.00  0.00     0.163 HD
HETATM    3  C15 UNL     1      -9.221  27.045   0.039  1.00  0.00     0.241 C 
HETATM    4  O4  UNL     1      -9.706  27.385  -1.061  1.00  0.00    -0.271 OA
ENDROOT
BRANCH   3   5
HETATM    5  C16 UNL     1      -9.558  27.671   1.338  1.00  0.00     0.179 C 
HETATM    6  C17 UNL     1     -10.967  28.267   1.244  1.00  0.00     0.037 C 
HETATM    7  C18 UNL     1     -10.994  29.203   2.412  1.00  0.00     0.022 C 
HETATM    8  C19 UNL     1      -9.564  29.525   2.725  1.00  0.00     0.127 C 
HETATM    9  N2  UNL     1      -8.765  28.742   1.792  1.00  0.00    -0.337 N 
HETATM   10  C20 UNL     1      -7.438  29.072   1.522  1.00  0.00     0.237 C 
HETATM   11  O5  UNL     1      -6.699  28.415   0.798  1.00  0.00    -0.272 OA
BRANCH  10  12
HETATM   12  C21 UNL     1      -6.852  30.318   2.159  1.00  0.00     0.219 C 
BRANCH  12  13
HETATM   13  N3  UNL     1      -7.069  31.439   1.329  1.00  0.00    -0.388 N 
ATOM     14  H3  UNL     1      -7.869  31.439   0.697  1.00  0.00     0.156 HD
BRANCH  13  15
HETATM   15  C22 UNL     1      -6.216  32.554   1.348  1.00  0.00     0.217 C 
BRANCH  15  16
HETATM   16  O6  UNL     1      -4.851  32.151   1.521  1.00  0.00    -0.377 OA
ATOM     17  H6  UNL     1      -4.285  32.594   0.899  1.00  0.00     0.212 HD
ENDBRANCH  15  16
BRANCH  15  18
HETATM   18  C23 UNL     1      -6.527  33.674   2.288  1.00  0.00     0.034 C 
HETATM   19  C24 UNL     1      -8.075  33.779   2.408  1.00  0.00     0.009 C 
HETATM   20  C25 UNL     1      -8.368  35.147   3.002  1.00  0.00     0.001 C 
HETATM   21  C26 UNL     1      -7.689  35.266   4.368  1.00  0.00     0.000 C 
HETATM   22  C27 UNL     1      -7.045  33.967   4.742  1.00  0.00     0.001 C 
HETATM   23  C28 UNL     1      -6.063  33.458   3.697  1.00  0.00     0.009 C 
ENDBRANCH  15  18
ENDBRANCH  13  15
ENDBRANCH  12  13
ENDBRANCH  10  12
ENDBRANCH   3   5
BRANCH   1  24
HETATM   24  C8  UNL     1      -7.824  25.265  -1.106  1.00  0.00     0.155 C 
BRANCH  24  25
HETATM   25  C7  UNL     1      -6.869  24.178  -0.736  1.00  0.00     0.154 C 
HETATM   26  O3  UNL     1      -7.300  23.063  -0.535  1.00  0.00    -0.295 OA
BRANCH  25  27
HETATM   27  C6  UNL     1      -5.410  24.380  -0.595  1.00  0.00     0.072 A 
HETATM   28  C4  UNL     1      -4.837  25.133   0.546  1.00  0.00     0.097 A 
HETATM   29  C5  UNL     1      -4.779  23.619   0.535  1.00  0.00     0.028 A 
BRANCH  28  30
HETATM   30  C3  UNL     1      -3.535  25.812   0.265  1.00  0.00     0.263 C 
HETATM   31  O2  UNL     1      -2.816  26.269   1.184  1.00  0.00    -0.265 OA
BRANCH  30  32
HETATM   32  O1  UNL     1      -3.062  25.967  -1.045  1.00  0.00    -0.322 OA
BRANCH  32  33
HETATM   33  C2  UNL     1      -1.904  25.246  -1.473  1.00  0.00     0.174 C 
HETATM   34  C1  UNL     1      -2.053  24.994  -2.956  1.00  0.00     0.034 C 
ENDBRANCH  32  33
ENDBRANCH  30  32
ENDBRANCH  28  30
ENDBRANCH  25  27
ENDBRANCH  24  25
BRANCH  24  35
HETATM   35  C9  UNL     1      -7.056  26.201  -2.022  1.00  0.00     0.037 C 
BRANCH  35  36
HETATM   36  C10 UNL     1      -6.986  25.755  -3.440  1.00  0.00    -0.012 C 
HETATM   37  C11 UNL     1      -5.595  25.578  -3.969  1.00  0.00     0.005 C 
HETATM   38  C12 UNL     1      -5.157  26.973  -4.382  1.00  0.00     0.000 C 
HETATM   39  C13 UNL     1      -6.378  27.842  -4.351  1.00  0.00     0.000 C 
HETATM   40  C14 UNL     1      -7.548  26.858  -4.311  1.00  0.00     0.005 C 
ENDBRANCH  35  36
ENDBRANCH  24  35
ENDBRANCH   1  24
TORSDOF 14
ENDMDL
MODEL 5
REMARK VINA RESULT: -7.216240120      2.946      7.453
REMARK  14 active torsions:
REMARK  status: ('A' for Active; 'I' for Inactive)
REMARK    1  A    between atoms: C2_2  and  O1_3 
REMARK    2  A    between atoms: O1_3  and  C3_4 
REMARK    3  A    between atoms: C3_4  and  C4_6 
REMARK    4  A    between atoms: C6_8  and  C7_9 
REMARK    5  A    between atoms: C7_9  and  C8_11 
REMARK    6  A    between atoms: C8_11  and  C9_12 
REMARK    7  A    between atoms: C8_11  and  N1_18 
REMARK    8  A    between atoms: C9_12  and  C10_13 
REMARK       I    between atoms: N1_18  and  C15_20 
REMARK    9  A    between atoms: C15_20  and  C16_22 
REMARK       I    between atoms: N2_26  and  C20_27 
REMARK   10  A    between atoms: C20_27  and  C21_29 
REMARK   11  A    between atoms: C21_29  and  N3_30 
REMARK   12  A    between atoms: N3_30  and  C22_32 
REMARK   13  A    between atoms: C22_32  and  O6_33 
REMARK   14  A    between atoms: C22_32  and  C23_35 
ROOT
HETATM    1  N1  UNL     1      -7.129  25.782  -0.433  1.00  0.00    -0.348 N 
ATOM      2  H1  UNL     1      -6.619  26.635  -0.662  1.00  0.00     0.163 HD
HETATM    3  C15 UNL     1      -6.515  24.526  -0.725  1.00  0.00     0.241 C 
HETATM    4  O4  UNL     1      -7.129  23.474  -0.453  1.00  0.00    -0.271 OA
ENDROOT
BRANCH   3   5
HETATM    5  C16 UNL     1      -5.167  24.580  -1.338  1.00  0.00     0.179 C 
HETATM    6  C17 UNL     1      -4.177  25.118  -0.300  1.00  0.00     0.037 C 
HETATM    7  C18 UNL     1      -3.012  25.518  -1.150  1.00  0.00     0.022 C 
HETATM    8  C19 UNL     1      -3.555  25.738  -2.530  1.00  0.00     0.127 C 
HETATM    9  N2  UNL     1      -4.972  25.411  -2.457  1.00  0.00    -0.337 N 
HETATM   10  C20 UNL     1      -5.869  25.863  -3.424  1.00  0.00     0.237 C 
HETATM   11  O5  UNL     1      -7.059  25.568  -3.451  1.00  0.00    -0.272 OA
BRANCH  10  12
HETATM   12  C21 UNL     1      -5.358  26.777  -4.522  1.00  0.00     0.219 C 
BRANCH  12  13
HETATM   13  N3  UNL     1      -5.701  28.117  -4.242  1.00  0.00    -0.388 N 
ATOM     14  H3  UNL     1      -5.010  28.721  -3.797  1.00  0.00     0.156 HD
BRANCH  13  15
HETATM   15  C22 UNL     1      -6.964  28.643  -4.557  1.00  0.00     0.217 C 
BRANCH  15  16
HETATM   16  O6  UNL     1      -7.911  28.354  -3.520  1.00  0.00    -0.377 OA
ATOM     17  H6  UNL     1      -8.666  28.930  -3.580  1.00  0.00     0.212 HD
ENDBRANCH  15  16
BRANCH  15  18
HETATM   18  C23 UNL     1      -7.564  28.312  -5.885  1.00  0.00     0.034 C 
HETATM   19  C24 UNL     1      -8.922  27.596  -5.628  1.00  0.00     0.009 C 
HETATM   20  C25 UNL     1      -9.296  26.905  -6.930  1.00  0.00     0.001 C 
HETATM   21  C26 UNL     1      -9.412  27.946  -8.045  1.00  0.00     0.000 C 
HETATM   22  C27 UNL     1      -9.232  29.325  -7.488  1.00  0.00     0.001 C 
HETATM   23  C28 UNL     1      -7.928  29.500  -6.723  1.00  0.00     0.009 C 
ENDBRANCH  15  18
ENDBRANCH  13  15
ENDBRANCH  12  13
ENDBRANCH  10  12
ENDBRANCH   3   5
BRANCH   1  24
HETATM   24  C8  UNL     1      -8.442  25.908   0.172  1.00  0.00     0.155 C 
BRANCH  24  25
HETATM   25  C7  UNL     1      -9.469  26.239  -0.860  1.00  0.00     0.154 C 
HETATM   26  O3  UNL     1      -9.658  27.402  -1.147  1.00  0.00    -0.295 OA
BRANCH  25  27
HETATM   27  C6  UNL     1     -10.283  25.224  -1.564  1.00  0.00     0.072 A 
HETATM   28  C4  UNL     1     -11.764  25.228  -1.490  1.00  0.00     0.097 A 
HETATM   29  C5  UNL     1     -11.069  25.750  -2.731  1.00  0.00     0.028 A 
BRANCH  28  30
HETATM   30  C3  UNL     1     -12.408  23.888  -1.649  1.00  0.00     0.263 C 
HETATM   31  O2  UNL     1     -13.637  23.768  -1.861  1.00  0.00    -0.265 OA
BRANCH  30  32
HETATM   32  O1  UNL     1     -11.660  22.706  -1.566  1.00  0.00    -0.322 OA
BRANCH  32  33
HETATM   33  C2  UNL     1     -12.325  21.457  -1.361  1.00  0.00     0.174 C 
HETATM   34  C1  UNL     1     -12.081  20.610  -2.589  1.00  0.00     0.034 C 
ENDBRANCH  32  33
ENDBRANCH  30  32
ENDBRANCH  28  30
ENDBRANCH  25  27
ENDBRANCH  24  25
BRANCH  24  35
HETATM   35  C9  UNL     1      -8.452  27.063   1.156  1.00  0.00     0.037 C 
BRANCH  35  36
HETATM   36  C10 UNL     1      -7.117  27.399   1.725  1.00  0.00    -0.012 C 
HETATM   37  C11 UNL     1      -6.832  26.772   3.055  1.00  0.00     0.005 C 
HETATM   38  C12 UNL     1      -7.498  27.688   4.067  1.00  0.00     0.000 C 
HETATM   39  C13 UNL     1      -7.889  28.937   3.336  1.00  0.00     0.000 C 
HETATM   40  C14 UNL     1      -7.094  28.881   2.031  1.00  0.00     0.005 C 
ENDBRANCH  35  36
ENDBRANCH  24  35
ENDBRANCH   1  24
TORSDOF 14
ENDMDL
