MODEL 1
REMARK VINA RESULT: -6.860573330      0.000      0.000
REMARK  6 active torsions:
REMARK  status: ('A' for Active; 'I' for Inactive)
REMARK       I    between atoms: C1_4  and  N3_6 
REMARK    1  A    between atoms: N3_6  and  N4_8 
REMARK    2  A    between atoms: C2_10  and  C3_11 
REMARK    3  A    between atoms: N5_14  and  C6_15 
REMARK    4  A    between atoms: C6_15  and  C7_16 
REMARK    5  A    between atoms: C7_16  and  C8_17 
REMARK    6  A    between atoms: C8_17  and  N6_18 
ROOT
HETATM    1  C3  UNL     1      21.982 -21.088  42.450  1.00  0.00    -0.017 A 
HETATM    2  C4  UNL     1      21.667 -21.721  41.266  1.00  0.00     0.030 A 
HETATM    3  C5  UNL     1      20.780 -21.149  40.381  1.00  0.00     0.091 A 
HETATM    4  N5  UNL     1      20.189 -19.974  40.619  1.00  0.00    -0.366 N 
HETATM    5  C14 UNL     1      20.489 -19.345  41.774  1.00  0.00     0.091 A 
HETATM    6  C15 UNL     1      21.368 -19.878  42.688  1.00  0.00     0.030 A 
ENDROOT
BRANCH   1   7
HETATM    7  C2  UNL     1      22.918 -21.680  43.398  1.00  0.00     0.118 C 
HETATM    8  N4  UNL     1      22.916 -21.315  44.631  1.00  0.00    -0.309 N 
ATOM      9  H4  UNL     1      22.248 -20.605  44.933  1.00  0.00     0.186 HD
BRANCH   8  10
HETATM   10  N3  UNL     1      23.792 -21.854  45.568  1.00  0.00    -0.274 N 
HETATM   11  C1  UNL     1      25.159 -21.482  45.683  1.00  0.00     0.200 C 
HETATM   12  N1  UNL     1      26.048 -22.371  45.373  1.00  0.00    -0.372 N 
HETATM   13  N2  UNL     1      25.568 -20.201  46.116  1.00  0.00    -0.062 NA
ATOM     14  H12 UNL     1      27.029 -22.104  45.455  1.00  0.00     0.158 HD
ATOM     15  H11 UNL     1      25.752 -23.296  45.061  1.00  0.00     0.158 HD
ATOM     16  H3  UNL     1      23.433 -22.558  46.212  1.00  0.00     0.189 HD
ENDBRANCH   8  10
ENDBRANCH   1   7
BRANCH   4  17
HETATM   17  C6  UNL     1      19.247 -19.377  39.670  1.00  0.00     0.129 C 
BRANCH  17  18
HETATM   18  C7  UNL     1      17.990 -20.198  39.716  1.00  0.00     0.040 C 
BRANCH  18  19
HETATM   19  C8  UNL     1      16.979 -19.668  40.694  1.00  0.00     0.129 C 
BRANCH  19  20
HETATM   20  N6  UNL     1      16.924 -20.387  41.926  1.00  0.00    -0.365 N 
HETATM   21  C9  UNL     1      17.474 -21.631  41.955  1.00  0.00     0.090 A 
HETATM   22  C10 UNL     1      17.475 -22.409  43.095  1.00  0.00     0.019 A 
HETATM   23  C11 UNL     1      16.899 -21.911  44.242  1.00  0.00     0.029 A 
HETATM   24  C12 UNL     1      16.342 -20.643  44.198  1.00  0.00     0.061 A 
HETATM   25  N7  UNL     1      15.744 -20.128  45.392  1.00  0.00    -0.101 NA
HETATM   26  C13 UNL     1      16.361 -19.898  43.046  1.00  0.00     0.116 A 
ENDBRANCH  19  20
ENDBRANCH  18  19
ENDBRANCH  17  18
ENDBRANCH   4  17
TORSDOF 6
ENDMDL
MODEL 2
REMARK VINA RESULT: -6.519317870      1.220      1.736
REMARK  6 active torsions:
REMARK  status: ('A' for Active; 'I' for Inactive)
REMARK       I    between atoms: C1_4  and  N3_6 
REMARK    1  A    between atoms: N3_6  and  N4_8 
REMARK    2  A    between atoms: C2_10  and  C3_11 
REMARK    3  A    between atoms: N5_14  and  C6_15 
REMARK    4  A    between atoms: C6_15  and  C7_16 
REMARK    5  A    between atoms: C7_16  and  C8_17 
REMARK    6  A    between atoms: C8_17  and  N6_18 
ROOT
HETATM    1  C3  UNL     1      21.624 -20.952  42.227  1.00  0.00    -0.017 A 
HETATM    2  C4  UNL     1      21.268 -19.629  42.384  1.00  0.00     0.030 A 
HETATM    3  C5  UNL     1      20.626 -18.952  41.370  1.00  0.00     0.091 A 
HETATM    4  N5  UNL     1      20.320 -19.531  40.204  1.00  0.00    -0.366 N 
HETATM    5  C14 UNL     1      20.663 -20.825  40.040  1.00  0.00     0.091 A 
HETATM    6  C15 UNL     1      21.306 -21.541  41.023  1.00  0.00     0.030 A 
ENDROOT
BRANCH   1   7
HETATM    7  C2  UNL     1      22.304 -21.683  43.289  1.00  0.00     0.118 C 
HETATM    8  N4  UNL     1      22.949 -21.051  44.206  1.00  0.00    -0.309 N 
ATOM      9  H4  UNL     1      22.975 -20.032  44.175  1.00  0.00     0.186 HD
BRANCH   8  10
HETATM   10  N3  UNL     1      23.612 -21.709  45.237  1.00  0.00    -0.274 N 
HETATM   11  C1  UNL     1      24.992 -21.541  45.528  1.00  0.00     0.200 C 
HETATM   12  N1  UNL     1      25.775 -22.551  45.319  1.00  0.00    -0.372 N 
HETATM   13  N2  UNL     1      25.525 -20.332  46.030  1.00  0.00    -0.062 NA
ATOM     14  H12 UNL     1      26.766 -22.430  45.528  1.00  0.00     0.158 HD
ATOM     15  H11 UNL     1      25.390 -23.424  44.957  1.00  0.00     0.158 HD
ATOM     16  H3  UNL     1      23.075 -22.352  45.819  1.00  0.00     0.189 HD
ENDBRANCH   8  10
ENDBRANCH   1   7
BRANCH   4  17
HETATM   17  C6  UNL     1      19.637 -18.800  39.136  1.00  0.00     0.129 C 
BRANCH  17  18
HETATM   18  C7  UNL     1      18.241 -19.346  39.046  1.00  0.00     0.040 C 
BRANCH  18  19
HETATM   19  C8  UNL     1      17.235 -18.509  39.785  1.00  0.00     0.129 C 
BRANCH  19  20
HETATM   20  N6  UNL     1      16.587 -19.189  40.861  1.00  0.00    -0.365 N 
HETATM   21  C9  UNL     1      17.259 -20.210  41.458  1.00  0.00     0.090 A 
HETATM   22  C10 UNL     1      16.723 -20.931  42.506  1.00  0.00     0.019 A 
HETATM   23  C11 UNL     1      15.466 -20.606  42.963  1.00  0.00     0.029 A 
HETATM   24  C12 UNL     1      14.792 -19.565  42.346  1.00  0.00     0.061 A 
HETATM   25  N7  UNL     1      13.485 -19.230  42.824  1.00  0.00    -0.101 NA
HETATM   26  C13 UNL     1      15.358 -18.869  41.307  1.00  0.00     0.116 A 
ENDBRANCH  19  20
ENDBRANCH  18  19
ENDBRANCH  17  18
ENDBRANCH   4  17
TORSDOF 6
ENDMDL
MODEL 3
REMARK VINA RESULT: -6.305042428      1.854      3.831
REMARK  6 active torsions:
REMARK  status: ('A' for Active; 'I' for Inactive)
REMARK       I    between atoms: C1_4  and  N3_6 
REMARK    1  A    between atoms: N3_6  and  N4_8 
REMARK    2  A    between atoms: C2_10  and  C3_11 
REMARK    3  A    between atoms: N5_14  and  C6_15 
REMARK    4  A    between atoms: C6_15  and  C7_16 
REMARK    5  A    between atoms: C7_16  and  C8_17 
REMARK    6  A    between atoms: C8_17  and  N6_18 
ROOT
HETATM    1  C3  UNL     1      21.230 -21.216  44.306  1.00  0.00    -0.017 A 
HETATM    2  C4  UNL     1      20.160 -22.066  44.487  1.00  0.00     0.030 A 
HETATM    3  C5  UNL     1      18.879 -21.655  44.186  1.00  0.00     0.091 A 
HETATM    4  N5  UNL     1      18.613 -20.433  43.712  1.00  0.00    -0.366 N 
HETATM    5  C14 UNL     1      19.652 -19.593  43.531  1.00  0.00     0.091 A 
HETATM    6  C15 UNL     1      20.946 -19.959  43.819  1.00  0.00     0.030 A 
ENDROOT
BRANCH   1   7
HETATM    7  C2  UNL     1      22.590 -21.635  44.621  1.00  0.00     0.118 C 
HETATM    8  N4  UNL     1      22.889 -22.046  45.802  1.00  0.00    -0.309 N 
ATOM      9  H4  UNL     1      22.158 -22.074  46.513  1.00  0.00     0.186 HD
BRANCH   8  10
HETATM   10  N3  UNL     1      24.174 -22.455  46.144  1.00  0.00    -0.274 N 
HETATM   11  C1  UNL     1      25.357 -21.783  45.734  1.00  0.00     0.200 C 
HETATM   12  N1  UNL     1      26.136 -22.398  44.902  1.00  0.00    -0.372 N 
HETATM   13  N2  UNL     1      25.702 -20.493  46.195  1.00  0.00    -0.062 NA
ATOM     14  H12 UNL     1      26.984 -21.916  44.606  1.00  0.00     0.158 HD
ATOM     15  H11 UNL     1      25.886 -23.330  44.569  1.00  0.00     0.158 HD
ATOM     16  H3  UNL     1      24.274 -23.287  46.725  1.00  0.00     0.189 HD
ENDBRANCH   8  10
ENDBRANCH   1   7
BRANCH   4  17
HETATM   17  C6  UNL     1      17.248 -20.010  43.397  1.00  0.00     0.129 C 
BRANCH  17  18
HETATM   18  C7  UNL     1      16.938 -20.505  42.013  1.00  0.00     0.040 C 
BRANCH  18  19
HETATM   19  C8  UNL     1      16.397 -19.431  41.112  1.00  0.00     0.129 C 
BRANCH  19  20
HETATM   20  N6  UNL     1      17.286 -19.042  40.065  1.00  0.00    -0.365 N 
HETATM   21  C9  UNL     1      16.828 -19.123  38.786  1.00  0.00     0.090 A 
HETATM   22  C10 UNL     1      17.606 -18.771  37.702  1.00  0.00     0.019 A 
HETATM   23  C11 UNL     1      18.889 -18.322  37.921  1.00  0.00     0.029 A 
HETATM   24  C12 UNL     1      19.343 -18.245  39.227  1.00  0.00     0.061 A 
HETATM   25  N7  UNL     1      20.678 -17.779  39.451  1.00  0.00    -0.101 NA
HETATM   26  C13 UNL     1      18.540 -18.603  40.281  1.00  0.00     0.116 A 
ENDBRANCH  19  20
ENDBRANCH  18  19
ENDBRANCH  17  18
ENDBRANCH   4  17
TORSDOF 6
ENDMDL
MODEL 4
REMARK VINA RESULT: -6.304387708      1.902      2.547
REMARK  6 active torsions:
REMARK  status: ('A' for Active; 'I' for Inactive)
REMARK       I    between atoms: C1_4  and  N3_6 
REMARK    1  A    between atoms: N3_6  and  N4_8 
REMARK    2  A    between atoms: C2_10  and  C3_11 
REMARK    3  A    between atoms: N5_14  and  C6_15 
REMARK    4  A    between atoms: C6_15  and  C7_16 
REMARK    5  A    between atoms: C7_16  and  C8_17 
REMARK    6  A    between atoms: C8_17  and  N6_18 
ROOT
HETATM    1  C3  UNL     1      20.566 -21.164  40.688  1.00  0.00    -0.017 A 
HETATM    2  C4  UNL     1      19.392 -21.876  40.559  1.00  0.00     0.030 A 
HETATM    3  C5  UNL     1      18.357 -21.388  39.791  1.00  0.00     0.091 A 
HETATM    4  N5  UNL     1      18.437 -20.221  39.143  1.00  0.00    -0.366 N 
HETATM    5  C14 UNL     1      19.580 -19.516  39.261  1.00  0.00     0.091 A 
HETATM    6  C15 UNL     1      20.639 -19.963  40.017  1.00  0.00     0.030 A 
ENDROOT
BRANCH   1   7
HETATM    7  C2  UNL     1      21.669 -21.666  41.497  1.00  0.00     0.118 C 
HETATM    8  N4  UNL     1      21.439 -22.365  42.552  1.00  0.00    -0.309 N 
ATOM      9  H4  UNL     1      20.472 -22.561  42.810  1.00  0.00     0.186 HD
BRANCH   8  10
HETATM   10  N3  UNL     1      22.462 -22.863  43.352  1.00  0.00    -0.274 N 
HETATM   11  C1  UNL     1      23.609 -22.115  43.732  1.00  0.00     0.200 C 
HETATM   12  N1  UNL     1      24.752 -22.487  43.249  1.00  0.00    -0.372 N 
HETATM   13  N2  UNL     1      23.543 -21.003  44.601  1.00  0.00    -0.062 NA
ATOM     14  H12 UNL     1      25.575 -21.950  43.521  1.00  0.00     0.158 HD
ATOM     15  H11 UNL     1      24.799 -23.290  42.621  1.00  0.00     0.158 HD
ATOM     16  H3  UNL     1      22.385 -23.823  43.688  1.00  0.00     0.189 HD
ENDBRANCH   8  10
ENDBRANCH   1   7
BRANCH   4  17
HETATM   17  C6  UNL     1      17.330 -19.714  38.330  1.00  0.00     0.129 C 
BRANCH  17  18
HETATM   18  C7  UNL     1      16.929 -18.385  38.904  1.00  0.00     0.040 C 
BRANCH  18  19
HETATM   19  C8  UNL     1      15.886 -18.501  39.979  1.00  0.00     0.129 C 
BRANCH  19  20
HETATM   20  N6  UNL     1      16.406 -18.846  41.264  1.00  0.00    -0.365 N 
HETATM   21  C9  UNL     1      15.847 -19.907  41.906  1.00  0.00     0.090 A 
HETATM   22  C10 UNL     1      16.275 -20.324  43.150  1.00  0.00     0.019 A 
HETATM   23  C11 UNL     1      17.303 -19.643  43.763  1.00  0.00     0.029 A 
HETATM   24  C12 UNL     1      17.863 -18.565  43.098  1.00  0.00     0.061 A 
HETATM   25  N7  UNL     1      18.932 -17.859  43.738  1.00  0.00    -0.101 NA
HETATM   26  C13 UNL     1      17.412 -18.180  41.861  1.00  0.00     0.116 A 
ENDBRANCH  19  20
ENDBRANCH  18  19
ENDBRANCH  17  18
ENDBRANCH   4  17
TORSDOF 6
ENDMDL
MODEL 5
REMARK VINA RESULT: -6.275291792      1.860      3.985
REMARK  6 active torsions:
REMARK  status: ('A' for Active; 'I' for Inactive)
REMARK       I    between atoms: C1_4  and  N3_6 
REMARK    1  A    between atoms: N3_6  and  N4_8 
REMARK    2  A    between atoms: C2_10  and  C3_11 
REMARK    3  A    between atoms: N5_14  and  C6_15 
REMARK    4  A    between atoms: C6_15  and  C7_16 
REMARK    5  A    between atoms: C7_16  and  C8_17 
REMARK    6  A    between atoms: C8_17  and  N6_18 
ROOT
HETATM    1  C3  UNL     1      20.956 -21.319  44.323  1.00  0.00    -0.017 A 
HETATM    2  C4  UNL     1      20.633 -20.044  43.912  1.00  0.00     0.030 A 
HETATM    3  C5  UNL     1      19.326 -19.704  43.644  1.00  0.00     0.091 A 
HETATM    4  N5  UNL     1      18.320 -20.577  43.766  1.00  0.00    -0.366 N 
HETATM    5  C14 UNL     1      18.623 -21.828  44.168  1.00  0.00     0.091 A 
HETATM    6  C15 UNL     1      19.915 -22.213  44.446  1.00  0.00     0.030 A 
ENDROOT
BRANCH   1   7
HETATM    7  C2  UNL     1      22.335 -21.695  44.610  1.00  0.00     0.118 C 
HETATM    8  N4  UNL     1      22.681 -22.051  45.797  1.00  0.00    -0.309 N 
ATOM      9  H4  UNL     1      21.973 -22.065  46.531  1.00  0.00     0.186 HD
BRANCH   8  10
HETATM   10  N3  UNL     1      23.985 -22.417  46.113  1.00  0.00    -0.274 N 
HETATM   11  C1  UNL     1      25.138 -21.731  45.645  1.00  0.00     0.200 C 
HETATM   12  N1  UNL     1      25.907 -22.356  44.811  1.00  0.00    -0.372 N 
HETATM   13  N2  UNL     1      25.464 -20.418  46.053  1.00  0.00    -0.062 NA
ATOM     14  H12 UNL     1      26.735 -21.864  44.475  1.00  0.00     0.158 HD
ATOM     15  H11 UNL     1      25.671 -23.304  44.517  1.00  0.00     0.158 HD
ATOM     16  H3  UNL     1      24.123 -23.226  46.718  1.00  0.00     0.189 HD
ENDBRANCH   8  10
ENDBRANCH   1   7
BRANCH   4  17
HETATM   17  C6  UNL     1      16.934 -20.202  43.478  1.00  0.00     0.129 C 
BRANCH  17  18
HETATM   18  C7  UNL     1      16.976 -19.087  42.473  1.00  0.00     0.040 C 
BRANCH  18  19
HETATM   19  C8  UNL     1      16.532 -19.516  41.103  1.00  0.00     0.129 C 
BRANCH  19  20
HETATM   20  N6  UNL     1      17.395 -19.089  40.048  1.00  0.00    -0.365 N 
HETATM   21  C9  UNL     1      16.920 -19.164  38.775  1.00  0.00     0.090 A 
HETATM   22  C10 UNL     1      17.672 -18.776  37.685  1.00  0.00     0.019 A 
HETATM   23  C11 UNL     1      18.946 -18.298  37.891  1.00  0.00     0.029 A 
HETATM   24  C12 UNL     1      19.418 -18.227  39.192  1.00  0.00     0.061 A 
HETATM   25  N7  UNL     1      20.743 -17.729  39.403  1.00  0.00    -0.101 NA
HETATM   26  C13 UNL     1      18.640 -18.621  40.252  1.00  0.00     0.116 A 
ENDBRANCH  19  20
ENDBRANCH  18  19
ENDBRANCH  17  18
ENDBRANCH   4  17
TORSDOF 6
ENDMDL
