MODEL 1
REMARK VINA RESULT: -7.064888936      0.000      0.000
REMARK  19 active torsions:
REMARK  status: ('A' for Active; 'I' for Inactive)
REMARK    1  A    between atoms: S1_2  and  C2_3 
REMARK    2  A    between atoms: C2_3  and  N4_12 
REMARK    3  A    between atoms: N1_4  and  N2_6 
REMARK    4  A    between atoms: N2_6  and  C3_8 
REMARK    5  A    between atoms: C3_8  and  N3_9 
REMARK    6  A    between atoms: N4_12  and  C4_13 
REMARK    7  A    between atoms: C5_15  and  C6_16 
REMARK    8  A    between atoms: C6_16  and  O2_17 
REMARK    9  A    between atoms: C6_16  and  N5_19 
REMARK   10  A    between atoms: N5_19  and  C7_21 
REMARK   11  A    between atoms: C7_21  and  C8_22 
REMARK   12  A    between atoms: C7_21  and  C10_29 
REMARK   13  A    between atoms: C8_22  and  S2_23 
REMARK   14  A    between atoms: S2_23  and  C9_24 
REMARK   15  A    between atoms: C10_29  and  O3_30 
REMARK   16  A    between atoms: C10_29  and  O4_32 
REMARK   17  A    between atoms: C12_41  and  C13_42 
REMARK   18  A    between atoms: C13_42  and  O5_43 
REMARK   19  A    between atoms: C13_42  and  O6_45 
ROOT
HETATM    1  C4  UNL     1     -19.300  36.534  -7.646  1.00  0.00     0.242 A 
HETATM    2  O1  UNL     1     -18.626  35.381  -7.925  1.00  0.00    -0.264 OA
HETATM    3  C5  UNL     1     -18.333  34.536  -7.005  1.00  0.00     0.177 A 
HETATM    4  N8  UNL     1     -18.678  34.753  -5.728  1.00  0.00    -0.321 N 
ATOM      5  H8  UNL     1     -18.426  34.057  -5.026  1.00  0.00     0.169 HD
HETATM    6  C11 UNL     1     -19.337  35.845  -5.339  1.00  0.00     0.139 A 
HETATM    7  N9  UNL     1     -19.819  36.331  -4.190  1.00  0.00    -0.284 N 
ATOM      8  H9  UNL     1     -19.737  35.872  -3.283  1.00  0.00     0.188 HD
HETATM    9  N10 UNL     1     -20.412  37.482  -4.395  1.00  0.00    -0.297 N 
ATOM     10  H10 UNL     1     -20.858  38.047  -3.672  1.00  0.00     0.187 HD
HETATM   11  C12 UNL     1     -20.345  37.817  -5.726  1.00  0.00     0.099 A 
HETATM   12  C14 UNL     1     -19.667  36.779  -6.316  1.00  0.00     0.104 A 
ENDROOT
BRANCH   3  13
HETATM   13  C6  UNL     1     -17.570  33.243  -7.351  1.00  0.00     0.290 C 
BRANCH  13  14
HETATM   14  O2  UNL     1     -17.456  33.225  -8.721  1.00  0.00    -0.369 OA
ATOM     15  H2  UNL     1     -17.645  32.333  -8.988  1.00  0.00     0.212 HD
ENDBRANCH  13  14
BRANCH  13  16
HETATM   16  N5  UNL     1     -16.280  33.355  -6.732  1.00  0.00    -0.381 N 
ATOM     17  H5  UNL     1     -15.597  34.035  -7.066  1.00  0.00     0.156 HD
BRANCH  16  18
HETATM   18  C7  UNL     1     -15.979  32.506  -5.656  1.00  0.00     0.144 C 
BRANCH  18  19
HETATM   19  C8  UNL     1     -14.750  31.695  -5.725  1.00  0.00     0.111 C 
BRANCH  19  20
HETATM   20  S2  UNL     1     -13.269  32.250  -4.969  1.00  0.00    -0.096 SA
BRANCH  20  21
HETATM   21  C9  UNL     1     -12.769  31.342  -3.513  1.00  0.00     0.147 C 
HETATM   22  N6  UNL     1     -13.198  31.746  -2.369  1.00  0.00    -0.382 N 
ATOM     23  H62 UNL     1     -13.801  32.565  -2.296  1.00  0.00     0.157 HD
ATOM     24  H61 UNL     1     -12.913  31.228  -1.538  1.00  0.00     0.157 HD
HETATM   25  N7  UNL     1     -11.933  30.208  -3.614  1.00  0.00    -0.075 NA
ENDBRANCH  20  21
ENDBRANCH  19  20
ENDBRANCH  18  19
BRANCH  18  26
HETATM   26  C10 UNL     1     -15.918  33.269  -4.317  1.00  0.00     0.276 C 
BRANCH  26  27
HETATM   27  O3  UNL     1     -17.094  33.117  -3.605  1.00  0.00    -0.369 OA
ATOM     28  H3  UNL     1     -17.368  32.207  -3.587  1.00  0.00     0.212 HD
ENDBRANCH  26  27
BRANCH  26  29
HETATM   29  O4  UNL     1     -15.745  34.643  -4.586  1.00  0.00    -0.369 OA
ATOM     30  H4  UNL     1     -15.209  35.022  -3.899  1.00  0.00     0.212 HD
ENDBRANCH  26  29
ENDBRANCH  18  26
ENDBRANCH  16  18
ENDBRANCH  13  16
ENDBRANCH   3  13
BRANCH   1  31
HETATM   31  N4  UNL     1     -19.568  37.298  -8.520  1.00  0.00    -0.353 NA
BRANCH  31  32
HETATM   32  C2  UNL     1     -19.847  38.160  -9.495  1.00  0.00     0.235 C 
HETATM   33  N1  UNL     1     -19.224  39.302  -9.677  1.00  0.00    -0.260 N 
ATOM     34  H1  UNL     1     -18.477  39.512  -9.016  1.00  0.00     0.191 HD
BRANCH  32  35
HETATM   35  S1  UNL     1     -21.166  37.777 -10.665  1.00  0.00    -0.082 SA
HETATM   36  C1  UNL     1     -20.589  37.069 -12.201  1.00  0.00     0.100 C 
ENDBRANCH  32  35
BRANCH  33  37
HETATM   37  N2  UNL     1     -19.448  40.228 -10.625  1.00  0.00    -0.248 N 
ATOM     38  H2  UNL     1     -20.206  40.896 -10.485  1.00  0.00     0.198 HD
BRANCH  37  39
HETATM   39  C3  UNL     1     -18.751  40.310 -11.698  1.00  0.00     0.061 C 
BRANCH  39  40
HETATM   40  N3  UNL     1     -18.215  40.011 -12.826  1.00  0.00    -0.350 N 
ATOM     41  H32 UNL     1     -17.638  39.250 -12.470  1.00  0.00     0.167 HD
ATOM     42  H31 UNL     1     -17.985  40.024 -13.820  1.00  0.00     0.167 HD
ENDBRANCH  39  40
ENDBRANCH  37  39
ENDBRANCH  33  37
ENDBRANCH  31  32
ENDBRANCH   1  31
BRANCH  11  43
HETATM   43  C13 UNL     1     -20.906  39.062  -6.204  1.00  0.00     0.307 C 
BRANCH  43  44
HETATM   44  O5  UNL     1     -19.784  39.884  -6.577  1.00  0.00    -0.366 OA
ATOM     45  H5  UNL     1     -19.452  39.521  -7.390  1.00  0.00     0.213 HD
ENDBRANCH  43  44
BRANCH  43  46
HETATM   46  O6  UNL     1     -21.482  39.727  -5.097  1.00  0.00    -0.366 OA
ATOM     47  H6  UNL     1     -22.020  39.097  -4.631  1.00  0.00     0.213 HD
ENDBRANCH  43  46
ENDBRANCH  11  43
TORSDOF 19
ENDMDL
MODEL 2
REMARK VINA RESULT: -6.956673081      1.254      1.329
REMARK  19 active torsions:
REMARK  status: ('A' for Active; 'I' for Inactive)
REMARK    1  A    between atoms: S1_2  and  C2_3 
REMARK    2  A    between atoms: C2_3  and  N4_12 
REMARK    3  A    between atoms: N1_4  and  N2_6 
REMARK    4  A    between atoms: N2_6  and  C3_8 
REMARK    5  A    between atoms: C3_8  and  N3_9 
REMARK    6  A    between atoms: N4_12  and  C4_13 
REMARK    7  A    between atoms: C5_15  and  C6_16 
REMARK    8  A    between atoms: C6_16  and  O2_17 
REMARK    9  A    between atoms: C6_16  and  N5_19 
REMARK   10  A    between atoms: N5_19  and  C7_21 
REMARK   11  A    between atoms: C7_21  and  C8_22 
REMARK   12  A    between atoms: C7_21  and  C10_29 
REMARK   13  A    between atoms: C8_22  and  S2_23 
REMARK   14  A    between atoms: S2_23  and  C9_24 
REMARK   15  A    between atoms: C10_29  and  O3_30 
REMARK   16  A    between atoms: C10_29  and  O4_32 
REMARK   17  A    between atoms: C12_41  and  C13_42 
REMARK   18  A    between atoms: C13_42  and  O5_43 
REMARK   19  A    between atoms: C13_42  and  O6_45 
ROOT
HETATM    1  C4  UNL     1     -18.597  36.049  -8.163  1.00  0.00     0.242 A 
HETATM    2  O1  UNL     1     -17.998  34.823  -8.154  1.00  0.00    -0.264 OA
HETATM    3  C5  UNL     1     -18.013  34.077  -7.111  1.00  0.00     0.177 A 
HETATM    4  N8  UNL     1     -18.620  34.473  -5.983  1.00  0.00    -0.321 N 
ATOM      5  H8  UNL     1     -18.609  33.850  -5.176  1.00  0.00     0.169 HD
HETATM    6  C11 UNL     1     -19.236  35.650  -5.876  1.00  0.00     0.139 A 
HETATM    7  N9  UNL     1     -19.919  36.307  -4.932  1.00  0.00    -0.284 N 
ATOM      8  H9  UNL     1     -20.096  35.957  -3.990  1.00  0.00     0.188 HD
HETATM    9  N10 UNL     1     -20.327  37.466  -5.387  1.00  0.00    -0.297 N 
ATOM     10  H10 UNL     1     -20.868  38.146  -4.853  1.00  0.00     0.187 HD
HETATM   11  C12 UNL     1     -19.921  37.631  -6.690  1.00  0.00     0.099 A 
HETATM   12  C14 UNL     1     -19.234  36.481  -6.992  1.00  0.00     0.104 A 
ENDROOT
BRANCH   3  13
HETATM   13  C6  UNL     1     -17.327  32.698  -7.132  1.00  0.00     0.290 C 
BRANCH  13  14
HETATM   14  O2  UNL     1     -17.310  32.302  -8.449  1.00  0.00    -0.369 OA
ATOM     15  H2  UNL     1     -17.566  31.388  -8.451  1.00  0.00     0.212 HD
ENDBRANCH  13  14
BRANCH  13  16
HETATM   16  N5  UNL     1     -15.993  32.900  -6.641  1.00  0.00    -0.381 N 
ATOM     17  H5  UNL     1     -15.324  33.465  -7.166  1.00  0.00     0.156 HD
BRANCH  16  18
HETATM   18  C7  UNL     1     -15.630  32.304  -5.425  1.00  0.00     0.144 C 
BRANCH  18  19
HETATM   19  C8  UNL     1     -14.295  31.691  -5.315  1.00  0.00     0.111 C 
BRANCH  19  20
HETATM   20  S2  UNL     1     -12.983  32.542  -4.521  1.00  0.00    -0.096 SA
BRANCH  20  21
HETATM   21  C9  UNL     1     -12.472  31.861  -2.950  1.00  0.00     0.147 C 
HETATM   22  N6  UNL     1     -13.127  32.205  -1.897  1.00  0.00    -0.382 N 
ATOM     23  H62 UNL     1     -13.912  32.853  -1.959  1.00  0.00     0.157 HD
ATOM     24  H61 UNL     1     -12.836  31.816  -1.000  1.00  0.00     0.157 HD
HETATM   25  N7  UNL     1     -11.385  30.963  -2.865  1.00  0.00    -0.075 NA
ENDBRANCH  20  21
ENDBRANCH  19  20
ENDBRANCH  18  19
BRANCH  18  26
HETATM   26  C10 UNL     1     -15.754  33.283  -4.241  1.00  0.00     0.276 C 
BRANCH  26  27
HETATM   27  O3  UNL     1     -16.982  33.155  -3.616  1.00  0.00    -0.369 OA
ATOM     28  H3  UNL     1     -17.122  32.264  -3.317  1.00  0.00     0.212 HD
ENDBRANCH  26  27
BRANCH  26  29
HETATM   29  O4  UNL     1     -15.650  34.602  -4.731  1.00  0.00    -0.369 OA
ATOM     30  H4  UNL     1     -15.060  34.605  -5.475  1.00  0.00     0.212 HD
ENDBRANCH  26  29
ENDBRANCH  18  26
ENDBRANCH  16  18
ENDBRANCH  13  16
ENDBRANCH   3  13
BRANCH   1  31
HETATM   31  N4  UNL     1     -18.576  36.720  -9.147  1.00  0.00    -0.353 NA
BRANCH  31  32
HETATM   32  C2  UNL     1     -18.546  37.486 -10.235  1.00  0.00     0.235 C 
HETATM   33  N1  UNL     1     -17.448  37.956 -10.781  1.00  0.00    -0.260 N 
ATOM     34  H1  UNL     1     -16.575  37.694 -10.324  1.00  0.00     0.191 HD
BRANCH  32  35
HETATM   35  S1  UNL     1     -20.094  37.940 -11.042  1.00  0.00    -0.082 SA
HETATM   36  C1  UNL     1     -21.512  37.023 -10.456  1.00  0.00     0.100 C 
ENDBRANCH  32  35
BRANCH  33  37
HETATM   37  N2  UNL     1     -17.330  38.740 -11.868  1.00  0.00    -0.248 N 
ATOM     38  H2  UNL     1     -17.879  38.511 -12.696  1.00  0.00     0.198 HD
BRANCH  37  39
HETATM   39  C3  UNL     1     -16.556  39.761 -11.909  1.00  0.00     0.061 C 
BRANCH  39  40
HETATM   40  N3  UNL     1     -15.521  40.497 -12.100  1.00  0.00    -0.350 N 
ATOM     41  H32 UNL     1     -14.844  39.735 -12.067  1.00  0.00     0.167 HD
ATOM     42  H31 UNL     1     -14.933  41.315 -12.259  1.00  0.00     0.167 HD
ENDBRANCH  39  40
ENDBRANCH  37  39
ENDBRANCH  33  37
ENDBRANCH  31  32
ENDBRANCH   1  31
BRANCH  11  43
HETATM   43  C13 UNL     1     -20.225  38.848  -7.411  1.00  0.00     0.307 C 
BRANCH  43  44
HETATM   44  O5  UNL     1     -19.774  39.928  -6.573  1.00  0.00    -0.366 OA
ATOM     45  H5  UNL     1     -20.540  40.465  -6.403  1.00  0.00     0.213 HD
ENDBRANCH  43  44
BRANCH  43  46
HETATM   46  O6  UNL     1     -21.632  38.986  -7.444  1.00  0.00    -0.366 OA
ATOM     47  H6  UNL     1     -21.848  39.831  -7.066  1.00  0.00     0.213 HD
ENDBRANCH  43  46
ENDBRANCH  11  43
TORSDOF 19
ENDMDL
MODEL 3
REMARK VINA RESULT: -6.903555084      1.048      1.351
REMARK  19 active torsions:
REMARK  status: ('A' for Active; 'I' for Inactive)
REMARK    1  A    between atoms: S1_2  and  C2_3 
REMARK    2  A    between atoms: C2_3  and  N4_12 
REMARK    3  A    between atoms: N1_4  and  N2_6 
REMARK    4  A    between atoms: N2_6  and  C3_8 
REMARK    5  A    between atoms: C3_8  and  N3_9 
REMARK    6  A    between atoms: N4_12  and  C4_13 
REMARK    7  A    between atoms: C5_15  and  C6_16 
REMARK    8  A    between atoms: C6_16  and  O2_17 
REMARK    9  A    between atoms: C6_16  and  N5_19 
REMARK   10  A    between atoms: N5_19  and  C7_21 
REMARK   11  A    between atoms: C7_21  and  C8_22 
REMARK   12  A    between atoms: C7_21  and  C10_29 
REMARK   13  A    between atoms: C8_22  and  S2_23 
REMARK   14  A    between atoms: S2_23  and  C9_24 
REMARK   15  A    between atoms: C10_29  and  O3_30 
REMARK   16  A    between atoms: C10_29  and  O4_32 
REMARK   17  A    between atoms: C12_41  and  C13_42 
REMARK   18  A    between atoms: C13_42  and  O5_43 
REMARK   19  A    between atoms: C13_42  and  O6_45 
ROOT
HETATM    1  C4  UNL     1     -19.188  36.582  -7.610  1.00  0.00     0.242 A 
HETATM    2  O1  UNL     1     -18.524  35.426  -7.898  1.00  0.00    -0.264 OA
HETATM    3  C5  UNL     1     -18.308  34.535  -7.001  1.00  0.00     0.177 A 
HETATM    4  N8  UNL     1     -18.727  34.706  -5.739  1.00  0.00    -0.321 N 
ATOM      5  H8  UNL     1     -18.535  33.973  -5.055  1.00  0.00     0.169 HD
HETATM    6  C11 UNL     1     -19.384  35.796  -5.343  1.00  0.00     0.139 A 
HETATM    7  N9  UNL     1     -19.927  36.244  -4.205  1.00  0.00    -0.284 N 
ATOM      8  H9  UNL     1     -19.912  35.744  -3.316  1.00  0.00     0.188 HD
HETATM    9  N10 UNL     1     -20.479  37.417  -4.395  1.00  0.00    -0.297 N 
ATOM     10  H10 UNL     1     -20.956  37.962  -3.676  1.00  0.00     0.187 HD
HETATM   11  C12 UNL     1     -20.321  37.808  -5.703  1.00  0.00     0.099 A 
HETATM   12  C14 UNL     1     -19.631  36.779  -6.296  1.00  0.00     0.104 A 
ENDROOT
BRANCH   3  13
HETATM   13  C6  UNL     1     -17.555  33.239  -7.357  1.00  0.00     0.290 C 
BRANCH  13  14
HETATM   14  O2  UNL     1     -17.455  33.223  -8.728  1.00  0.00    -0.369 OA
ATOM     15  H2  UNL     1     -16.919  33.972  -8.961  1.00  0.00     0.212 HD
ENDBRANCH  13  14
BRANCH  13  16
HETATM   16  N5  UNL     1     -16.258  33.344  -6.751  1.00  0.00    -0.381 N 
ATOM     17  H5  UNL     1     -15.569  34.010  -7.102  1.00  0.00     0.156 HD
BRANCH  16  18
HETATM   18  C7  UNL     1     -15.958  32.509  -5.664  1.00  0.00     0.144 C 
BRANCH  18  19
HETATM   19  C8  UNL     1     -14.730  31.697  -5.722  1.00  0.00     0.111 C 
BRANCH  19  20
HETATM   20  S2  UNL     1     -13.245  32.268  -4.984  1.00  0.00    -0.096 SA
BRANCH  20  21
HETATM   21  C9  UNL     1     -12.721  31.370  -3.530  1.00  0.00     0.147 C 
HETATM   22  N6  UNL     1     -13.245  31.689  -2.398  1.00  0.00    -0.382 N 
ATOM     23  H62 UNL     1     -13.934  32.437  -2.335  1.00  0.00     0.157 HD
ATOM     24  H61 UNL     1     -12.946  31.177  -1.569  1.00  0.00     0.157 HD
HETATM   25  N7  UNL     1     -11.766  30.334  -3.619  1.00  0.00    -0.075 NA
ENDBRANCH  20  21
ENDBRANCH  19  20
ENDBRANCH  18  19
BRANCH  18  26
HETATM   26  C10 UNL     1     -15.898  33.288  -4.335  1.00  0.00     0.276 C 
BRANCH  26  27
HETATM   27  O3  UNL     1     -17.055  33.105  -3.599  1.00  0.00    -0.369 OA
ATOM     28  H3  UNL     1     -17.449  32.261  -3.786  1.00  0.00     0.212 HD
ENDBRANCH  26  27
BRANCH  26  29
HETATM   29  O4  UNL     1     -15.777  34.664  -4.621  1.00  0.00    -0.369 OA
ATOM     30  H4  UNL     1     -15.253  34.767  -5.407  1.00  0.00     0.212 HD
ENDBRANCH  26  29
ENDBRANCH  18  26
ENDBRANCH  16  18
ENDBRANCH  13  16
ENDBRANCH   3  13
BRANCH   1  31
HETATM   31  N4  UNL     1     -19.383  37.390  -8.464  1.00  0.00    -0.353 NA
BRANCH  31  32
HETATM   32  C2  UNL     1     -19.580  38.290  -9.425  1.00  0.00     0.235 C 
HETATM   33  N1  UNL     1     -20.286  39.388  -9.279  1.00  0.00    -0.260 N 
ATOM     34  H1  UNL     1     -20.691  39.538  -8.356  1.00  0.00     0.191 HD
BRANCH  32  35
HETATM   35  S1  UNL     1     -18.855  38.020 -11.054  1.00  0.00    -0.082 SA
HETATM   36  C1  UNL     1     -17.359  38.954 -11.344  1.00  0.00     0.100 C 
ENDBRANCH  32  35
BRANCH  33  37
HETATM   37  N2  UNL     1     -20.542  40.339 -10.195  1.00  0.00    -0.248 N 
ATOM     38  H2  UNL     1     -19.755  40.799 -10.652  1.00  0.00     0.198 HD
BRANCH  37  39
HETATM   39  C3  UNL     1     -21.730  40.692 -10.519  1.00  0.00     0.061 C 
BRANCH  39  40
HETATM   40  N3  UNL     1     -22.836  40.795 -11.164  1.00  0.00    -0.350 N 
ATOM     41  H32 UNL     1     -22.736  39.923 -11.684  1.00  0.00     0.167 HD
ATOM     42  H31 UNL     1     -23.729  41.156 -11.499  1.00  0.00     0.167 HD
ENDBRANCH  39  40
ENDBRANCH  37  39
ENDBRANCH  33  37
ENDBRANCH  31  32
ENDBRANCH   1  31
BRANCH  11  43
HETATM   43  C13 UNL     1     -20.822  39.087  -6.159  1.00  0.00     0.307 C 
BRANCH  43  44
HETATM   44  O5  UNL     1     -19.661  39.904  -6.398  1.00  0.00    -0.366 OA
ATOM     45  H5  UNL     1     -19.223  39.988  -5.560  1.00  0.00     0.213 HD
ENDBRANCH  43  44
BRANCH  43  46
HETATM   46  O6  UNL     1     -21.474  39.706  -5.067  1.00  0.00    -0.366 OA
ATOM     47  H6  UNL     1     -21.691  40.594  -5.327  1.00  0.00     0.213 HD
ENDBRANCH  43  46
ENDBRANCH  11  43
TORSDOF 19
ENDMDL
MODEL 4
REMARK VINA RESULT: -6.821329153      1.484      1.763
REMARK  19 active torsions:
REMARK  status: ('A' for Active; 'I' for Inactive)
REMARK    1  A    between atoms: S1_2  and  C2_3 
REMARK    2  A    between atoms: C2_3  and  N4_12 
REMARK    3  A    between atoms: N1_4  and  N2_6 
REMARK    4  A    between atoms: N2_6  and  C3_8 
REMARK    5  A    between atoms: C3_8  and  N3_9 
REMARK    6  A    between atoms: N4_12  and  C4_13 
REMARK    7  A    between atoms: C5_15  and  C6_16 
REMARK    8  A    between atoms: C6_16  and  O2_17 
REMARK    9  A    between atoms: C6_16  and  N5_19 
REMARK   10  A    between atoms: N5_19  and  C7_21 
REMARK   11  A    between atoms: C7_21  and  C8_22 
REMARK   12  A    between atoms: C7_21  and  C10_29 
REMARK   13  A    between atoms: C8_22  and  S2_23 
REMARK   14  A    between atoms: S2_23  and  C9_24 
REMARK   15  A    between atoms: C10_29  and  O3_30 
REMARK   16  A    between atoms: C10_29  and  O4_32 
REMARK   17  A    between atoms: C12_41  and  C13_42 
REMARK   18  A    between atoms: C13_42  and  O5_43 
REMARK   19  A    between atoms: C13_42  and  O6_45 
ROOT
HETATM    1  C4  UNL     1     -18.968  35.955  -7.286  1.00  0.00     0.242 A 
HETATM    2  O1  UNL     1     -18.194  34.853  -7.504  1.00  0.00    -0.264 OA
HETATM    3  C5  UNL     1     -17.795  34.111  -6.537  1.00  0.00     0.177 A 
HETATM    4  N8  UNL     1     -18.125  34.390  -5.268  1.00  0.00    -0.321 N 
ATOM      5  H8  UNL     1     -17.788  33.774  -4.527  1.00  0.00     0.169 HD
HETATM    6  C11 UNL     1     -18.876  35.439  -4.937  1.00  0.00     0.139 A 
HETATM    7  N9  UNL     1     -19.372  35.963  -3.809  1.00  0.00    -0.284 N 
ATOM      8  H9  UNL     1     -19.222  35.582  -2.875  1.00  0.00     0.188 HD
HETATM    9  N10 UNL     1     -20.079  37.034  -4.076  1.00  0.00    -0.297 N 
ATOM     10  H10 UNL     1     -20.558  37.606  -3.381  1.00  0.00     0.187 HD
HETATM   11  C12 UNL     1     -20.081  37.273  -5.429  1.00  0.00     0.099 A 
HETATM   12  C14 UNL     1     -19.321  36.263  -5.966  1.00  0.00     0.104 A 
ENDROOT
BRANCH   3  13
HETATM   13  C6  UNL     1     -16.921  32.874  -6.815  1.00  0.00     0.290 C 
BRANCH  13  14
HETATM   14  O2  UNL     1     -15.919  33.298  -7.655  1.00  0.00    -0.369 OA
ATOM     15  H2  UNL     1     -15.215  33.600  -7.093  1.00  0.00     0.212 HD
ENDBRANCH  13  14
BRANCH  13  16
HETATM   16  N5  UNL     1     -16.386  32.461  -5.548  1.00  0.00    -0.381 N 
ATOM     17  H5  UNL     1     -16.989  32.046  -4.838  1.00  0.00     0.156 HD
BRANCH  16  18
HETATM   18  C7  UNL     1     -15.015  32.643  -5.310  1.00  0.00     0.144 C 
BRANCH  18  19
HETATM   19  C8  UNL     1     -14.586  33.042  -3.958  1.00  0.00     0.111 C 
BRANCH  19  20
HETATM   20  S2  UNL     1     -12.885  33.244  -3.583  1.00  0.00    -0.096 SA
BRANCH  20  21
HETATM   21  C9  UNL     1     -12.209  32.050  -2.438  1.00  0.00     0.147 C 
HETATM   22  N6  UNL     1     -12.196  30.812  -2.790  1.00  0.00    -0.382 N 
ATOM     23  H62 UNL     1     -12.565  30.522  -3.695  1.00  0.00     0.157 HD
ATOM     24  H61 UNL     1     -11.810  30.130  -2.137  1.00  0.00     0.157 HD
HETATM   25  N7  UNL     1     -11.697  32.451  -1.185  1.00  0.00    -0.075 NA
ENDBRANCH  20  21
ENDBRANCH  19  20
ENDBRANCH  18  19
BRANCH  18  26
HETATM   26  C10 UNL     1     -14.194  31.390  -5.671  1.00  0.00     0.276 C 
BRANCH  26  27
HETATM   27  O3  UNL     1     -14.435  30.996  -6.975  1.00  0.00    -0.369 OA
ATOM     28  H3  UNL     1     -14.609  30.063  -7.024  1.00  0.00     0.212 HD
ENDBRANCH  26  27
BRANCH  26  29
HETATM   29  O4  UNL     1     -14.580  30.334  -4.819  1.00  0.00    -0.369 OA
ATOM     30  H4  UNL     1     -15.515  30.191  -4.914  1.00  0.00     0.212 HD
ENDBRANCH  26  29
ENDBRANCH  18  26
ENDBRANCH  16  18
ENDBRANCH  13  16
ENDBRANCH   3  13
BRANCH   1  31
HETATM   31  N4  UNL     1     -19.332  36.623  -8.203  1.00  0.00    -0.353 NA
BRANCH  31  32
HETATM   32  C2  UNL     1     -19.718  37.376  -9.231  1.00  0.00     0.235 C 
HETATM   33  N1  UNL     1     -19.332  38.616  -9.428  1.00  0.00    -0.260 N 
ATOM     34  H1  UNL     1     -18.688  38.998  -8.736  1.00  0.00     0.191 HD
BRANCH  32  35
HETATM   35  S1  UNL     1     -20.853  36.691 -10.454  1.00  0.00    -0.082 SA
HETATM   36  C1  UNL     1     -20.209  35.266 -11.321  1.00  0.00     0.100 C 
ENDBRANCH  32  35
BRANCH  33  37
HETATM   37  N2  UNL     1     -19.680  39.445 -10.428  1.00  0.00    -0.248 N 
ATOM     38  H2  UNL     1     -20.666  39.523 -10.676  1.00  0.00     0.198 HD
BRANCH  37  39
HETATM   39  C3  UNL     1     -18.826  40.140 -11.085  1.00  0.00     0.061 C 
BRANCH  39  40
HETATM   40  N3  UNL     1     -17.758  40.784 -11.389  1.00  0.00    -0.350 N 
ATOM     41  H32 UNL     1     -18.221  41.496 -11.953  1.00  0.00     0.167 HD
ATOM     42  H31 UNL     1     -16.776  41.057 -11.444  1.00  0.00     0.167 HD
ENDBRANCH  39  40
ENDBRANCH  37  39
ENDBRANCH  33  37
ENDBRANCH  31  32
ENDBRANCH   1  31
BRANCH  11  43
HETATM   43  C13 UNL     1     -20.772  38.421  -5.976  1.00  0.00     0.307 C 
BRANCH  43  44
HETATM   44  O5  UNL     1     -19.745  39.316  -6.443  1.00  0.00    -0.366 OA
ATOM     45  H5  UNL     1     -18.931  38.998  -6.069  1.00  0.00     0.213 HD
ENDBRANCH  43  44
BRANCH  43  46
HETATM   46  O6  UNL     1     -21.381  39.108  -4.901  1.00  0.00    -0.366 OA
ATOM     47  H6  UNL     1     -22.305  38.886  -4.904  1.00  0.00     0.213 HD
ENDBRANCH  43  46
ENDBRANCH  11  43
TORSDOF 19
ENDMDL
MODEL 5
REMARK VINA RESULT: -6.814208001      2.741      3.698
REMARK  19 active torsions:
REMARK  status: ('A' for Active; 'I' for Inactive)
REMARK    1  A    between atoms: S1_2  and  C2_3 
REMARK    2  A    between atoms: C2_3  and  N4_12 
REMARK    3  A    between atoms: N1_4  and  N2_6 
REMARK    4  A    between atoms: N2_6  and  C3_8 
REMARK    5  A    between atoms: C3_8  and  N3_9 
REMARK    6  A    between atoms: N4_12  and  C4_13 
REMARK    7  A    between atoms: C5_15  and  C6_16 
REMARK    8  A    between atoms: C6_16  and  O2_17 
REMARK    9  A    between atoms: C6_16  and  N5_19 
REMARK   10  A    between atoms: N5_19  and  C7_21 
REMARK   11  A    between atoms: C7_21  and  C8_22 
REMARK   12  A    between atoms: C7_21  and  C10_29 
REMARK   13  A    between atoms: C8_22  and  S2_23 
REMARK   14  A    between atoms: S2_23  and  C9_24 
REMARK   15  A    between atoms: C10_29  and  O3_30 
REMARK   16  A    between atoms: C10_29  and  O4_32 
REMARK   17  A    between atoms: C12_41  and  C13_42 
REMARK   18  A    between atoms: C13_42  and  O5_43 
REMARK   19  A    between atoms: C13_42  and  O6_45 
ROOT
HETATM    1  C4  UNL     1     -16.904  33.842  -7.456  1.00  0.00     0.242 A 
HETATM    2  O1  UNL     1     -15.955  32.890  -7.219  1.00  0.00    -0.264 OA
HETATM    3  C5  UNL     1     -15.801  32.373  -6.056  1.00  0.00     0.177 A 
HETATM    4  N8  UNL     1     -16.568  32.747  -5.022  1.00  0.00    -0.321 N 
ATOM      5  H8  UNL     1     -16.413  32.311  -4.113  1.00  0.00     0.169 HD
HETATM    6  C11 UNL     1     -17.525  33.668  -5.137  1.00  0.00     0.139 A 
HETATM    7  N9  UNL     1     -18.434  34.230  -4.332  1.00  0.00    -0.284 N 
ATOM      8  H9  UNL     1     -18.550  34.012  -3.342  1.00  0.00     0.188 HD
HETATM    9  N10 UNL     1     -19.154  35.101  -4.996  1.00  0.00    -0.297 N 
ATOM     10  H10 UNL     1     -19.911  35.657  -4.598  1.00  0.00     0.187 HD
HETATM   11  C12 UNL     1     -18.741  35.155  -6.305  1.00  0.00     0.099 A 
HETATM   12  C14 UNL     1     -17.713  34.248  -6.387  1.00  0.00     0.104 A 
ENDROOT
BRANCH   3  13
HETATM   13  C6  UNL     1     -14.720  31.300  -5.820  1.00  0.00     0.290 C 
BRANCH  13  14
HETATM   14  O2  UNL     1     -14.418  30.786  -7.059  1.00  0.00    -0.369 OA
ATOM     15  H2  UNL     1     -14.211  29.870  -6.919  1.00  0.00     0.212 HD
ENDBRANCH  13  14
BRANCH  13  16
HETATM   16  N5  UNL     1     -13.588  31.982  -5.259  1.00  0.00    -0.381 N 
ATOM     17  H5  UNL     1     -13.147  32.757  -5.754  1.00  0.00     0.156 HD
BRANCH  16  18
HETATM   18  C7  UNL     1     -13.101  31.557  -4.014  1.00  0.00     0.144 C 
BRANCH  18  19
HETATM   19  C8  UNL     1     -11.680  31.183  -3.907  1.00  0.00     0.111 C 
BRANCH  19  20
HETATM   20  S2  UNL     1     -11.207  29.661  -3.176  1.00  0.00    -0.096 SA
BRANCH  20  21
HETATM   21  C9  UNL     1      -9.962  29.782  -1.899  1.00  0.00     0.147 C 
HETATM   22  N6  UNL     1      -8.981  28.949  -1.928  1.00  0.00    -0.382 N 
ATOM     23  H62 UNL     1      -8.921  28.238  -2.656  1.00  0.00     0.157 HD
ATOM     24  H61 UNL     1      -8.270  29.018  -1.199  1.00  0.00     0.157 HD
HETATM   25  N7  UNL     1     -10.046  30.767  -0.892  1.00  0.00    -0.075 NA
ENDBRANCH  20  21
ENDBRANCH  19  20
ENDBRANCH  18  19
BRANCH  18  26
HETATM   26  C10 UNL     1     -13.358  32.597  -2.906  1.00  0.00     0.276 C 
BRANCH  26  27
HETATM   27  O3  UNL     1     -12.964  32.115  -1.670  1.00  0.00    -0.369 OA
ATOM     28  H3  UNL     1     -13.494  32.486  -0.974  1.00  0.00     0.212 HD
ENDBRANCH  26  27
BRANCH  26  29
HETATM   29  O4  UNL     1     -14.742  32.866  -2.848  1.00  0.00    -0.369 OA
ATOM     30  H4  UNL     1     -14.978  33.407  -3.592  1.00  0.00     0.212 HD
ENDBRANCH  26  29
ENDBRANCH  18  26
ENDBRANCH  16  18
ENDBRANCH  13  16
ENDBRANCH   3  13
BRANCH   1  31
HETATM   31  N4  UNL     1     -17.032  34.301  -8.548  1.00  0.00    -0.353 NA
BRANCH  31  32
HETATM   32  C2  UNL     1     -17.192  34.827  -9.761  1.00  0.00     0.235 C 
HETATM   33  N1  UNL     1     -16.971  36.087 -10.058  1.00  0.00    -0.260 N 
ATOM     34  H1  UNL     1     -16.649  36.676  -9.291  1.00  0.00     0.191 HD
BRANCH  32  35
HETATM   35  S1  UNL     1     -17.757  33.776 -11.114  1.00  0.00    -0.082 SA
HETATM   36  C1  UNL     1     -16.473  33.345 -12.280  1.00  0.00     0.100 C 
ENDBRANCH  32  35
BRANCH  33  37
HETATM   37  N2  UNL     1     -17.116  36.697 -11.248  1.00  0.00    -0.248 N 
ATOM     38  H2  UNL     1     -16.907  36.170 -12.095  1.00  0.00     0.198 HD
BRANCH  37  39
HETATM   39  C3  UNL     1     -17.504  37.913 -11.363  1.00  0.00     0.061 C 
BRANCH  39  40
HETATM   40  N3  UNL     1     -17.481  39.193 -11.475  1.00  0.00    -0.350 N 
ATOM     41  H32 UNL     1     -16.656  39.334 -10.892  1.00  0.00     0.167 HD
ATOM     42  H31 UNL     1     -17.729  40.143 -11.749  1.00  0.00     0.167 HD
ENDBRANCH  39  40
ENDBRANCH  37  39
ENDBRANCH  33  37
ENDBRANCH  31  32
ENDBRANCH   1  31
BRANCH  11  43
HETATM   43  C13 UNL     1     -19.364  36.067  -7.240  1.00  0.00     0.307 C 
BRANCH  43  44
HETATM   44  O5  UNL     1     -19.335  37.361  -6.610  1.00  0.00    -0.366 OA
ATOM     45  H5  UNL     1     -19.299  37.996  -7.317  1.00  0.00     0.213 HD
ENDBRANCH  43  44
BRANCH  43  46
HETATM   46  O6  UNL     1     -20.737  35.736  -7.312  1.00  0.00    -0.366 OA
ATOM     47  H6  UNL     1     -21.101  36.179  -8.069  1.00  0.00     0.213 HD
ENDBRANCH  43  46
ENDBRANCH  11  43
TORSDOF 19
ENDMDL
