MODEL 1
REMARK VINA RESULT: -10.379141249      0.000      0.000
REMARK  14 active torsions:
REMARK  status: ('A' for Active; 'I' for Inactive)
REMARK    1  A    between atoms: C2_2  and  N1_4 
REMARK    2  A    between atoms: N1_4  and  O1_5 
REMARK    3  A    between atoms: N1_4  and  C4_7 
REMARK    4  A    between atoms: C4_7  and  O2_8 
REMARK    5  A    between atoms: C4_7  and  C5_10 
REMARK    6  A    between atoms: C8_15  and  N3_16 
REMARK    7  A    between atoms: N3_16  and  C9_18 
REMARK    8  A    between atoms: C9_18  and  O3_19 
REMARK    9  A    between atoms: C9_18  and  N4_21 
REMARK       I    between atoms: N4_21  and  C10_23 
REMARK       I    between atoms: C10_23  and  N5_25 
REMARK   10  A    between atoms: N5_25  and  S1_27 
REMARK   11  A    between atoms: S1_27  and  O7_30 
REMARK   12  A    between atoms: O7_30  and  C11_31 
REMARK   13  A    between atoms: C12_34  and  N7_35 
REMARK   14  A    between atoms: C13_40  and  N9_41 
ROOT
HETATM    1  N4  UNL     1     -13.281  33.708  -3.778  1.00  0.00    -0.299 N 
ATOM      2  H4  UNL     1     -13.090  34.674  -4.045  1.00  0.00     0.168 HD
HETATM    3  C10 UNL     1     -14.545  33.133  -4.066  1.00  0.00     0.334 C 
HETATM    4  O4  UNL     1     -14.768  31.950  -3.735  1.00  0.00    -0.246 OA
HETATM    5  N5  UNL     1     -15.533  33.907  -4.723  1.00  0.00    -0.213 N 
ATOM      6  H5  UNL     1     -15.340  34.872  -4.993  1.00  0.00     0.185 HD
ENDROOT
BRANCH   1   7
HETATM    7  C9  UNL     1     -12.250  32.922  -3.098  1.00  0.00     0.330 C 
BRANCH   7   8
HETATM    8  N3  UNL     1     -11.981  31.722  -3.846  1.00  0.00    -0.346 N 
ATOM      9  H3  UNL     1     -12.233  31.702  -4.834  1.00  0.00     0.164 HD
BRANCH   8  10
HETATM   10  C8  UNL     1     -11.381  30.561  -3.280  1.00  0.00     0.047 A 
HETATM   11  C7  UNL     1     -12.071  29.363  -3.243  1.00  0.00     0.116 A 
HETATM   12  N2  UNL     1     -11.569  28.227  -2.722  1.00  0.00    -0.372 N 
HETATM   13  C6  UNL     1     -10.331  28.216  -2.197  1.00  0.00     0.099 A 
ATOM     14  H2  UNL     1     -12.128  27.375  -2.726  1.00  0.00     0.164 HD
HETATM   15  C5  UNL     1      -9.613  29.392  -2.214  1.00  0.00     0.009 A 
HETATM   16  C14 UNL     1     -10.103  30.568  -2.743  1.00  0.00     0.043 A 
BRANCH  15  17
HETATM   17  C4  UNL     1      -8.218  29.424  -1.645  1.00  0.00     0.277 C 
BRANCH  17  18
HETATM   18  N1  UNL     1      -7.280  30.125  -2.437  1.00  0.00    -0.259 N 
BRANCH  18  19
HETATM   19  C2  UNL     1      -6.767  29.528  -3.601  1.00  0.00     0.103 C 
HETATM   20  C1  UNL     1      -6.141  28.149  -3.323  1.00  0.00     0.034 C 
HETATM   21  C3  UNL     1      -7.643  29.380  -4.786  1.00  0.00     0.034 C 
ENDBRANCH  18  19
BRANCH  18  22
HETATM   22  O1  UNL     1      -6.364  30.795  -1.716  1.00  0.00    -0.289 OA
ATOM     23  H1  UNL     1      -6.308  31.720  -1.924  1.00  0.00     0.244 HD
ENDBRANCH  18  22
ENDBRANCH  17  18
BRANCH  17  24
HETATM   24  O2  UNL     1      -8.391  30.230  -0.473  1.00  0.00    -0.371 OA
ATOM     25  H2  UNL     1      -9.326  30.390  -0.421  1.00  0.00     0.212 HD
ENDBRANCH  17  24
ENDBRANCH  15  17
ENDBRANCH   8  10
ENDBRANCH   7   8
BRANCH   7  26
HETATM   26  O3  UNL     1     -12.823  32.566  -1.859  1.00  0.00    -0.359 OA
ATOM     27  H3  UNL     1     -13.295  33.314  -1.513  1.00  0.00     0.214 HD
ENDBRANCH   7  26
ENDBRANCH   1   7
BRANCH   5  28
HETATM   28  S1  UNL     1     -17.081  33.187  -5.065  1.00  0.00     0.373 S 
HETATM   29  O5  UNL     1     -17.762  33.056  -3.700  1.00  0.00    -0.175 OA
HETATM   30  O6  UNL     1     -16.807  31.807  -5.524  1.00  0.00    -0.175 OA
BRANCH  28  31
HETATM   31  O7  UNL     1     -18.033  34.133  -6.014  1.00  0.00    -0.180 OA
BRANCH  31  32
HETATM   32  C11 UNL     1     -18.728  35.282  -5.813  1.00  0.00     0.270 A 
HETATM   33  N6  UNL     1     -19.001  36.126  -6.851  1.00  0.00    -0.153 N 
HETATM   34  C12 UNL     1     -19.685  37.241  -6.604  1.00  0.00     0.693 A 
ATOM     35  H6  UNL     1     -18.687  35.907  -7.796  1.00  0.00     0.188 HD
HETATM   36  N8  UNL     1     -20.130  37.598  -5.393  1.00  0.00    -0.023 N 
HETATM   37  C13 UNL     1     -19.850  36.754  -4.388  1.00  0.00     0.693 A 
ATOM     38  H8  UNL     1     -20.652  38.462  -5.242  1.00  0.00     0.203 HD
HETATM   39  N10 UNL     1     -19.164  35.621  -4.594  1.00  0.00    -0.153 N 
ATOM     40  H10 UNL     1     -18.969  35.005  -3.805  1.00  0.00     0.188 HD
BRANCH  34  41
HETATM   41  N7  UNL     1     -19.951  38.052  -7.579  1.00  0.00    -0.234 N 
ATOM     42  H72 UNL     1     -20.870  38.493  -7.566  1.00  0.00     0.174 HD
ATOM     43  H71 UNL     1     -19.248  38.214  -8.301  1.00  0.00     0.174 HD
ENDBRANCH  34  41
BRANCH  37  44
HETATM   44  N9  UNL     1     -20.245  37.031  -3.196  1.00  0.00    -0.234 N 
ATOM     45  H92 UNL     1     -19.546  37.245  -2.483  1.00  0.00     0.174 HD
ATOM     46  H91 UNL     1     -21.242  37.033  -2.982  1.00  0.00     0.174 HD
ENDBRANCH  37  44
ENDBRANCH  31  32
ENDBRANCH  28  31
ENDBRANCH   5  28
TORSDOF 14
ENDMDL
MODEL 2
REMARK VINA RESULT: -10.366497763      0.066      1.390
REMARK  14 active torsions:
REMARK  status: ('A' for Active; 'I' for Inactive)
REMARK    1  A    between atoms: C2_2  and  N1_4 
REMARK    2  A    between atoms: N1_4  and  O1_5 
REMARK    3  A    between atoms: N1_4  and  C4_7 
REMARK    4  A    between atoms: C4_7  and  O2_8 
REMARK    5  A    between atoms: C4_7  and  C5_10 
REMARK    6  A    between atoms: C8_15  and  N3_16 
REMARK    7  A    between atoms: N3_16  and  C9_18 
REMARK    8  A    between atoms: C9_18  and  O3_19 
REMARK    9  A    between atoms: C9_18  and  N4_21 
REMARK       I    between atoms: N4_21  and  C10_23 
REMARK       I    between atoms: C10_23  and  N5_25 
REMARK   10  A    between atoms: N5_25  and  S1_27 
REMARK   11  A    between atoms: S1_27  and  O7_30 
REMARK   12  A    between atoms: O7_30  and  C11_31 
REMARK   13  A    between atoms: C12_34  and  N7_35 
REMARK   14  A    between atoms: C13_40  and  N9_41 
ROOT
HETATM    1  N4  UNL     1     -13.293  33.705  -3.754  1.00  0.00    -0.299 N 
ATOM      2  H4  UNL     1     -13.104  34.673  -4.013  1.00  0.00     0.168 HD
HETATM    3  C10 UNL     1     -14.551  33.126  -4.054  1.00  0.00     0.334 C 
HETATM    4  O4  UNL     1     -14.771  31.939  -3.733  1.00  0.00    -0.246 OA
HETATM    5  N5  UNL     1     -15.539  33.899  -4.713  1.00  0.00    -0.213 N 
ATOM      6  H5  UNL     1     -15.349  34.867  -4.975  1.00  0.00     0.185 HD
ENDROOT
BRANCH   1   7
HETATM    7  C9  UNL     1     -12.262  32.919  -3.073  1.00  0.00     0.330 C 
BRANCH   7   8
HETATM    8  N3  UNL     1     -11.971  31.733  -3.834  1.00  0.00    -0.346 N 
ATOM      9  H3  UNL     1     -12.211  31.725  -4.826  1.00  0.00     0.164 HD
BRANCH   8  10
HETATM   10  C8  UNL     1     -11.368  30.570  -3.278  1.00  0.00     0.047 A 
HETATM   11  C7  UNL     1     -12.052  29.368  -3.254  1.00  0.00     0.116 A 
HETATM   12  N2  UNL     1     -11.546  28.229  -2.743  1.00  0.00    -0.372 N 
HETATM   13  C6  UNL     1     -10.311  28.219  -2.214  1.00  0.00     0.099 A 
ATOM     14  H2  UNL     1     -12.101  27.374  -2.757  1.00  0.00     0.164 HD
HETATM   15  C5  UNL     1      -9.598  29.399  -2.217  1.00  0.00     0.009 A 
HETATM   16  C14 UNL     1     -10.092  30.578  -2.736  1.00  0.00     0.043 A 
BRANCH  15  17
HETATM   17  C4  UNL     1      -8.205  29.431  -1.643  1.00  0.00     0.277 C 
BRANCH  17  18
HETATM   18  N1  UNL     1      -7.261  30.119  -2.440  1.00  0.00    -0.259 N 
BRANCH  18  19
HETATM   19  C2  UNL     1      -6.754  29.509  -3.600  1.00  0.00     0.103 C 
HETATM   20  C1  UNL     1      -6.129  28.132  -3.311  1.00  0.00     0.034 C 
HETATM   21  C3  UNL     1      -7.636  29.349  -4.779  1.00  0.00     0.034 C 
ENDBRANCH  18  19
BRANCH  18  22
HETATM   22  O1  UNL     1      -6.338  30.785  -1.724  1.00  0.00    -0.289 OA
ATOM     23  H1  UNL     1      -5.566  30.273  -1.515  1.00  0.00     0.244 HD
ENDBRANCH  18  22
ENDBRANCH  17  18
BRANCH  17  24
HETATM   24  O2  UNL     1      -8.379  30.253  -0.482  1.00  0.00    -0.371 OA
ATOM     25  H2  UNL     1      -8.397  29.646   0.249  1.00  0.00     0.212 HD
ENDBRANCH  17  24
ENDBRANCH  15  17
ENDBRANCH   8  10
ENDBRANCH   7   8
BRANCH   7  26
HETATM   26  O3  UNL     1     -12.846  32.539  -1.846  1.00  0.00    -0.359 OA
ATOM     27  H3  UNL     1     -12.230  32.716  -1.146  1.00  0.00     0.214 HD
ENDBRANCH   7  26
ENDBRANCH   1   7
BRANCH   5  28
HETATM   28  S1  UNL     1     -17.081  33.174  -5.070  1.00  0.00     0.373 S 
HETATM   29  O5  UNL     1     -17.781  33.056  -3.713  1.00  0.00    -0.175 OA
HETATM   30  O6  UNL     1     -16.799  31.790  -5.511  1.00  0.00    -0.175 OA
BRANCH  28  31
HETATM   31  O7  UNL     1     -18.021  34.110  -6.041  1.00  0.00    -0.180 OA
BRANCH  31  32
HETATM   32  C11 UNL     1     -18.715  35.263  -5.862  1.00  0.00     0.270 A 
HETATM   33  N6  UNL     1     -19.186  35.614  -4.630  1.00  0.00    -0.153 N 
HETATM   34  C12 UNL     1     -19.861  36.755  -4.505  1.00  0.00     0.693 A 
ATOM     35  H6  UNL     1     -19.024  35.015  -3.821  1.00  0.00     0.188 HD
HETATM   36  N8  UNL     1     -20.114  37.593  -5.518  1.00  0.00    -0.023 N 
HETATM   37  C13 UNL     1     -19.643  37.228  -6.719  1.00  0.00     0.693 A 
ATOM     38  H8  UNL     1     -20.636  38.460  -5.383  1.00  0.00     0.203 HD
HETATM   39  N10 UNL     1     -18.959  36.088  -6.887  1.00  0.00    -0.153 N 
ATOM     40  H10 UNL     1     -18.616  35.844  -7.817  1.00  0.00     0.188 HD
BRANCH  34  41
HETATM   41  N7  UNL     1     -20.314  37.100  -3.341  1.00  0.00    -0.234 N 
ATOM     42  H72 UNL     1     -19.989  37.994  -2.974  1.00  0.00     0.174 HD
ATOM     43  H71 UNL     1     -20.963  36.481  -2.854  1.00  0.00     0.174 HD
ENDBRANCH  34  41
BRANCH  37  44
HETATM   44  N9  UNL     1     -19.848  37.984  -7.740  1.00  0.00    -0.234 N 
ATOM     45  H92 UNL     1     -20.110  38.958  -7.586  1.00  0.00     0.174 HD
ATOM     46  H91 UNL     1     -19.745  37.601  -8.680  1.00  0.00     0.174 HD
ENDBRANCH  37  44
ENDBRANCH  31  32
ENDBRANCH  28  31
ENDBRANCH   5  28
TORSDOF 14
ENDMDL
MODEL 3
REMARK VINA RESULT: -9.734627198      1.665      2.484
REMARK  14 active torsions:
REMARK  status: ('A' for Active; 'I' for Inactive)
REMARK    1  A    between atoms: C2_2  and  N1_4 
REMARK    2  A    between atoms: N1_4  and  O1_5 
REMARK    3  A    between atoms: N1_4  and  C4_7 
REMARK    4  A    between atoms: C4_7  and  O2_8 
REMARK    5  A    between atoms: C4_7  and  C5_10 
REMARK    6  A    between atoms: C8_15  and  N3_16 
REMARK    7  A    between atoms: N3_16  and  C9_18 
REMARK    8  A    between atoms: C9_18  and  O3_19 
REMARK    9  A    between atoms: C9_18  and  N4_21 
REMARK       I    between atoms: N4_21  and  C10_23 
REMARK       I    between atoms: C10_23  and  N5_25 
REMARK   10  A    between atoms: N5_25  and  S1_27 
REMARK   11  A    between atoms: S1_27  and  O7_30 
REMARK   12  A    between atoms: O7_30  and  C11_31 
REMARK   13  A    between atoms: C12_34  and  N7_35 
REMARK   14  A    between atoms: C13_40  and  N9_41 
ROOT
HETATM    1  N4  UNL     1     -13.083  33.695  -3.666  1.00  0.00    -0.299 N 
ATOM      2  H4  UNL     1     -12.749  34.579  -4.048  1.00  0.00     0.168 HD
HETATM    3  C10 UNL     1     -14.452  33.346  -3.786  1.00  0.00     0.334 C 
HETATM    4  O4  UNL     1     -14.851  32.260  -3.316  1.00  0.00    -0.246 OA
HETATM    5  N5  UNL     1     -15.346  34.231  -4.437  1.00  0.00    -0.213 N 
ATOM      6  H5  UNL     1     -15.011  35.115  -4.822  1.00  0.00     0.185 HD
ENDROOT
BRANCH   1   7
HETATM    7  C9  UNL     1     -12.148  32.790  -2.995  1.00  0.00     0.330 C 
BRANCH   7   8
HETATM    8  N3  UNL     1     -12.107  31.529  -3.688  1.00  0.00    -0.346 N 
ATOM      9  H3  UNL     1     -12.584  31.457  -4.587  1.00  0.00     0.164 HD
BRANCH   8  10
HETATM   10  C8  UNL     1     -11.439  30.377  -3.185  1.00  0.00     0.047 A 
HETATM   11  C7  UNL     1     -12.066  29.144  -3.192  1.00  0.00     0.116 A 
HETATM   12  N2  UNL     1     -11.497  28.013  -2.731  1.00  0.00    -0.372 N 
HETATM   13  C6  UNL     1     -10.252  28.043  -2.227  1.00  0.00     0.099 A 
ATOM     14  H2  UNL     1     -12.012  27.134  -2.766  1.00  0.00     0.164 HD
HETATM   15  C5  UNL     1      -9.595  29.255  -2.201  1.00  0.00     0.009 A 
HETATM   16  C14 UNL     1     -10.154  30.426  -2.667  1.00  0.00     0.043 A 
BRANCH  15  17
HETATM   17  C4  UNL     1      -8.194  29.333  -1.652  1.00  0.00     0.277 C 
BRANCH  17  18
HETATM   18  N1  UNL     1      -7.298  30.089  -2.443  1.00  0.00    -0.259 N 
BRANCH  18  19
HETATM   19  C2  UNL     1      -6.747  29.521  -3.605  1.00  0.00     0.103 C 
HETATM   20  C1  UNL     1      -6.137  28.132  -3.343  1.00  0.00     0.034 C 
HETATM   21  C3  UNL     1      -7.581  29.409  -4.823  1.00  0.00     0.034 C 
ENDBRANCH  18  19
BRANCH  18  22
HETATM   22  O1  UNL     1      -6.426  30.815  -1.722  1.00  0.00    -0.289 OA
ATOM     23  H1  UNL     1      -6.275  30.480  -0.846  1.00  0.00     0.244 HD
ENDBRANCH  18  22
ENDBRANCH  17  18
BRANCH  17  24
HETATM   24  O2  UNL     1      -8.382  30.108  -0.461  1.00  0.00    -0.371 OA
ATOM     25  H2  UNL     1      -8.393  29.474   0.246  1.00  0.00     0.212 HD
ENDBRANCH  17  24
ENDBRANCH  15  17
ENDBRANCH   8  10
ENDBRANCH   7   8
BRANCH   7  26
HETATM   26  O3  UNL     1     -12.697  32.586  -1.711  1.00  0.00    -0.359 OA
ATOM     27  H3  UNL     1     -12.134  31.993  -1.228  1.00  0.00     0.214 HD
ENDBRANCH   7  26
ENDBRANCH   1   7
BRANCH   5  28
HETATM   28  S1  UNL     1     -17.025  33.790  -4.572  1.00  0.00     0.373 S 
HETATM   29  O5  UNL     1     -17.792  35.097  -4.354  1.00  0.00    -0.175 OA
HETATM   30  O6  UNL     1     -17.326  32.934  -3.404  1.00  0.00    -0.175 OA
BRANCH  28  31
HETATM   31  O7  UNL     1     -17.421  33.218  -6.062  1.00  0.00    -0.180 OA
BRANCH  31  32
HETATM   32  C11 UNL     1     -17.777  33.798  -7.236  1.00  0.00     0.270 A 
HETATM   33  N6  UNL     1     -18.214  35.091  -7.275  1.00  0.00    -0.153 N 
HETATM   34  C12 UNL     1     -18.552  35.616  -8.451  1.00  0.00     0.693 A 
ATOM     35  H6  UNL     1     -18.280  35.644  -6.421  1.00  0.00     0.188 HD
HETATM   36  N8  UNL     1     -18.494  34.956  -9.614  1.00  0.00    -0.023 N 
HETATM   37  C13 UNL     1     -18.062  33.687  -9.552  1.00  0.00     0.693 A 
ATOM     38  H8  UNL     1     -18.762  35.392 -10.496  1.00  0.00     0.203 HD
HETATM   39  N10 UNL     1     -17.712  33.121  -8.389  1.00  0.00    -0.153 N 
ATOM     40  H10 UNL     1     -17.389  32.153  -8.382  1.00  0.00     0.188 HD
BRANCH  34  41
HETATM   41  N7  UNL     1     -18.969  36.842  -8.502  1.00  0.00    -0.234 N 
ATOM     42  H72 UNL     1     -19.969  36.988  -8.364  1.00  0.00     0.174 HD
ATOM     43  H71 UNL     1     -18.298  37.592  -8.673  1.00  0.00     0.174 HD
ENDBRANCH  34  41
BRANCH  37  44
HETATM   44  N9  UNL     1     -17.980  32.990 -10.630  1.00  0.00    -0.234 N 
ATOM     45  H92 UNL     1     -17.062  32.668 -10.938  1.00  0.00     0.174 HD
ATOM     46  H91 UNL     1     -18.827  32.771 -11.155  1.00  0.00     0.174 HD
ENDBRANCH  37  44
ENDBRANCH  31  32
ENDBRANCH  28  31
ENDBRANCH   5  28
TORSDOF 14
ENDMDL
MODEL 4
REMARK VINA RESULT: -9.722911103      1.666      2.366
REMARK  14 active torsions:
REMARK  status: ('A' for Active; 'I' for Inactive)
REMARK    1  A    between atoms: C2_2  and  N1_4 
REMARK    2  A    between atoms: N1_4  and  O1_5 
REMARK    3  A    between atoms: N1_4  and  C4_7 
REMARK    4  A    between atoms: C4_7  and  O2_8 
REMARK    5  A    between atoms: C4_7  and  C5_10 
REMARK    6  A    between atoms: C8_15  and  N3_16 
REMARK    7  A    between atoms: N3_16  and  C9_18 
REMARK    8  A    between atoms: C9_18  and  O3_19 
REMARK    9  A    between atoms: C9_18  and  N4_21 
REMARK       I    between atoms: N4_21  and  C10_23 
REMARK       I    between atoms: C10_23  and  N5_25 
REMARK   10  A    between atoms: N5_25  and  S1_27 
REMARK   11  A    between atoms: S1_27  and  O7_30 
REMARK   12  A    between atoms: O7_30  and  C11_31 
REMARK   13  A    between atoms: C12_34  and  N7_35 
REMARK   14  A    between atoms: C13_40  and  N9_41 
ROOT
HETATM    1  N4  UNL     1     -13.087  33.695  -3.584  1.00  0.00    -0.299 N 
ATOM      2  H4  UNL     1     -12.751  34.591  -3.934  1.00  0.00     0.168 HD
HETATM    3  C10 UNL     1     -14.452  33.343  -3.738  1.00  0.00     0.334 C 
HETATM    4  O4  UNL     1     -14.853  32.242  -3.307  1.00  0.00    -0.246 OA
HETATM    5  N5  UNL     1     -15.338  34.243  -4.379  1.00  0.00    -0.213 N 
ATOM      6  H5  UNL     1     -15.001  35.139  -4.732  1.00  0.00     0.185 HD
ENDROOT
BRANCH   1   7
HETATM    7  C9  UNL     1     -12.159  32.776  -2.923  1.00  0.00     0.330 C 
BRANCH   7   8
HETATM    8  N3  UNL     1     -12.100  31.536  -3.651  1.00  0.00    -0.346 N 
ATOM      9  H3  UNL     1     -12.558  31.488  -4.561  1.00  0.00     0.164 HD
BRANCH   8  10
HETATM   10  C8  UNL     1     -11.436  30.372  -3.169  1.00  0.00     0.047 A 
HETATM   11  C7  UNL     1     -12.069  29.142  -3.195  1.00  0.00     0.116 A 
HETATM   12  N2  UNL     1     -11.505  28.001  -2.755  1.00  0.00    -0.372 N 
HETATM   13  C6  UNL     1     -10.258  28.016  -2.253  1.00  0.00     0.099 A 
ATOM     14  H2  UNL     1     -12.024  27.125  -2.803  1.00  0.00     0.164 HD
HETATM   15  C5  UNL     1      -9.595  29.224  -2.208  1.00  0.00     0.009 A 
HETATM   16  C14 UNL     1     -10.150  30.406  -2.654  1.00  0.00     0.043 A 
BRANCH  15  17
HETATM   17  C4  UNL     1      -8.193  29.286  -1.661  1.00  0.00     0.277 C 
BRANCH  17  18
HETATM   18  N1  UNL     1      -7.292  30.042  -2.448  1.00  0.00    -0.259 N 
BRANCH  18  19
HETATM   19  C2  UNL     1      -6.758  29.485  -3.622  1.00  0.00     0.103 C 
HETATM   20  C1  UNL     1      -6.147  28.092  -3.384  1.00  0.00     0.034 C 
HETATM   21  C3  UNL     1      -7.610  29.387  -4.830  1.00  0.00     0.034 C 
ENDBRANCH  18  19
BRANCH  18  22
HETATM   22  O1  UNL     1      -6.404  30.743  -1.721  1.00  0.00    -0.289 OA
ATOM     23  H1  UNL     1      -5.642  31.028  -2.211  1.00  0.00     0.244 HD
ENDBRANCH  18  22
ENDBRANCH  17  18
BRANCH  17  24
HETATM   24  O2  UNL     1      -8.372  30.052  -0.463  1.00  0.00    -0.371 OA
ATOM     25  H2  UNL     1      -8.051  29.495   0.236  1.00  0.00     0.212 HD
ENDBRANCH  17  24
ENDBRANCH  15  17
ENDBRANCH   8  10
ENDBRANCH   7   8
BRANCH   7  26
HETATM   26  O3  UNL     1     -12.730  32.531  -1.656  1.00  0.00    -0.359 OA
ATOM     27  H3  UNL     1     -13.604  32.181  -1.776  1.00  0.00     0.214 HD
ENDBRANCH   7  26
ENDBRANCH   1   7
BRANCH   5  28
HETATM   28  S1  UNL     1     -17.012  33.798  -4.557  1.00  0.00     0.373 S 
HETATM   29  O5  UNL     1     -17.787  35.107  -4.375  1.00  0.00    -0.175 OA
HETATM   30  O6  UNL     1     -17.346  32.955  -3.387  1.00  0.00    -0.175 OA
BRANCH  28  31
HETATM   31  O7  UNL     1     -17.365  33.208  -6.050  1.00  0.00    -0.180 OA
BRANCH  31  32
HETATM   32  C11 UNL     1     -17.751  33.770  -7.224  1.00  0.00     0.270 A 
HETATM   33  N6  UNL     1     -17.697  33.063  -8.391  1.00  0.00    -0.153 N 
HETATM   34  C12 UNL     1     -18.086  33.657  -9.517  1.00  0.00     0.693 A 
ATOM     35  H6  UNL     1     -17.365  32.099  -8.400  1.00  0.00     0.188 HD
HETATM   36  N8  UNL     1     -18.532  34.917  -9.587  1.00  0.00    -0.023 N 
HETATM   37  C13 UNL     1     -18.576  35.594  -8.429  1.00  0.00     0.693 A 
ATOM     38  H8  UNL     1     -18.821  35.339 -10.469  1.00  0.00     0.203 HD
HETATM   39  N10 UNL     1     -18.194  35.032  -7.274  1.00  0.00    -0.153 N 
ATOM     40  H10 UNL     1     -18.241  35.579  -6.413  1.00  0.00     0.188 HD
BRANCH  34  41
HETATM   41  N7  UNL     1     -18.039  32.998 -10.631  1.00  0.00    -0.234 N 
ATOM     42  H72 UNL     1     -17.366  32.234 -10.680  1.00  0.00     0.174 HD
ATOM     43  H71 UNL     1     -18.663  33.262 -11.395  1.00  0.00     0.174 HD
ENDBRANCH  34  41
BRANCH  37  44
HETATM   44  N9  UNL     1     -18.993  36.810  -8.418  1.00  0.00    -0.234 N 
ATOM     45  H92 UNL     1     -19.759  37.073  -9.039  1.00  0.00     0.174 HD
ATOM     46  H91 UNL     1     -18.556  37.488  -7.793  1.00  0.00     0.174 HD
ENDBRANCH  37  44
ENDBRANCH  31  32
ENDBRANCH  28  31
ENDBRANCH   5  28
TORSDOF 14
ENDMDL
MODEL 5
REMARK VINA RESULT: -9.592841908      1.817      2.376
REMARK  14 active torsions:
REMARK  status: ('A' for Active; 'I' for Inactive)
REMARK    1  A    between atoms: C2_2  and  N1_4 
REMARK    2  A    between atoms: N1_4  and  O1_5 
REMARK    3  A    between atoms: N1_4  and  C4_7 
REMARK    4  A    between atoms: C4_7  and  O2_8 
REMARK    5  A    between atoms: C4_7  and  C5_10 
REMARK    6  A    between atoms: C8_15  and  N3_16 
REMARK    7  A    between atoms: N3_16  and  C9_18 
REMARK    8  A    between atoms: C9_18  and  O3_19 
REMARK    9  A    between atoms: C9_18  and  N4_21 
REMARK       I    between atoms: N4_21  and  C10_23 
REMARK       I    between atoms: C10_23  and  N5_25 
REMARK   10  A    between atoms: N5_25  and  S1_27 
REMARK   11  A    between atoms: S1_27  and  O7_30 
REMARK   12  A    between atoms: O7_30  and  C11_31 
REMARK   13  A    between atoms: C12_34  and  N7_35 
REMARK   14  A    between atoms: C13_40  and  N9_41 
ROOT
HETATM    1  N4  UNL     1     -14.927  32.880  -5.361  1.00  0.00    -0.299 N 
ATOM      2  H4  UNL     1     -14.526  33.262  -6.218  1.00  0.00     0.168 HD
HETATM    3  C10 UNL     1     -16.170  33.366  -4.885  1.00  0.00     0.334 C 
HETATM    4  O4  UNL     1     -16.652  32.889  -3.836  1.00  0.00    -0.246 OA
HETATM    5  N5  UNL     1     -16.847  34.381  -5.604  1.00  0.00    -0.213 N 
ATOM      6  H5  UNL     1     -16.448  34.762  -6.462  1.00  0.00     0.185 HD
ENDROOT
BRANCH   1   7
HETATM    7  C9  UNL     1     -14.214  31.831  -4.629  1.00  0.00     0.330 C 
BRANCH   7   8
HETATM    8  N3  UNL     1     -12.797  32.074  -4.685  1.00  0.00    -0.346 N 
ATOM      9  H3  UNL     1     -12.413  32.498  -5.530  1.00  0.00     0.164 HD
BRANCH   8  10
HETATM   10  C8  UNL     1     -11.902  31.753  -3.625  1.00  0.00     0.047 A 
HETATM   11  C7  UNL     1     -11.825  32.561  -2.505  1.00  0.00     0.116 A 
HETATM   12  N2  UNL     1     -11.001  32.323  -1.466  1.00  0.00    -0.372 N 
HETATM   13  C6  UNL     1     -10.192  31.250  -1.481  1.00  0.00     0.099 A 
ATOM     14  H2  UNL     1     -10.992  32.956  -0.668  1.00  0.00     0.164 HD
HETATM   15  C5  UNL     1     -10.240  30.421  -2.582  1.00  0.00     0.009 A 
HETATM   16  C14 UNL     1     -11.074  30.643  -3.658  1.00  0.00     0.043 A 
BRANCH  15  17
HETATM   17  C4  UNL     1      -9.356  29.202  -2.637  1.00  0.00     0.277 C 
BRANCH  17  18
HETATM   18  N1  UNL     1      -7.998  29.451  -2.332  1.00  0.00    -0.259 N 
BRANCH  18  19
HETATM   19  C2  UNL     1      -7.052  29.514  -3.369  1.00  0.00     0.103 C 
HETATM   20  C1  UNL     1      -6.082  28.318  -3.350  1.00  0.00     0.034 C 
HETATM   21  C3  UNL     1      -7.518  29.676  -4.766  1.00  0.00     0.034 C 
ENDBRANCH  18  19
BRANCH  18  22
HETATM   22  O1  UNL     1      -7.566  28.801  -1.236  1.00  0.00    -0.289 OA
ATOM     23  H1  UNL     1      -6.876  29.252  -0.766  1.00  0.00     0.244 HD
ENDBRANCH  18  22
ENDBRANCH  17  18
BRANCH  17  24
HETATM   24  O2  UNL     1      -9.847  28.425  -1.537  1.00  0.00    -0.371 OA
ATOM     25  H2  UNL     1     -10.793  28.496  -1.590  1.00  0.00     0.212 HD
ENDBRANCH  17  24
ENDBRANCH  15  17
ENDBRANCH   8  10
ENDBRANCH   7   8
BRANCH   7  26
HETATM   26  O3  UNL     1     -14.499  30.640  -5.330  1.00  0.00    -0.359 OA
ATOM     27  H3  UNL     1     -15.194  30.177  -4.878  1.00  0.00     0.214 HD
ENDBRANCH   7  26
ENDBRANCH   1   7
BRANCH   5  28
HETATM   28  S1  UNL     1     -18.372  34.970  -5.003  1.00  0.00     0.373 S 
HETATM   29  O5  UNL     1     -18.024  35.699  -3.702  1.00  0.00    -0.175 OA
HETATM   30  O6  UNL     1     -19.155  33.777  -4.611  1.00  0.00    -0.175 OA
BRANCH  28  31
HETATM   31  O7  UNL     1     -19.084  36.055  -6.012  1.00  0.00    -0.180 OA
BRANCH  31  32
HETATM   32  C11 UNL     1     -19.875  37.142  -5.828  1.00  0.00     0.270 A 
HETATM   33  N6  UNL     1     -19.498  38.370  -6.291  1.00  0.00    -0.153 N 
HETATM   34  C12 UNL     1     -20.308  39.407  -6.086  1.00  0.00     0.693 A 
ATOM     35  H6  UNL     1     -18.614  38.491  -6.783  1.00  0.00     0.188 HD
HETATM   36  N8  UNL     1     -21.483  39.328  -5.449  1.00  0.00    -0.023 N 
HETATM   37  C13 UNL     1     -21.834  38.113  -5.002  1.00  0.00     0.693 A 
ATOM     38  H8  UNL     1     -22.078  40.146  -5.311  1.00  0.00     0.203 HD
HETATM   39  N10 UNL     1     -21.047  37.044  -5.188  1.00  0.00    -0.153 N 
ATOM     40  H10 UNL     1     -21.347  36.135  -4.833  1.00  0.00     0.188 HD
BRANCH  34  41
HETATM   41  N7  UNL     1     -19.963  40.578  -6.519  1.00  0.00    -0.234 N 
ATOM     42  H72 UNL     1     -20.134  41.364  -5.893  1.00  0.00     0.174 HD
ATOM     43  H71 UNL     1     -19.542  40.664  -7.445  1.00  0.00     0.174 HD
ENDBRANCH  34  41
BRANCH  37  44
HETATM   44  N9  UNL     1     -22.949  37.961  -4.380  1.00  0.00    -0.234 N 
ATOM     45  H92 UNL     1     -23.277  38.709  -3.768  1.00  0.00     0.174 HD
ATOM     46  H91 UNL     1     -23.485  37.102  -4.508  1.00  0.00     0.174 HD
ENDBRANCH  37  44
ENDBRANCH  31  32
ENDBRANCH  28  31
ENDBRANCH   5  28
TORSDOF 14
ENDMDL
