MODEL 1
REMARK VINA RESULT: -8.894888764      0.000      0.000
REMARK  6 active torsions:
REMARK  status: ('A' for Active; 'I' for Inactive)
REMARK    1  A    between atoms: N1_1  and  C1_4 
REMARK    2  A    between atoms: C3_8  and  N3_9 
REMARK    3  A    between atoms: C5_13  and  C6_14 
REMARK       I    between atoms: C6_14  and  N4_16 
REMARK    4  A    between atoms: N4_16  and  N5_18 
REMARK    5  A    between atoms: C7_20  and  C8_21 
REMARK       I    between atoms: C8_21  and  N6_23 
REMARK    6  A    between atoms: N6_23  and  C9_25 
ROOT
HETATM    1  C6  UNL     1     -18.212  36.503 -10.680  1.00  0.00     0.273 C 
HETATM    2  O3  UNL     1     -19.189  36.008 -11.285  1.00  0.00    -0.266 OA
HETATM    3  N4  UNL     1     -17.809  37.823 -10.968  1.00  0.00    -0.266 N 
ATOM      4  H4  UNL     1     -17.010  38.230 -10.482  1.00  0.00     0.190 HD
ENDROOT
BRANCH   3   5
HETATM    5  N5  UNL     1     -18.499  38.569 -11.912  1.00  0.00    -0.304 N 
HETATM    6  C7  UNL     1     -17.871  39.278 -12.776  1.00  0.00     0.182 C 
ATOM      7  H5  UNL     1     -19.519  38.552 -11.919  1.00  0.00     0.186 HD
BRANCH   6   8
HETATM    8  C8  UNL     1     -16.429  39.351 -12.827  1.00  0.00     0.276 C 
HETATM    9  O4  UNL     1     -15.722  38.490 -13.382  1.00  0.00    -0.266 OA
HETATM   10  N6  UNL     1     -15.775  40.476 -12.204  1.00  0.00    -0.152 N 
ATOM     11  H6  UNL     1     -15.055  40.345 -11.493  1.00  0.00     0.187 HD
BRANCH  10  12
HETATM   12  C9  UNL     1     -16.137  41.654 -12.581  1.00  0.00     0.716 A 
HETATM   13  N7  UNL     1     -17.069  41.975 -13.522  1.00  0.00    -0.115 N 
HETATM   14  N8  UNL     1     -17.132  43.289 -13.603  1.00  0.00    -0.213 N 
ATOM     15  H7  UNL     1     -17.621  41.313 -14.068  1.00  0.00     0.207 HD
HETATM   16  N9  UNL     1     -16.271  43.783 -12.745  1.00  0.00    -0.213 N 
ATOM     17  H8  UNL     1     -17.741  43.826 -14.221  1.00  0.00     0.210 HD
HETATM   18  N10 UNL     1     -15.658  42.812 -12.116  1.00  0.00    -0.115 N 
ATOM     19  H9  UNL     1     -16.104  44.777 -12.591  1.00  0.00     0.210 HD
ATOM     20  H10 UNL     1     -14.941  42.920 -11.397  1.00  0.00     0.207 HD
ENDBRANCH  10  12
ENDBRANCH   6   8
ENDBRANCH   3   5
BRANCH   1  21
HETATM   21  C5  UNL     1     -17.497  35.734  -9.691  1.00  0.00     0.079 A 
HETATM   22  C1  UNL     1     -16.302  35.111  -9.993  1.00  0.00     0.114 A 
HETATM   23  N2  UNL     1     -15.649  34.391  -9.056  1.00  0.00    -0.349 N 
HETATM   24  C2  UNL     1     -16.124  34.249  -7.806  1.00  0.00     0.125 A 
ATOM     25  H2  UNL     1     -14.769  33.940  -9.305  1.00  0.00     0.166 HD
HETATM   26  C3  UNL     1     -17.312  34.848  -7.448  1.00  0.00     0.119 A 
HETATM   27  C4  UNL     1     -17.972  35.581  -8.412  1.00  0.00     0.058 A 
BRANCH  22  28
HETATM   28  N1  UNL     1     -15.816  35.228 -11.192  1.00  0.00    -0.385 N 
ATOM     29  H12 UNL     1     -15.615  36.160 -11.555  1.00  0.00     0.157 HD
ATOM     30  H11 UNL     1     -15.638  34.401 -11.761  1.00  0.00     0.157 HD
ENDBRANCH  22  28
BRANCH  26  31
HETATM   31  N3  UNL     1     -17.865  34.739  -6.156  1.00  0.00    -0.114 N 
HETATM   32  O1  UNL     1     -17.134  34.659  -5.164  1.00  0.00    -0.532 OA
HETATM   33  O2  UNL     1     -19.221  34.723  -6.012  1.00  0.00    -0.532 OA
ENDBRANCH  26  31
ENDBRANCH   1  21
TORSDOF 6
ENDMDL
MODEL 2
REMARK VINA RESULT: -8.488990129      2.138      7.972
REMARK  6 active torsions:
REMARK  status: ('A' for Active; 'I' for Inactive)
REMARK    1  A    between atoms: N1_1  and  C1_4 
REMARK    2  A    between atoms: C3_8  and  N3_9 
REMARK    3  A    between atoms: C5_13  and  C6_14 
REMARK       I    between atoms: C6_14  and  N4_16 
REMARK    4  A    between atoms: N4_16  and  N5_18 
REMARK    5  A    between atoms: C7_20  and  C8_21 
REMARK       I    between atoms: C8_21  and  N6_23 
REMARK    6  A    between atoms: N6_23  and  C9_25 
ROOT
HETATM    1  C6  UNL     1     -16.089  35.990 -11.374  1.00  0.00     0.273 C 
HETATM    2  O3  UNL     1     -15.113  35.448 -11.937  1.00  0.00    -0.266 OA
HETATM    3  N4  UNL     1     -16.725  35.337 -10.298  1.00  0.00    -0.266 N 
ATOM      4  H4  UNL     1     -17.525  35.772  -9.838  1.00  0.00     0.190 HD
ENDROOT
BRANCH   3   5
HETATM    5  N5  UNL     1     -16.263  34.103  -9.865  1.00  0.00    -0.304 N 
HETATM    6  C7  UNL     1     -16.778  33.532  -8.839  1.00  0.00     0.182 C 
ATOM      7  H5  UNL     1     -15.504  33.644 -10.369  1.00  0.00     0.186 HD
BRANCH   6   8
HETATM    8  C8  UNL     1     -17.854  34.120  -8.076  1.00  0.00     0.276 C 
HETATM    9  O4  UNL     1     -19.055  33.861  -8.277  1.00  0.00    -0.266 OA
HETATM   10  N6  UNL     1     -17.523  35.055  -7.028  1.00  0.00    -0.152 N 
ATOM     11  H6  UNL     1     -17.919  35.996  -7.010  1.00  0.00     0.187 HD
BRANCH  10  12
HETATM   12  C9  UNL     1     -16.706  34.655  -6.114  1.00  0.00     0.716 A 
HETATM   13  N7  UNL     1     -15.366  34.889  -6.038  1.00  0.00    -0.115 N 
HETATM   14  N8  UNL     1     -14.910  34.301  -4.949  1.00  0.00    -0.213 N 
ATOM     15  H7  UNL     1     -14.812  35.426  -6.706  1.00  0.00     0.207 HD
HETATM   16  N9  UNL     1     -15.924  33.715  -4.358  1.00  0.00    -0.213 N 
ATOM     17  H8  UNL     1     -13.943  34.301  -4.625  1.00  0.00     0.210 HD
HETATM   18  N10 UNL     1     -17.021  33.916  -5.045  1.00  0.00    -0.115 N 
ATOM     19  H9  UNL     1     -15.867  33.182  -3.491  1.00  0.00     0.210 HD
ATOM     20  H10 UNL     1     -17.951  33.571  -4.807  1.00  0.00     0.207 HD
ENDBRANCH  10  12
ENDBRANCH   6   8
ENDBRANCH   3   5
BRANCH   1  21
HETATM   21  C5  UNL     1     -16.567  37.278 -11.815  1.00  0.00     0.079 A 
HETATM   22  C1  UNL     1     -17.911  37.595 -11.778  1.00  0.00     0.114 A 
HETATM   23  N2  UNL     1     -18.341  38.803 -12.200  1.00  0.00    -0.349 N 
HETATM   24  C2  UNL     1     -17.495  39.739 -12.668  1.00  0.00     0.125 A 
ATOM     25  H2  UNL     1     -19.339  39.012 -12.164  1.00  0.00     0.166 HD
HETATM   26  C3  UNL     1     -16.144  39.477 -12.728  1.00  0.00     0.119 A 
HETATM   27  C4  UNL     1     -15.714  38.240 -12.295  1.00  0.00     0.058 A 
BRANCH  22  28
HETATM   28  N1  UNL     1     -18.754  36.714 -11.332  1.00  0.00    -0.385 N 
ATOM     29  H12 UNL     1     -18.906  35.859 -11.867  1.00  0.00     0.157 HD
ATOM     30  H11 UNL     1     -19.257  36.874 -10.459  1.00  0.00     0.157 HD
ENDBRANCH  22  28
BRANCH  26  31
HETATM   31  N3  UNL     1     -15.205  40.412 -13.207  1.00  0.00    -0.114 N 
HETATM   32  O1  UNL     1     -15.444  41.623 -13.165  1.00  0.00    -0.532 OA
HETATM   33  O2  UNL     1     -14.022  39.965 -13.719  1.00  0.00    -0.532 OA
ENDBRANCH  26  31
ENDBRANCH   1  21
TORSDOF 6
ENDMDL
MODEL 3
REMARK VINA RESULT: -8.335800494      1.874      3.055
REMARK  6 active torsions:
REMARK  status: ('A' for Active; 'I' for Inactive)
REMARK    1  A    between atoms: N1_1  and  C1_4 
REMARK    2  A    between atoms: C3_8  and  N3_9 
REMARK    3  A    between atoms: C5_13  and  C6_14 
REMARK       I    between atoms: C6_14  and  N4_16 
REMARK    4  A    between atoms: N4_16  and  N5_18 
REMARK    5  A    between atoms: C7_20  and  C8_21 
REMARK       I    between atoms: C8_21  and  N6_23 
REMARK    6  A    between atoms: N6_23  and  C9_25 
ROOT
HETATM    1  C6  UNL     1     -16.349  35.012  -9.483  1.00  0.00     0.273 C 
HETATM    2  O3  UNL     1     -15.853  34.042 -10.098  1.00  0.00    -0.266 OA
HETATM    3  N4  UNL     1     -16.450  36.265 -10.120  1.00  0.00    -0.266 N 
ATOM      4  H4  UNL     1     -16.849  37.061  -9.621  1.00  0.00     0.190 HD
ENDROOT
BRANCH   3   5
HETATM    5  N5  UNL     1     -16.007  36.417 -11.426  1.00  0.00    -0.304 N 
HETATM    6  C7  UNL     1     -16.696  37.080 -12.280  1.00  0.00     0.182 C 
ATOM      7  H5  UNL     1     -15.123  35.996 -11.710  1.00  0.00     0.186 HD
BRANCH   6   8
HETATM    8  C8  UNL     1     -17.957  37.704 -11.951  1.00  0.00     0.276 C 
HETATM    9  O4  UNL     1     -18.825  37.157 -11.248  1.00  0.00    -0.266 OA
HETATM   10  N6  UNL     1     -18.223  39.027 -12.462  1.00  0.00    -0.152 N 
ATOM     11  H6  UNL     1     -19.058  39.224 -13.016  1.00  0.00     0.187 HD
BRANCH  10  12
HETATM   12  C9  UNL     1     -17.365  39.950 -12.192  1.00  0.00     0.716 A 
HETATM   13  N7  UNL     1     -16.656  40.113 -11.040  1.00  0.00    -0.115 N 
HETATM   14  N8  UNL     1     -15.893  41.179 -11.176  1.00  0.00    -0.213 N 
ATOM     15  H7  UNL     1     -16.707  39.514 -10.215  1.00  0.00     0.207 HD
HETATM   16  N9  UNL     1     -16.111  41.674 -12.372  1.00  0.00    -0.213 N 
ATOM     17  H8  UNL     1     -15.250  41.553 -10.479  1.00  0.00     0.210 HD
HETATM   18  N10 UNL     1     -16.998  40.946 -13.004  1.00  0.00    -0.115 N 
ATOM     19  H9  UNL     1     -15.657  42.504 -12.753  1.00  0.00     0.210 HD
ATOM     20  H10 UNL     1     -17.347  41.111 -13.949  1.00  0.00     0.207 HD
ENDBRANCH  10  12
ENDBRANCH   6   8
ENDBRANCH   3   5
BRANCH   1  21
HETATM   21  C5  UNL     1     -16.819  34.856  -8.127  1.00  0.00     0.079 A 
HETATM   22  C1  UNL     1     -18.152  35.026  -7.807  1.00  0.00     0.114 A 
HETATM   23  N2  UNL     1     -18.573  34.881  -6.532  1.00  0.00    -0.349 N 
HETATM   24  C2  UNL     1     -17.729  34.569  -5.532  1.00  0.00     0.125 A 
ATOM     25  H2  UNL     1     -19.562  35.013  -6.321  1.00  0.00     0.166 HD
HETATM   26  C3  UNL     1     -16.389  34.388  -5.794  1.00  0.00     0.119 A 
HETATM   27  C4  UNL     1     -15.967  34.538  -7.099  1.00  0.00     0.058 A 
BRANCH  22  28
HETATM   28  N1  UNL     1     -18.993  35.327  -8.749  1.00  0.00    -0.385 N 
ATOM     29  H12 UNL     1     -19.984  35.405  -8.522  1.00  0.00     0.157 HD
ATOM     30  H11 UNL     1     -18.667  35.484  -9.703  1.00  0.00     0.157 HD
ENDBRANCH  22  28
BRANCH  26  31
HETATM   31  N3  UNL     1     -15.452  34.061  -4.794  1.00  0.00    -0.114 N 
HETATM   32  O1  UNL     1     -15.814  33.885  -3.626  1.00  0.00    -0.532 OA
HETATM   33  O2  UNL     1     -14.135  33.939  -5.128  1.00  0.00    -0.532 OA
ENDBRANCH  26  31
ENDBRANCH   1  21
TORSDOF 6
ENDMDL
MODEL 4
REMARK VINA RESULT: -8.335799114      1.618      2.234
REMARK  6 active torsions:
REMARK  status: ('A' for Active; 'I' for Inactive)
REMARK    1  A    between atoms: N1_1  and  C1_4 
REMARK    2  A    between atoms: C3_8  and  N3_9 
REMARK    3  A    between atoms: C5_13  and  C6_14 
REMARK       I    between atoms: C6_14  and  N4_16 
REMARK    4  A    between atoms: N4_16  and  N5_18 
REMARK    5  A    between atoms: C7_20  and  C8_21 
REMARK       I    between atoms: C8_21  and  N6_23 
REMARK    6  A    between atoms: N6_23  and  C9_25 
ROOT
HETATM    1  C6  UNL     1     -16.139  36.457 -11.061  1.00  0.00     0.273 C 
HETATM    2  O3  UNL     1     -15.489  35.625 -11.732  1.00  0.00    -0.266 OA
HETATM    3  N4  UNL     1     -16.075  37.825 -11.395  1.00  0.00    -0.266 N 
ATOM      4  H4  UNL     1     -16.599  38.509 -10.848  1.00  0.00     0.190 HD
ENDROOT
BRANCH   3   5
HETATM    5  N5  UNL     1     -15.301  38.242 -12.467  1.00  0.00    -0.304 N 
HETATM    6  C7  UNL     1     -15.804  38.965 -13.399  1.00  0.00     0.182 C 
ATOM      7  H5  UNL     1     -14.319  37.971 -12.515  1.00  0.00     0.186 HD
BRANCH   6   8
HETATM    8  C8  UNL     1     -17.185  39.388 -13.400  1.00  0.00     0.276 C 
HETATM    9  O4  UNL     1     -18.121  38.661 -13.020  1.00  0.00    -0.266 OA
HETATM   10  N6  UNL     1     -17.497  40.718 -13.863  1.00  0.00    -0.152 N 
ATOM     11  H6  UNL     1     -18.167  40.875 -14.616  1.00  0.00     0.187 HD
BRANCH  10  12
HETATM   12  C9  UNL     1     -16.894  41.702 -13.287  1.00  0.00     0.716 A 
HETATM   13  N7  UNL     1     -16.980  43.025 -13.598  1.00  0.00    -0.115 N 
HETATM   14  N8  UNL     1     -16.204  43.692 -12.766  1.00  0.00    -0.213 N 
ATOM     15  H7  UNL     1     -17.546  43.430 -14.344  1.00  0.00     0.207 HD
HETATM   16  N9  UNL     1     -15.646  42.821 -11.958  1.00  0.00    -0.213 N 
ATOM     17  H8  UNL     1     -16.062  44.702 -12.753  1.00  0.00     0.210 HD
HETATM   18  N10 UNL     1     -16.049  41.611 -12.255  1.00  0.00    -0.115 N 
ATOM     19  H9  UNL     1     -14.995  43.054 -11.208  1.00  0.00     0.210 HD
ATOM     20  H10 UNL     1     -15.769  40.752 -11.782  1.00  0.00     0.207 HD
ENDBRANCH  10  12
ENDBRANCH   6   8
ENDBRANCH   3   5
BRANCH   1  21
HETATM   21  C5  UNL     1     -16.953  36.026  -9.950  1.00  0.00     0.079 A 
HETATM   22  C1  UNL     1     -18.332  36.048 -10.022  1.00  0.00     0.114 A 
HETATM   23  N2  UNL     1     -19.078  35.646  -8.970  1.00  0.00    -0.349 N 
HETATM   24  C2  UNL     1     -18.523  35.213  -7.825  1.00  0.00     0.125 A 
ATOM     25  H2  UNL     1     -20.095  35.672  -9.048  1.00  0.00     0.166 HD
HETATM   26  C3  UNL     1     -17.152  35.170  -7.698  1.00  0.00     0.119 A 
HETATM   27  C4  UNL     1     -16.398  35.582  -8.776  1.00  0.00     0.058 A 
BRANCH  22  28
HETATM   28  N1  UNL     1     -18.900  36.461 -11.114  1.00  0.00    -0.385 N 
ATOM     29  H12 UNL     1     -19.880  36.232 -11.279  1.00  0.00     0.157 HD
ATOM     30  H11 UNL     1     -18.374  37.005 -11.798  1.00  0.00     0.157 HD
ENDBRANCH  22  28
BRANCH  26  31
HETATM   31  N3  UNL     1     -16.506  34.727  -6.526  1.00  0.00    -0.114 N 
HETATM   32  O1  UNL     1     -16.894  33.712  -5.938  1.00  0.00    -0.532 OA
HETATM   33  O2  UNL     1     -15.444  35.433  -6.044  1.00  0.00    -0.532 OA
ENDBRANCH  26  31
ENDBRANCH   1  21
TORSDOF 6
ENDMDL
MODEL 5
REMARK VINA RESULT: -7.993392589      1.715      2.434
REMARK  6 active torsions:
REMARK  status: ('A' for Active; 'I' for Inactive)
REMARK    1  A    between atoms: N1_1  and  C1_4 
REMARK    2  A    between atoms: C3_8  and  N3_9 
REMARK    3  A    between atoms: C5_13  and  C6_14 
REMARK       I    between atoms: C6_14  and  N4_16 
REMARK    4  A    between atoms: N4_16  and  N5_18 
REMARK    5  A    between atoms: C7_20  and  C8_21 
REMARK       I    between atoms: C8_21  and  N6_23 
REMARK    6  A    between atoms: N6_23  and  C9_25 
ROOT
HETATM    1  C6  UNL     1     -16.162  36.913 -11.200  1.00  0.00     0.273 C 
HETATM    2  O3  UNL     1     -15.480  36.171 -11.941  1.00  0.00    -0.266 OA
HETATM    3  N4  UNL     1     -16.111  38.311 -11.373  1.00  0.00    -0.266 N 
ATOM      4  H4  UNL     1     -16.662  38.921 -10.768  1.00  0.00     0.190 HD
ENDROOT
BRANCH   3   5
HETATM    5  N5  UNL     1     -15.312  38.858 -12.366  1.00  0.00    -0.304 N 
HETATM    6  C7  UNL     1     -15.731  39.836 -13.082  1.00  0.00     0.182 C 
ATOM      7  H5  UNL     1     -14.381  38.477 -12.530  1.00  0.00     0.186 HD
BRANCH   6   8
HETATM    8  C8  UNL     1     -17.037  40.427 -12.908  1.00  0.00     0.276 C 
HETATM    9  O4  UNL     1     -17.919  39.932 -12.182  1.00  0.00    -0.266 OA
HETATM   10  N6  UNL     1     -17.337  41.652 -13.610  1.00  0.00    -0.152 N 
ATOM     11  H6  UNL     1     -18.145  41.726 -14.228  1.00  0.00     0.187 HD
BRANCH  10  12
HETATM   12  C9  UNL     1     -16.541  42.650 -13.425  1.00  0.00     0.716 A 
HETATM   13  N7  UNL     1     -15.826  42.945 -12.303  1.00  0.00    -0.115 N 
HETATM   14  N8  UNL     1     -15.143  44.049 -12.532  1.00  0.00    -0.213 N 
ATOM     15  H7  UNL     1     -15.821  42.405 -11.437  1.00  0.00     0.207 HD
HETATM   16  N9  UNL     1     -15.416  44.439 -13.755  1.00  0.00    -0.213 N 
ATOM     17  H8  UNL     1     -14.516  44.516 -11.877  1.00  0.00     0.210 HD
HETATM   18  N10 UNL     1     -16.259  43.608 -14.314  1.00  0.00    -0.115 N 
ATOM     19  H9  UNL     1     -15.028  45.269 -14.204  1.00  0.00     0.210 HD
ATOM     20  H10 UNL     1     -16.635  43.678 -15.260  1.00  0.00     0.207 HD
ENDBRANCH  10  12
ENDBRANCH   6   8
ENDBRANCH   3   5
BRANCH   1  21
HETATM   21  C5  UNL     1     -17.002  36.348 -10.171  1.00  0.00     0.079 A 
HETATM   22  C1  UNL     1     -18.379  36.367 -10.278  1.00  0.00     0.114 A 
HETATM   23  N2  UNL     1     -19.149  35.838  -9.304  1.00  0.00    -0.349 N 
HETATM   24  C2  UNL     1     -18.620  35.277  -8.202  1.00  0.00     0.125 A 
ATOM     25  H2  UNL     1     -20.164  35.866  -9.406  1.00  0.00     0.166 HD
HETATM   26  C3  UNL     1     -17.252  35.229  -8.042  1.00  0.00     0.119 A 
HETATM   27  C4  UNL     1     -16.474  35.772  -9.042  1.00  0.00     0.058 A 
BRANCH  22  28
HETATM   28  N1  UNL     1     -18.921  36.902 -11.330  1.00  0.00    -0.385 N 
ATOM     29  H12 UNL     1     -19.937  36.968 -11.383  1.00  0.00     0.157 HD
ATOM     30  H11 UNL     1     -18.340  37.251 -12.092  1.00  0.00     0.157 HD
ENDBRANCH  22  28
BRANCH  26  31
HETATM   31  N3  UNL     1     -16.635  34.656  -6.913  1.00  0.00    -0.114 N 
HETATM   32  O1  UNL     1     -17.208  33.780  -6.258  1.00  0.00    -0.532 OA
HETATM   33  O2  UNL     1     -15.390  35.079  -6.548  1.00  0.00    -0.532 OA
ENDBRANCH  26  31
ENDBRANCH   1  21
TORSDOF 6
ENDMDL
