MODEL 1
REMARK VINA RESULT: -8.097249024      0.000      0.000
REMARK  4 active torsions:
REMARK  status: ('A' for Active; 'I' for Inactive)
REMARK       I    between atoms: C2_2  and  N1_4 
REMARK    1  A    between atoms: N1_4  and  C3_6 
REMARK    2  A    between atoms: C4_11  and  C5_12 
REMARK    3  A    between atoms: C5_12  and  C6_14 
REMARK       I    between atoms: C6_14  and  N4_16 
REMARK    4  A    between atoms: N4_16  and  N5_18 
ROOT
HETATM    1  C3  UNL     1     -18.519  36.335  -9.459  1.00  0.00     0.168 A 
HETATM    2  N2  UNL     1     -19.300  36.804 -10.434  1.00  0.00    -0.278 N 
ATOM      3  H2  UNL     1     -20.307  36.643 -10.415  1.00  0.00     0.189 HD
HETATM    4  N3  UNL     1     -18.766  37.456 -11.387  1.00  0.00    -0.288 N 
ATOM      5  H3  UNL     1     -19.346  37.822 -12.142  1.00  0.00     0.188 HD
HETATM    6  C4  UNL     1     -17.460  37.658 -11.401  1.00  0.00     0.148 A 
HETATM    7  S1  UNL     1     -16.977  36.868  -9.966  1.00  0.00    -0.029 SA
ENDROOT
BRANCH   6   8
HETATM    8  C5  UNL     1     -16.652  38.383 -12.409  1.00  0.00     0.275 C 
HETATM    9  O2  UNL     1     -15.422  38.278 -12.357  1.00  0.00    -0.279 OA
BRANCH   8  10
HETATM   10  C6  UNL     1     -17.305  39.180 -13.412  1.00  0.00     0.312 C 
HETATM   11  O3  UNL     1     -17.343  38.791 -14.594  1.00  0.00    -0.262 OA
HETATM   12  N4  UNL     1     -17.905  40.405 -13.062  1.00  0.00    -0.270 N 
ATOM     13  H4  UNL     1     -17.863  40.706 -12.088  1.00  0.00     0.189 HD
BRANCH  12  14
HETATM   14  N5  UNL     1     -18.557  41.229 -13.985  1.00  0.00    -0.342 N 
ATOM     15  H52 UNL     1     -18.019  41.994 -14.392  1.00  0.00     0.176 HD
ATOM     16  H51 UNL     1     -19.531  41.099 -14.261  1.00  0.00     0.176 HD
ENDBRANCH  12  14
ENDBRANCH   8  10
ENDBRANCH   6   8
BRANCH   1  17
HETATM   17  N1  UNL     1     -18.891  35.646  -8.402  1.00  0.00    -0.306 N 
HETATM   18  C2  UNL     1     -17.997  34.649  -7.892  1.00  0.00     0.219 C 
HETATM   19  C1  UNL     1     -17.482  34.739  -6.521  1.00  0.00     0.117 C 
HETATM   20  O1  UNL     1     -17.653  33.693  -8.623  1.00  0.00    -0.274 OA
ATOM     21  H1  UNL     1     -19.793  35.817  -7.957  1.00  0.00     0.171 HD
ENDBRANCH   1  17
TORSDOF 4
ENDMDL
MODEL 2
REMARK VINA RESULT: -8.089357631      1.114      1.114
REMARK  4 active torsions:
REMARK  status: ('A' for Active; 'I' for Inactive)
REMARK       I    between atoms: C2_2  and  N1_4 
REMARK    1  A    between atoms: N1_4  and  C3_6 
REMARK    2  A    between atoms: C4_11  and  C5_12 
REMARK    3  A    between atoms: C5_12  and  C6_14 
REMARK       I    between atoms: C6_14  and  N4_16 
REMARK    4  A    between atoms: N4_16  and  N5_18 
ROOT
HETATM    1  C3  UNL     1     -18.152  36.337  -9.682  1.00  0.00     0.168 A 
HETATM    2  N2  UNL     1     -17.052  35.770 -10.181  1.00  0.00    -0.278 N 
ATOM      3  H2  UNL     1     -16.738  34.860  -9.843  1.00  0.00     0.189 HD
HETATM    4  N3  UNL     1     -16.403  36.384 -11.086  1.00  0.00    -0.288 N 
ATOM      5  H3  UNL     1     -15.559  35.968 -11.480  1.00  0.00     0.188 HD
HETATM    6  C4  UNL     1     -16.820  37.562 -11.517  1.00  0.00     0.148 A 
HETATM    7  S1  UNL     1     -18.220  37.796 -10.567  1.00  0.00    -0.029 SA
ENDROOT
BRANCH   6   8
HETATM    8  C5  UNL     1     -16.214  38.432 -12.551  1.00  0.00     0.275 C 
HETATM    9  O2  UNL     1     -14.982  38.459 -12.643  1.00  0.00    -0.279 OA
BRANCH   8  10
HETATM   10  C6  UNL     1     -17.058  39.212 -13.414  1.00  0.00     0.312 C 
HETATM   11  O3  UNL     1     -17.344  38.797 -14.553  1.00  0.00    -0.262 OA
HETATM   12  N4  UNL     1     -17.566  40.451 -12.977  1.00  0.00    -0.270 N 
ATOM     13  H4  UNL     1     -17.319  40.773 -12.041  1.00  0.00     0.189 HD
BRANCH  12  14
HETATM   14  N5  UNL     1     -18.392  41.261 -13.762  1.00  0.00    -0.342 N 
ATOM     15  H52 UNL     1     -17.949  42.019 -14.281  1.00  0.00     0.176 HD
ATOM     16  H51 UNL     1     -19.400  41.126 -13.835  1.00  0.00     0.176 HD
ENDBRANCH  12  14
ENDBRANCH   8  10
ENDBRANCH   6   8
BRANCH   1  17
HETATM   17  N1  UNL     1     -18.945  35.854  -8.749  1.00  0.00    -0.306 N 
HETATM   18  C2  UNL     1     -18.453  34.791  -7.924  1.00  0.00     0.219 C 
HETATM   19  C1  UNL     1     -18.353  34.958  -6.470  1.00  0.00     0.117 C 
HETATM   20  O1  UNL     1     -18.107  33.709  -8.449  1.00  0.00    -0.274 OA
ATOM     21  H1  UNL     1     -19.885  36.227  -8.616  1.00  0.00     0.171 HD
ENDBRANCH   1  17
TORSDOF 4
ENDMDL
MODEL 3
REMARK VINA RESULT: -7.814542049      1.673      1.991
REMARK  4 active torsions:
REMARK  status: ('A' for Active; 'I' for Inactive)
REMARK       I    between atoms: C2_2  and  N1_4 
REMARK    1  A    between atoms: N1_4  and  C3_6 
REMARK    2  A    between atoms: C4_11  and  C5_12 
REMARK    3  A    between atoms: C5_12  and  C6_14 
REMARK       I    between atoms: C6_14  and  N4_16 
REMARK    4  A    between atoms: N4_16  and  N5_18 
ROOT
HETATM    1  C3  UNL     1     -17.134  37.260 -10.184  1.00  0.00     0.168 A 
HETATM    2  N2  UNL     1     -18.275  37.907 -10.430  1.00  0.00    -0.278 N 
ATOM      3  H2  UNL     1     -19.043  37.878  -9.760  1.00  0.00     0.189 HD
HETATM    4  N3  UNL     1     -18.386  38.561 -11.516  1.00  0.00    -0.288 N 
ATOM      5  H3  UNL     1     -19.250  39.063 -11.722  1.00  0.00     0.188 HD
HETATM    6  C4  UNL     1     -17.384  38.592 -12.377  1.00  0.00     0.148 A 
HETATM    7  S1  UNL     1     -16.221  37.627 -11.580  1.00  0.00    -0.029 SA
ENDROOT
BRANCH   6   8
HETATM    8  C5  UNL     1     -17.314  39.286 -13.683  1.00  0.00     0.275 C 
HETATM    9  O2  UNL     1     -17.516  38.626 -14.708  1.00  0.00    -0.279 OA
BRANCH   8  10
HETATM   10  C6  UNL     1     -17.018  40.692 -13.731  1.00  0.00     0.312 C 
HETATM   11  O3  UNL     1     -15.837  41.082 -13.798  1.00  0.00    -0.262 OA
HETATM   12  N4  UNL     1     -18.062  41.637 -13.702  1.00  0.00    -0.270 N 
ATOM     13  H4  UNL     1     -19.022  41.297 -13.647  1.00  0.00     0.189 HD
BRANCH  12  14
HETATM   14  N5  UNL     1     -17.847  43.018 -13.746  1.00  0.00    -0.342 N 
ATOM     15  H52 UNL     1     -16.938  43.341 -14.080  1.00  0.00     0.176 HD
ATOM     16  H51 UNL     1     -18.548  43.702 -13.463  1.00  0.00     0.176 HD
ENDBRANCH  12  14
ENDBRANCH   8  10
ENDBRANCH   6   8
BRANCH   1  17
HETATM   17  N1  UNL     1     -16.840  36.538  -9.124  1.00  0.00    -0.306 N 
HETATM   18  C2  UNL     1     -17.424  35.236  -9.005  1.00  0.00     0.219 C 
HETATM   19  C1  UNL     1     -16.577  34.041  -8.926  1.00  0.00     0.117 C 
HETATM   20  O1  UNL     1     -18.669  35.116  -8.969  1.00  0.00    -0.274 OA
ATOM     21  H1  UNL     1     -16.211  36.897  -8.405  1.00  0.00     0.171 HD
ENDBRANCH   1  17
TORSDOF 4
ENDMDL
MODEL 4
REMARK VINA RESULT: -7.555494551      1.726      2.029
REMARK  4 active torsions:
REMARK  status: ('A' for Active; 'I' for Inactive)
REMARK       I    between atoms: C2_2  and  N1_4 
REMARK    1  A    between atoms: N1_4  and  C3_6 
REMARK    2  A    between atoms: C4_11  and  C5_12 
REMARK    3  A    between atoms: C5_12  and  C6_14 
REMARK       I    between atoms: C6_14  and  N4_16 
REMARK    4  A    between atoms: N4_16  and  N5_18 
ROOT
HETATM    1  C3  UNL     1     -17.839  37.140 -10.417  1.00  0.00     0.168 A 
HETATM    2  N2  UNL     1     -18.553  38.265 -10.499  1.00  0.00    -0.278 N 
ATOM      3  H2  UNL     1     -19.207  38.520  -9.760  1.00  0.00     0.189 HD
HETATM    4  N3  UNL     1     -18.403  39.012 -11.518  1.00  0.00    -0.288 N 
ATOM      5  H3  UNL     1     -18.940  39.876 -11.600  1.00  0.00     0.188 HD
HETATM    6  C4  UNL     1     -17.553  38.671 -12.471  1.00  0.00     0.148 A 
HETATM    7  S1  UNL     1     -16.938  37.196 -11.867  1.00  0.00    -0.029 SA
ENDROOT
BRANCH   6   8
HETATM    8  C5  UNL     1     -17.235  39.394 -13.724  1.00  0.00     0.275 C 
HETATM    9  O2  UNL     1     -17.261  38.763 -14.785  1.00  0.00    -0.279 OA
BRANCH   8  10
HETATM   10  C6  UNL     1     -16.909  40.794 -13.679  1.00  0.00     0.312 C 
HETATM   11  O3  UNL     1     -15.721  41.158 -13.605  1.00  0.00    -0.262 OA
HETATM   12  N4  UNL     1     -17.933  41.760 -13.719  1.00  0.00    -0.270 N 
ATOM     13  H4  UNL     1     -18.900  41.441 -13.779  1.00  0.00     0.189 HD
BRANCH  12  14
HETATM   14  N5  UNL     1     -17.688  43.137 -13.680  1.00  0.00    -0.342 N 
ATOM     15  H52 UNL     1     -16.957  43.465 -13.050  1.00  0.00     0.176 HD
ATOM     16  H51 UNL     1     -18.203  43.812 -14.246  1.00  0.00     0.176 HD
ENDBRANCH  12  14
ENDBRANCH   8  10
ENDBRANCH   6   8
BRANCH   1  17
HETATM   17  N1  UNL     1     -17.861  36.252  -9.446  1.00  0.00    -0.306 N 
HETATM   18  C2  UNL     1     -16.625  35.647  -9.050  1.00  0.00     0.219 C 
HETATM   19  C1  UNL     1     -16.130  35.789  -7.677  1.00  0.00     0.117 C 
HETATM   20  O1  UNL     1     -15.961  34.991  -9.884  1.00  0.00    -0.274 OA
ATOM     21  H1  UNL     1     -18.737  36.001  -8.988  1.00  0.00     0.171 HD
ENDBRANCH   1  17
TORSDOF 4
ENDMDL
MODEL 5
REMARK VINA RESULT: -7.342097601      1.917      2.251
REMARK  4 active torsions:
REMARK  status: ('A' for Active; 'I' for Inactive)
REMARK       I    between atoms: C2_2  and  N1_4 
REMARK    1  A    between atoms: N1_4  and  C3_6 
REMARK    2  A    between atoms: C4_11  and  C5_12 
REMARK    3  A    between atoms: C5_12  and  C6_14 
REMARK       I    between atoms: C6_14  and  N4_16 
REMARK    4  A    between atoms: N4_16  and  N5_18 
ROOT
HETATM    1  C3  UNL     1     -17.293  37.596 -10.472  1.00  0.00     0.168 A 
HETATM    2  N2  UNL     1     -16.857  38.835 -10.233  1.00  0.00    -0.278 N 
ATOM      3  H2  UNL     1     -16.711  39.158  -9.276  1.00  0.00     0.189 HD
HETATM    4  N3  UNL     1     -16.625  39.604 -11.220  1.00  0.00    -0.288 N 
ATOM      5  H3  UNL     1     -16.291  40.554 -11.057  1.00  0.00     0.188 HD
HETATM    6  C4  UNL     1     -16.817  39.174 -12.454  1.00  0.00     0.148 A 
HETATM    7  S1  UNL     1     -17.360  37.577 -12.179  1.00  0.00    -0.029 SA
ENDROOT
BRANCH   6   8
HETATM    8  C5  UNL     1     -16.610  39.904 -13.726  1.00  0.00     0.275 C 
HETATM    9  O2  UNL     1     -15.557  40.532 -13.875  1.00  0.00    -0.279 OA
BRANCH   8  10
HETATM   10  C6  UNL     1     -17.623  39.867 -14.746  1.00  0.00     0.312 C 
HETATM   11  O3  UNL     1     -17.622  38.958 -15.597  1.00  0.00    -0.262 OA
HETATM   12  N4  UNL     1     -18.622  40.858 -14.787  1.00  0.00    -0.270 N 
ATOM     13  H4  UNL     1     -18.606  41.594 -14.081  1.00  0.00     0.189 HD
BRANCH  12  14
HETATM   14  N5  UNL     1     -19.637  40.883 -15.749  1.00  0.00    -0.342 N 
ATOM     15  H52 UNL     1     -19.452  41.394 -16.612  1.00  0.00     0.176 HD
ATOM     16  H51 UNL     1     -20.538  40.421 -15.624  1.00  0.00     0.176 HD
ENDBRANCH  12  14
ENDBRANCH   8  10
ENDBRANCH   6   8
BRANCH   1  17
HETATM   17  N1  UNL     1     -17.582  36.668  -9.585  1.00  0.00    -0.306 N 
HETATM   18  C2  UNL     1     -16.532  35.801  -9.141  1.00  0.00     0.219 C 
HETATM   19  C1  UNL     1     -16.155  35.749  -7.725  1.00  0.00     0.117 C 
HETATM   20  O1  UNL     1     -15.930  35.082  -9.970  1.00  0.00    -0.274 OA
ATOM     21  H1  UNL     1     -18.531  36.569  -9.223  1.00  0.00     0.171 HD
ENDBRANCH   1  17
TORSDOF 4
ENDMDL
