MODEL 1
REMARK VINA RESULT: -6.749276711      0.000      0.000
REMARK  5 active torsions:
REMARK  status: ('A' for Active; 'I' for Inactive)
REMARK    1  A    between atoms: N1_2  and  C2_4 
REMARK    2  A    between atoms: C9_14  and  C10_15 
REMARK    3  A    between atoms: C12_17  and  O1_18 
REMARK    4  A    between atoms: C14_20  and  O2_21 
REMARK    5  A    between atoms: C16_23  and  O3_24 
ROOT
HETATM    1  C2  UNL     1       3.889   6.513  18.574  1.00  0.00     0.059 A 
HETATM    2  C3  UNL     1       3.569   6.698  17.265  1.00  0.00     0.093 A 
HETATM    3  C4  UNL     1       4.489   6.288  16.245  1.00  0.00     0.103 C 
HETATM    4  N2  UNL     1       5.210   5.967  15.402  1.00  0.00    -0.191 NA
HETATM    5  C5  UNL     1       2.379   7.274  16.828  1.00  0.00     0.028 A 
HETATM    6  C6  UNL     1       2.096   7.445  15.372  1.00  0.00     0.070 C 
HETATM    7  N3  UNL     1       1.510   7.661  17.773  1.00  0.00    -0.361 N 
ATOM      8  H3  UNL     1       0.628   8.087  17.488  1.00  0.00     0.165 HD
HETATM    9  C7  UNL     1       1.762   7.507  19.083  1.00  0.00     0.029 A 
HETATM   10  C8  UNL     1       2.932   6.943  19.514  1.00  0.00     0.005 A 
HETATM   11  C9  UNL     1       2.879   6.956  20.986  1.00  0.00     0.094 C 
HETATM   12  C19 UNL     1       1.418   6.769  21.262  1.00  0.00     0.161 C 
HETATM   13  C20 UNL     1       0.834   5.550  20.757  1.00  0.00     0.086 C 
HETATM   14  N4  UNL     1       0.344   4.583  20.348  1.00  0.00    -0.195 NA
HETATM   15  C21 UNL     1       0.968   7.188  22.560  1.00  0.00     0.086 C 
HETATM   16  N5  UNL     1       0.620   7.507  23.608  1.00  0.00    -0.195 NA
HETATM   17  C22 UNL     1       0.889   7.861  20.273  1.00  0.00     0.030 C 
HETATM   18  C23 UNL     1       1.129   9.232  20.783  1.00  0.00     0.024 C 
HETATM   19  C24 UNL     1      -0.522   7.593  19.877  1.00  0.00     0.024 C 
ENDROOT
BRANCH   1  20
HETATM   20  N1  UNL     1       4.920   6.010  19.071  1.00  0.00    -0.392 N 
HETATM   21  C1  UNL     1       5.525   4.743  18.997  1.00  0.00     0.146 C 
ATOM     22  H1  UNL     1       5.435   6.662  19.662  1.00  0.00     0.159 HD
ENDBRANCH   1  20
BRANCH  11  23
HETATM   23  C10 UNL     1       3.859   6.250  21.727  1.00  0.00    -0.041 A 
HETATM   24  C11 UNL     1       5.104   6.818  21.940  1.00  0.00     0.047 A 
HETATM   25  C12 UNL     1       6.115   6.205  22.644  1.00  0.00     0.104 A 
HETATM   26  C14 UNL     1       5.903   4.956  23.176  1.00  0.00     0.135 A 
HETATM   27  C16 UNL     1       4.676   4.352  22.988  1.00  0.00     0.104 A 
HETATM   28  C18 UNL     1       3.672   5.013  22.263  1.00  0.00     0.047 A 
BRANCH  25  29
HETATM   29  O1  UNL     1       7.355   6.819  22.833  1.00  0.00    -0.353 OA
HETATM   30  C13 UNL     1       8.344   6.891  21.852  1.00  0.00     0.210 C 
ENDBRANCH  25  29
BRANCH  26  31
HETATM   31  O2  UNL     1       6.937   4.347  23.887  1.00  0.00    -0.351 OA
HETATM   32  C15 UNL     1       7.857   3.461  23.284  1.00  0.00     0.210 C 
ENDBRANCH  26  31
BRANCH  27  33
HETATM   33  O3  UNL     1       4.468   3.098  23.525  1.00  0.00    -0.353 OA
HETATM   34  C17 UNL     1       3.193   2.515  23.655  1.00  0.00     0.210 C 
ENDBRANCH  27  33
ENDBRANCH  11  23
TORSDOF 5
ENDMDL
MODEL 2
REMARK VINA RESULT: -6.723045229      2.654      5.711
REMARK  5 active torsions:
REMARK  status: ('A' for Active; 'I' for Inactive)
REMARK    1  A    between atoms: N1_2  and  C2_4 
REMARK    2  A    between atoms: C9_14  and  C10_15 
REMARK    3  A    between atoms: C12_17  and  O1_18 
REMARK    4  A    between atoms: C14_20  and  O2_21 
REMARK    5  A    between atoms: C16_23  and  O3_24 
ROOT
HETATM    1  C2  UNL     1       4.504   5.115  18.683  1.00  0.00     0.059 A 
HETATM    2  C3  UNL     1       5.289   5.108  17.573  1.00  0.00     0.093 A 
HETATM    3  C4  UNL     1       4.693   5.280  16.280  1.00  0.00     0.103 C 
HETATM    4  N2  UNL     1       4.239   5.416  15.227  1.00  0.00    -0.191 NA
HETATM    5  C5  UNL     1       6.672   4.942  17.597  1.00  0.00     0.028 A 
HETATM    6  C6  UNL     1       7.469   4.945  16.334  1.00  0.00     0.070 C 
HETATM    7  N3  UNL     1       7.242   4.780  18.800  1.00  0.00    -0.361 N 
ATOM      8  H3  UNL     1       8.252   4.655  18.854  1.00  0.00     0.165 HD
HETATM    9  C7  UNL     1       6.526   4.777  19.936  1.00  0.00     0.029 A 
HETATM   10  C8  UNL     1       5.167   4.939  19.913  1.00  0.00     0.005 A 
HETATM   11  C9  UNL     1       4.718   4.861  21.314  1.00  0.00     0.094 C 
HETATM   12  C19 UNL     1       5.870   5.462  22.061  1.00  0.00     0.161 C 
HETATM   13  C20 UNL     1       6.195   6.826  21.722  1.00  0.00     0.086 C 
HETATM   14  N4  UNL     1       6.480   7.916  21.454  1.00  0.00    -0.195 NA
HETATM   15  C21 UNL     1       5.956   5.125  23.454  1.00  0.00     0.086 C 
HETATM   16  N5  UNL     1       6.006   4.866  24.573  1.00  0.00    -0.195 NA
HETATM   17  C22 UNL     1       7.005   4.636  21.369  1.00  0.00     0.030 C 
HETATM   18  C23 UNL     1       7.032   3.230  21.837  1.00  0.00     0.024 C 
HETATM   19  C24 UNL     1       8.317   5.337  21.463  1.00  0.00     0.024 C 
ENDROOT
BRANCH   1  20
HETATM   20  N1  UNL     1       3.265   5.256  18.773  1.00  0.00    -0.392 N 
HETATM   21  C1  UNL     1       2.367   6.274  18.409  1.00  0.00     0.146 C 
ATOM     22  H1  UNL     1       2.804   4.457  19.206  1.00  0.00     0.159 HD
ENDBRANCH   1  20
BRANCH  11  23
HETATM   23  C10 UNL     1       3.380   5.197  21.640  1.00  0.00    -0.041 A 
HETATM   24  C11 UNL     1       2.451   4.194  21.859  1.00  0.00     0.047 A 
HETATM   25  C12 UNL     1       1.132   4.428  22.176  1.00  0.00     0.104 A 
HETATM   26  C14 UNL     1       0.687   5.722  22.288  1.00  0.00     0.135 A 
HETATM   27  C16 UNL     1       1.580   6.754  22.077  1.00  0.00     0.104 A 
HETATM   28  C18 UNL     1       2.916   6.471  21.755  1.00  0.00     0.047 A 
BRANCH  25  29
HETATM   29  O1  UNL     1       0.232   3.382  22.389  1.00  0.00    -0.353 OA
HETATM   30  C13 UNL     1       0.616   2.081  22.715  1.00  0.00     0.210 C 
ENDBRANCH  25  29
BRANCH  26  31
HETATM   31  O2  UNL     1      -0.652   5.944  22.610  1.00  0.00    -0.351 OA
HETATM   32  C15 UNL     1      -1.633   6.226  21.634  1.00  0.00     0.210 C 
ENDBRANCH  26  31
BRANCH  27  33
HETATM   33  O3  UNL     1       1.127   8.053  22.191  1.00  0.00    -0.353 OA
HETATM   34  C17 UNL     1       0.884   8.886  21.082  1.00  0.00     0.210 C 
ENDBRANCH  27  33
ENDBRANCH  11  23
TORSDOF 5
ENDMDL
MODEL 3
REMARK VINA RESULT: -6.600787005      0.593      2.321
REMARK  5 active torsions:
REMARK  status: ('A' for Active; 'I' for Inactive)
REMARK    1  A    between atoms: N1_2  and  C2_4 
REMARK    2  A    between atoms: C9_14  and  C10_15 
REMARK    3  A    between atoms: C12_17  and  O1_18 
REMARK    4  A    between atoms: C14_20  and  O2_21 
REMARK    5  A    between atoms: C16_23  and  O3_24 
ROOT
HETATM    1  C2  UNL     1       3.561   6.830  18.290  1.00  0.00     0.059 A 
HETATM    2  C3  UNL     1       3.119   7.098  17.032  1.00  0.00     0.093 A 
HETATM    3  C4  UNL     1       3.945   6.774  15.906  1.00  0.00     0.103 C 
HETATM    4  N2  UNL     1       4.589   6.524  14.980  1.00  0.00    -0.191 NA
HETATM    5  C5  UNL     1       1.887   7.680  16.747  1.00  0.00     0.028 A 
HETATM    6  C6  UNL     1       1.469   7.945  15.338  1.00  0.00     0.070 C 
HETATM    7  N3  UNL     1       1.105   7.987  17.792  1.00  0.00    -0.361 N 
ATOM      8  H3  UNL     1       0.196   8.415  17.619  1.00  0.00     0.165 HD
HETATM    9  C7  UNL     1       1.479   7.749  19.060  1.00  0.00     0.029 A 
HETATM   10  C8  UNL     1       2.691   7.178  19.341  1.00  0.00     0.005 A 
HETATM   11  C9  UNL     1       2.774   7.090  20.810  1.00  0.00     0.094 C 
HETATM   12  C19 UNL     1       1.347   6.858  21.205  1.00  0.00     0.161 C 
HETATM   13  C20 UNL     1       0.734   5.666  20.672  1.00  0.00     0.086 C 
HETATM   14  N4  UNL     1       0.219   4.721  20.243  1.00  0.00    -0.195 NA
HETATM   15  C21 UNL     1       1.015   7.180  22.565  1.00  0.00     0.086 C 
HETATM   16  N5  UNL     1       0.762   7.421  23.659  1.00  0.00    -0.195 NA
HETATM   17  C22 UNL     1       0.717   8.005  20.347  1.00  0.00     0.030 C 
HETATM   18  C23 UNL     1       0.987   9.343  20.926  1.00  0.00     0.024 C 
HETATM   19  C24 UNL     1      -0.722   7.740  20.064  1.00  0.00     0.024 C 
ENDROOT
BRANCH   1  20
HETATM   20  N1  UNL     1       4.640   6.313  18.655  1.00  0.00    -0.392 N 
HETATM   21  C1  UNL     1       5.266   5.078  18.411  1.00  0.00     0.146 C 
ATOM     22  H1  UNL     1       5.186   6.921  19.264  1.00  0.00     0.159 HD
ENDBRANCH   1  20
BRANCH  11  23
HETATM   23  C10 UNL     1       3.828   6.352  21.407  1.00  0.00    -0.041 A 
HETATM   24  C11 UNL     1       3.652   5.009  21.694  1.00  0.00     0.047 A 
HETATM   25  C12 UNL     1       4.618   4.218  22.275  1.00  0.00     0.104 A 
HETATM   26  C14 UNL     1       5.834   4.769  22.598  1.00  0.00     0.135 A 
HETATM   27  C16 UNL     1       6.051   6.106  22.329  1.00  0.00     0.104 A 
HETATM   28  C18 UNL     1       5.039   6.876  21.736  1.00  0.00     0.047 A 
BRANCH  25  29
HETATM   29  O1  UNL     1       4.394   2.867  22.545  1.00  0.00    -0.353 OA
HETATM   30  C13 UNL     1       3.474   2.404  23.486  1.00  0.00     0.210 C 
ENDBRANCH  25  29
BRANCH  26  31
HETATM   31  O2  UNL     1       6.802   3.956  23.185  1.00  0.00    -0.351 OA
HETATM   32  C15 UNL     1       6.853   3.716  24.577  1.00  0.00     0.210 C 
ENDBRANCH  26  31
BRANCH  27  33
HETATM   33  O3  UNL     1       7.275   6.654  22.656  1.00  0.00    -0.353 OA
HETATM   34  C17 UNL     1       8.332   6.786  21.735  1.00  0.00     0.210 C 
ENDBRANCH  27  33
ENDBRANCH  11  23
TORSDOF 5
ENDMDL
MODEL 4
REMARK VINA RESULT: -6.493505763      2.669      5.350
REMARK  5 active torsions:
REMARK  status: ('A' for Active; 'I' for Inactive)
REMARK    1  A    between atoms: N1_2  and  C2_4 
REMARK    2  A    between atoms: C9_14  and  C10_15 
REMARK    3  A    between atoms: C12_17  and  O1_18 
REMARK    4  A    between atoms: C14_20  and  O2_21 
REMARK    5  A    between atoms: C16_23  and  O3_24 
ROOT
HETATM    1  C2  UNL     1       4.580   4.981  18.686  1.00  0.00     0.059 A 
HETATM    2  C3  UNL     1       5.373   5.009  17.582  1.00  0.00     0.093 A 
HETATM    3  C4  UNL     1       4.779   5.137  16.283  1.00  0.00     0.103 C 
HETATM    4  N2  UNL     1       4.327   5.240  15.225  1.00  0.00    -0.191 NA
HETATM    5  C5  UNL     1       6.762   4.921  17.618  1.00  0.00     0.028 A 
HETATM    6  C6  UNL     1       7.569   4.958  16.362  1.00  0.00     0.070 C 
HETATM    7  N3  UNL     1       7.331   4.801  18.827  1.00  0.00    -0.361 N 
ATOM      8  H3  UNL     1       8.346   4.733  18.890  1.00  0.00     0.165 HD
HETATM    9  C7  UNL     1       6.607   4.767  19.957  1.00  0.00     0.029 A 
HETATM   10  C8  UNL     1       5.241   4.853  19.922  1.00  0.00     0.005 A 
HETATM   11  C9  UNL     1       4.786   4.760  21.321  1.00  0.00     0.094 C 
HETATM   12  C19 UNL     1       5.896   5.431  22.071  1.00  0.00     0.161 C 
HETATM   13  C20 UNL     1       6.147   6.808  21.723  1.00  0.00     0.086 C 
HETATM   14  N4  UNL     1       6.373   7.911  21.449  1.00  0.00    -0.195 NA
HETATM   15  C21 UNL     1       5.989   5.110  23.468  1.00  0.00     0.086 C 
HETATM   16  N5  UNL     1       6.045   4.864  24.589  1.00  0.00    -0.195 NA
HETATM   17  C22 UNL     1       7.081   4.664  21.395  1.00  0.00     0.030 C 
HETATM   18  C23 UNL     1       7.182   3.265  21.875  1.00  0.00     0.024 C 
HETATM   19  C24 UNL     1       8.351   5.438  21.494  1.00  0.00     0.024 C 
ENDROOT
BRANCH   1  20
HETATM   20  N1  UNL     1       3.334   5.054  18.765  1.00  0.00    -0.392 N 
HETATM   21  C1  UNL     1       2.387   6.037  18.429  1.00  0.00     0.146 C 
ATOM     22  H1  UNL     1       2.911   4.215  19.161  1.00  0.00     0.159 HD
ENDBRANCH   1  20
BRANCH  11  23
HETATM   23  C10 UNL     1       3.428   5.024  21.633  1.00  0.00    -0.041 A 
HETATM   24  C11 UNL     1       2.982   6.332  21.715  1.00  0.00     0.047 A 
HETATM   25  C12 UNL     1       1.684   6.681  22.014  1.00  0.00     0.104 A 
HETATM   26  C14 UNL     1       0.760   5.692  22.249  1.00  0.00     0.135 A 
HETATM   27  C16 UNL     1       1.162   4.374  22.178  1.00  0.00     0.104 A 
HETATM   28  C18 UNL     1       2.495   4.063  21.870  1.00  0.00     0.047 A 
BRANCH  25  29
HETATM   29  O1  UNL     1       1.280   8.016  22.086  1.00  0.00    -0.353 OA
HETATM   30  C13 UNL     1       1.016   8.808  20.968  1.00  0.00     0.210 C 
ENDBRANCH  25  29
BRANCH  26  31
HETATM   31  O2  UNL     1      -0.551   6.061  22.551  1.00  0.00    -0.351 OA
HETATM   32  C15 UNL     1      -1.545   6.221  21.560  1.00  0.00     0.210 C 
ENDBRANCH  26  31
BRANCH  27  33
HETATM   33  O3  UNL     1       0.229   3.385  22.415  1.00  0.00    -0.353 OA
HETATM   34  C17 UNL     1       0.573   2.067  22.768  1.00  0.00     0.210 C 
ENDBRANCH  27  33
ENDBRANCH  11  23
TORSDOF 5
ENDMDL
MODEL 5
REMARK VINA RESULT: -6.428278549      2.081      5.156
REMARK  5 active torsions:
REMARK  status: ('A' for Active; 'I' for Inactive)
REMARK    1  A    between atoms: N1_2  and  C2_4 
REMARK    2  A    between atoms: C9_14  and  C10_15 
REMARK    3  A    between atoms: C12_17  and  O1_18 
REMARK    4  A    between atoms: C14_20  and  O2_21 
REMARK    5  A    between atoms: C16_23  and  O3_24 
ROOT
HETATM    1  C2  UNL     1       0.725   6.838  21.783  1.00  0.00     0.059 A 
HETATM    2  C3  UNL     1       0.210   8.089  21.915  1.00  0.00     0.093 A 
HETATM    3  C4  UNL     1      -0.655   8.388  23.019  1.00  0.00     0.103 C 
HETATM    4  N2  UNL     1      -1.354   8.656  23.899  1.00  0.00    -0.191 NA
HETATM    5  C5  UNL     1       0.466   9.135  21.033  1.00  0.00     0.028 A 
HETATM    6  C6  UNL     1      -0.137  10.485  21.242  1.00  0.00     0.070 C 
HETATM    7  N3  UNL     1       1.274   8.869  19.996  1.00  0.00    -0.361 N 
ATOM      8  H3  UNL     1       1.483   9.612  19.329  1.00  0.00     0.165 HD
HETATM    9  C7  UNL     1       1.817   7.655  19.806  1.00  0.00     0.029 A 
HETATM   10  C8  UNL     1       1.565   6.626  20.672  1.00  0.00     0.005 A 
HETATM   11  C9  UNL     1       2.294   5.458  20.149  1.00  0.00     0.094 C 
HETATM   12  C19 UNL     1       3.508   6.080  19.529  1.00  0.00     0.161 C 
HETATM   13  C20 UNL     1       4.354   6.832  20.423  1.00  0.00     0.086 C 
HETATM   14  N4  UNL     1       5.040   7.451  21.122  1.00  0.00    -0.195 NA
HETATM   15  C21 UNL     1       4.186   5.283  18.545  1.00  0.00     0.086 C 
HETATM   16  N5  UNL     1       4.734   4.631  17.774  1.00  0.00    -0.195 NA
HETATM   17  C22 UNL     1       2.764   7.191  18.714  1.00  0.00     0.030 C 
HETATM   18  C23 UNL     1       2.062   6.635  17.533  1.00  0.00     0.024 C 
HETATM   19  C24 UNL     1       3.671   8.333  18.406  1.00  0.00     0.024 C 
ENDROOT
BRANCH   1  20
HETATM   20  N1  UNL     1       0.562   5.835  22.513  1.00  0.00    -0.392 N 
HETATM   21  C1  UNL     1      -0.510   4.955  22.743  1.00  0.00     0.146 C 
ATOM     22  H1  UNL     1       1.389   5.605  23.063  1.00  0.00     0.159 HD
ENDBRANCH   1  20
BRANCH  11  23
HETATM   23  C10 UNL     1       2.397   4.286  20.941  1.00  0.00    -0.041 A 
HETATM   24  C11 UNL     1       3.159   4.300  22.096  1.00  0.00     0.047 A 
HETATM   25  C12 UNL     1       3.317   3.210  22.922  1.00  0.00     0.104 A 
HETATM   26  C14 UNL     1       2.692   2.029  22.604  1.00  0.00     0.135 A 
HETATM   27  C16 UNL     1       1.921   1.971  21.460  1.00  0.00     0.104 A 
HETATM   28  C18 UNL     1       1.787   3.106  20.646  1.00  0.00     0.047 A 
BRANCH  25  29
HETATM   29  O1  UNL     1       4.098   3.272  24.078  1.00  0.00    -0.353 OA
HETATM   30  C13 UNL     1       5.208   4.105  24.222  1.00  0.00     0.210 C 
ENDBRANCH  25  29
BRANCH  26  31
HETATM   31  O2  UNL     1       2.860   0.933  23.450  1.00  0.00    -0.351 OA
HETATM   32  C15 UNL     1       1.977   0.652  24.517  1.00  0.00     0.210 C 
ENDBRANCH  26  31
BRANCH  27  33
HETATM   33  O3  UNL     1       1.294   0.782  21.146  1.00  0.00    -0.353 OA
HETATM   34  C17 UNL     1       1.802  -0.132  20.203  1.00  0.00     0.210 C 
ENDBRANCH  27  33
ENDBRANCH  11  23
TORSDOF 5
ENDMDL
