MODEL 1
REMARK VINA RESULT: -8.193897667      0.000      0.000
REMARK  7 active torsions:
REMARK  status: ('A' for Active; 'I' for Inactive)
REMARK    1  A    between atoms: C2_2  and  O1_3 
REMARK    2  A    between atoms: O1_3  and  C3_4 
REMARK    3  A    between atoms: C3_4  and  C4_6 
REMARK    4  A    between atoms: C7_10  and  O3_11 
REMARK    5  A    between atoms: C7_10  and  C8_13 
REMARK    6  A    between atoms: C9_14  and  N2_15 
REMARK       I    between atoms: N2_15  and  C10_17 
REMARK    7  A    between atoms: C10_17  and  C11_19 
ROOT
HETATM    1  C8  UNL     1      20.633  11.764 -11.158  1.00  0.00     0.056 A 
HETATM    2  C9  UNL     1      19.413  12.185 -10.719  1.00  0.00     0.092 A 
HETATM    3  S1  UNL     1      19.649  13.907 -10.474  1.00  0.00    -0.075 SA
HETATM    4  C15 UNL     1      21.272  14.012 -10.949  1.00  0.00    -0.008 A 
HETATM    5  C16 UNL     1      21.611  12.747 -11.278  1.00  0.00    -0.028 A 
HETATM    6  C17 UNL     1      23.093  12.783 -11.647  1.00  0.00     0.041 C 
HETATM    7  C18 UNL     1      23.580  14.113 -11.106  1.00  0.00     0.010 C 
HETATM    8  C19 UNL     1      22.409  15.012 -11.130  1.00  0.00     0.047 C 
ENDROOT
BRANCH   1   9
HETATM    9  C7  UNL     1      20.920  10.294 -11.148  1.00  0.00     0.151 C 
HETATM   10  N1  UNL     1      20.437   9.245 -10.436  1.00  0.00    -0.361 N 
HETATM   11  C6  UNL     1      20.933   7.882 -10.802  1.00  0.00     0.126 C 
HETATM   12  C20 UNL     1      19.599   9.232  -9.284  1.00  0.00     0.126 C 
HETATM   13  C5  UNL     1      21.885   7.399  -9.731  1.00  0.00     0.034 C 
HETATM   14  C4  UNL     1      21.495   7.970  -8.377  1.00  0.00     0.088 C 
HETATM   15  C21 UNL     1      20.006   8.136  -8.295  1.00  0.00     0.034 C 
BRANCH  14  16
HETATM   16  C3  UNL     1      21.925   7.102  -7.254  1.00  0.00     0.263 C 
HETATM   17  O2  UNL     1      22.879   6.275  -7.401  1.00  0.00    -0.265 OA
BRANCH  16  18
HETATM   18  O1  UNL     1      21.316   7.157  -6.019  1.00  0.00    -0.322 OA
BRANCH  18  19
HETATM   19  C2  UNL     1      20.857   6.024  -5.307  1.00  0.00     0.174 C 
HETATM   20  C1  UNL     1      19.440   6.212  -4.859  1.00  0.00     0.034 C 
ENDBRANCH  18  19
ENDBRANCH  16  18
ENDBRANCH  14  16
BRANCH   9  21
HETATM   21  O3  UNL     1      21.861   9.916 -12.016  1.00  0.00    -0.345 OA
ATOM     22  H3  UNL     1      22.015  10.576 -12.682  1.00  0.00     0.219 HD
ENDBRANCH   9  21
ENDBRANCH   1   9
BRANCH   2  23
HETATM   23  N2  UNL     1      18.097  11.614 -10.680  1.00  0.00    -0.314 N 
HETATM   24  C10 UNL     1      17.171  11.698 -11.729  1.00  0.00     0.283 C 
HETATM   25  O4  UNL     1      17.349  12.307 -12.810  1.00  0.00    -0.265 OA
ATOM     26  H2  UNL     1      17.817  11.115  -9.835  1.00  0.00     0.170 HD
BRANCH  24  27
HETATM   27  C11 UNL     1      15.852  11.019 -11.587  1.00  0.00     0.181 A 
HETATM   28  O5  UNL     1      14.713  11.492 -11.968  1.00  0.00    -0.314 OA
HETATM   29  C12 UNL     1      13.741  10.658 -11.704  1.00  0.00     0.146 A 
HETATM   30  C13 UNL     1      14.287   9.550 -11.102  1.00  0.00     0.070 A 
HETATM   31  C14 UNL     1      15.664   9.790 -11.028  1.00  0.00     0.157 A 
HETATM   32  F1  UNL     1      16.541   8.921 -10.494  1.00  0.00    -0.203 F 
ENDBRANCH  24  27
ENDBRANCH   2  23
TORSDOF 7
ENDMDL
MODEL 2
REMARK VINA RESULT: -7.964455010      2.586      6.679
REMARK  7 active torsions:
REMARK  status: ('A' for Active; 'I' for Inactive)
REMARK    1  A    between atoms: C2_2  and  O1_3 
REMARK    2  A    between atoms: O1_3  and  C3_4 
REMARK    3  A    between atoms: C3_4  and  C4_6 
REMARK    4  A    between atoms: C7_10  and  O3_11 
REMARK    5  A    between atoms: C7_10  and  C8_13 
REMARK    6  A    between atoms: C9_14  and  N2_15 
REMARK       I    between atoms: N2_15  and  C10_17 
REMARK    7  A    between atoms: C10_17  and  C11_19 
ROOT
HETATM    1  C8  UNL     1      20.491   9.949 -11.315  1.00  0.00     0.056 A 
HETATM    2  C9  UNL     1      20.954   8.878 -10.608  1.00  0.00     0.092 A 
HETATM    3  S1  UNL     1      22.338   8.349 -11.548  1.00  0.00    -0.075 SA
HETATM    4  C15 UNL     1      22.270   9.513 -12.779  1.00  0.00    -0.008 A 
HETATM    5  C16 UNL     1      21.202  10.276 -12.465  1.00  0.00    -0.028 A 
HETATM    6  C17 UNL     1      21.062  11.300 -13.590  1.00  0.00     0.041 C 
HETATM    7  C18 UNL     1      21.924  10.747 -14.707  1.00  0.00     0.010 C 
HETATM    8  C19 UNL     1      22.988   9.964 -14.047  1.00  0.00     0.047 C 
ENDROOT
BRANCH   1   9
HETATM    9  C7  UNL     1      19.115  10.457 -11.008  1.00  0.00     0.151 C 
HETATM   10  N1  UNL     1      18.047   9.944 -10.348  1.00  0.00    -0.361 N 
HETATM   11  C6  UNL     1      16.855  10.831 -10.177  1.00  0.00     0.126 C 
HETATM   12  C20 UNL     1      17.815   8.619  -9.877  1.00  0.00     0.126 C 
HETATM   13  C5  UNL     1      15.753  10.362 -11.100  1.00  0.00     0.034 C 
HETATM   14  C4  UNL     1      15.834   8.857 -11.301  1.00  0.00     0.088 C 
HETATM   15  C21 UNL     1      16.355   8.196 -10.060  1.00  0.00     0.034 C 
BRANCH  14  16
HETATM   16  C3  UNL     1      14.516   8.260 -11.625  1.00  0.00     0.263 C 
HETATM   17  O2  UNL     1      14.426   7.049 -12.002  1.00  0.00    -0.265 OA
BRANCH  16  18
HETATM   18  O1  UNL     1      13.348   8.985 -11.532  1.00  0.00    -0.322 OA
BRANCH  18  19
HETATM   19  C2  UNL     1      12.312   8.711 -10.608  1.00  0.00     0.174 C 
HETATM   20  C1  UNL     1      12.817   8.795  -9.200  1.00  0.00     0.034 C 
ENDBRANCH  18  19
ENDBRANCH  16  18
ENDBRANCH  14  16
BRANCH   9  21
HETATM   21  O3  UNL     1      18.864  11.676 -11.490  1.00  0.00    -0.345 OA
ATOM     22  H3  UNL     1      17.935  11.820 -11.625  1.00  0.00     0.219 HD
ENDBRANCH   9  21
ENDBRANCH   1   9
BRANCH   2  23
HETATM   23  N2  UNL     1      20.715   8.349  -9.296  1.00  0.00    -0.314 N 
HETATM   24  C10 UNL     1      21.662   7.636  -8.550  1.00  0.00     0.283 C 
HETATM   25  O4  UNL     1      22.816   7.334  -8.937  1.00  0.00    -0.265 OA
ATOM     26  H2  UNL     1      19.795   8.502  -8.880  1.00  0.00     0.170 HD
BRANCH  24  27
HETATM   27  C11 UNL     1      21.309   7.180  -7.176  1.00  0.00     0.181 A 
HETATM   28  O5  UNL     1      21.839   6.183  -6.550  1.00  0.00    -0.314 OA
HETATM   29  C12 UNL     1      21.314   6.037  -5.361  1.00  0.00     0.146 A 
HETATM   30  C13 UNL     1      20.365   7.016  -5.195  1.00  0.00     0.070 A 
HETATM   31  C14 UNL     1      20.364   7.759  -6.381  1.00  0.00     0.157 A 
HETATM   32  F1  UNL     1      19.557   8.813  -6.597  1.00  0.00    -0.203 F 
ENDBRANCH  24  27
ENDBRANCH   2  23
TORSDOF 7
ENDMDL
MODEL 3
REMARK VINA RESULT: -7.761754581      2.865      7.622
REMARK  7 active torsions:
REMARK  status: ('A' for Active; 'I' for Inactive)
REMARK    1  A    between atoms: C2_2  and  O1_3 
REMARK    2  A    between atoms: O1_3  and  C3_4 
REMARK    3  A    between atoms: C3_4  and  C4_6 
REMARK    4  A    between atoms: C7_10  and  O3_11 
REMARK    5  A    between atoms: C7_10  and  C8_13 
REMARK    6  A    between atoms: C9_14  and  N2_15 
REMARK       I    between atoms: N2_15  and  C10_17 
REMARK    7  A    between atoms: C10_17  and  C11_19 
ROOT
HETATM    1  C8  UNL     1      17.263  10.535 -10.853  1.00  0.00     0.056 A 
HETATM    2  C9  UNL     1      18.547  10.342 -10.436  1.00  0.00     0.092 A 
HETATM    3  S1  UNL     1      19.447  11.541 -11.347  1.00  0.00    -0.075 SA
HETATM    4  C15 UNL     1      18.157  12.235 -12.199  1.00  0.00    -0.008 A 
HETATM    5  C16 UNL     1      17.071  11.547 -11.789  1.00  0.00    -0.028 A 
HETATM    6  C17 UNL     1      15.890  12.095 -12.587  1.00  0.00     0.041 C 
HETATM    7  C18 UNL     1      16.533  12.863 -13.725  1.00  0.00     0.010 C 
HETATM    8  C19 UNL     1      17.836  13.329 -13.212  1.00  0.00     0.047 C 
ENDROOT
BRANCH   1   9
HETATM    9  C7  UNL     1      16.253   9.471 -10.551  1.00  0.00     0.151 C 
HETATM   10  N1  UNL     1      14.962   9.267 -10.916  1.00  0.00    -0.361 N 
HETATM   11  C6  UNL     1      14.314   7.998 -10.463  1.00  0.00     0.126 C 
HETATM   12  C20 UNL     1      14.053  10.139 -11.581  1.00  0.00     0.126 C 
HETATM   13  C5  UNL     1      13.326   8.313  -9.362  1.00  0.00     0.034 C 
HETATM   14  C4  UNL     1      12.734   9.700  -9.561  1.00  0.00     0.088 C 
HETATM   15  C21 UNL     1      12.631  10.013 -11.025  1.00  0.00     0.034 C 
BRANCH  14  16
HETATM   16  C3  UNL     1      11.383   9.827  -8.965  1.00  0.00     0.263 C 
HETATM   17  O2  UNL     1      11.121   9.313  -7.833  1.00  0.00    -0.265 OA
BRANCH  16  18
HETATM   18  O1  UNL     1      10.366  10.500  -9.608  1.00  0.00    -0.322 OA
BRANCH  18  19
HETATM   19  C2  UNL     1       9.754  11.677  -9.115  1.00  0.00     0.174 C 
HETATM   20  C1  UNL     1      10.615  12.875  -9.376  1.00  0.00     0.034 C 
ENDBRANCH  18  19
ENDBRANCH  16  18
ENDBRANCH  14  16
BRANCH   9  21
HETATM   21  O3  UNL     1      16.699   8.510  -9.740  1.00  0.00    -0.345 OA
ATOM     22  H3  UNL     1      16.998   8.859  -8.908  1.00  0.00     0.219 HD
ENDBRANCH   9  21
ENDBRANCH   1   9
BRANCH   2  23
HETATM   23  N2  UNL     1      19.165   9.626  -9.356  1.00  0.00    -0.314 N 
HETATM   24  C10 UNL     1      20.133   8.627  -9.526  1.00  0.00     0.283 C 
HETATM   25  O4  UNL     1      20.553   8.201 -10.628  1.00  0.00    -0.265 OA
ATOM     26  H2  UNL     1      18.883   9.861  -8.404  1.00  0.00     0.170 HD
BRANCH  24  27
HETATM   27  C11 UNL     1      20.737   7.992  -8.322  1.00  0.00     0.181 A 
HETATM   28  O5  UNL     1      21.806   7.268  -8.305  1.00  0.00    -0.314 OA
HETATM   29  C12 UNL     1      22.079   6.854  -7.095  1.00  0.00     0.146 A 
HETATM   30  C13 UNL     1      21.112   7.346  -6.252  1.00  0.00     0.070 A 
HETATM   31  C14 UNL     1      20.239   8.086  -7.056  1.00  0.00     0.157 A 
HETATM   32  F1  UNL     1      19.155   8.726  -6.582  1.00  0.00    -0.203 F 
ENDBRANCH  24  27
ENDBRANCH   2  23
TORSDOF 7
ENDMDL
MODEL 4
REMARK VINA RESULT: -7.711119537      2.499      6.761
REMARK  7 active torsions:
REMARK  status: ('A' for Active; 'I' for Inactive)
REMARK    1  A    between atoms: C2_2  and  O1_3 
REMARK    2  A    between atoms: O1_3  and  C3_4 
REMARK    3  A    between atoms: C3_4  and  C4_6 
REMARK    4  A    between atoms: C7_10  and  O3_11 
REMARK    5  A    between atoms: C7_10  and  C8_13 
REMARK    6  A    between atoms: C9_14  and  N2_15 
REMARK       I    between atoms: N2_15  and  C10_17 
REMARK    7  A    between atoms: C10_17  and  C11_19 
ROOT
HETATM    1  C8  UNL     1      17.736  11.230 -11.180  1.00  0.00     0.056 A 
HETATM    2  C9  UNL     1      17.602  10.235 -10.257  1.00  0.00     0.092 A 
HETATM    3  S1  UNL     1      15.981   9.630 -10.556  1.00  0.00    -0.075 SA
HETATM    4  C15 UNL     1      15.559  10.654 -11.838  1.00  0.00    -0.008 A 
HETATM    5  C16 UNL     1      16.643  11.440 -12.015  1.00  0.00    -0.028 A 
HETATM    6  C17 UNL     1      16.279  12.429 -13.120  1.00  0.00     0.041 C 
HETATM    7  C18 UNL     1      14.770  12.329 -13.228  1.00  0.00     0.010 C 
HETATM    8  C19 UNL     1      14.425  10.956 -12.812  1.00  0.00     0.047 C 
ENDROOT
BRANCH   1   9
HETATM    9  C7  UNL     1      18.859  12.207 -11.009  1.00  0.00     0.151 C 
HETATM   10  N1  UNL     1      19.712  12.821 -11.868  1.00  0.00    -0.361 N 
HETATM   11  C6  UNL     1      20.658  13.826 -11.292  1.00  0.00     0.126 C 
HETATM   12  C20 UNL     1      19.947  12.577 -13.252  1.00  0.00     0.126 C 
HETATM   13  C5  UNL     1      22.051  13.238 -11.272  1.00  0.00     0.034 C 
HETATM   14  C4  UNL     1      22.235  12.267 -12.428  1.00  0.00     0.088 C 
HETATM   15  C21 UNL     1      21.429  12.714 -13.612  1.00  0.00     0.034 C 
BRANCH  14  16
HETATM   16  C3  UNL     1      23.652  12.155 -12.849  1.00  0.00     0.263 C 
HETATM   17  O2  UNL     1      24.559  12.829 -12.267  1.00  0.00    -0.265 OA
BRANCH  16  18
HETATM   18  O1  UNL     1      24.039  11.325 -13.880  1.00  0.00    -0.322 OA
BRANCH  18  19
HETATM   19  C2  UNL     1      24.528  10.010 -13.701  1.00  0.00     0.174 C 
HETATM   20  C1  UNL     1      23.445   9.100 -13.208  1.00  0.00     0.034 C 
ENDBRANCH  18  19
ENDBRANCH  16  18
ENDBRANCH  14  16
BRANCH   9  21
HETATM   21  O3  UNL     1      19.093  12.552  -9.742  1.00  0.00    -0.345 OA
ATOM     22  H3  UNL     1      18.872  11.853  -9.137  1.00  0.00     0.219 HD
ENDBRANCH   9  21
ENDBRANCH   1   9
BRANCH   2  23
HETATM   23  N2  UNL     1      18.502   9.523  -9.396  1.00  0.00    -0.314 N 
HETATM   24  C10 UNL     1      19.713   8.958  -9.816  1.00  0.00     0.283 C 
HETATM   25  O4  UNL     1      20.149   8.963 -10.992  1.00  0.00    -0.265 OA
ATOM     26  H2  UNL     1      18.243   9.421  -8.414  1.00  0.00     0.170 HD
BRANCH  24  27
HETATM   27  C11 UNL     1      20.586   8.285  -8.814  1.00  0.00     0.181 A 
HETATM   28  O5  UNL     1      20.392   8.260  -7.538  1.00  0.00    -0.314 OA
HETATM   29  C12 UNL     1      21.335   7.590  -6.928  1.00  0.00     0.146 A 
HETATM   30  C13 UNL     1      22.217   7.141  -7.880  1.00  0.00     0.070 A 
HETATM   31  C14 UNL     1      21.726   7.597  -9.108  1.00  0.00     0.157 A 
HETATM   32  F1  UNL     1      22.328   7.354 -10.286  1.00  0.00    -0.203 F 
ENDBRANCH  24  27
ENDBRANCH   2  23
TORSDOF 7
ENDMDL
MODEL 5
REMARK VINA RESULT: -7.667749247      3.648      6.224
REMARK  7 active torsions:
REMARK  status: ('A' for Active; 'I' for Inactive)
REMARK    1  A    between atoms: C2_2  and  O1_3 
REMARK    2  A    between atoms: O1_3  and  C3_4 
REMARK    3  A    between atoms: C3_4  and  C4_6 
REMARK    4  A    between atoms: C7_10  and  O3_11 
REMARK    5  A    between atoms: C7_10  and  C8_13 
REMARK    6  A    between atoms: C9_14  and  N2_15 
REMARK       I    between atoms: N2_15  and  C10_17 
REMARK    7  A    between atoms: C10_17  and  C11_19 
ROOT
HETATM    1  C8  UNL     1      22.106  11.278 -11.702  1.00  0.00     0.056 A 
HETATM    2  C9  UNL     1      23.012  11.765 -12.598  1.00  0.00     0.092 A 
HETATM    3  S1  UNL     1      22.415  13.382 -12.929  1.00  0.00    -0.075 SA
HETATM    4  C15 UNL     1      21.061  13.367 -11.910  1.00  0.00    -0.008 A 
HETATM    5  C16 UNL     1      21.076  12.142 -11.343  1.00  0.00    -0.028 A 
HETATM    6  C17 UNL     1      19.829  12.060 -10.466  1.00  0.00     0.041 C 
HETATM    7  C18 UNL     1      18.966  13.215 -10.936  1.00  0.00     0.010 C 
HETATM    8  C19 UNL     1      19.902  14.240 -11.439  1.00  0.00     0.047 C 
ENDROOT
BRANCH   1   9
HETATM    9  C7  UNL     1      22.089   9.802 -11.444  1.00  0.00     0.151 C 
HETATM   10  N1  UNL     1      21.256   8.974 -10.765  1.00  0.00    -0.361 N 
HETATM   11  C6  UNL     1      21.547   7.509 -10.825  1.00  0.00     0.126 C 
HETATM   12  C20 UNL     1      20.183   9.284  -9.880  1.00  0.00     0.126 C 
HETATM   13  C5  UNL     1      22.105   7.062  -9.492  1.00  0.00     0.034 C 
HETATM   14  C4  UNL     1      21.525   7.902  -8.365  1.00  0.00     0.088 C 
HETATM   15  C21 UNL     1      20.122   8.314  -8.697  1.00  0.00     0.034 C 
BRANCH  14  16
HETATM   16  C3  UNL     1      21.499   7.172  -7.074  1.00  0.00     0.263 C 
HETATM   17  O2  UNL     1      22.286   6.196  -6.863  1.00  0.00    -0.265 OA
BRANCH  16  18
HETATM   18  O1  UNL     1      20.630   7.518  -6.062  1.00  0.00    -0.322 OA
BRANCH  18  19
HETATM   19  C2  UNL     1      20.019   6.590  -5.186  1.00  0.00     0.174 C 
HETATM   20  C1  UNL     1      18.534   6.574  -5.377  1.00  0.00     0.034 C 
ENDBRANCH  18  19
ENDBRANCH  16  18
ENDBRANCH  14  16
BRANCH   9  21
HETATM   21  O3  UNL     1      23.116   9.143 -11.983  1.00  0.00    -0.345 OA
ATOM     22  H3  UNL     1      23.909   9.236 -11.467  1.00  0.00     0.219 HD
ENDBRANCH   9  21
ENDBRANCH   1   9
BRANCH   2  23
HETATM   23  N2  UNL     1      24.311  11.358 -13.050  1.00  0.00    -0.314 N 
HETATM   24  C10 UNL     1      24.542  10.597 -14.204  1.00  0.00     0.283 C 
HETATM   25  O4  UNL     1      23.655  10.143 -14.965  1.00  0.00    -0.265 OA
ATOM     26  H2  UNL     1      25.120  11.640 -12.495  1.00  0.00     0.170 HD
BRANCH  24  27
HETATM   27  C11 UNL     1      25.944  10.281 -14.595  1.00  0.00     0.181 A 
HETATM   28  O5  UNL     1      26.489  10.543 -15.735  1.00  0.00    -0.314 OA
HETATM   29  C12 UNL     1      27.732  10.139 -15.771  1.00  0.00     0.146 A 
HETATM   30  C13 UNL     1      28.025   9.566 -14.557  1.00  0.00     0.070 A 
HETATM   31  C14 UNL     1      26.856   9.660 -13.794  1.00  0.00     0.157 A 
HETATM   32  F1  UNL     1      26.754   9.201 -12.534  1.00  0.00    -0.203 F 
ENDBRANCH  24  27
ENDBRANCH   2  23
TORSDOF 7
ENDMDL
