MODEL 1
REMARK VINA RESULT: -8.314837145      0.000      0.000
REMARK  5 active torsions:
REMARK  status: ('A' for Active; 'I' for Inactive)
REMARK    1  A    between atoms: C5_5  and  C6_6 
REMARK    2  A    between atoms: C6_6  and  C7_7 
REMARK    3  A    between atoms: C7_7  and  C8_8 
REMARK    4  A    between atoms: C8_8  and  N1_9 
REMARK    5  A    between atoms: C23_27  and  O4_28 
ROOT
HETATM    1  N1  UNL     1     -11.324  -7.451   1.888  1.00  0.00    -0.354 N 
HETATM    2  C9  UNL     1     -11.759  -6.736   3.023  1.00  0.00     0.068 C 
HETATM    3  C10 UNL     1     -10.693  -6.672   4.075  1.00  0.00     0.045 C 
HETATM    4  C11 UNL     1     -10.466  -5.259   4.573  1.00  0.00     0.007 C 
HETATM    5  C12 UNL     1      -9.700  -5.321   5.852  1.00  0.00     0.027 C 
HETATM    6  C13 UNL     1     -10.496  -5.753   7.048  1.00  0.00     0.167 C 
HETATM    7  O1  UNL     1     -11.423  -4.837   7.478  1.00  0.00    -0.389 OA
HETATM    8  C14 UNL     1     -12.738  -5.182   7.342  1.00  0.00     0.193 C 
HETATM    9  C15 UNL     1     -13.091  -6.586   7.730  1.00  0.00     0.193 C 
HETATM   10  O2  UNL     1     -13.436  -7.287   6.582  1.00  0.00    -0.387 OA
HETATM   11  C16 UNL     1     -13.932  -8.547   6.798  1.00  0.00     0.193 C 
HETATM   12  C17 UNL     1     -13.941  -9.294   5.477  1.00  0.00     0.193 C 
HETATM   13  O3  UNL     1     -12.658  -9.634   5.052  1.00  0.00    -0.389 OA
HETATM   14  C18 UNL     1     -12.724  -9.942   3.715  1.00  0.00     0.172 C 
HETATM   15  C19 UNL     1     -11.455  -9.652   2.944  1.00  0.00     0.071 C 
HETATM   16  C20 UNL     1     -11.714  -8.794   1.733  1.00  0.00     0.070 C 
ENDROOT
BRANCH   1  17
HETATM   17  C8  UNL     1     -10.247  -6.948   1.134  1.00  0.00     0.068 C 
BRANCH  17  18
HETATM   18  C7  UNL     1     -10.556  -6.395  -0.209  1.00  0.00     0.049 C 
BRANCH  18  19
HETATM   19  C6  UNL     1     -10.832  -4.925  -0.252  1.00  0.00     0.044 C 
BRANCH  19  20
HETATM   20  C5  UNL     1     -12.191  -4.533  -0.605  1.00  0.00    -0.045 A 
HETATM   21  C4  UNL     1     -12.419  -3.779  -1.752  1.00  0.00     0.009 A 
HETATM   22  C3  UNL     1     -11.610  -3.265  -2.749  1.00  0.00     0.047 A 
HETATM   23  C24 UNL     1     -13.716  -3.389  -2.080  1.00  0.00     0.119 A 
HETATM   24  C2  UNL     1     -12.437  -2.591  -3.633  1.00  0.00     0.051 A 
HETATM   25  C1  UNL     1     -11.944  -1.888  -4.859  1.00  0.00     0.077 C 
HETATM   26  O5  UNL     1     -13.657  -2.695  -3.196  1.00  0.00    -0.312 OA
HETATM   27  C23 UNL     1     -14.775  -3.748  -1.275  1.00  0.00     0.100 A 
HETATM   28  C22 UNL     1     -14.581  -4.489  -0.144  1.00  0.00     0.040 A 
HETATM   29  C21 UNL     1     -13.274  -4.862   0.157  1.00  0.00     0.011 A 
BRANCH  27  30
HETATM   30  O4  UNL     1     -16.064  -3.356  -1.609  1.00  0.00    -0.358 OA
ATOM     31  H4  UNL     1     -16.489  -3.761  -2.356  1.00  0.00     0.217 HD
ENDBRANCH  27  30
ENDBRANCH  19  20
ENDBRANCH  18  19
ENDBRANCH  17  18
ENDBRANCH   1  17
TORSDOF 5
ENDMDL
MODEL 2
REMARK VINA RESULT: -8.024999617      1.985      4.564
REMARK  5 active torsions:
REMARK  status: ('A' for Active; 'I' for Inactive)
REMARK    1  A    between atoms: C5_5  and  C6_6 
REMARK    2  A    between atoms: C6_6  and  C7_7 
REMARK    3  A    between atoms: C7_7  and  C8_8 
REMARK    4  A    between atoms: C8_8  and  N1_9 
REMARK    5  A    between atoms: C23_27  and  O4_28 
ROOT
HETATM    1  N1  UNL     1      -8.836  -7.262   3.025  1.00  0.00    -0.354 N 
HETATM    2  C9  UNL     1      -9.199  -8.375   3.809  1.00  0.00     0.068 C 
HETATM    3  C10 UNL     1     -10.543  -8.912   3.417  1.00  0.00     0.045 C 
HETATM    4  C11 UNL     1     -10.516 -10.409   3.186  1.00  0.00     0.007 C 
HETATM    5  C12 UNL     1     -11.918 -10.917   3.185  1.00  0.00     0.027 C 
HETATM    6  C13 UNL     1     -12.562 -11.007   4.537  1.00  0.00     0.167 C 
HETATM    7  O1  UNL     1     -12.052 -11.989   5.348  1.00  0.00    -0.389 OA
HETATM    8  C14 UNL     1     -11.375 -11.578   6.461  1.00  0.00     0.193 C 
HETATM    9  C15 UNL     1     -12.004 -10.461   7.235  1.00  0.00     0.193 C 
HETATM   10  O2  UNL     1     -11.209  -9.330   7.100  1.00  0.00    -0.387 OA
HETATM   11  C16 UNL     1     -11.577  -8.264   7.882  1.00  0.00     0.193 C 
HETATM   12  C17 UNL     1     -10.848  -7.029   7.385  1.00  0.00     0.193 C 
HETATM   13  O3  UNL     1     -11.337  -6.581   6.160  1.00  0.00    -0.389 OA
HETATM   14  C18 UNL     1     -10.402  -5.735   5.616  1.00  0.00     0.172 C 
HETATM   15  C19 UNL     1     -10.387  -5.711   4.104  1.00  0.00     0.071 C 
HETATM   16  C20 UNL     1      -9.010  -5.968   3.549  1.00  0.00     0.070 C 
ENDROOT
BRANCH   1  17
HETATM   17  C8  UNL     1      -8.652  -7.432   1.639  1.00  0.00     0.068 C 
BRANCH  17  18
HETATM   18  C7  UNL     1      -8.874  -6.247   0.772  1.00  0.00     0.049 C 
BRANCH  18  19
HETATM   19  C6  UNL     1      -9.820  -6.452  -0.369  1.00  0.00     0.044 C 
BRANCH  19  20
HETATM   20  C5  UNL     1     -11.044  -5.662  -0.342  1.00  0.00    -0.045 A 
HETATM   21  C4  UNL     1     -12.115  -6.070   0.447  1.00  0.00     0.009 A 
HETATM   22  C3  UNL     1     -12.334  -7.129   1.309  1.00  0.00     0.047 A 
HETATM   23  C24 UNL     1     -13.292  -5.326   0.459  1.00  0.00     0.119 A 
HETATM   24  C2  UNL     1     -13.620  -6.989   1.805  1.00  0.00     0.051 A 
HETATM   25  C1  UNL     1     -14.244  -7.940   2.777  1.00  0.00     0.077 C 
HETATM   26  O5  UNL     1     -14.135  -5.919   1.276  1.00  0.00    -0.312 OA
HETATM   27  C23 UNL     1     -13.402  -4.185  -0.307  1.00  0.00     0.100 A 
HETATM   28  C22 UNL     1     -12.368  -3.761  -1.091  1.00  0.00     0.040 A 
HETATM   29  C21 UNL     1     -11.205  -4.527  -1.082  1.00  0.00     0.011 A 
BRANCH  27  30
HETATM   30  O4  UNL     1     -14.579  -3.449  -0.290  1.00  0.00    -0.358 OA
ATOM     31  H4  UNL     1     -15.115  -3.457   0.494  1.00  0.00     0.217 HD
ENDBRANCH  27  30
ENDBRANCH  19  20
ENDBRANCH  18  19
ENDBRANCH  17  18
ENDBRANCH   1  17
TORSDOF 5
ENDMDL
MODEL 3
REMARK VINA RESULT: -7.987901684      3.312      5.054
REMARK  5 active torsions:
REMARK  status: ('A' for Active; 'I' for Inactive)
REMARK    1  A    between atoms: C5_5  and  C6_6 
REMARK    2  A    between atoms: C6_6  and  C7_7 
REMARK    3  A    between atoms: C7_7  and  C8_8 
REMARK    4  A    between atoms: C8_8  and  N1_9 
REMARK    5  A    between atoms: C23_27  and  O4_28 
ROOT
HETATM    1  N1  UNL     1      -8.212  -7.545  -0.855  1.00  0.00    -0.354 N 
HETATM    2  C9  UNL     1      -8.622  -7.695   0.485  1.00  0.00     0.068 C 
HETATM    3  C10 UNL     1      -8.121  -6.573   1.344  1.00  0.00     0.045 C 
HETATM    4  C11 UNL     1      -9.225  -5.954   2.178  1.00  0.00     0.007 C 
HETATM    5  C12 UNL     1      -8.604  -5.137   3.260  1.00  0.00     0.027 C 
HETATM    6  C13 UNL     1      -8.014  -5.926   4.393  1.00  0.00     0.167 C 
HETATM    7  O1  UNL     1      -8.936  -6.552   5.193  1.00  0.00    -0.389 OA
HETATM    8  C14 UNL     1      -8.951  -7.918   5.162  1.00  0.00     0.193 C 
HETATM    9  C15 UNL     1      -7.612  -8.589   5.190  1.00  0.00     0.193 C 
HETATM   10  O2  UNL     1      -7.393  -9.187   3.956  1.00  0.00    -0.387 OA
HETATM   11  C16 UNL     1      -6.271  -9.973   3.882  1.00  0.00     0.193 C 
HETATM   12  C17 UNL     1      -5.988 -10.271   2.421  1.00  0.00     0.193 C 
HETATM   13  O3  UNL     1      -5.518  -9.154   1.734  1.00  0.00    -0.389 OA
HETATM   14  C18 UNL     1      -5.658  -9.397   0.389  1.00  0.00     0.172 C 
HETATM   15  C19 UNL     1      -5.881  -8.157  -0.449  1.00  0.00     0.071 C 
HETATM   16  C20 UNL     1      -7.104  -8.276  -1.320  1.00  0.00     0.070 C 
ENDROOT
BRANCH   1  17
HETATM   17  C8  UNL     1      -8.669  -6.433  -1.589  1.00  0.00     0.068 C 
BRANCH  17  18
HETATM   18  C7  UNL     1     -10.130  -6.165  -1.579  1.00  0.00     0.049 C 
BRANCH  18  19
HETATM   19  C6  UNL     1     -10.546  -4.893  -0.910  1.00  0.00     0.044 C 
BRANCH  19  20
HETATM   20  C5  UNL     1     -11.972  -4.590  -0.930  1.00  0.00    -0.045 A 
HETATM   21  C4  UNL     1     -12.844  -5.305  -0.115  1.00  0.00     0.009 A 
HETATM   22  C3  UNL     1     -12.690  -6.321   0.811  1.00  0.00     0.047 A 
HETATM   23  C24 UNL     1     -14.209  -5.029  -0.147  1.00  0.00     0.119 A 
HETATM   24  C2  UNL     1     -13.952  -6.618   1.300  1.00  0.00     0.051 A 
HETATM   25  C1  UNL     1     -14.217  -7.671   2.330  1.00  0.00     0.077 C 
HETATM   26  O5  UNL     1     -14.803  -5.834   0.707  1.00  0.00    -0.312 OA
HETATM   27  C23 UNL     1     -14.701  -4.048  -0.982  1.00  0.00     0.100 A 
HETATM   28  C22 UNL     1     -13.868  -3.331  -1.792  1.00  0.00     0.040 A 
HETATM   29  C21 UNL     1     -12.510  -3.631  -1.738  1.00  0.00     0.011 A 
BRANCH  27  30
HETATM   30  O4  UNL     1     -16.062  -3.779  -1.008  1.00  0.00    -0.358 OA
ATOM     31  H4  UNL     1     -16.673  -4.504  -1.066  1.00  0.00     0.217 HD
ENDBRANCH  27  30
ENDBRANCH  19  20
ENDBRANCH  18  19
ENDBRANCH  17  18
ENDBRANCH   1  17
TORSDOF 5
ENDMDL
MODEL 4
REMARK VINA RESULT: -7.983366531      1.348      3.203
REMARK  5 active torsions:
REMARK  status: ('A' for Active; 'I' for Inactive)
REMARK    1  A    between atoms: C5_5  and  C6_6 
REMARK    2  A    between atoms: C6_6  and  C7_7 
REMARK    3  A    between atoms: C7_7  and  C8_8 
REMARK    4  A    between atoms: C8_8  and  N1_9 
REMARK    5  A    between atoms: C23_27  and  O4_28 
ROOT
HETATM    1  N1  UNL     1      -9.293  -6.870   2.375  1.00  0.00    -0.354 N 
HETATM    2  C9  UNL     1     -10.088  -7.737   3.152  1.00  0.00     0.068 C 
HETATM    3  C10 UNL     1     -11.531  -7.329   3.128  1.00  0.00     0.045 C 
HETATM    4  C11 UNL     1     -12.448  -8.489   2.796  1.00  0.00     0.007 C 
HETATM    5  C12 UNL     1     -13.844  -8.115   3.166  1.00  0.00     0.027 C 
HETATM    6  C13 UNL     1     -14.139  -8.134   4.637  1.00  0.00     0.167 C 
HETATM    7  O1  UNL     1     -14.171  -9.387   5.196  1.00  0.00    -0.389 OA
HETATM    8  C14 UNL     1     -13.184  -9.686   6.092  1.00  0.00     0.193 C 
HETATM    9  C15 UNL     1     -12.858  -8.618   7.089  1.00  0.00     0.193 C 
HETATM   10  O2  UNL     1     -11.590  -8.124   6.809  1.00  0.00    -0.387 OA
HETATM   11  C16 UNL     1     -11.091  -7.244   7.735  1.00  0.00     0.193 C 
HETATM   12  C17 UNL     1      -9.882  -6.550   7.135  1.00  0.00     0.193 C 
HETATM   13  O3  UNL     1     -10.232  -5.643   6.138  1.00  0.00    -0.389 OA
HETATM   14  C18 UNL     1      -9.103  -5.363   5.406  1.00  0.00     0.172 C 
HETATM   15  C19 UNL     1      -9.369  -5.011   3.959  1.00  0.00     0.071 C 
HETATM   16  C20 UNL     1      -8.556  -5.857   3.014  1.00  0.00     0.070 C 
ENDROOT
BRANCH   1  17
HETATM   17  C8  UNL     1      -9.518  -6.796   0.987  1.00  0.00     0.068 C 
BRANCH  17  18
HETATM   18  C7  UNL     1      -9.910  -5.476   0.430  1.00  0.00     0.049 C 
BRANCH  18  19
HETATM   19  C6  UNL     1     -10.678  -5.521  -0.854  1.00  0.00     0.044 C 
BRANCH  19  20
HETATM   20  C5  UNL     1     -12.098  -5.206  -0.767  1.00  0.00    -0.045 A 
HETATM   21  C4  UNL     1     -12.645  -4.235  -1.600  1.00  0.00     0.009 A 
HETATM   22  C3  UNL     1     -12.141  -3.421  -2.598  1.00  0.00     0.047 A 
HETATM   23  C24 UNL     1     -13.998  -3.921  -1.505  1.00  0.00     0.119 A 
HETATM   24  C2  UNL     1     -13.195  -2.653  -3.065  1.00  0.00     0.051 A 
HETATM   25  C1  UNL     1     -13.063  -1.636  -4.155  1.00  0.00     0.077 C 
HETATM   26  O5  UNL     1     -14.257  -2.985  -2.392  1.00  0.00    -0.312 OA
HETATM   27  C23 UNL     1     -14.801  -4.568  -0.590  1.00  0.00     0.100 A 
HETATM   28  C22 UNL     1     -14.291  -5.525   0.241  1.00  0.00     0.040 A 
HETATM   29  C21 UNL     1     -12.935  -5.816   0.122  1.00  0.00     0.011 A 
BRANCH  27  30
HETATM   30  O4  UNL     1     -16.148  -4.249  -0.501  1.00  0.00    -0.358 OA
ATOM     31  H4  UNL     1     -16.432  -3.631   0.162  1.00  0.00     0.217 HD
ENDBRANCH  27  30
ENDBRANCH  19  20
ENDBRANCH  18  19
ENDBRANCH  17  18
ENDBRANCH   1  17
TORSDOF 5
ENDMDL
MODEL 5
REMARK VINA RESULT: -7.928627222      1.953      2.954
REMARK  5 active torsions:
REMARK  status: ('A' for Active; 'I' for Inactive)
REMARK    1  A    between atoms: C5_5  and  C6_6 
REMARK    2  A    between atoms: C6_6  and  C7_7 
REMARK    3  A    between atoms: C7_7  and  C8_8 
REMARK    4  A    between atoms: C8_8  and  N1_9 
REMARK    5  A    between atoms: C23_27  and  O4_28 
ROOT
HETATM    1  N1  UNL     1     -11.595  -6.360   1.859  1.00  0.00    -0.354 N 
HETATM    2  C9  UNL     1     -10.454  -6.085   2.641  1.00  0.00     0.068 C 
HETATM    3  C10 UNL     1      -9.715  -7.340   2.997  1.00  0.00     0.045 C 
HETATM    4  C11 UNL     1      -8.235  -7.239   2.690  1.00  0.00     0.007 C 
HETATM    5  C12 UNL     1      -7.523  -8.334   3.409  1.00  0.00     0.027 C 
HETATM    6  C13 UNL     1      -7.362  -8.125   4.887  1.00  0.00     0.167 C 
HETATM    7  O1  UNL     1      -6.483  -7.129   5.230  1.00  0.00    -0.389 OA
HETATM    8  C14 UNL     1      -7.011  -6.021   5.829  1.00  0.00     0.193 C 
HETATM    9  C15 UNL     1      -8.037  -6.277   6.891  1.00  0.00     0.193 C 
HETATM   10  O2  UNL     1      -9.271  -5.844   6.425  1.00  0.00    -0.387 OA
HETATM   11  C16 UNL     1     -10.284  -5.872   7.350  1.00  0.00     0.193 C 
HETATM   12  C17 UNL     1     -11.605  -5.704   6.622  1.00  0.00     0.193 C 
HETATM   13  O3  UNL     1     -11.951  -6.833   5.884  1.00  0.00    -0.389 OA
HETATM   14  C18 UNL     1     -12.918  -6.466   4.979  1.00  0.00     0.172 C 
HETATM   15  C19 UNL     1     -12.916  -7.275   3.701  1.00  0.00     0.071 C 
HETATM   16  C20 UNL     1     -12.858  -6.397   2.478  1.00  0.00     0.070 C 
ENDROOT
BRANCH   1  17
HETATM   17  C8  UNL     1     -11.428  -6.933   0.584  1.00  0.00     0.068 C 
BRANCH  17  18
HETATM   18  C7  UNL     1     -10.980  -6.036  -0.512  1.00  0.00     0.049 C 
BRANCH  18  19
HETATM   19  C6  UNL     1     -11.283  -4.584  -0.321  1.00  0.00     0.044 C 
BRANCH  19  20
HETATM   20  C5  UNL     1     -12.552  -4.113  -0.861  1.00  0.00    -0.045 A 
HETATM   21  C4  UNL     1     -12.580  -3.443  -2.081  1.00  0.00     0.009 A 
HETATM   22  C3  UNL     1     -11.622  -3.087  -3.011  1.00  0.00     0.047 A 
HETATM   23  C24 UNL     1     -13.790  -2.977  -2.589  1.00  0.00     0.119 A 
HETATM   24  C2  UNL     1     -12.278  -2.425  -4.036  1.00  0.00     0.051 A 
HETATM   25  C1  UNL     1     -11.590  -1.874  -5.245  1.00  0.00     0.077 C 
HETATM   26  O5  UNL     1     -13.544  -2.389  -3.739  1.00  0.00    -0.312 OA
HETATM   27  C23 UNL     1     -14.962  -3.175  -1.890  1.00  0.00     0.100 A 
HETATM   28  C22 UNL     1     -14.964  -3.829  -0.690  1.00  0.00     0.040 A 
HETATM   29  C21 UNL     1     -13.739  -4.282  -0.209  1.00  0.00     0.011 A 
BRANCH  27  30
HETATM   30  O4  UNL     1     -16.164  -2.708  -2.403  1.00  0.00    -0.358 OA
ATOM     31  H4  UNL     1     -16.408  -1.802  -2.250  1.00  0.00     0.217 HD
ENDBRANCH  27  30
ENDBRANCH  19  20
ENDBRANCH  18  19
ENDBRANCH  17  18
ENDBRANCH   1  17
TORSDOF 5
ENDMDL
