MODEL 1
REMARK VINA RESULT: -7.374161316      0.000      0.000
REMARK  3 active torsions:
REMARK  status: ('A' for Active; 'I' for Inactive)
REMARK    1  A    between atoms: C5_7  and  C6_8 
REMARK    2  A    between atoms: C6_8  and  N2_9 
REMARK    3  A    between atoms: C13_17  and  C14_18 
ROOT
HETATM    1  C1  UNL     1      -6.759  -9.530   2.827  1.00  0.00     0.232 C 
HETATM    2  N1  UNL     1      -7.722  -9.052   3.269  1.00  0.00    -0.404 NA
HETATM    3  C2  UNL     1      -8.839  -8.471   3.857  1.00  0.00     0.227 A 
HETATM    4  O1  UNL     1      -9.011  -8.500   5.174  1.00  0.00    -0.286 OA
HETATM    5  C3  UNL     1     -10.088  -7.906   5.515  1.00  0.00     0.061 A 
HETATM    6  C4  UNL     1     -10.580  -7.779   6.916  1.00  0.00     0.077 C 
HETATM    7  C5  UNL     1     -10.714  -7.413   4.332  1.00  0.00     0.001 A 
HETATM    8  C13 UNL     1      -9.897  -7.812   3.310  1.00  0.00     0.025 A 
ENDROOT
BRANCH   8   9
HETATM    9  C14 UNL     1     -10.213  -7.606   1.861  1.00  0.00     0.060 C 
HETATM   10  C15 UNL     1      -8.936  -7.054   1.255  1.00  0.00     0.176 C 
HETATM   11  C16 UNL     1      -8.668  -5.859   2.187  1.00  0.00     0.073 C 
HETATM   12  C17 UNL     1      -9.036  -6.450  -0.103  1.00  0.00     0.136 C 
HETATM   13  N3  UNL     1      -8.491  -4.953   2.909  1.00  0.00    -0.196 NA
HETATM   14  N4  UNL     1      -8.315  -6.781  -1.100  1.00  0.00    -0.382 N 
HETATM   15  O3  UNL     1      -9.996  -5.470  -0.197  1.00  0.00    -0.301 OA
ATOM     16  H42 UNL     1      -7.602  -7.508  -1.030  1.00  0.00     0.158 HD
ATOM     17  H41 UNL     1      -8.383  -6.366  -2.030  1.00  0.00     0.158 HD
HETATM   18  C18 UNL     1     -11.176  -5.754   0.406  1.00  0.00     0.056 C 
HETATM   19  C19 UNL     1     -12.158  -4.963  -0.005  1.00  0.00     0.006 C 
HETATM   20  C24 UNL     1     -11.360  -6.846   1.439  1.00  0.00     0.053 C 
HETATM   21  C20 UNL     1     -13.613  -4.993   0.442  1.00  0.00     0.029 C 
HETATM   22  C21 UNL     1     -14.230  -6.250  -0.208  1.00  0.00     0.004 C 
HETATM   23  C22 UNL     1     -13.052  -7.199  -0.441  1.00  0.00     0.001 C 
HETATM   24  C23 UNL     1     -12.450  -7.722   0.824  1.00  0.00     0.012 C 
ENDBRANCH   8   9
BRANCH   7  25
HETATM   25  C6  UNL     1     -11.892  -6.561   4.596  1.00  0.00     0.159 C 
BRANCH  25  26
HETATM   26  N2  UNL     1     -13.023  -7.416   5.054  1.00  0.00    -0.406 N 
HETATM   27  C7  UNL     1     -13.458  -8.357   4.097  1.00  0.00     0.117 C 
HETATM   28  C8  UNL     1     -14.921  -8.598   3.952  1.00  0.00     0.021 C 
HETATM   29  C9  UNL     1     -15.606  -9.344   5.033  1.00  0.00     0.028 C 
HETATM   30  C10 UNL     1     -14.760  -9.818   6.158  1.00  0.00     0.167 C 
HETATM   31  O2  UNL     1     -14.093  -8.866   6.840  1.00  0.00    -0.390 OA
HETATM   32  C11 UNL     1     -14.576  -7.613   6.933  1.00  0.00     0.187 C 
HETATM   33  C12 UNL     1     -14.026  -6.752   5.782  1.00  0.00     0.143 C 
ENDBRANCH  25  26
ENDBRANCH   7  25
TORSDOF 3
ENDMDL
MODEL 2
REMARK VINA RESULT: -7.143960603      1.943      6.054
REMARK  3 active torsions:
REMARK  status: ('A' for Active; 'I' for Inactive)
REMARK    1  A    between atoms: C5_7  and  C6_8 
REMARK    2  A    between atoms: C6_8  and  N2_9 
REMARK    3  A    between atoms: C13_17  and  C14_18 
ROOT
HETATM    1  C1  UNL     1     -11.820 -11.935   4.329  1.00  0.00     0.232 C 
HETATM    2  N1  UNL     1     -11.494 -10.864   4.018  1.00  0.00    -0.404 NA
HETATM    3  C2  UNL     1     -11.063  -9.611   3.596  1.00  0.00     0.227 A 
HETATM    4  O1  UNL     1      -9.889  -9.459   2.994  1.00  0.00    -0.286 OA
HETATM    5  C3  UNL     1      -9.684  -8.240   2.676  1.00  0.00     0.061 A 
HETATM    6  C4  UNL     1      -8.454  -7.733   2.005  1.00  0.00     0.077 C 
HETATM    7  C5  UNL     1     -10.820  -7.480   3.086  1.00  0.00     0.001 A 
HETATM    8  C13 UNL     1     -11.655  -8.388   3.679  1.00  0.00     0.025 A 
ENDROOT
BRANCH   8   9
HETATM    9  C14 UNL     1     -12.937  -8.021   4.359  1.00  0.00     0.060 C 
HETATM   10  C15 UNL     1     -12.526  -7.125   5.513  1.00  0.00     0.176 C 
HETATM   11  C16 UNL     1     -11.483  -8.016   6.212  1.00  0.00     0.073 C 
HETATM   12  C17 UNL     1     -13.549  -6.860   6.563  1.00  0.00     0.136 C 
HETATM   13  N3  UNL     1     -10.698  -8.717   6.726  1.00  0.00    -0.196 NA
HETATM   14  N4  UNL     1     -13.905  -5.699   6.953  1.00  0.00    -0.382 N 
HETATM   15  O3  UNL     1     -14.093  -8.002   7.099  1.00  0.00    -0.301 OA
ATOM     16  H42 UNL     1     -13.502  -4.851   6.555  1.00  0.00     0.158 HD
ATOM     17  H41 UNL     1     -14.606  -5.518   7.671  1.00  0.00     0.158 HD
HETATM   18  C18 UNL     1     -14.410  -8.970   6.204  1.00  0.00     0.056 C 
HETATM   19  C19 UNL     1     -15.235  -9.876   6.709  1.00  0.00     0.006 C 
HETATM   20  C24 UNL     1     -13.879  -9.021   4.787  1.00  0.00     0.053 C 
HETATM   21  C20 UNL     1     -15.810 -11.095   6.001  1.00  0.00     0.029 C 
HETATM   22  C21 UNL     1     -16.863 -10.552   5.011  1.00  0.00     0.004 C 
HETATM   23  C22 UNL     1     -16.430  -9.115   4.713  1.00  0.00     0.001 C 
HETATM   24  C23 UNL     1     -15.152  -9.027   3.943  1.00  0.00     0.012 C 
ENDBRANCH   8   9
BRANCH   7  25
HETATM   25  C6  UNL     1     -10.786  -6.075   2.633  1.00  0.00     0.159 C 
BRANCH  25  26
HETATM   26  N2  UNL     1     -11.763  -5.894   1.522  1.00  0.00    -0.406 N 
HETATM   27  C7  UNL     1     -13.104  -5.781   1.946  1.00  0.00     0.117 C 
HETATM   28  C8  UNL     1     -14.161  -6.464   1.149  1.00  0.00     0.021 C 
HETATM   29  C9  UNL     1     -14.504  -5.891  -0.173  1.00  0.00     0.028 C 
HETATM   30  C10 UNL     1     -13.783  -4.657  -0.574  1.00  0.00     0.167 C 
HETATM   31  O2  UNL     1     -12.439  -4.750  -0.639  1.00  0.00    -0.390 OA
HETATM   32  C11 UNL     1     -11.839  -5.921  -0.923  1.00  0.00     0.187 C 
HETATM   33  C12 UNL     1     -11.530  -6.681   0.380  1.00  0.00     0.143 C 
ENDBRANCH  25  26
ENDBRANCH   7  25
TORSDOF 3
ENDMDL
MODEL 3
REMARK VINA RESULT: -6.835988333      2.248      3.587
REMARK  3 active torsions:
REMARK  status: ('A' for Active; 'I' for Inactive)
REMARK    1  A    between atoms: C5_7  and  C6_8 
REMARK    2  A    between atoms: C6_8  and  N2_9 
REMARK    3  A    between atoms: C13_17  and  C14_18 
ROOT
HETATM    1  C1  UNL     1      -8.531  -4.569   4.365  1.00  0.00     0.232 C 
HETATM    2  N1  UNL     1      -9.492  -4.980   4.874  1.00  0.00    -0.404 NA
HETATM    3  C2  UNL     1     -10.641  -5.414   5.525  1.00  0.00     0.227 A 
HETATM    4  O1  UNL     1     -10.898  -5.048   6.775  1.00  0.00    -0.286 OA
HETATM    5  C3  UNL     1     -12.001  -5.542   7.187  1.00  0.00     0.061 A 
HETATM    6  C4  UNL     1     -12.566  -5.338   8.550  1.00  0.00     0.077 C 
HETATM    7  C5  UNL     1     -12.564  -6.311   6.125  1.00  0.00     0.001 A 
HETATM    8  C13 UNL     1     -11.658  -6.215   5.103  1.00  0.00     0.025 A 
ENDROOT
BRANCH   8   9
HETATM    9  C14 UNL     1     -11.781  -6.957   3.809  1.00  0.00     0.060 C 
HETATM   10  C15 UNL     1     -11.621  -8.420   4.179  1.00  0.00     0.176 C 
HETATM   11  C16 UNL     1     -10.288  -8.378   4.948  1.00  0.00     0.073 C 
HETATM   12  C17 UNL     1     -11.377  -9.378   3.064  1.00  0.00     0.136 C 
HETATM   13  N3  UNL     1      -9.269  -8.319   5.523  1.00  0.00    -0.196 NA
HETATM   14  N4  UNL     1     -12.066 -10.427   2.844  1.00  0.00    -0.382 N 
HETATM   15  O3  UNL     1     -10.310  -9.033   2.269  1.00  0.00    -0.301 OA
ATOM     16  H42 UNL     1     -12.858 -10.683   3.435  1.00  0.00     0.158 HD
ATOM     17  H41 UNL     1     -11.899 -11.083   2.081  1.00  0.00     0.158 HD
HETATM   18  C18 UNL     1     -10.231  -7.720   1.941  1.00  0.00     0.056 C 
HETATM   19  C19 UNL     1      -9.421  -7.503   0.914  1.00  0.00     0.006 C 
HETATM   20  C24 UNL     1     -10.976  -6.618   2.665  1.00  0.00     0.053 C 
HETATM   21  C20 UNL     1      -9.095  -6.165   0.265  1.00  0.00     0.029 C 
HETATM   22  C21 UNL     1     -10.357  -5.759  -0.526  1.00  0.00     0.004 C 
HETATM   23  C22 UNL     1     -11.516  -6.476   0.173  1.00  0.00     0.001 C 
HETATM   24  C23 UNL     1     -11.788  -5.962   1.550  1.00  0.00     0.012 C 
ENDBRANCH   8   9
BRANCH   7  25
HETATM   25  C6  UNL     1     -13.925  -6.807   6.411  1.00  0.00     0.159 C 
BRANCH  25  26
HETATM   26  N2  UNL     1     -13.885  -8.290   6.560  1.00  0.00    -0.406 N 
HETATM   27  C7  UNL     1     -14.742  -8.981   5.678  1.00  0.00     0.117 C 
HETATM   28  C8  UNL     1     -15.492 -10.161   6.195  1.00  0.00     0.021 C 
HETATM   29  C9  UNL     1     -14.727 -11.399   6.462  1.00  0.00     0.028 C 
HETATM   30  C10 UNL     1     -13.274 -11.367   6.157  1.00  0.00     0.167 C 
HETATM   31  O2  UNL     1     -12.552 -10.433   6.809  1.00  0.00    -0.390 OA
HETATM   32  C11 UNL     1     -12.924  -9.995   8.027  1.00  0.00     0.187 C 
HETATM   33  C12 UNL     1     -13.834  -8.762   7.884  1.00  0.00     0.143 C 
ENDBRANCH  25  26
ENDBRANCH   7  25
TORSDOF 3
ENDMDL
MODEL 4
REMARK VINA RESULT: -6.789369971      2.213      5.901
REMARK  3 active torsions:
REMARK  status: ('A' for Active; 'I' for Inactive)
REMARK    1  A    between atoms: C5_7  and  C6_8 
REMARK    2  A    between atoms: C6_8  and  N2_9 
REMARK    3  A    between atoms: C13_17  and  C14_18 
ROOT
HETATM    1  C1  UNL     1     -11.792  -5.347   7.404  1.00  0.00     0.232 C 
HETATM    2  N1  UNL     1     -12.018  -5.953   6.439  1.00  0.00    -0.404 NA
HETATM    3  C2  UNL     1     -12.358  -6.667   5.295  1.00  0.00     0.227 A 
HETATM    4  O1  UNL     1     -13.546  -7.248   5.180  1.00  0.00    -0.286 OA
HETATM    5  C3  UNL     1     -13.666  -7.843   4.056  1.00  0.00     0.061 A 
HETATM    6  C4  UNL     1     -14.870  -8.606   3.624  1.00  0.00     0.077 C 
HETATM    7  C5  UNL     1     -12.457  -7.649   3.324  1.00  0.00     0.001 A 
HETATM    8  C13 UNL     1     -11.655  -6.916   4.156  1.00  0.00     0.025 A 
ENDROOT
BRANCH   8   9
HETATM    9  C14 UNL     1     -10.234  -6.561   3.845  1.00  0.00     0.060 C 
HETATM   10  C15 UNL     1      -9.668  -7.787   3.151  1.00  0.00     0.176 C 
HETATM   11  C16 UNL     1     -10.006  -8.882   4.178  1.00  0.00     0.073 C 
HETATM   12  C17 UNL     1      -8.187  -7.859   3.006  1.00  0.00     0.136 C 
HETATM   13  N3  UNL     1     -10.272  -9.694   4.980  1.00  0.00    -0.196 NA
HETATM   14  N4  UNL     1      -7.573  -8.048   1.905  1.00  0.00    -0.382 N 
HETATM   15  O3  UNL     1      -7.512  -7.707   4.194  1.00  0.00    -0.301 OA
ATOM     16  H42 UNL     1      -8.074  -8.161   1.023  1.00  0.00     0.158 HD
ATOM     17  H41 UNL     1      -6.559  -8.098   1.807  1.00  0.00     0.158 HD
HETATM   18  C18 UNL     1      -7.975  -6.721   5.002  1.00  0.00     0.056 C 
HETATM   19  C19 UNL     1      -7.100  -6.384   5.940  1.00  0.00     0.006 C 
HETATM   20  C24 UNL     1      -9.337  -6.077   4.859  1.00  0.00     0.053 C 
HETATM   21  C20 UNL     1      -7.267  -5.318   7.014  1.00  0.00     0.029 C 
HETATM   22  C21 UNL     1      -7.147  -3.962   6.286  1.00  0.00     0.004 C 
HETATM   23  C22 UNL     1      -7.556  -4.247   4.839  1.00  0.00     0.001 C 
HETATM   24  C23 UNL     1      -9.001  -4.597   4.687  1.00  0.00     0.012 C 
ENDBRANCH   8   9
BRANCH   7  25
HETATM   25  C6  UNL     1     -12.520  -8.148   1.935  1.00  0.00     0.159 C 
BRANCH  25  26
HETATM   26  N2  UNL     1     -12.710  -6.997   1.008  1.00  0.00    -0.406 N 
HETATM   27  C7  UNL     1     -13.986  -6.398   1.086  1.00  0.00     0.117 C 
HETATM   28  C8  UNL     1     -14.645  -5.965  -0.178  1.00  0.00     0.021 C 
HETATM   29  C9  UNL     1     -14.100  -4.773  -0.865  1.00  0.00     0.028 C 
HETATM   30  C10 UNL     1     -12.956  -4.089  -0.211  1.00  0.00     0.167 C 
HETATM   31  O2  UNL     1     -11.852  -4.838  -0.012  1.00  0.00    -0.390 OA
HETATM   32  C11 UNL     1     -11.556  -5.866  -0.829  1.00  0.00     0.187 C 
HETATM   33  C12 UNL     1     -12.174  -7.165  -0.282  1.00  0.00     0.143 C 
ENDBRANCH  25  26
ENDBRANCH   7  25
TORSDOF 3
ENDMDL
MODEL 5
REMARK VINA RESULT: -6.657124591      2.403      4.991
REMARK  3 active torsions:
REMARK  status: ('A' for Active; 'I' for Inactive)
REMARK    1  A    between atoms: C5_7  and  C6_8 
REMARK    2  A    between atoms: C6_8  and  N2_9 
REMARK    3  A    between atoms: C13_17  and  C14_18 
ROOT
HETATM    1  C1  UNL     1     -14.128  -6.457   0.359  1.00  0.00     0.232 C 
HETATM    2  N1  UNL     1     -13.881  -6.832   1.431  1.00  0.00    -0.404 NA
HETATM    3  C2  UNL     1     -13.636  -7.328   2.706  1.00  0.00     0.227 A 
HETATM    4  O1  UNL     1     -14.589  -7.947   3.393  1.00  0.00    -0.286 OA
HETATM    5  C3  UNL     1     -14.163  -8.336   4.532  1.00  0.00     0.061 A 
HETATM    6  C4  UNL     1     -14.989  -9.044   5.550  1.00  0.00     0.077 C 
HETATM    7  C5  UNL     1     -12.791  -7.963   4.641  1.00  0.00     0.001 A 
HETATM    8  C13 UNL     1     -12.510  -7.312   3.470  1.00  0.00     0.025 A 
ENDROOT
BRANCH   8   9
HETATM    9  C14 UNL     1     -11.200  -6.645   3.181  1.00  0.00     0.060 C 
HETATM   10  C15 UNL     1     -10.673  -7.340   1.939  1.00  0.00     0.176 C 
HETATM   11  C16 UNL     1     -10.733  -8.812   2.385  1.00  0.00     0.073 C 
HETATM   12  C17 UNL     1      -9.241  -7.115   1.594  1.00  0.00     0.136 C 
HETATM   13  N3  UNL     1     -10.785  -9.924   2.751  1.00  0.00    -0.196 NA
HETATM   14  N4  UNL     1      -8.822  -6.706   0.462  1.00  0.00    -0.382 N 
HETATM   15  O3  UNL     1      -8.378  -7.400   2.626  1.00  0.00    -0.301 OA
ATOM     16  H42 UNL     1      -9.463  -6.495  -0.304  1.00  0.00     0.158 HD
ATOM     17  H41 UNL     1      -7.842  -6.553   0.226  1.00  0.00     0.158 HD
HETATM   18  C18 UNL     1      -8.764  -6.952   3.846  1.00  0.00     0.056 C 
HETATM   19  C19 UNL     1      -7.764  -6.932   4.717  1.00  0.00     0.006 C 
HETATM   20  C24 UNL     1     -10.176  -6.525   4.185  1.00  0.00     0.053 C 
HETATM   21  C20 UNL     1      -7.819  -6.485   6.171  1.00  0.00     0.029 C 
HETATM   22  C21 UNL     1      -7.940  -4.946   6.136  1.00  0.00     0.004 C 
HETATM   23  C22 UNL     1      -8.578  -4.625   4.782  1.00  0.00     0.001 C 
HETATM   24  C23 UNL     1      -9.995  -5.088   4.669  1.00  0.00     0.012 C 
ENDBRANCH   8   9
BRANCH   7  25
HETATM   25  C6  UNL     1     -12.126  -8.497   5.847  1.00  0.00     0.159 C 
BRANCH  25  26
HETATM   26  N2  UNL     1     -12.260  -7.511   6.957  1.00  0.00    -0.406 N 
HETATM   27  C7  UNL     1     -12.565  -8.090   8.208  1.00  0.00     0.117 C 
HETATM   28  C8  UNL     1     -13.544  -7.397   9.092  1.00  0.00     0.021 C 
HETATM   29  C9  UNL     1     -13.110  -6.143   9.749  1.00  0.00     0.028 C 
HETATM   30  C10 UNL     1     -11.715  -5.703   9.495  1.00  0.00     0.167 C 
HETATM   31  O2  UNL     1     -11.389  -5.481   8.205  1.00  0.00    -0.390 OA
HETATM   32  C11 UNL     1     -12.319  -5.092   7.313  1.00  0.00     0.187 C 
HETATM   33  C12 UNL     1     -12.941  -6.324   6.633  1.00  0.00     0.143 C 
ENDBRANCH  25  26
ENDBRANCH   7  25
TORSDOF 3
ENDMDL
