MODEL 1
REMARK VINA RESULT: -7.738593573      0.000      0.000
REMARK  6 active torsions:
REMARK  status: ('A' for Active; 'I' for Inactive)
REMARK    1  A    between atoms: C2_2  and  C4_4 
REMARK    2  A    between atoms: C7_7  and  N1_8 
REMARK       I    between atoms: N1_8  and  C8_10 
REMARK    3  A    between atoms: C8_10  and  C9_12 
REMARK    4  A    between atoms: C10_16  and  C11_17 
REMARK       I    between atoms: N3_21  and  C15_22 
REMARK    5  A    between atoms: C15_22  and  O4_24 
REMARK    6  A    between atoms: O4_24  and  C16_25 
ROOT
HETATM    1  C9  UNL     1     -13.151  -7.196   2.318  1.00  0.00     0.196 A 
HETATM    2  N2  UNL     1     -12.104  -7.402   3.147  1.00  0.00    -0.238 N 
ATOM      3  H2  UNL     1     -11.127  -7.219   2.921  1.00  0.00     0.196 HD
HETATM    4  O2  UNL     1     -12.543  -7.875   4.285  1.00  0.00    -0.222 OA
HETATM    5  C10 UNL     1     -13.848  -7.995   4.256  1.00  0.00     0.154 A 
HETATM    6  N4  UNL     1     -14.227  -7.573   3.031  1.00  0.00    -0.318 N 
ATOM      7  H4  UNL     1     -15.191  -7.544   2.695  1.00  0.00     0.169 HD
ENDROOT
BRANCH   1   8
HETATM    8  C8  UNL     1     -13.089  -6.681   0.966  1.00  0.00     0.287 C 
HETATM    9  N1  UNL     1     -13.343  -5.320   0.686  1.00  0.00    -0.350 N 
ATOM     10  H1  UNL     1     -13.574  -4.702   1.464  1.00  0.00     0.163 HD
HETATM   11  O1  UNL     1     -12.805  -7.456   0.030  1.00  0.00    -0.264 OA
BRANCH   9  12
HETATM   12  C7  UNL     1     -13.294  -4.762  -0.633  1.00  0.00     0.084 C 
HETATM   13  C6  UNL     1     -11.878  -4.409  -0.972  1.00  0.00     0.025 C 
HETATM   14  C5  UNL     1     -11.811  -3.166  -1.830  1.00  0.00     0.007 C 
HETATM   15  C4  UNL     1     -12.949  -3.169  -2.807  1.00  0.00    -0.011 C 
HETATM   16  C22 UNL     1     -14.285  -3.059  -2.112  1.00  0.00     0.007 C 
HETATM   17  C21 UNL     1     -14.187  -3.538  -0.678  1.00  0.00     0.025 C 
BRANCH  15  18
HETATM   18  C2  UNL     1     -12.826  -2.032  -3.779  1.00  0.00    -0.019 C 
HETATM   19  C1  UNL     1     -11.921  -2.407  -4.922  1.00  0.00     0.010 C 
HETATM   20  C3  UNL     1     -14.206  -1.628  -4.281  1.00  0.00     0.010 C 
ENDBRANCH  15  18
ENDBRANCH   9  12
ENDBRANCH   1   8
BRANCH   5  21
HETATM   21  C11 UNL     1     -14.735  -8.500   5.359  1.00  0.00     0.081 C 
HETATM   22  C12 UNL     1     -15.194  -7.400   6.254  1.00  0.00     0.016 C 
HETATM   23  C13 UNL     1     -15.775  -8.007   7.511  1.00  0.00     0.021 C 
HETATM   24  C14 UNL     1     -16.371  -9.382   7.240  1.00  0.00     0.128 C 
HETATM   25  N3  UNL     1     -16.854  -9.434   5.890  1.00  0.00    -0.327 N 
HETATM   26  C15 UNL     1     -18.201  -9.712   5.613  1.00  0.00     0.363 C 
HETATM   27  C20 UNL     1     -15.950  -9.199   4.799  1.00  0.00     0.141 C 
HETATM   28  O3  UNL     1     -18.689  -9.772   4.455  1.00  0.00    -0.238 OA
BRANCH  26  29
HETATM   29  O4  UNL     1     -19.072  -9.937   6.667  1.00  0.00    -0.294 OA
BRANCH  29  30
HETATM   30  C16 UNL     1     -19.907  -8.923   7.145  1.00  0.00     0.061 C 
HETATM   31  C17 UNL     1     -19.614  -7.584   6.525  1.00  0.00     0.046 C 
HETATM   32  C18 UNL     1     -21.337  -9.293   6.726  1.00  0.00     0.046 C 
HETATM   33  C19 UNL     1     -19.820  -8.839   8.661  1.00  0.00     0.046 C 
ENDBRANCH  29  30
ENDBRANCH  26  29
ENDBRANCH   5  21
TORSDOF 6
ENDMDL
MODEL 2
REMARK VINA RESULT: -7.688856461      3.823      5.468
REMARK  6 active torsions:
REMARK  status: ('A' for Active; 'I' for Inactive)
REMARK    1  A    between atoms: C2_2  and  C4_4 
REMARK    2  A    between atoms: C7_7  and  N1_8 
REMARK       I    between atoms: N1_8  and  C8_10 
REMARK    3  A    between atoms: C8_10  and  C9_12 
REMARK    4  A    between atoms: C10_16  and  C11_17 
REMARK       I    between atoms: N3_21  and  C15_22 
REMARK    5  A    between atoms: C15_22  and  O4_24 
REMARK    6  A    between atoms: O4_24  and  C16_25 
ROOT
HETATM    1  C9  UNL     1     -13.582  -6.970   2.446  1.00  0.00     0.196 A 
HETATM    2  N2  UNL     1     -14.443  -7.775   3.104  1.00  0.00    -0.238 N 
ATOM      3  H2  UNL     1     -15.342  -8.099   2.746  1.00  0.00     0.196 HD
HETATM    4  O2  UNL     1     -13.943  -8.075   4.275  1.00  0.00    -0.222 OA
HETATM    5  C10 UNL     1     -12.774  -7.501   4.432  1.00  0.00     0.154 A 
HETATM    6  N4  UNL     1     -12.549  -6.812   3.292  1.00  0.00    -0.318 N 
ATOM      7  H4  UNL     1     -11.717  -6.254   3.102  1.00  0.00     0.169 HD
ENDROOT
BRANCH   1   8
HETATM    8  C8  UNL     1     -13.765  -6.416   1.120  1.00  0.00     0.287 C 
HETATM    9  N1  UNL     1     -12.950  -5.365   0.643  1.00  0.00    -0.350 N 
ATOM     10  H1  UNL     1     -12.223  -5.000   1.260  1.00  0.00     0.163 HD
HETATM   11  O1  UNL     1     -14.660  -6.878   0.383  1.00  0.00    -0.264 OA
BRANCH   9  12
HETATM   12  C7  UNL     1     -13.090  -4.784  -0.659  1.00  0.00     0.084 C 
HETATM   13  C6  UNL     1     -11.735  -4.451  -1.204  1.00  0.00     0.025 C 
HETATM   14  C5  UNL     1     -11.772  -3.194  -2.043  1.00  0.00     0.007 C 
HETATM   15  C4  UNL     1     -13.045  -3.158  -2.835  1.00  0.00    -0.011 C 
HETATM   16  C22 UNL     1     -14.258  -3.036  -1.943  1.00  0.00     0.007 C 
HETATM   17  C21 UNL     1     -13.953  -3.544  -0.549  1.00  0.00     0.025 C 
BRANCH  15  18
HETATM   18  C2  UNL     1     -13.047  -2.006  -3.797  1.00  0.00    -0.019 C 
HETATM   19  C1  UNL     1     -12.079  -2.254  -4.924  1.00  0.00     0.010 C 
HETATM   20  C3  UNL     1     -14.457  -1.776  -4.326  1.00  0.00     0.010 C 
ENDBRANCH  15  18
ENDBRANCH   9  12
ENDBRANCH   1   8
BRANCH   5  21
HETATM   21  C11 UNL     1     -11.875  -7.594   5.631  1.00  0.00     0.081 C 
HETATM   22  C12 UNL     1     -10.515  -7.049   5.354  1.00  0.00     0.016 C 
HETATM   23  C13 UNL     1      -9.582  -7.485   6.461  1.00  0.00     0.021 C 
HETATM   24  C14 UNL     1     -10.329  -7.673   7.776  1.00  0.00     0.128 C 
HETATM   25  N3  UNL     1     -11.447  -6.775   7.821  1.00  0.00    -0.327 N 
HETATM   26  C15 UNL     1     -11.572  -5.824   8.844  1.00  0.00     0.363 C 
HETATM   27  C20 UNL     1     -12.460  -6.845   6.804  1.00  0.00     0.141 C 
HETATM   28  O3  UNL     1     -12.525  -5.009   8.943  1.00  0.00    -0.238 OA
BRANCH  26  29
HETATM   29  O4  UNL     1     -10.593  -5.757   9.823  1.00  0.00    -0.294 OA
BRANCH  29  30
HETATM   30  C16 UNL     1     -10.849  -6.173  11.133  1.00  0.00     0.061 C 
HETATM   31  C17 UNL     1     -11.879  -7.266  11.208  1.00  0.00     0.046 C 
HETATM   32  C18 UNL     1      -9.541  -6.770  11.671  1.00  0.00     0.046 C 
HETATM   33  C19 UNL     1     -11.265  -4.987  11.990  1.00  0.00     0.046 C 
ENDBRANCH  29  30
ENDBRANCH  26  29
ENDBRANCH   5  21
TORSDOF 6
ENDMDL
MODEL 3
REMARK VINA RESULT: -7.680383319      3.379      4.596
REMARK  6 active torsions:
REMARK  status: ('A' for Active; 'I' for Inactive)
REMARK    1  A    between atoms: C2_2  and  C4_4 
REMARK    2  A    between atoms: C7_7  and  N1_8 
REMARK       I    between atoms: N1_8  and  C8_10 
REMARK    3  A    between atoms: C8_10  and  C9_12 
REMARK    4  A    between atoms: C10_16  and  C11_17 
REMARK       I    between atoms: N3_21  and  C15_22 
REMARK    5  A    between atoms: C15_22  and  O4_24 
REMARK    6  A    between atoms: O4_24  and  C16_25 
ROOT
HETATM    1  C9  UNL     1     -12.856  -7.328   1.895  1.00  0.00     0.196 A 
HETATM    2  N2  UNL     1     -12.043  -8.357   2.221  1.00  0.00    -0.238 N 
ATOM      3  H2  UNL     1     -11.427  -8.850   1.575  1.00  0.00     0.196 HD
HETATM    4  O2  UNL     1     -12.172  -8.621   3.495  1.00  0.00    -0.222 OA
HETATM    5  C10 UNL     1     -13.042  -7.808   4.043  1.00  0.00     0.154 A 
HETATM    6  N4  UNL     1     -13.469  -7.003   3.047  1.00  0.00    -0.318 N 
ATOM      7  H4  UNL     1     -14.156  -6.256   3.153  1.00  0.00     0.169 HD
ENDROOT
BRANCH   1   8
HETATM    8  C8  UNL     1     -13.008  -6.734   0.583  1.00  0.00     0.287 C 
HETATM    9  N1  UNL     1     -13.076  -5.333   0.415  1.00  0.00    -0.350 N 
ATOM     10  H1  UNL     1     -13.015  -4.743   1.245  1.00  0.00     0.163 HD
HETATM   11  O1  UNL     1     -13.080  -7.475  -0.418  1.00  0.00    -0.264 OA
BRANCH   9  12
HETATM   12  C7  UNL     1     -13.225  -4.696  -0.860  1.00  0.00     0.084 C 
HETATM   13  C6  UNL     1     -11.873  -4.359  -1.410  1.00  0.00     0.025 C 
HETATM   14  C5  UNL     1     -11.904  -3.067  -2.195  1.00  0.00     0.007 C 
HETATM   15  C4  UNL     1     -13.187  -2.982  -2.968  1.00  0.00    -0.011 C 
HETATM   16  C22 UNL     1     -14.386  -2.881  -2.055  1.00  0.00     0.007 C 
HETATM   17  C21 UNL     1     -14.070  -3.451  -0.687  1.00  0.00     0.025 C 
BRANCH  15  18
HETATM   18  C2  UNL     1     -13.186  -1.791  -3.881  1.00  0.00    -0.019 C 
HETATM   19  C1  UNL     1     -12.110  -1.925  -4.926  1.00  0.00     0.010 C 
HETATM   20  C3  UNL     1     -14.557  -1.630  -4.523  1.00  0.00     0.010 C 
ENDBRANCH  15  18
ENDBRANCH   9  12
ENDBRANCH   1   8
BRANCH   5  21
HETATM   21  C11 UNL     1     -13.473  -7.781   5.482  1.00  0.00     0.081 C 
HETATM   22  C12 UNL     1     -12.772  -8.815   6.295  1.00  0.00     0.016 C 
HETATM   23  C13 UNL     1     -13.492  -8.964   7.617  1.00  0.00     0.021 C 
HETATM   24  C14 UNL     1     -14.166  -7.662   8.032  1.00  0.00     0.128 C 
HETATM   25  N3  UNL     1     -13.417  -6.553   7.516  1.00  0.00    -0.327 N 
HETATM   26  C15 UNL     1     -12.882  -5.579   8.372  1.00  0.00     0.363 C 
HETATM   27  C20 UNL     1     -13.210  -6.428   6.100  1.00  0.00     0.141 C 
HETATM   28  O3  UNL     1     -12.217  -4.584   7.987  1.00  0.00    -0.238 OA
BRANCH  26  29
HETATM   29  O4  UNL     1     -13.082  -5.702   9.738  1.00  0.00    -0.294 OA
BRANCH  29  30
HETATM   30  C16 UNL     1     -12.084  -6.210  10.574  1.00  0.00     0.061 C 
HETATM   31  C17 UNL     1     -10.900  -6.741   9.814  1.00  0.00     0.046 C 
HETATM   32  C18 UNL     1     -11.569  -5.033  11.414  1.00  0.00     0.046 C 
HETATM   33  C19 UNL     1     -12.657  -7.283  11.487  1.00  0.00     0.046 C 
ENDBRANCH  29  30
ENDBRANCH  26  29
ENDBRANCH   5  21
TORSDOF 6
ENDMDL
MODEL 4
REMARK VINA RESULT: -7.672690672      4.264      7.094
REMARK  6 active torsions:
REMARK  status: ('A' for Active; 'I' for Inactive)
REMARK    1  A    between atoms: C2_2  and  C4_4 
REMARK    2  A    between atoms: C7_7  and  N1_8 
REMARK       I    between atoms: N1_8  and  C8_10 
REMARK    3  A    between atoms: C8_10  and  C9_12 
REMARK    4  A    between atoms: C10_16  and  C11_17 
REMARK       I    between atoms: N3_21  and  C15_22 
REMARK    5  A    between atoms: C15_22  and  O4_24 
REMARK    6  A    between atoms: O4_24  and  C16_25 
ROOT
HETATM    1  C9  UNL     1     -13.354  -6.736   2.557  1.00  0.00     0.196 A 
HETATM    2  N2  UNL     1     -14.110  -7.613   3.253  1.00  0.00    -0.238 N 
ATOM      3  H2  UNL     1     -14.994  -8.011   2.938  1.00  0.00     0.196 HD
HETATM    4  O2  UNL     1     -13.527  -7.871   4.396  1.00  0.00    -0.222 OA
HETATM    5  C10 UNL     1     -12.405  -7.200   4.497  1.00  0.00     0.154 A 
HETATM    6  N4  UNL     1     -12.297  -6.493   3.351  1.00  0.00    -0.318 N 
ATOM      7  H4  UNL     1     -11.526  -5.865   3.122  1.00  0.00     0.169 HD
ENDROOT
BRANCH   1   8
HETATM    8  C8  UNL     1     -13.650  -6.198   1.245  1.00  0.00     0.287 C 
HETATM    9  N1  UNL     1     -12.817  -5.230   0.643  1.00  0.00    -0.350 N 
ATOM     10  H1  UNL     1     -11.994  -4.914   1.157  1.00  0.00     0.163 HD
HETATM   11  O1  UNL     1     -14.662  -6.600   0.634  1.00  0.00    -0.264 OA
BRANCH   9  12
HETATM   12  C7  UNL     1     -13.065  -4.668  -0.652  1.00  0.00     0.084 C 
HETATM   13  C6  UNL     1     -11.760  -4.418  -1.344  1.00  0.00     0.025 C 
HETATM   14  C5  UNL     1     -11.824  -3.177  -2.206  1.00  0.00     0.007 C 
HETATM   15  C4  UNL     1     -13.170  -3.089  -2.860  1.00  0.00    -0.011 C 
HETATM   16  C22 UNL     1     -14.273  -2.886  -1.849  1.00  0.00     0.007 C 
HETATM   17  C21 UNL     1     -13.848  -3.382  -0.482  1.00  0.00     0.025 C 
BRANCH  15  18
HETATM   18  C2  UNL     1     -13.216  -1.958  -3.846  1.00  0.00    -0.019 C 
HETATM   19  C1  UNL     1     -12.214  -2.173  -4.948  1.00  0.00     0.010 C 
HETATM   20  C3  UNL     1     -14.626  -1.816  -4.405  1.00  0.00     0.010 C 
ENDBRANCH  15  18
ENDBRANCH   9  12
ENDBRANCH   1   8
BRANCH   5  21
HETATM   21  C11 UNL     1     -11.442  -7.217   5.649  1.00  0.00     0.081 C 
HETATM   22  C12 UNL     1     -10.474  -8.347   5.553  1.00  0.00     0.016 C 
HETATM   23  C13 UNL     1      -9.782  -8.510   6.887  1.00  0.00     0.021 C 
HETATM   24  C14 UNL     1      -9.690  -7.184   7.631  1.00  0.00     0.128 C 
HETATM   25  N3  UNL     1      -9.610  -6.110   6.682  1.00  0.00    -0.327 N 
HETATM   26  C15 UNL     1      -8.518  -5.231   6.674  1.00  0.00     0.363 C 
HETATM   27  C20 UNL     1     -10.663  -5.926   5.722  1.00  0.00     0.141 C 
HETATM   28  O3  UNL     1      -8.385  -4.271   5.872  1.00  0.00    -0.238 OA
BRANCH  26  29
HETATM   29  O4  UNL     1      -7.502  -5.411   7.600  1.00  0.00    -0.294 OA
BRANCH  29  30
HETATM   30  C16 UNL     1      -6.251  -5.902   7.216  1.00  0.00     0.061 C 
HETATM   31  C17 UNL     1      -5.240  -4.811   6.991  1.00  0.00     0.046 C 
HETATM   32  C18 UNL     1      -5.728  -6.745   8.388  1.00  0.00     0.046 C 
HETATM   33  C19 UNL     1      -6.383  -6.771   5.975  1.00  0.00     0.046 C 
ENDBRANCH  29  30
ENDBRANCH  26  29
ENDBRANCH   5  21
TORSDOF 6
ENDMDL
MODEL 5
REMARK VINA RESULT: -7.658912643      2.794      3.559
REMARK  6 active torsions:
REMARK  status: ('A' for Active; 'I' for Inactive)
REMARK    1  A    between atoms: C2_2  and  C4_4 
REMARK    2  A    between atoms: C7_7  and  N1_8 
REMARK       I    between atoms: N1_8  and  C8_10 
REMARK    3  A    between atoms: C8_10  and  C9_12 
REMARK    4  A    between atoms: C10_16  and  C11_17 
REMARK       I    between atoms: N3_21  and  C15_22 
REMARK    5  A    between atoms: C15_22  and  O4_24 
REMARK    6  A    between atoms: O4_24  and  C16_25 
ROOT
HETATM    1  C9  UNL     1     -13.868  -6.991   2.433  1.00  0.00     0.196 A 
HETATM    2  N2  UNL     1     -13.070  -6.553   3.432  1.00  0.00    -0.238 N 
ATOM      3  H2  UNL     1     -12.411  -5.778   3.364  1.00  0.00     0.196 HD
HETATM    4  O2  UNL     1     -13.277  -7.280   4.499  1.00  0.00    -0.222 OA
HETATM    5  C10 UNL     1     -14.187  -8.194   4.258  1.00  0.00     0.154 A 
HETATM    6  N4  UNL     1     -14.554  -8.014   2.971  1.00  0.00    -0.318 N 
ATOM      7  H4  UNL     1     -15.252  -8.573   2.479  1.00  0.00     0.169 HD
ENDROOT
BRANCH   1   8
HETATM    8  C8  UNL     1     -13.940  -6.452   1.091  1.00  0.00     0.287 C 
HETATM    9  N1  UNL     1     -13.171  -5.331   0.706  1.00  0.00    -0.350 N 
ATOM     10  H1  UNL     1     -12.559  -4.905   1.402  1.00  0.00     0.163 HD
HETATM   11  O1  UNL     1     -14.697  -6.990   0.257  1.00  0.00    -0.264 OA
BRANCH   9  12
HETATM   12  C7  UNL     1     -13.207  -4.761  -0.608  1.00  0.00     0.084 C 
HETATM   13  C6  UNL     1     -11.807  -4.506  -1.077  1.00  0.00     0.025 C 
HETATM   14  C5  UNL     1     -11.732  -3.259  -1.930  1.00  0.00     0.007 C 
HETATM   15  C4  UNL     1     -12.954  -3.169  -2.795  1.00  0.00    -0.011 C 
HETATM   16  C22 UNL     1     -14.207  -2.973  -1.975  1.00  0.00     0.007 C 
HETATM   17  C21 UNL     1     -14.009  -3.477  -0.560  1.00  0.00     0.025 C 
BRANCH  15  18
HETATM   18  C2  UNL     1     -12.841  -2.031  -3.767  1.00  0.00    -0.019 C 
HETATM   19  C1  UNL     1     -11.959  -2.411  -4.927  1.00  0.00     0.010 C 
HETATM   20  C3  UNL     1     -14.227  -1.619  -4.244  1.00  0.00     0.010 C 
ENDBRANCH  15  18
ENDBRANCH   9  12
ENDBRANCH   1   8
BRANCH   5  21
HETATM   21  C11 UNL     1     -14.709  -9.225   5.218  1.00  0.00     0.081 C 
HETATM   22  C12 UNL     1     -16.146  -9.537   4.976  1.00  0.00     0.016 C 
HETATM   23  C13 UNL     1     -16.686 -10.297   6.167  1.00  0.00     0.021 C 
HETATM   24  C14 UNL     1     -15.592 -11.110   6.848  1.00  0.00     0.128 C 
HETATM   25  N3  UNL     1     -14.617 -11.507   5.875  1.00  0.00    -0.327 N 
HETATM   26  C15 UNL     1     -14.329 -12.861   5.647  1.00  0.00     0.363 C 
HETATM   27  C20 UNL     1     -13.917 -10.507   5.116  1.00  0.00     0.141 C 
HETATM   28  O3  UNL     1     -13.487 -13.276   4.810  1.00  0.00    -0.238 OA
BRANCH  26  29
HETATM   29  O4  UNL     1     -15.006 -13.824   6.378  1.00  0.00    -0.294 OA
BRANCH  29  30
HETATM   30  C16 UNL     1     -15.983 -14.629   5.786  1.00  0.00     0.061 C 
HETATM   31  C17 UNL     1     -15.431 -15.925   5.257  1.00  0.00     0.046 C 
HETATM   32  C18 UNL     1     -16.980 -15.001   6.893  1.00  0.00     0.046 C 
HETATM   33  C19 UNL     1     -16.699 -13.864   4.684  1.00  0.00     0.046 C 
ENDBRANCH  29  30
ENDBRANCH  26  29
ENDBRANCH   5  21
TORSDOF 6
ENDMDL
