MODEL 1
REMARK VINA RESULT: -4.044944944      0.000      0.000
REMARK  5 active torsions:
REMARK  status: ('A' for Active; 'I' for Inactive)
REMARK    1  A    between atoms: N1_1  and  C1_5 
REMARK    2  A    between atoms: C1_5  and  C2_6 
REMARK    3  A    between atoms: C2_6  and  C3_7 
REMARK    4  A    between atoms: C3_7  and  N2_8 
REMARK    5  A    between atoms: N2_8  and  C4_10 
ROOT
HETATM    1  N2  UNL     1     -63.900  28.073  18.866  1.00  0.00    -0.225 N 
ATOM      2  H2  UNL     1     -64.011  28.932  18.328  1.00  0.00     0.177 HD
ENDROOT
BRANCH   1   3
HETATM    3  C3  UNL     1     -62.665  27.382  18.722  1.00  0.00     0.140 C 
BRANCH   3   4
HETATM    4  C2  UNL     1     -62.337  27.005  17.307  1.00  0.00     0.047 C 
BRANCH   4   5
HETATM    5  C1  UNL     1     -63.331  27.605  16.333  1.00  0.00     0.231 C 
BRANCH   5   6
HETATM    6  N1  UNL     1     -62.667  28.560  15.467  1.00  0.00    -0.079 N 
ATOM      7  H13 UNL     1     -61.659  28.409  15.435  1.00  0.00     0.274 HD
ATOM      8  H12 UNL     1     -62.876  28.391  14.483  1.00  0.00     0.274 HD
ATOM      9  H11 UNL     1     -62.903  29.512  15.749  1.00  0.00     0.274 HD
ENDBRANCH   5   6
ENDBRANCH   4   5
ENDBRANCH   3   4
ENDBRANCH   1   3
BRANCH   1  10
HETATM   10  C4  UNL     1     -64.888  27.723  19.603  1.00  0.00     0.693 A 
HETATM   11  N3  UNL     1     -64.908  26.566  20.295  1.00  0.00    -0.185 N 
HETATM   12  C5  UNL     1     -66.081  26.497  20.968  1.00  0.00     0.215 A 
ATOM     13  H3  UNL     1     -64.168  25.865  20.310  1.00  0.00     0.185 HD
HETATM   14  N4  UNL     1     -66.780  27.614  20.688  1.00  0.00    -0.281 N 
HETATM   15  N5  UNL     1     -66.042  28.337  19.864  1.00  0.00    -0.131 N 
ATOM     16  H4  UNL     1     -67.705  27.855  21.043  1.00  0.00     0.188 HD
ATOM     17  H5  UNL     1     -66.318  29.240  19.480  1.00  0.00     0.205 HD
ENDBRANCH   1  10
TORSDOF 5
ENDMDL
MODEL 2
REMARK VINA RESULT: -3.967813955      2.626      3.964
REMARK  5 active torsions:
REMARK  status: ('A' for Active; 'I' for Inactive)
REMARK    1  A    between atoms: N1_1  and  C1_5 
REMARK    2  A    between atoms: C1_5  and  C2_6 
REMARK    3  A    between atoms: C2_6  and  C3_7 
REMARK    4  A    between atoms: C3_7  and  N2_8 
REMARK    5  A    between atoms: N2_8  and  C4_10 
ROOT
HETATM    1  N2  UNL     1     -64.011  27.945  17.790  1.00  0.00    -0.225 N 
ATOM      2  H2  UNL     1     -64.416  27.708  18.696  1.00  0.00     0.177 HD
ENDROOT
BRANCH   1   3
HETATM    3  C3  UNL     1     -63.327  26.904  17.103  1.00  0.00     0.140 C 
BRANCH   3   4
HETATM    4  C2  UNL     1     -61.996  26.550  17.700  1.00  0.00     0.047 C 
BRANCH   4   5
HETATM    5  C1  UNL     1     -61.873  27.070  19.118  1.00  0.00     0.231 C 
BRANCH   5   6
HETATM    6  N1  UNL     1     -60.510  27.484  19.381  1.00  0.00    -0.079 N 
ATOM      7  H13 UNL     1     -60.410  27.902  20.306  1.00  0.00     0.274 HD
ATOM      8  H12 UNL     1     -59.887  26.687  19.508  1.00  0.00     0.274 HD
ATOM      9  H11 UNL     1     -60.184  28.109  18.643  1.00  0.00     0.274 HD
ENDBRANCH   5   6
ENDBRANCH   4   5
ENDBRANCH   3   4
ENDBRANCH   1   3
BRANCH   1  10
HETATM   10  C4  UNL     1     -64.171  29.150  17.384  1.00  0.00     0.693 A 
HETATM   11  N3  UNL     1     -63.707  29.588  16.197  1.00  0.00    -0.185 N 
HETATM   12  C5  UNL     1     -64.038  30.894  16.070  1.00  0.00     0.215 A 
ATOM     13  H3  UNL     1     -63.195  29.032  15.513  1.00  0.00     0.185 HD
HETATM   14  N4  UNL     1     -64.706  31.258  17.182  1.00  0.00    -0.281 N 
HETATM   15  N5  UNL     1     -64.774  30.191  17.959  1.00  0.00    -0.131 N 
ATOM     16  H4  UNL     1     -65.087  32.181  17.385  1.00  0.00     0.188 HD
ATOM     17  H5  UNL     1     -65.227  30.167  18.872  1.00  0.00     0.205 HD
ENDBRANCH   1  10
TORSDOF 5
ENDMDL
MODEL 3
REMARK VINA RESULT: -3.876035825      0.613      1.149
REMARK  5 active torsions:
REMARK  status: ('A' for Active; 'I' for Inactive)
REMARK    1  A    between atoms: N1_1  and  C1_5 
REMARK    2  A    between atoms: C1_5  and  C2_6 
REMARK    3  A    between atoms: C2_6  and  C3_7 
REMARK    4  A    between atoms: C3_7  and  N2_8 
REMARK    5  A    between atoms: N2_8  and  C4_10 
ROOT
HETATM    1  N2  UNL     1     -63.955  28.061  18.994  1.00  0.00    -0.225 N 
ATOM      2  H2  UNL     1     -64.135  28.973  18.574  1.00  0.00     0.177 HD
ENDROOT
BRANCH   1   3
HETATM    3  C3  UNL     1     -62.670  27.495  18.771  1.00  0.00     0.140 C 
BRANCH   3   4
HETATM    4  C2  UNL     1     -62.469  26.963  17.383  1.00  0.00     0.047 C 
BRANCH   4   5
HETATM    5  C1  UNL     1     -63.412  27.623  16.398  1.00  0.00     0.231 C 
BRANCH   5   6
HETATM    6  N1  UNL     1     -62.672  28.488  15.501  1.00  0.00    -0.079 N 
ATOM      7  H13 UNL     1     -61.672  28.477  15.700  1.00  0.00     0.274 HD
ATOM      8  H12 UNL     1     -62.641  28.115  14.552  1.00  0.00     0.274 HD
ATOM      9  H11 UNL     1     -63.057  29.433  15.527  1.00  0.00     0.274 HD
ENDBRANCH   5   6
ENDBRANCH   4   5
ENDBRANCH   3   4
ENDBRANCH   1   3
BRANCH   1  10
HETATM   10  C4  UNL     1     -64.912  27.540  19.670  1.00  0.00     0.693 A 
HETATM   11  N3  UNL     1     -66.103  28.149  19.837  1.00  0.00    -0.185 N 
HETATM   12  C5  UNL     1     -66.886  27.344  20.592  1.00  0.00     0.215 A 
ATOM     13  H3  UNL     1     -66.368  29.058  19.460  1.00  0.00     0.185 HD
HETATM   14  N4  UNL     1     -66.173  26.240  20.888  1.00  0.00    -0.281 N 
HETATM   15  N5  UNL     1     -64.987  26.381  20.322  1.00  0.00    -0.131 N 
ATOM     16  H4  UNL     1     -66.489  25.445  21.445  1.00  0.00     0.188 HD
ATOM     17  H5  UNL     1     -64.234  25.696  20.377  1.00  0.00     0.205 HD
ENDBRANCH   1  10
TORSDOF 5
ENDMDL
MODEL 4
REMARK VINA RESULT: -3.858813254      2.712      4.248
REMARK  5 active torsions:
REMARK  status: ('A' for Active; 'I' for Inactive)
REMARK    1  A    between atoms: N1_1  and  C1_5 
REMARK    2  A    between atoms: C1_5  and  C2_6 
REMARK    3  A    between atoms: C2_6  and  C3_7 
REMARK    4  A    between atoms: C3_7  and  N2_8 
REMARK    5  A    between atoms: N2_8  and  C4_10 
ROOT
HETATM    1  N2  UNL     1     -63.958  28.170  17.615  1.00  0.00    -0.225 N 
ATOM      2  H2  UNL     1     -64.319  28.104  18.566  1.00  0.00     0.177 HD
ENDROOT
BRANCH   1   3
HETATM    3  C3  UNL     1     -63.411  26.982  17.054  1.00  0.00     0.140 C 
BRANCH   3   4
HETATM    4  C2  UNL     1     -62.115  26.553  17.675  1.00  0.00     0.047 C 
BRANCH   4   5
HETATM    5  C1  UNL     1     -61.981  27.080  19.090  1.00  0.00     0.231 C 
BRANCH   5   6
HETATM    6  N1  UNL     1     -60.610  27.470  19.349  1.00  0.00    -0.079 N 
ATOM      7  H13 UNL     1     -59.983  26.665  19.378  1.00  0.00     0.274 HD
ATOM      8  H12 UNL     1     -60.195  27.955  18.554  1.00  0.00     0.274 HD
ATOM      9  H11 UNL     1     -60.559  28.024  20.204  1.00  0.00     0.274 HD
ENDBRANCH   5   6
ENDBRANCH   4   5
ENDBRANCH   3   4
ENDBRANCH   1   3
BRANCH   1  10
HETATM   10  C4  UNL     1     -64.042  29.315  17.044  1.00  0.00     0.693 A 
HETATM   11  N3  UNL     1     -64.791  30.321  17.536  1.00  0.00    -0.185 N 
HETATM   12  C5  UNL     1     -64.665  31.384  16.708  1.00  0.00     0.215 A 
ATOM     13  H3  UNL     1     -65.356  30.288  18.384  1.00  0.00     0.185 HD
HETATM   14  N4  UNL     1     -63.836  31.028  15.707  1.00  0.00    -0.281 N 
HETATM   15  N5  UNL     1     -63.474  29.777  15.931  1.00  0.00    -0.131 N 
ATOM     16  H4  UNL     1     -63.545  31.614  14.925  1.00  0.00     0.188 HD
ATOM     17  H5  UNL     1     -62.845  29.240  15.334  1.00  0.00     0.205 HD
ENDBRANCH   1  10
TORSDOF 5
ENDMDL
MODEL 5
REMARK VINA RESULT: -3.857873840      2.455      4.062
REMARK  5 active torsions:
REMARK  status: ('A' for Active; 'I' for Inactive)
REMARK    1  A    between atoms: N1_1  and  C1_5 
REMARK    2  A    between atoms: C1_5  and  C2_6 
REMARK    3  A    between atoms: C2_6  and  C3_7 
REMARK    4  A    between atoms: C3_7  and  N2_8 
REMARK    5  A    between atoms: N2_8  and  C4_10 
ROOT
HETATM    1  N2  UNL     1     -63.468  27.405  18.442  1.00  0.00    -0.225 N 
ATOM      2  H2  UNL     1     -63.597  27.245  17.443  1.00  0.00     0.177 HD
ENDROOT
BRANCH   1   3
HETATM    3  C3  UNL     1     -64.610  27.829  19.176  1.00  0.00     0.140 C 
BRANCH   3   4
HETATM    4  C2  UNL     1     -65.172  29.145  18.725  1.00  0.00     0.047 C 
BRANCH   4   5
HETATM    5  C1  UNL     1     -64.544  29.595  17.421  1.00  0.00     0.231 C 
BRANCH   5   6
HETATM    6  N1  UNL     1     -64.587  31.039  17.319  1.00  0.00    -0.079 N 
ATOM      7  H13 UNL     1     -63.669  31.460  17.468  1.00  0.00     0.274 HD
ATOM      8  H12 UNL     1     -64.739  31.349  16.359  1.00  0.00     0.274 HD
ATOM      9  H11 UNL     1     -65.288  31.416  17.957  1.00  0.00     0.274 HD
ENDBRANCH   5   6
ENDBRANCH   4   5
ENDBRANCH   3   4
ENDBRANCH   1   3
BRANCH   1  10
HETATM   10  C4  UNL     1     -62.291  27.204  18.910  1.00  0.00     0.693 A 
HETATM   11  N3  UNL     1     -61.180  27.286  18.151  1.00  0.00    -0.185 N 
HETATM   12  C5  UNL     1     -60.111  27.023  18.938  1.00  0.00     0.215 A 
ATOM     13  H3  UNL     1     -61.150  27.507  17.156  1.00  0.00     0.185 HD
HETATM   14  N4  UNL     1     -60.568  26.780  20.182  1.00  0.00    -0.281 N 
HETATM   15  N5  UNL     1     -61.884  26.896  20.141  1.00  0.00    -0.131 N 
ATOM     16  H4  UNL     1     -60.005  26.551  21.001  1.00  0.00     0.188 HD
ATOM     17  H5  UNL     1     -62.503  26.766  20.941  1.00  0.00     0.205 HD
ENDBRANCH   1  10
TORSDOF 5
ENDMDL
