MODEL 1
REMARK VINA RESULT: -3.465314689      0.000      0.000
REMARK  4 active torsions:
REMARK  status: ('A' for Active; 'I' for Inactive)
REMARK    1  A    between atoms: N1_1  and  C1_5 
REMARK    2  A    between atoms: C2_9  and  C3_10 
REMARK    3  A    between atoms: C3_10  and  N3_11 
REMARK    4  A    between atoms: N3_11  and  C4_14 
ROOT
HETATM    1  C1  UNL     1     -64.929  29.740  17.647  1.00  0.00     0.412 A 
HETATM    2  N2  UNL     1     -64.057  28.672  17.253  1.00  0.00    -0.035 N 
ATOM      3  H21 UNL     1     -63.258  28.584  16.625  1.00  0.00     0.280 HD
ATOM      4  H22 UNL     1     -64.154  27.830  16.685  1.00  0.00     0.280 HD
HETATM    5  C2  UNL     1     -64.247  29.014  18.746  1.00  0.00     0.271 A 
ENDROOT
BRANCH   5   6
HETATM    6  C3  UNL     1     -64.907  27.860  19.419  1.00  0.00     0.269 C 
BRANCH   6   7
HETATM    7  N3  UNL     1     -66.196  28.179  19.982  1.00  0.00    -0.069 N 
ATOM      8  H32 UNL     1     -66.170  29.007  20.578  1.00  0.00     0.277 HD
ATOM      9  H31 UNL     1     -66.852  28.529  19.285  1.00  0.00     0.277 HD
BRANCH   7  10
HETATM   10  C4  UNL     1     -66.689  27.016  20.671  1.00  0.00     0.186 A 
HETATM   11  C5  UNL     1     -66.445  26.789  22.102  1.00  0.00     0.035 A 
HETATM   12  C6  UNL     1     -65.724  25.934  21.079  1.00  0.00     0.035 A 
ENDBRANCH   7  10
ENDBRANCH   6   7
ENDBRANCH   5   6
BRANCH   1  13
HETATM   13  N1  UNL     1     -64.451  31.051  17.235  1.00  0.00    -0.048 N 
ATOM     14  H13 UNL     1     -63.552  31.262  17.667  1.00  0.00     0.276 HD
ATOM     15  H12 UNL     1     -64.170  31.044  16.255  1.00  0.00     0.276 HD
ATOM     16  H11 UNL     1     -65.123  31.797  17.414  1.00  0.00     0.276 HD
ENDBRANCH   1  13
TORSDOF 4
ENDMDL
MODEL 2
REMARK VINA RESULT: -3.452817252      2.073      4.627
REMARK  4 active torsions:
REMARK  status: ('A' for Active; 'I' for Inactive)
REMARK    1  A    between atoms: N1_1  and  C1_5 
REMARK    2  A    between atoms: C2_9  and  C3_10 
REMARK    3  A    between atoms: C3_10  and  N3_11 
REMARK    4  A    between atoms: N3_11  and  C4_14 
ROOT
HETATM    1  C1  UNL     1     -67.172  27.037  20.492  1.00  0.00     0.412 A 
HETATM    2  N2  UNL     1     -66.271  27.594  21.458  1.00  0.00    -0.035 N 
ATOM      3  H21 UNL     1     -66.037  27.393  22.430  1.00  0.00     0.280 HD
ATOM      4  H22 UNL     1     -66.225  28.464  21.989  1.00  0.00     0.280 HD
HETATM    5  C2  UNL     1     -65.748  27.120  20.085  1.00  0.00     0.271 A 
ENDROOT
BRANCH   5   6
HETATM    6  C3  UNL     1     -65.240  28.305  19.335  1.00  0.00     0.269 C 
BRANCH   6   7
HETATM    7  N3  UNL     1     -63.850  28.200  18.962  1.00  0.00    -0.069 N 
ATOM      8  H32 UNL     1     -63.468  29.083  18.621  1.00  0.00     0.277 HD
ATOM      9  H31 UNL     1     -63.236  28.083  19.767  1.00  0.00     0.277 HD
BRANCH   7  10
HETATM   10  C4  UNL     1     -63.718  27.134  18.005  1.00  0.00     0.186 A 
HETATM   11  C5  UNL     1     -62.415  26.713  17.473  1.00  0.00     0.035 A 
HETATM   12  C6  UNL     1     -63.380  27.462  16.575  1.00  0.00     0.035 A 
ENDBRANCH   7  10
ENDBRANCH   6   7
ENDBRANCH   5   6
BRANCH   1  13
HETATM   13  N1  UNL     1     -67.737  25.761  20.903  1.00  0.00    -0.048 N 
ATOM     14  H13 UNL     1     -67.009  25.051  20.985  1.00  0.00     0.276 HD
ATOM     15  H12 UNL     1     -68.046  25.797  21.875  1.00  0.00     0.276 HD
ATOM     16  H11 UNL     1     -68.489  25.439  20.295  1.00  0.00     0.276 HD
ENDBRANCH   1  13
TORSDOF 4
ENDMDL
MODEL 3
REMARK VINA RESULT: -3.431141168      2.721      3.357
REMARK  4 active torsions:
REMARK  status: ('A' for Active; 'I' for Inactive)
REMARK    1  A    between atoms: N1_1  and  C1_5 
REMARK    2  A    between atoms: C2_9  and  C3_10 
REMARK    3  A    between atoms: C3_10  and  N3_11 
REMARK    4  A    between atoms: N3_11  and  C4_14 
ROOT
HETATM    1  C1  UNL     1     -63.858  30.974  16.670  1.00  0.00     0.412 A 
HETATM    2  N2  UNL     1     -65.159  31.428  17.067  1.00  0.00    -0.035 N 
ATOM      3  H21 UNL     1     -65.886  32.002  16.641  1.00  0.00     0.280 HD
ATOM      4  H22 UNL     1     -65.515  32.097  17.749  1.00  0.00     0.280 HD
HETATM    5  C2  UNL     1     -64.819  29.922  17.084  1.00  0.00     0.271 A 
ENDROOT
BRANCH   5   6
HETATM    6  C3  UNL     1     -64.858  29.442  18.495  1.00  0.00     0.269 C 
BRANCH   6   7
HETATM    7  N3  UNL     1     -63.739  28.603  18.851  1.00  0.00    -0.069 N 
ATOM      8  H32 UNL     1     -62.855  29.112  18.862  1.00  0.00     0.277 HD
ATOM      9  H31 UNL     1     -63.753  28.327  19.833  1.00  0.00     0.277 HD
BRANCH   7  10
HETATM   10  C4  UNL     1     -63.718  27.475  17.959  1.00  0.00     0.186 A 
HETATM   11  C5  UNL     1     -63.051  26.213  18.306  1.00  0.00     0.035 A 
HETATM   12  C6  UNL     1     -62.437  27.115  17.254  1.00  0.00     0.035 A 
ENDBRANCH   7  10
ENDBRANCH   6   7
ENDBRANCH   5   6
BRANCH   1  13
HETATM   13  N1  UNL     1     -63.581  31.190  15.258  1.00  0.00    -0.048 N 
ATOM     14  H13 UNL     1     -63.615  30.311  14.743  1.00  0.00     0.276 HD
ATOM     15  H12 UNL     1     -64.354  31.679  14.807  1.00  0.00     0.276 HD
ATOM     16  H11 UNL     1     -62.699  31.675  15.091  1.00  0.00     0.276 HD
ENDBRANCH   1  13
TORSDOF 4
ENDMDL
MODEL 4
REMARK VINA RESULT: -3.385431066      2.238      4.625
REMARK  4 active torsions:
REMARK  status: ('A' for Active; 'I' for Inactive)
REMARK    1  A    between atoms: N1_1  and  C1_5 
REMARK    2  A    between atoms: C2_9  and  C3_10 
REMARK    3  A    between atoms: C3_10  and  N3_11 
REMARK    4  A    between atoms: N3_11  and  C4_14 
ROOT
HETATM    1  C1  UNL     1     -62.782  27.606  18.988  1.00  0.00     0.412 A 
HETATM    2  N2  UNL     1     -63.689  26.698  18.349  1.00  0.00    -0.035 N 
ATOM      3  H21 UNL     1     -63.719  25.690  18.200  1.00  0.00     0.280 HD
ATOM      4  H22 UNL     1     -63.956  26.499  17.385  1.00  0.00     0.280 HD
HETATM    5  C2  UNL     1     -64.191  27.659  19.449  1.00  0.00     0.271 A 
ENDROOT
BRANCH   5   6
HETATM    6  C3  UNL     1     -65.155  28.618  18.838  1.00  0.00     0.269 C 
BRANCH   6   7
HETATM    7  N3  UNL     1     -64.568  29.893  18.503  1.00  0.00    -0.069 N 
ATOM      8  H32 UNL     1     -64.909  30.650  19.097  1.00  0.00     0.277 HD
ATOM      9  H31 UNL     1     -63.582  29.950  18.758  1.00  0.00     0.277 HD
BRANCH   7  10
HETATM   10  C4  UNL     1     -64.794  30.141  17.104  1.00  0.00     0.186 A 
HETATM   11  C5  UNL     1     -63.878  30.954  16.294  1.00  0.00     0.035 A 
HETATM   12  C6  UNL     1     -65.241  31.508  16.659  1.00  0.00     0.035 A 
ENDBRANCH   7  10
ENDBRANCH   6   7
ENDBRANCH   5   6
BRANCH   1  13
HETATM   13  N1  UNL     1     -61.776  26.937  19.799  1.00  0.00    -0.048 N 
ATOM     14  H13 UNL     1     -62.215  26.350  20.508  1.00  0.00     0.276 HD
ATOM     15  H12 UNL     1     -61.295  26.217  19.259  1.00  0.00     0.276 HD
ATOM     16  H11 UNL     1     -61.109  27.580  20.223  1.00  0.00     0.276 HD
ENDBRANCH   1  13
TORSDOF 4
ENDMDL
MODEL 5
REMARK VINA RESULT: -3.337268991      1.554      1.743
REMARK  4 active torsions:
REMARK  status: ('A' for Active; 'I' for Inactive)
REMARK    1  A    between atoms: N1_1  and  C1_5 
REMARK    2  A    between atoms: C2_9  and  C3_10 
REMARK    3  A    between atoms: C3_10  and  N3_11 
REMARK    4  A    between atoms: N3_11  and  C4_14 
ROOT
HETATM    1  C1  UNL     1     -63.523  27.346  17.153  1.00  0.00     0.412 A 
HETATM    2  N2  UNL     1     -62.516  27.298  18.172  1.00  0.00    -0.035 N 
ATOM      3  H21 UNL     1     -61.521  27.519  18.218  1.00  0.00     0.280 HD
ATOM      4  H22 UNL     1     -62.019  26.556  18.665  1.00  0.00     0.280 HD
HETATM    5  C2  UNL     1     -63.825  28.082  18.405  1.00  0.00     0.271 A 
ENDROOT
BRANCH   5   6
HETATM    6  C3  UNL     1     -64.583  27.426  19.508  1.00  0.00     0.269 C 
BRANCH   6   7
HETATM    7  N3  UNL     1     -65.763  28.152  19.910  1.00  0.00    -0.069 N 
ATOM      8  H32 UNL     1     -65.546  28.970  20.480  1.00  0.00     0.277 HD
ATOM      9  H31 UNL     1     -66.208  28.639  19.132  1.00  0.00     0.277 HD
BRANCH   7  10
HETATM   10  C4  UNL     1     -66.654  27.236  20.571  1.00  0.00     0.186 A 
HETATM   11  C5  UNL     1     -66.493  26.866  21.984  1.00  0.00     0.035 A 
HETATM   12  C6  UNL     1     -66.173  25.849  20.906  1.00  0.00     0.035 A 
ENDBRANCH   7  10
ENDBRANCH   6   7
ENDBRANCH   5   6
BRANCH   1  13
HETATM   13  N1  UNL     1     -63.102  28.074  15.965  1.00  0.00    -0.048 N 
ATOM     14  H13 UNL     1     -63.384  29.053  16.021  1.00  0.00     0.276 HD
ATOM     15  H12 UNL     1     -62.089  28.191  15.951  1.00  0.00     0.276 HD
ATOM     16  H11 UNL     1     -63.430  27.651  15.098  1.00  0.00     0.276 HD
ENDBRANCH   1  13
TORSDOF 4
ENDMDL
