MODEL 1
REMARK VINA RESULT: -7.814346683      0.000      0.000
REMARK  8 active torsions:
REMARK  status: ('A' for Active; 'I' for Inactive)
REMARK    1  A    between atoms: C1_2  and  C2_3 
REMARK       I    between atoms: C1_2  and  N1_10 
REMARK    2  A    between atoms: C2_3  and  C3_4 
REMARK    3  A    between atoms: N1_10  and  C9_12 
REMARK    4  A    between atoms: C9_12  and  C10_13 
REMARK    5  A    between atoms: C10_13  and  C11_14 
REMARK    6  A    between atoms: C11_14  and  O2_15 
REMARK    7  A    between atoms: C11_14  and  C12_17 
REMARK    8  A    between atoms: C11_14  and  C16_22 
ROOT
HETATM    1  C10 UNL     1      16.072  19.432  46.295  1.00  0.00     0.063 C 
ENDROOT
BRANCH   1   2
HETATM    2  C9  UNL     1      16.454  18.038  45.877  1.00  0.00     0.126 C 
BRANCH   2   3
HETATM    3  N1  UNL     1      17.764  18.052  45.147  1.00  0.00    -0.361 N 
HETATM    4  C1  UNL     1      17.911  17.446  43.906  1.00  0.00     0.217 C 
HETATM    5  O1  UNL     1      16.950  16.820  43.351  1.00  0.00    -0.274 OA
ATOM      6  H1  UNL     1      18.566  18.516  45.573  1.00  0.00     0.162 HD
BRANCH   4   7
HETATM    7  C2  UNL     1      19.226  17.522  43.182  1.00  0.00     0.107 C 
BRANCH   7   8
HETATM    8  C3  UNL     1      19.945  16.189  43.506  1.00  0.00    -0.006 C 
HETATM    9  C4  UNL     1      21.044  15.908  42.518  1.00  0.00     0.005 C 
HETATM   10  C5  UNL     1      21.612  14.522  42.872  1.00  0.00     0.000 C 
HETATM   11  C6  UNL     1      22.251  14.584  44.249  1.00  0.00     0.000 C 
HETATM   12  C7  UNL     1      22.011  15.916  44.887  1.00  0.00     0.000 C 
HETATM   13  C8  UNL     1      20.579  16.367  44.888  1.00  0.00     0.005 C 
ENDBRANCH   7   8
ENDBRANCH   4   7
ENDBRANCH   2   3
ENDBRANCH   1   2
BRANCH   1  14
HETATM   14  C11 UNL     1      16.489  19.663  47.767  1.00  0.00     0.090 C 
BRANCH  14  15
HETATM   15  O2  UNL     1      16.668  18.404  48.304  1.00  0.00    -0.385 OA
ATOM     16  H2  UNL     1      17.336  17.990  47.769  1.00  0.00     0.211 HD
ENDBRANCH  14  15
BRANCH  14  17
HETATM   17  C12 UNL     1      17.709  20.539  47.840  1.00  0.00    -0.017 A 
HETATM   18  C13 UNL     1      18.978  20.124  47.951  1.00  0.00     0.018 A 
HETATM   19  C14 UNL     1      19.958  21.047  48.059  1.00  0.00     0.050 A 
HETATM   20  S1  UNL     1      19.146  22.548  48.008  1.00  0.00    -0.113 SA
HETATM   21  C15 UNL     1      17.515  21.901  47.847  1.00  0.00     0.059 A 
ENDBRANCH  14  17
BRANCH  14  22
HETATM   22  C16 UNL     1      15.262  20.168  48.442  1.00  0.00     0.025 C 
HETATM   23  C17 UNL     1      14.212  20.818  47.639  1.00  0.00     0.008 C 
HETATM   24  C18 UNL     1      12.926  20.008  47.861  1.00  0.00     0.001 C 
HETATM   25  C19 UNL     1      13.333  18.782  48.623  1.00  0.00     0.001 C 
HETATM   26  C20 UNL     1      14.579  19.224  49.392  1.00  0.00     0.008 C 
ENDBRANCH  14  22
ENDBRANCH   1  14
TORSDOF 8
ENDMDL
MODEL 2
REMARK VINA RESULT: -7.788272929      1.890      3.598
REMARK  8 active torsions:
REMARK  status: ('A' for Active; 'I' for Inactive)
REMARK    1  A    between atoms: C1_2  and  C2_3 
REMARK       I    between atoms: C1_2  and  N1_10 
REMARK    2  A    between atoms: C2_3  and  C3_4 
REMARK    3  A    between atoms: N1_10  and  C9_12 
REMARK    4  A    between atoms: C9_12  and  C10_13 
REMARK    5  A    between atoms: C10_13  and  C11_14 
REMARK    6  A    between atoms: C11_14  and  O2_15 
REMARK    7  A    between atoms: C11_14  and  C12_17 
REMARK    8  A    between atoms: C11_14  and  C16_22 
ROOT
HETATM    1  C10 UNL     1      16.765  17.593  46.291  1.00  0.00     0.063 C 
ENDROOT
BRANCH   1   2
HETATM    2  C9  UNL     1      16.455  17.740  44.826  1.00  0.00     0.126 C 
BRANCH   2   3
HETATM    3  N1  UNL     1      17.616  17.273  43.997  1.00  0.00    -0.361 N 
HETATM    4  C1  UNL     1      18.315  18.145  43.172  1.00  0.00     0.217 C 
HETATM    5  O1  UNL     1      17.978  19.367  43.052  1.00  0.00    -0.274 OA
ATOM      6  H1  UNL     1      17.897  16.294  44.042  1.00  0.00     0.162 HD
BRANCH   4   7
HETATM    7  C2  UNL     1      19.503  17.653  42.394  1.00  0.00     0.107 C 
BRANCH   7   8
HETATM    8  C3  UNL     1      19.961  16.365  43.123  1.00  0.00    -0.006 C 
HETATM    9  C4  UNL     1      21.173  15.766  42.464  1.00  0.00     0.005 C 
HETATM   10  C5  UNL     1      21.471  14.448  43.201  1.00  0.00     0.000 C 
HETATM   11  C6  UNL     1      21.849  14.759  44.639  1.00  0.00     0.000 C 
HETATM   12  C7  UNL     1      21.682  16.217  44.931  1.00  0.00     0.000 C 
HETATM   13  C8  UNL     1      20.350  16.790  44.542  1.00  0.00     0.005 C 
ENDBRANCH   7   8
ENDBRANCH   4   7
ENDBRANCH   2   3
ENDBRANCH   1   2
BRANCH   1  14
HETATM   14  C11 UNL     1      16.935  18.993  46.927  1.00  0.00     0.090 C 
BRANCH  14  15
HETATM   15  O2  UNL     1      17.514  19.777  45.949  1.00  0.00    -0.385 OA
ATOM     16  H2  UNL     1      16.914  20.501  45.813  1.00  0.00     0.211 HD
ENDBRANCH  14  15
BRANCH  14  17
HETATM   17  C12 UNL     1      15.615  19.512  47.425  1.00  0.00    -0.017 A 
HETATM   18  C13 UNL     1      15.287  20.797  47.610  1.00  0.00     0.018 A 
HETATM   19  C14 UNL     1      14.070  21.093  48.117  1.00  0.00     0.050 A 
HETATM   20  S1  UNL     1      13.324  19.576  48.360  1.00  0.00    -0.113 SA
HETATM   21  C15 UNL     1      14.660  18.586  47.779  1.00  0.00     0.059 A 
ENDBRANCH  14  17
BRANCH  14  22
HETATM   22  C16 UNL     1      18.015  18.830  47.939  1.00  0.00     0.025 C 
HETATM   23  C17 UNL     1      19.046  17.798  47.734  1.00  0.00     0.008 C 
HETATM   24  C18 UNL     1      20.398  18.528  47.714  1.00  0.00     0.001 C 
HETATM   25  C19 UNL     1      20.079  19.993  47.693  1.00  0.00     0.001 C 
HETATM   26  C20 UNL     1      18.717  20.083  48.383  1.00  0.00     0.008 C 
ENDBRANCH  14  22
ENDBRANCH   1  14
TORSDOF 8
ENDMDL
MODEL 3
REMARK VINA RESULT: -7.786672513      1.077      1.306
REMARK  8 active torsions:
REMARK  status: ('A' for Active; 'I' for Inactive)
REMARK    1  A    between atoms: C1_2  and  C2_3 
REMARK       I    between atoms: C1_2  and  N1_10 
REMARK    2  A    between atoms: C2_3  and  C3_4 
REMARK    3  A    between atoms: N1_10  and  C9_12 
REMARK    4  A    between atoms: C9_12  and  C10_13 
REMARK    5  A    between atoms: C10_13  and  C11_14 
REMARK    6  A    between atoms: C11_14  and  O2_15 
REMARK    7  A    between atoms: C11_14  and  C12_17 
REMARK    8  A    between atoms: C11_14  and  C16_22 
ROOT
HETATM    1  C10 UNL     1      16.329  19.266  46.056  1.00  0.00     0.063 C 
ENDROOT
BRANCH   1   2
HETATM    2  C9  UNL     1      16.422  18.030  45.201  1.00  0.00     0.126 C 
BRANCH   2   3
HETATM    3  N1  UNL     1      17.804  17.890  44.635  1.00  0.00    -0.361 N 
HETATM    4  C1  UNL     1      18.021  17.781  43.267  1.00  0.00     0.217 C 
HETATM    5  O1  UNL     1      17.054  17.757  42.438  1.00  0.00    -0.274 OA
ATOM      6  H1  UNL     1      18.602  17.874  45.269  1.00  0.00     0.162 HD
BRANCH   4   7
HETATM    7  C2  UNL     1      19.422  17.692  42.732  1.00  0.00     0.107 C 
BRANCH   7   8
HETATM    8  C3  UNL     1      19.976  16.348  43.269  1.00  0.00    -0.006 C 
HETATM    9  C4  UNL     1      21.149  15.877  42.455  1.00  0.00     0.005 C 
HETATM   10  C5  UNL     1      21.546  14.496  43.008  1.00  0.00     0.000 C 
HETATM   11  C6  UNL     1      22.028  14.655  44.439  1.00  0.00     0.000 C 
HETATM   12  C7  UNL     1      21.840  16.063  44.911  1.00  0.00     0.000 C 
HETATM   13  C8  UNL     1      20.464  16.623  44.695  1.00  0.00     0.005 C 
ENDBRANCH   7   8
ENDBRANCH   4   7
ENDBRANCH   2   3
ENDBRANCH   1   2
BRANCH   1  14
HETATM   14  C11 UNL     1      16.725  18.919  47.511  1.00  0.00     0.090 C 
BRANCH  14  15
HETATM   15  O2  UNL     1      16.449  17.575  47.660  1.00  0.00    -0.385 OA
ATOM     16  H2  UNL     1      16.041  17.491  48.514  1.00  0.00     0.211 HD
ENDBRANCH  14  15
BRANCH  14  17
HETATM   17  C12 UNL     1      18.160  19.283  47.770  1.00  0.00    -0.017 A 
HETATM   18  C13 UNL     1      18.652  20.522  47.908  1.00  0.00     0.018 A 
HETATM   19  C14 UNL     1      19.982  20.679  48.085  1.00  0.00     0.050 A 
HETATM   20  S1  UNL     1      20.610  19.091  48.069  1.00  0.00    -0.113 SA
HETATM   21  C15 UNL     1      19.077  18.258  47.823  1.00  0.00     0.059 A 
ENDBRANCH  14  17
BRANCH  14  22
HETATM   22  C16 UNL     1      15.701  19.590  48.360  1.00  0.00     0.025 C 
HETATM   23  C17 UNL     1      15.115  20.864  47.912  1.00  0.00     0.008 C 
HETATM   24  C18 UNL     1      13.598  20.639  47.816  1.00  0.00     0.001 C 
HETATM   25  C19 UNL     1      13.384  19.167  48.007  1.00  0.00     0.001 C 
HETATM   26  C20 UNL     1      14.574  18.730  48.862  1.00  0.00     0.008 C 
ENDBRANCH  14  22
ENDBRANCH   1  14
TORSDOF 8
ENDMDL
MODEL 4
REMARK VINA RESULT: -7.522522300      1.710      3.355
REMARK  8 active torsions:
REMARK  status: ('A' for Active; 'I' for Inactive)
REMARK    1  A    between atoms: C1_2  and  C2_3 
REMARK       I    between atoms: C1_2  and  N1_10 
REMARK    2  A    between atoms: C2_3  and  C3_4 
REMARK    3  A    between atoms: N1_10  and  C9_12 
REMARK    4  A    between atoms: C9_12  and  C10_13 
REMARK    5  A    between atoms: C10_13  and  C11_14 
REMARK    6  A    between atoms: C11_14  and  O2_15 
REMARK    7  A    between atoms: C11_14  and  C12_17 
REMARK    8  A    between atoms: C11_14  and  C16_22 
ROOT
HETATM    1  C10 UNL     1      16.452  19.553  46.474  1.00  0.00     0.063 C 
ENDROOT
BRANCH   1   2
HETATM    2  C9  UNL     1      17.109  19.538  45.120  1.00  0.00     0.126 C 
BRANCH   2   3
HETATM    3  N1  UNL     1      17.512  18.141  44.751  1.00  0.00    -0.361 N 
HETATM    4  C1  UNL     1      18.208  17.871  43.579  1.00  0.00     0.217 C 
HETATM    5  O1  UNL     1      18.501  18.792  42.750  1.00  0.00    -0.274 OA
ATOM      6  H1  UNL     1      17.268  17.371  45.374  1.00  0.00     0.162 HD
BRANCH   4   7
HETATM    7  C2  UNL     1      18.638  16.465  43.266  1.00  0.00     0.107 C 
BRANCH   7   8
HETATM    8  C3  UNL     1      20.167  16.444  43.514  1.00  0.00    -0.006 C 
HETATM    9  C4  UNL     1      20.511  15.643  44.739  1.00  0.00     0.005 C 
HETATM   10  C5  UNL     1      22.030  15.778  44.945  1.00  0.00     0.000 C 
HETATM   11  C6  UNL     1      22.749  15.135  43.772  1.00  0.00     0.000 C 
HETATM   12  C7  UNL     1      21.774  14.699  42.725  1.00  0.00     0.000 C 
HETATM   13  C8  UNL     1      20.790  15.750  42.299  1.00  0.00     0.005 C 
ENDBRANCH   7   8
ENDBRANCH   4   7
ENDBRANCH   2   3
ENDBRANCH   1   2
BRANCH   1  14
HETATM   14  C11 UNL     1      17.248  20.479  47.424  1.00  0.00     0.090 C 
BRANCH  14  15
HETATM   15  O2  UNL     1      18.149  21.148  46.621  1.00  0.00    -0.385 OA
ATOM     16  H2  UNL     1      17.749  21.990  46.433  1.00  0.00     0.211 HD
ENDBRANCH  14  15
BRANCH  14  17
HETATM   17  C12 UNL     1      16.318  21.382  48.185  1.00  0.00    -0.017 A 
HETATM   18  C13 UNL     1      15.138  21.037  48.719  1.00  0.00     0.018 A 
HETATM   19  C14 UNL     1      14.397  21.987  49.329  1.00  0.00     0.050 A 
HETATM   20  S1  UNL     1      15.322  23.415  49.186  1.00  0.00    -0.113 SA
HETATM   21  C15 UNL     1      16.676  22.705  48.311  1.00  0.00     0.059 A 
ENDBRANCH  14  17
BRANCH  14  22
HETATM   22  C16 UNL     1      18.101  19.564  48.231  1.00  0.00     0.025 C 
HETATM   23  C17 UNL     1      17.828  18.117  48.209  1.00  0.00     0.008 C 
HETATM   24  C18 UNL     1      19.114  17.436  47.714  1.00  0.00     0.001 C 
HETATM   25  C19 UNL     1      20.020  18.541  47.260  1.00  0.00     0.001 C 
HETATM   26  C20 UNL     1      19.589  19.741  48.104  1.00  0.00     0.008 C 
ENDBRANCH  14  22
ENDBRANCH   1  14
TORSDOF 8
ENDMDL
MODEL 5
REMARK VINA RESULT: -7.389697157      5.305      8.020
REMARK  8 active torsions:
REMARK  status: ('A' for Active; 'I' for Inactive)
REMARK    1  A    between atoms: C1_2  and  C2_3 
REMARK       I    between atoms: C1_2  and  N1_10 
REMARK    2  A    between atoms: C2_3  and  C3_4 
REMARK    3  A    between atoms: N1_10  and  C9_12 
REMARK    4  A    between atoms: C9_12  and  C10_13 
REMARK    5  A    between atoms: C10_13  and  C11_14 
REMARK    6  A    between atoms: C11_14  and  O2_15 
REMARK    7  A    between atoms: C11_14  and  C12_17 
REMARK    8  A    between atoms: C11_14  and  C16_22 
ROOT
HETATM    1  C10 UNL     1      18.205  26.268  49.421  1.00  0.00     0.063 C 
ENDROOT
BRANCH   1   2
HETATM    2  C9  UNL     1      19.173  25.279  48.828  1.00  0.00     0.126 C 
BRANCH   2   3
HETATM    3  N1  UNL     1      18.444  24.282  47.976  1.00  0.00    -0.361 N 
HETATM    4  C1  UNL     1      18.555  22.916  48.201  1.00  0.00     0.217 C 
HETATM    5  O1  UNL     1      19.309  22.449  49.116  1.00  0.00    -0.274 OA
ATOM      6  H1  UNL     1      17.854  24.616  47.214  1.00  0.00     0.162 HD
BRANCH   4   7
HETATM    7  C2  UNL     1      17.772  21.948  47.359  1.00  0.00     0.107 C 
BRANCH   7   8
HETATM    8  C3  UNL     1      16.691  21.368  48.306  1.00  0.00    -0.006 C 
HETATM    9  C4  UNL     1      15.520  22.302  48.436  1.00  0.00     0.005 C 
HETATM   10  C5  UNL     1      14.569  21.678  49.472  1.00  0.00     0.000 C 
HETATM   11  C6  UNL     1      14.036  20.363  48.927  1.00  0.00     0.000 C 
HETATM   12  C7  UNL     1      14.699  20.017  47.631  1.00  0.00     0.000 C 
HETATM   13  C8  UNL     1      16.199  20.073  47.654  1.00  0.00     0.005 C 
ENDBRANCH   7   8
ENDBRANCH   4   7
ENDBRANCH   2   3
ENDBRANCH   1   2
BRANCH   1  14
HETATM   14  C11 UNL     1      17.729  25.762  50.803  1.00  0.00     0.090 C 
BRANCH  14  15
HETATM   15  O2  UNL     1      18.489  24.641  51.069  1.00  0.00    -0.385 OA
ATOM     16  H2  UNL     1      18.898  24.804  51.911  1.00  0.00     0.211 HD
ENDBRANCH  14  15
BRANCH  14  17
HETATM   17  C12 UNL     1      17.854  26.846  51.836  1.00  0.00    -0.017 A 
HETATM   18  C13 UNL     1      17.903  26.675  53.163  1.00  0.00     0.018 A 
HETATM   19  C14 UNL     1      17.963  27.765  53.959  1.00  0.00     0.050 A 
HETATM   20  S1  UNL     1      17.956  29.089  52.880  1.00  0.00    -0.113 SA
HETATM   21  C15 UNL     1      17.869  28.149  51.392  1.00  0.00     0.059 A 
ENDBRANCH  14  17
BRANCH  14  22
HETATM   22  C16 UNL     1      16.363  25.218  50.566  1.00  0.00     0.025 C 
HETATM   23  C17 UNL     1      15.482  24.955  51.716  1.00  0.00     0.008 C 
HETATM   24  C18 UNL     1      14.216  25.800  51.500  1.00  0.00     0.001 C 
HETATM   25  C19 UNL     1      14.507  26.692  50.331  1.00  0.00     0.001 C 
HETATM   26  C20 UNL     1      15.536  25.907  49.516  1.00  0.00     0.008 C 
ENDBRANCH  14  22
ENDBRANCH   1  14
TORSDOF 8
ENDMDL
