MODEL 1
REMARK VINA RESULT: -8.616963739      0.000      0.000
REMARK  10 active torsions:
REMARK  status: ('A' for Active; 'I' for Inactive)
REMARK    1  A    between atoms: C2_2  and  C3_3 
REMARK    2  A    between atoms: C6_6  and  C7_7 
REMARK       I    between atoms: C7_7  and  N1_9 
REMARK    3  A    between atoms: N1_9  and  N2_11 
REMARK    4  A    between atoms: N2_11  and  C8_13 
REMARK    5  A    between atoms: C8_13  and  O2_14 
REMARK    6  A    between atoms: C8_13  and  C9_16 
REMARK    7  A    between atoms: C12_19  and  C13_20 
REMARK    8  A    between atoms: C14_26  and  O3_27 
REMARK    9  A    between atoms: O3_27  and  C15_28 
REMARK   10  A    between atoms: C15_28  and  C16_30 
ROOT
HETATM    1  C9  UNL     1      33.502  46.964   7.148  1.00  0.00     0.068 A 
HETATM    2  C10 UNL     1      34.310  47.896   7.841  1.00  0.00     0.022 A 
HETATM    3  C11 UNL     1      34.840  47.584   9.053  1.00  0.00     0.035 A 
HETATM    4  C12 UNL     1      34.558  46.325   9.579  1.00  0.00     0.118 A 
HETATM    5  N3  UNL     1      33.791  45.458   8.910  1.00  0.00    -0.332 N 
ATOM      6  H3  UNL     1      33.606  44.546   9.327  1.00  0.00     0.168 HD
HETATM    7  C14 UNL     1      33.245  45.738   7.697  1.00  0.00     0.166 A 
ENDROOT
BRANCH   1   8
HETATM    8  C8  UNL     1      33.022  47.335   5.845  1.00  0.00     0.169 C 
BRANCH   8   9
HETATM    9  N2  UNL     1      32.289  48.454   5.469  1.00  0.00    -0.277 N 
ATOM     10  H2  UNL     1      32.778  49.288   5.144  1.00  0.00     0.189 HD
BRANCH   9  11
HETATM   11  N1  UNL     1      30.862  48.455   5.531  1.00  0.00    -0.264 N 
HETATM   12  C7  UNL     1      30.246  48.958   6.689  1.00  0.00     0.270 C 
HETATM   13  O1  UNL     1      30.948  49.392   7.626  1.00  0.00    -0.266 OA
ATOM     14  H1  UNL     1      30.304  48.099   4.755  1.00  0.00     0.190 HD
BRANCH  12  15
HETATM   15  C6  UNL     1      28.780  48.964   6.786  1.00  0.00     0.033 A 
HETATM   16  C5  UNL     1      28.038  49.883   6.087  1.00  0.00     0.018 A 
HETATM   17  C4  UNL     1      26.666  49.870   6.163  1.00  0.00     0.012 A 
HETATM   18  C3  UNL     1      25.968  48.948   6.933  1.00  0.00    -0.037 A 
HETATM   19  C23 UNL     1      26.718  48.021   7.637  1.00  0.00     0.012 A 
HETATM   20  C22 UNL     1      28.100  48.046   7.551  1.00  0.00     0.018 A 
BRANCH  18  21
HETATM   21  C2  UNL     1      24.522  49.009   6.950  1.00  0.00     0.001 C 
HETATM   22  C1  UNL     1      23.762  47.957   6.745  1.00  0.00     0.012 C 
ENDBRANCH  18  21
ENDBRANCH  12  15
ENDBRANCH   9  11
ENDBRANCH   8   9
BRANCH   8  23
HETATM   23  O2  UNL     1      33.293  46.534   4.855  1.00  0.00    -0.344 OA
ATOM     24  H2  UNL     1      32.523  46.237   4.385  1.00  0.00     0.219 HD
ENDBRANCH   8  23
ENDBRANCH   1   8
BRANCH   7  25
HETATM   25  O3  UNL     1      32.454  44.746   7.108  1.00  0.00    -0.256 OA
BRANCH  25  26
HETATM   26  C15 UNL     1      31.891  43.730   7.879  1.00  0.00     0.299 C 
HETATM   27  O4  UNL     1      32.496  42.609   7.798  1.00  0.00    -0.259 OA
BRANCH  26  28
HETATM   28  C16 UNL     1      30.730  43.847   8.717  1.00  0.00     0.040 A 
HETATM   29  C17 UNL     1      30.418  43.019   9.767  1.00  0.00     0.017 A 
HETATM   30  C18 UNL     1      29.289  43.188  10.544  1.00  0.00     0.001 A 
HETATM   31  C19 UNL     1      28.413  44.231  10.275  1.00  0.00     0.000 A 
HETATM   32  C20 UNL     1      28.711  45.069   9.226  1.00  0.00     0.001 A 
HETATM   33  C21 UNL     1      29.828  44.884   8.475  1.00  0.00     0.017 A 
ENDBRANCH  26  28
ENDBRANCH  25  26
ENDBRANCH   7  25
BRANCH   4  34
HETATM   34  C13 UNL     1      35.137  45.967  10.917  1.00  0.00     0.432 C 
HETATM   35  F1  UNL     1      34.609  44.749  11.368  1.00  0.00    -0.165 F 
HETATM   36  F2  UNL     1      34.808  46.916  11.880  1.00  0.00    -0.165 F 
HETATM   37  F3  UNL     1      36.491  45.795  10.813  1.00  0.00    -0.165 F 
ENDBRANCH   4  34
TORSDOF 10
ENDMDL
MODEL 2
REMARK VINA RESULT: -8.556770450      4.026      8.006
REMARK  10 active torsions:
REMARK  status: ('A' for Active; 'I' for Inactive)
REMARK    1  A    between atoms: C2_2  and  C3_3 
REMARK    2  A    between atoms: C6_6  and  C7_7 
REMARK       I    between atoms: C7_7  and  N1_9 
REMARK    3  A    between atoms: N1_9  and  N2_11 
REMARK    4  A    between atoms: N2_11  and  C8_13 
REMARK    5  A    between atoms: C8_13  and  O2_14 
REMARK    6  A    between atoms: C8_13  and  C9_16 
REMARK    7  A    between atoms: C12_19  and  C13_20 
REMARK    8  A    between atoms: C14_26  and  O3_27 
REMARK    9  A    between atoms: O3_27  and  C15_28 
REMARK   10  A    between atoms: C15_28  and  C16_30 
ROOT
HETATM    1  C9  UNL     1      28.684  47.695   7.375  1.00  0.00     0.068 A 
HETATM    2  C10 UNL     1      27.524  48.503   7.311  1.00  0.00     0.022 A 
HETATM    3  C11 UNL     1      27.473  49.572   6.474  1.00  0.00     0.035 A 
HETATM    4  C12 UNL     1      28.595  49.839   5.692  1.00  0.00     0.118 A 
HETATM    5  N3  UNL     1      29.683  49.064   5.769  1.00  0.00    -0.332 N 
ATOM      6  H3  UNL     1      30.486  49.291   5.181  1.00  0.00     0.168 HD
HETATM    7  C14 UNL     1      29.768  47.988   6.595  1.00  0.00     0.166 A 
ENDROOT
BRANCH   1   8
HETATM    8  C8  UNL     1      28.650  46.545   8.237  1.00  0.00     0.169 C 
BRANCH   8   9
HETATM    9  N2  UNL     1      28.807  45.204   7.912  1.00  0.00    -0.277 N 
ATOM     10  H2  UNL     1      27.987  44.647   7.667  1.00  0.00     0.189 HD
BRANCH   9  11
HETATM   11  N1  UNL     1      30.098  44.591   7.914  1.00  0.00    -0.264 N 
HETATM   12  C7  UNL     1      30.477  43.839   9.038  1.00  0.00     0.270 C 
HETATM   13  O1  UNL     1      29.687  43.720   9.998  1.00  0.00    -0.266 OA
ATOM     14  H1  UNL     1      30.728  44.697   7.119  1.00  0.00     0.190 HD
BRANCH  12  15
HETATM   15  C6  UNL     1      31.801  43.204   9.073  1.00  0.00     0.033 A 
HETATM   16  C5  UNL     1      32.500  43.110  10.250  1.00  0.00     0.018 A 
HETATM   17  C4  UNL     1      33.728  42.495  10.281  1.00  0.00     0.012 A 
HETATM   18  C3  UNL     1      34.319  41.946   9.149  1.00  0.00    -0.037 A 
HETATM   19  C23 UNL     1      33.612  42.042   7.962  1.00  0.00     0.012 A 
HETATM   20  C22 UNL     1      32.375  42.664   7.946  1.00  0.00     0.018 A 
BRANCH  18  21
HETATM   21  C2  UNL     1      35.615  41.316   9.278  1.00  0.00     0.001 C 
HETATM   22  C1  UNL     1      35.904  40.470  10.240  1.00  0.00     0.012 C 
ENDBRANCH  18  21
ENDBRANCH  12  15
ENDBRANCH   9  11
ENDBRANCH   8   9
BRANCH   8  23
HETATM   23  O2  UNL     1      28.445  46.752   9.506  1.00  0.00    -0.344 OA
ATOM     24  H2  UNL     1      28.077  47.607   9.696  1.00  0.00     0.219 HD
ENDBRANCH   8  23
ENDBRANCH   1   8
BRANCH   7  25
HETATM   25  O3  UNL     1      30.967  47.268   6.584  1.00  0.00    -0.256 OA
BRANCH  25  26
HETATM   26  C15 UNL     1      32.000  47.586   7.465  1.00  0.00     0.299 C 
HETATM   27  O4  UNL     1      31.859  48.706   8.062  1.00  0.00    -0.259 OA
BRANCH  26  28
HETATM   28  C16 UNL     1      33.160  46.783   7.736  1.00  0.00     0.040 A 
HETATM   29  C17 UNL     1      33.818  46.000   6.820  1.00  0.00     0.017 A 
HETATM   30  C18 UNL     1      34.937  45.255   7.139  1.00  0.00     0.001 A 
HETATM   31  C19 UNL     1      35.439  45.279   8.434  1.00  0.00     0.000 A 
HETATM   32  C20 UNL     1      34.789  46.058   9.363  1.00  0.00     0.001 A 
HETATM   33  C21 UNL     1      33.691  46.783   9.027  1.00  0.00     0.017 A 
ENDBRANCH  26  28
ENDBRANCH  25  26
ENDBRANCH   7  25
BRANCH   4  34
HETATM   34  C13 UNL     1      28.552  51.017   4.764  1.00  0.00     0.432 C 
HETATM   35  F1  UNL     1      27.887  50.680   3.577  1.00  0.00    -0.165 F 
HETATM   36  F2  UNL     1      29.834  51.415   4.393  1.00  0.00    -0.165 F 
HETATM   37  F3  UNL     1      27.845  52.040   5.333  1.00  0.00    -0.165 F 
ENDBRANCH   4  34
TORSDOF 10
ENDMDL
MODEL 3
REMARK VINA RESULT: -8.516657219      1.654      2.322
REMARK  10 active torsions:
REMARK  status: ('A' for Active; 'I' for Inactive)
REMARK    1  A    between atoms: C2_2  and  C3_3 
REMARK    2  A    between atoms: C6_6  and  C7_7 
REMARK       I    between atoms: C7_7  and  N1_9 
REMARK    3  A    between atoms: N1_9  and  N2_11 
REMARK    4  A    between atoms: N2_11  and  C8_13 
REMARK    5  A    between atoms: C8_13  and  O2_14 
REMARK    6  A    between atoms: C8_13  and  C9_16 
REMARK    7  A    between atoms: C12_19  and  C13_20 
REMARK    8  A    between atoms: C14_26  and  O3_27 
REMARK    9  A    between atoms: O3_27  and  C15_28 
REMARK   10  A    between atoms: C15_28  and  C16_30 
ROOT
HETATM    1  C9  UNL     1      32.652  48.920   7.087  1.00  0.00     0.068 A 
HETATM    2  C10 UNL     1      34.052  49.095   6.971  1.00  0.00     0.022 A 
HETATM    3  C11 UNL     1      34.908  48.237   7.585  1.00  0.00     0.035 A 
HETATM    4  C12 UNL     1      34.360  47.191   8.325  1.00  0.00     0.118 A 
HETATM    5  N3  UNL     1      33.034  47.043   8.424  1.00  0.00    -0.332 N 
ATOM      6  H3  UNL     1      32.670  46.266   8.975  1.00  0.00     0.168 HD
HETATM    7  C14 UNL     1      32.150  47.884   7.824  1.00  0.00     0.166 A 
ENDROOT
BRANCH   1   8
HETATM    8  C8  UNL     1      31.804  49.828   6.365  1.00  0.00     0.169 C 
BRANCH   8   9
HETATM    9  N2  UNL     1      30.869  49.551   5.375  1.00  0.00    -0.277 N 
ATOM     10  H2  UNL     1      31.114  49.703   4.397  1.00  0.00     0.189 HD
BRANCH   9  11
HETATM   11  N1  UNL     1      29.569  49.056   5.707  1.00  0.00    -0.264 N 
HETATM   12  C7  UNL     1      28.592  49.976   6.120  1.00  0.00     0.270 C 
HETATM   13  O1  UNL     1      28.873  51.191   6.185  1.00  0.00    -0.266 OA
ATOM     14  H1  UNL     1      29.358  48.061   5.645  1.00  0.00     0.190 HD
BRANCH  12  15
HETATM   15  C6  UNL     1      27.250  49.496   6.475  1.00  0.00     0.033 A 
HETATM   16  C5  UNL     1      26.132  50.177   6.059  1.00  0.00     0.018 A 
HETATM   17  C4  UNL     1      24.879  49.711   6.375  1.00  0.00     0.012 A 
HETATM   18  C3  UNL     1      24.675  48.553   7.116  1.00  0.00    -0.037 A 
HETATM   19  C23 UNL     1      25.804  47.868   7.535  1.00  0.00     0.012 A 
HETATM   20  C22 UNL     1      27.061  48.349   7.209  1.00  0.00     0.018 A 
BRANCH  18  21
HETATM   21  C2  UNL     1      23.318  48.137   7.398  1.00  0.00     0.001 C 
HETATM   22  C1  UNL     1      22.284  48.568   6.712  1.00  0.00     0.012 C 
ENDBRANCH  18  21
ENDBRANCH  12  15
ENDBRANCH   9  11
ENDBRANCH   8   9
BRANCH   8  23
HETATM   23  O2  UNL     1      31.899  51.094   6.651  1.00  0.00    -0.344 OA
ATOM     24  H2  UNL     1      32.763  51.352   6.949  1.00  0.00     0.219 HD
ENDBRANCH   8  23
ENDBRANCH   1   8
BRANCH   7  25
HETATM   25  O3  UNL     1      30.790  47.621   8.016  1.00  0.00    -0.256 OA
BRANCH  25  26
HETATM   26  C15 UNL     1      30.247  46.379   7.687  1.00  0.00     0.299 C 
HETATM   27  O4  UNL     1      30.066  46.198   6.436  1.00  0.00    -0.259 OA
BRANCH  26  28
HETATM   28  C16 UNL     1      29.892  45.338   8.610  1.00  0.00     0.040 A 
HETATM   29  C17 UNL     1      28.786  45.338   9.424  1.00  0.00     0.017 A 
HETATM   30  C18 UNL     1      28.492  44.301  10.288  1.00  0.00     0.001 A 
HETATM   31  C19 UNL     1      29.333  43.198  10.357  1.00  0.00     0.000 A 
HETATM   32  C20 UNL     1      30.446  43.184   9.548  1.00  0.00     0.001 A 
HETATM   33  C21 UNL     1      30.715  44.215   8.706  1.00  0.00     0.017 A 
ENDBRANCH  26  28
ENDBRANCH  25  26
ENDBRANCH   7  25
BRANCH   4  34
HETATM   34  C13 UNL     1      35.294  46.236   9.008  1.00  0.00     0.432 C 
HETATM   35  F1  UNL     1      35.158  44.949   8.468  1.00  0.00    -0.165 F 
HETATM   36  F2  UNL     1      34.999  46.123  10.363  1.00  0.00    -0.165 F 
HETATM   37  F3  UNL     1      36.592  46.615   8.798  1.00  0.00    -0.165 F 
ENDBRANCH   4  34
TORSDOF 10
ENDMDL
MODEL 4
REMARK VINA RESULT: -8.480228642      3.496      8.226
REMARK  10 active torsions:
REMARK  status: ('A' for Active; 'I' for Inactive)
REMARK    1  A    between atoms: C2_2  and  C3_3 
REMARK    2  A    between atoms: C6_6  and  C7_7 
REMARK       I    between atoms: C7_7  and  N1_9 
REMARK    3  A    between atoms: N1_9  and  N2_11 
REMARK    4  A    between atoms: N2_11  and  C8_13 
REMARK    5  A    between atoms: C8_13  and  O2_14 
REMARK    6  A    between atoms: C8_13  and  C9_16 
REMARK    7  A    between atoms: C12_19  and  C13_20 
REMARK    8  A    between atoms: C14_26  and  O3_27 
REMARK    9  A    between atoms: O3_27  and  C15_28 
REMARK   10  A    between atoms: C15_28  and  C16_30 
ROOT
HETATM    1  C9  UNL     1      30.001  44.685   8.759  1.00  0.00     0.068 A 
HETATM    2  C10 UNL     1      28.834  45.083   9.454  1.00  0.00     0.022 A 
HETATM    3  C11 UNL     1      28.085  46.124   9.005  1.00  0.00     0.035 A 
HETATM    4  C12 UNL     1      28.507  46.777   7.849  1.00  0.00     0.118 A 
HETATM    5  N3  UNL     1      29.614  46.387   7.207  1.00  0.00    -0.332 N 
ATOM      6  H3  UNL     1      29.892  46.890   6.364  1.00  0.00     0.168 HD
HETATM    7  C14 UNL     1      30.387  45.351   7.629  1.00  0.00     0.166 A 
ENDROOT
BRANCH   1   8
HETATM    8  C8  UNL     1      30.715  43.540   9.254  1.00  0.00     0.169 C 
BRANCH   8   9
HETATM    9  N2  UNL     1      31.919  43.004   8.816  1.00  0.00    -0.277 N 
ATOM     10  H2  UNL     1      31.933  42.072   8.402  1.00  0.00     0.189 HD
BRANCH   9  11
HETATM   11  N1  UNL     1      33.140  43.738   8.936  1.00  0.00    -0.264 N 
HETATM   12  C7  UNL     1      34.224  43.365   8.125  1.00  0.00     0.270 C 
HETATM   13  O1  UNL     1      34.100  42.416   7.323  1.00  0.00    -0.266 OA
ATOM     14  H1  UNL     1      33.221  44.513   9.595  1.00  0.00     0.190 HD
BRANCH  12  15
HETATM   15  C6  UNL     1      35.494  44.096   8.233  1.00  0.00     0.033 A 
HETATM   16  C5  UNL     1      36.379  44.115   7.184  1.00  0.00     0.018 A 
HETATM   17  C4  UNL     1      37.555  44.819   7.282  1.00  0.00     0.012 A 
HETATM   18  C3  UNL     1      37.908  45.533   8.420  1.00  0.00    -0.037 A 
HETATM   19  C23 UNL     1      37.014  45.512   9.478  1.00  0.00     0.012 A 
HETATM   20  C22 UNL     1      35.832  44.799   9.365  1.00  0.00     0.018 A 
BRANCH  18  21
HETATM   21  C2  UNL     1      39.167  46.247   8.432  1.00  0.00     0.001 C 
HETATM   22  C1  UNL     1      39.243  47.558   8.410  1.00  0.00     0.012 C 
ENDBRANCH  18  21
ENDBRANCH  12  15
ENDBRANCH   9  11
ENDBRANCH   8   9
BRANCH   8  23
HETATM   23  O2  UNL     1      30.188  42.889  10.251  1.00  0.00    -0.344 OA
ATOM     24  H2  UNL     1      30.192  43.376  11.067  1.00  0.00     0.219 HD
ENDBRANCH   8  23
ENDBRANCH   1   8
BRANCH   7  25
HETATM   25  O3  UNL     1      31.523  45.053   6.871  1.00  0.00    -0.256 OA
BRANCH  25  26
HETATM   26  C15 UNL     1      32.191  46.050   6.160  1.00  0.00     0.299 C 
HETATM   27  O4  UNL     1      31.703  46.292   5.006  1.00  0.00    -0.259 OA
BRANCH  26  28
HETATM   28  C16 UNL     1      33.337  46.789   6.612  1.00  0.00     0.040 A 
HETATM   29  C17 UNL     1      33.495  47.328   7.864  1.00  0.00     0.017 A 
HETATM   30  C18 UNL     1      34.627  48.023   8.243  1.00  0.00     0.001 A 
HETATM   31  C19 UNL     1      35.666  48.200   7.339  1.00  0.00     0.000 A 
HETATM   32  C20 UNL     1      35.523  47.666   6.079  1.00  0.00     0.001 A 
HETATM   33  C21 UNL     1      34.401  46.986   5.729  1.00  0.00     0.017 A 
ENDBRANCH  26  28
ENDBRANCH  25  26
ENDBRANCH   7  25
BRANCH   4  34
HETATM   34  C13 UNL     1      27.689  47.928   7.342  1.00  0.00     0.432 C 
HETATM   35  F1  UNL     1      27.812  49.030   8.199  1.00  0.00    -0.165 F 
HETATM   36  F2  UNL     1      26.334  47.609   7.309  1.00  0.00    -0.165 F 
HETATM   37  F3  UNL     1      28.147  48.329   6.117  1.00  0.00    -0.165 F 
ENDBRANCH   4  34
TORSDOF 10
ENDMDL
MODEL 5
REMARK VINA RESULT: -8.460552228      0.691      1.410
REMARK  10 active torsions:
REMARK  status: ('A' for Active; 'I' for Inactive)
REMARK    1  A    between atoms: C2_2  and  C3_3 
REMARK    2  A    between atoms: C6_6  and  C7_7 
REMARK       I    between atoms: C7_7  and  N1_9 
REMARK    3  A    between atoms: N1_9  and  N2_11 
REMARK    4  A    between atoms: N2_11  and  C8_13 
REMARK    5  A    between atoms: C8_13  and  O2_14 
REMARK    6  A    between atoms: C8_13  and  C9_16 
REMARK    7  A    between atoms: C12_19  and  C13_20 
REMARK    8  A    between atoms: C14_26  and  O3_27 
REMARK    9  A    between atoms: O3_27  and  C15_28 
REMARK   10  A    between atoms: C15_28  and  C16_30 
ROOT
HETATM    1  C9  UNL     1      33.661  47.195   7.122  1.00  0.00     0.068 A 
HETATM    2  C10 UNL     1      34.556  48.014   7.850  1.00  0.00     0.022 A 
HETATM    3  C11 UNL     1      35.004  47.630   9.074  1.00  0.00     0.035 A 
HETATM    4  C12 UNL     1      34.553  46.411   9.578  1.00  0.00     0.118 A 
HETATM    5  N3  UNL     1      33.705  45.652   8.875  1.00  0.00    -0.332 N 
ATOM      6  H3  UNL     1      33.396  44.766   9.277  1.00  0.00     0.168 HD
HETATM    7  C14 UNL     1      33.236  46.007   7.649  1.00  0.00     0.166 A 
ENDROOT
BRANCH   1   8
HETATM    8  C8  UNL     1      33.272  47.632   5.810  1.00  0.00     0.169 C 
BRANCH   8   9
HETATM    9  N2  UNL     1      32.512  48.737   5.446  1.00  0.00    -0.277 N 
ATOM     10  H2  UNL     1      32.982  49.596   5.157  1.00  0.00     0.189 HD
BRANCH   9  11
HETATM   11  N1  UNL     1      31.084  48.691   5.470  1.00  0.00    -0.264 N 
HETATM   12  C7  UNL     1      30.413  49.373   6.498  1.00  0.00     0.270 C 
HETATM   13  O1  UNL     1      31.068  50.001   7.356  1.00  0.00    -0.266 OA
ATOM     14  H1  UNL     1      30.566  48.175   4.759  1.00  0.00     0.190 HD
BRANCH  12  15
HETATM   15  C6  UNL     1      28.945  49.336   6.554  1.00  0.00     0.033 A 
HETATM   16  C5  UNL     1      28.299  48.428   7.355  1.00  0.00     0.018 A 
HETATM   17  C4  UNL     1      26.927  48.413   7.420  1.00  0.00     0.012 A 
HETATM   18  C3  UNL     1      26.133  49.295   6.696  1.00  0.00    -0.037 A 
HETATM   19  C23 UNL     1      26.787  50.210   5.888  1.00  0.00     0.012 A 
HETATM   20  C22 UNL     1      28.171  50.214   5.833  1.00  0.00     0.018 A 
BRANCH  18  21
HETATM   21  C2  UNL     1      24.695  49.207   6.830  1.00  0.00     0.001 C 
HETATM   22  C1  UNL     1      24.065  48.069   7.012  1.00  0.00     0.012 C 
ENDBRANCH  18  21
ENDBRANCH  12  15
ENDBRANCH   9  11
ENDBRANCH   8   9
BRANCH   8  23
HETATM   23  O2  UNL     1      33.668  46.917   4.796  1.00  0.00    -0.344 OA
ATOM     24  H2  UNL     1      33.026  46.279   4.508  1.00  0.00     0.219 HD
ENDBRANCH   8  23
ENDBRANCH   1   8
BRANCH   7  25
HETATM   25  O3  UNL     1      32.348  45.125   7.026  1.00  0.00    -0.256 OA
BRANCH  25  26
HETATM   26  C15 UNL     1      30.973  45.223   7.241  1.00  0.00     0.299 C 
HETATM   27  O4  UNL     1      30.345  45.875   6.341  1.00  0.00    -0.259 OA
BRANCH  26  28
HETATM   28  C16 UNL     1      30.247  44.672   8.351  1.00  0.00     0.040 A 
HETATM   29  C17 UNL     1      30.559  43.508   9.008  1.00  0.00     0.017 A 
HETATM   30  C18 UNL     1      29.826  43.032  10.078  1.00  0.00     0.001 A 
HETATM   31  C19 UNL     1      28.722  43.742  10.531  1.00  0.00     0.000 A 
HETATM   32  C20 UNL     1      28.397  44.911   9.883  1.00  0.00     0.001 A 
HETATM   33  C21 UNL     1      29.132  45.360   8.833  1.00  0.00     0.017 A 
ENDBRANCH  26  28
ENDBRANCH  25  26
ENDBRANCH   7  25
BRANCH   4  34
HETATM   34  C13 UNL     1      35.040  45.974  10.927  1.00  0.00     0.432 C 
HETATM   35  F1  UNL     1      36.426  45.762  10.902  1.00  0.00    -0.165 F 
HETATM   36  F2  UNL     1      34.467  44.763  11.304  1.00  0.00    -0.165 F 
HETATM   37  F3  UNL     1      34.810  46.956  11.852  1.00  0.00    -0.165 F 
ENDBRANCH   4  34
TORSDOF 10
ENDMDL
