MODEL 1
REMARK VINA RESULT: -7.338820261      0.000      0.000
REMARK  6 active torsions:
REMARK  status: ('A' for Active; 'I' for Inactive)
REMARK    1  A    between atoms: C4_6  and  C5_7 
REMARK       I    between atoms: C5_7  and  N2_9 
REMARK    2  A    between atoms: N2_9  and  C6_11 
REMARK    3  A    between atoms: C9_14  and  C10_15 
REMARK    4  A    between atoms: C10_15  and  C12_18 
REMARK    5  A    between atoms: C12_18  and  C13_19 
REMARK    6  A    between atoms: C13_19  and  O2_22 
ROOT
HETATM    1  C5  UNL     1      28.598  48.400   7.265  1.00  0.00     0.275 C 
HETATM    2  O1  UNL     1      29.487  49.230   6.949  1.00  0.00    -0.265 OA
HETATM    3  N2  UNL     1      28.848  47.108   7.740  1.00  0.00    -0.351 N 
ATOM      4  H2  UNL     1      28.045  46.521   7.966  1.00  0.00     0.163 HD
ENDROOT
BRANCH   3   5
HETATM    5  C6  UNL     1      30.166  46.548   7.932  1.00  0.00     0.084 C 
HETATM    6  C7  UNL     1      30.885  46.462   6.636  1.00  0.00     0.026 C 
HETATM    7  C8  UNL     1      31.946  45.449   6.498  1.00  0.00     0.010 C 
HETATM    8  C9  UNL     1      32.252  44.572   7.645  1.00  0.00     0.025 C 
HETATM    9  C16 UNL     1      31.410  44.719   8.859  1.00  0.00     0.010 C 
HETATM   10  C17 UNL     1      29.986  45.146   8.467  1.00  0.00     0.026 C 
BRANCH   8  11
HETATM   11  C10 UNL     1      33.737  44.765   8.006  1.00  0.00     0.106 C 
HETATM   12  C11 UNL     1      34.442  45.149   6.733  1.00  0.00     0.052 C 
HETATM   13  F1  UNL     1      34.150  43.526   8.468  1.00  0.00    -0.243 F 
BRANCH  11  14
HETATM   14  C12 UNL     1      33.788  45.829   9.026  1.00  0.00     0.080 C 
BRANCH  14  15
HETATM   15  C13 UNL     1      34.889  45.862   9.994  1.00  0.00     0.053 C 
HETATM   16  C14 UNL     1      34.560  44.998  11.220  1.00  0.00     0.045 C 
HETATM   17  C15 UNL     1      36.259  45.547   9.559  1.00  0.00     0.045 C 
BRANCH  15  18
HETATM   18  O2  UNL     1      34.923  47.179  10.529  1.00  0.00    -0.391 OA
ATOM     19  H2  UNL     1      35.824  47.348  10.780  1.00  0.00     0.210 HD
ENDBRANCH  15  18
ENDBRANCH  14  15
ENDBRANCH  11  14
ENDBRANCH   8  11
ENDBRANCH   3   5
BRANCH   1  20
HETATM   20  C4  UNL     1      27.201  48.867   7.110  1.00  0.00     0.143 A 
HETATM   21  N1  UNL     1      26.767  50.035   6.659  1.00  0.00    -0.348 N 
HETATM   22  C3  UNL     1      25.498  50.272   6.591  1.00  0.00     0.036 A 
ATOM     23  H1  UNL     1      27.435  50.747   6.364  1.00  0.00     0.166 HD
HETATM   24  C2  UNL     1      24.772  51.521   6.113  1.00  0.00     0.138 C 
HETATM   25  C18 UNL     1      24.640  49.281   7.001  1.00  0.00     0.036 A 
HETATM   26  C1  UNL     1      25.693  52.450   5.399  1.00  0.00     0.025 C 
HETATM   27  C21 UNL     1      23.692  50.962   5.176  1.00  0.00     0.446 C 
HETATM   28  N3  UNL     1      22.697  50.360   5.996  1.00  0.00     0.161 N 
HETATM   29  F2  UNL     1      23.123  51.948   4.428  1.00  0.00    -0.172 F 
HETATM   30  F3  UNL     1      24.269  49.998   4.339  1.00  0.00    -0.172 F 
HETATM   31  C19 UNL     1      23.148  49.436   6.972  1.00  0.00     0.328 C 
HETATM   32  C20 UNL     1      21.589  49.881   5.198  1.00  0.00     0.318 C 
HETATM   33  S1  UNL     1      25.737  48.051   7.463  1.00  0.00    -0.068 SA
ENDBRANCH   1  20
TORSDOF 6
ENDMDL
MODEL 2
REMARK VINA RESULT: -7.334430005      1.967      2.797
REMARK  6 active torsions:
REMARK  status: ('A' for Active; 'I' for Inactive)
REMARK    1  A    between atoms: C4_6  and  C5_7 
REMARK       I    between atoms: C5_7  and  N2_9 
REMARK    2  A    between atoms: N2_9  and  C6_11 
REMARK    3  A    between atoms: C9_14  and  C10_15 
REMARK    4  A    between atoms: C10_15  and  C12_18 
REMARK    5  A    between atoms: C12_18  and  C13_19 
REMARK    6  A    between atoms: C13_19  and  O2_22 
ROOT
HETATM    1  C5  UNL     1      30.544  47.931   7.607  1.00  0.00     0.275 C 
HETATM    2  O1  UNL     1      31.319  48.678   8.255  1.00  0.00    -0.265 OA
HETATM    3  N2  UNL     1      30.673  46.541   7.511  1.00  0.00    -0.351 N 
ATOM      4  H2  UNL     1      29.981  46.037   6.955  1.00  0.00     0.163 HD
ENDROOT
BRANCH   3   5
HETATM    5  C6  UNL     1      31.718  45.771   8.146  1.00  0.00     0.084 C 
HETATM    6  C7  UNL     1      32.744  45.374   7.151  1.00  0.00     0.026 C 
HETATM    7  C8  UNL     1      33.545  44.168   7.425  1.00  0.00     0.010 C 
HETATM    8  C9  UNL     1      33.299  43.413   8.669  1.00  0.00     0.025 C 
HETATM    9  C16 UNL     1      32.195  43.882   9.544  1.00  0.00     0.010 C 
HETATM   10  C17 UNL     1      31.080  44.515   8.696  1.00  0.00     0.026 C 
BRANCH   8  11
HETATM   11  C10 UNL     1      34.618  43.365   9.463  1.00  0.00     0.106 C 
HETATM   12  C11 UNL     1      35.352  42.134   9.004  1.00  0.00     0.052 C 
HETATM   13  F1  UNL     1      34.227  43.266  10.789  1.00  0.00    -0.243 F 
BRANCH  11  14
HETATM   14  C12 UNL     1      35.345  44.609   9.147  1.00  0.00     0.080 C 
BRANCH  14  15
HETATM   15  C13 UNL     1      35.440  45.676  10.149  1.00  0.00     0.053 C 
HETATM   16  C14 UNL     1      34.767  46.960   9.643  1.00  0.00     0.045 C 
HETATM   17  C15 UNL     1      34.989  45.430  11.529  1.00  0.00     0.045 C 
BRANCH  15  18
HETATM   18  O2  UNL     1      36.811  46.041  10.228  1.00  0.00    -0.391 OA
ATOM     19  H2  UNL     1      36.841  46.991  10.234  1.00  0.00     0.210 HD
ENDBRANCH  15  18
ENDBRANCH  14  15
ENDBRANCH  11  14
ENDBRANCH   8  11
ENDBRANCH   3   5
BRANCH   1  20
HETATM   20  C4  UNL     1      29.428  48.614   6.912  1.00  0.00     0.143 A 
HETATM   21  N1  UNL     1      28.125  48.432   7.067  1.00  0.00    -0.348 N 
HETATM   22  C3  UNL     1      27.287  49.124   6.368  1.00  0.00     0.036 A 
ATOM     23  H1  UNL     1      27.784  47.746   7.740  1.00  0.00     0.166 HD
HETATM   24  C2  UNL     1      25.765  49.092   6.373  1.00  0.00     0.138 C 
HETATM   25  C18 UNL     1      27.797  50.034   5.475  1.00  0.00     0.036 A 
HETATM   26  C1  UNL     1      25.238  48.334   7.543  1.00  0.00     0.025 C 
HETATM   27  C21 UNL     1      25.383  50.577   6.441  1.00  0.00     0.446 C 
HETATM   28  N3  UNL     1      25.644  51.135   5.158  1.00  0.00     0.161 N 
HETATM   29  F2  UNL     1      24.064  50.739   6.742  1.00  0.00    -0.172 F 
HETATM   30  F3  UNL     1      26.176  51.209   7.408  1.00  0.00    -0.172 F 
HETATM   31  C19 UNL     1      26.928  50.895   4.607  1.00  0.00     0.328 C 
HETATM   32  C20 UNL     1      25.228  52.520   5.102  1.00  0.00     0.318 C 
HETATM   33  S1  UNL     1      29.480  49.831   5.708  1.00  0.00    -0.068 SA
ENDBRANCH   1  20
TORSDOF 6
ENDMDL
MODEL 3
REMARK VINA RESULT: -7.328239024      6.282     10.268
REMARK  6 active torsions:
REMARK  status: ('A' for Active; 'I' for Inactive)
REMARK    1  A    between atoms: C4_6  and  C5_7 
REMARK       I    between atoms: C5_7  and  N2_9 
REMARK    2  A    between atoms: N2_9  and  C6_11 
REMARK    3  A    between atoms: C9_14  and  C10_15 
REMARK    4  A    between atoms: C10_15  and  C12_18 
REMARK    5  A    between atoms: C12_18  and  C13_19 
REMARK    6  A    between atoms: C13_19  and  O2_22 
ROOT
HETATM    1  C5  UNL     1      34.886  48.838   7.139  1.00  0.00     0.275 C 
HETATM    2  O1  UNL     1      33.907  49.465   6.661  1.00  0.00    -0.265 OA
HETATM    3  N2  UNL     1      34.806  47.579   7.746  1.00  0.00    -0.351 N 
ATOM      4  H2  UNL     1      35.670  47.166   8.098  1.00  0.00     0.163 HD
ENDROOT
BRANCH   3   5
HETATM    5  C6  UNL     1      33.584  46.826   7.908  1.00  0.00     0.084 C 
HETATM    6  C7  UNL     1      33.696  45.900   9.062  1.00  0.00     0.026 C 
HETATM    7  C8  UNL     1      32.856  44.689   9.063  1.00  0.00     0.010 C 
HETATM    8  C9  UNL     1      31.941  44.451   7.930  1.00  0.00     0.025 C 
HETATM    9  C16 UNL     1      31.979  45.423   6.809  1.00  0.00     0.010 C 
HETATM   10  C17 UNL     1      33.395  46.000   6.655  1.00  0.00     0.026 C 
BRANCH   8  11
HETATM   11  C10 UNL     1      30.511  44.346   8.490  1.00  0.00     0.106 C 
HETATM   12  C11 UNL     1      30.538  43.269   9.542  1.00  0.00     0.052 C 
HETATM   13  F1  UNL     1      29.733  43.981   7.403  1.00  0.00    -0.243 F 
BRANCH  11  14
HETATM   14  C12 UNL     1      30.177  45.671   9.044  1.00  0.00     0.080 C 
BRANCH  14  15
HETATM   15  C13 UNL     1      28.875  46.280   8.751  1.00  0.00     0.053 C 
HETATM   16  C14 UNL     1      28.909  47.014   7.402  1.00  0.00     0.045 C 
HETATM   17  C15 UNL     1      27.653  45.462   8.801  1.00  0.00     0.045 C 
BRANCH  15  18
HETATM   18  O2  UNL     1      28.697  47.336   9.686  1.00  0.00    -0.391 OA
ATOM     19  H2  UNL     1      28.839  48.147   9.213  1.00  0.00     0.210 HD
ENDBRANCH  15  18
ENDBRANCH  14  15
ENDBRANCH  11  14
ENDBRANCH   8  11
ENDBRANCH   3   5
BRANCH   1  20
HETATM   20  C4  UNL     1      36.198  49.517   7.029  1.00  0.00     0.143 A 
HETATM   21  N1  UNL     1      36.471  50.702   6.503  1.00  0.00    -0.348 N 
HETATM   22  C3  UNL     1      37.686  51.141   6.492  1.00  0.00     0.036 A 
ATOM     23  H1  UNL     1      35.721  51.268   6.106  1.00  0.00     0.166 HD
HETATM   24  C2  UNL     1      38.236  52.453   5.952  1.00  0.00     0.138 C 
HETATM   25  C18 UNL     1      38.660  50.340   7.037  1.00  0.00     0.036 A 
HETATM   26  C1  UNL     1      37.143  53.420   5.648  1.00  0.00     0.025 C 
HETATM   27  C21 UNL     1      39.136  52.953   7.091  1.00  0.00     0.446 C 
HETATM   28  N3  UNL     1      40.304  52.141   7.088  1.00  0.00     0.161 N 
HETATM   29  F2  UNL     1      39.492  54.255   6.909  1.00  0.00    -0.172 F 
HETATM   30  F3  UNL     1      38.455  52.807   8.307  1.00  0.00    -0.172 F 
HETATM   31  C19 UNL     1      40.106  50.737   7.083  1.00  0.00     0.328 C 
HETATM   32  C20 UNL     1      41.255  52.599   8.078  1.00  0.00     0.318 C 
HETATM   33  S1  UNL     1      37.743  48.985   7.539  1.00  0.00    -0.068 SA
ENDBRANCH   1  20
TORSDOF 6
ENDMDL
MODEL 4
REMARK VINA RESULT: -7.077779293      1.793      2.040
REMARK  6 active torsions:
REMARK  status: ('A' for Active; 'I' for Inactive)
REMARK    1  A    between atoms: C4_6  and  C5_7 
REMARK       I    between atoms: C5_7  and  N2_9 
REMARK    2  A    between atoms: N2_9  and  C6_11 
REMARK    3  A    between atoms: C9_14  and  C10_15 
REMARK    4  A    between atoms: C10_15  and  C12_18 
REMARK    5  A    between atoms: C12_18  and  C13_19 
REMARK    6  A    between atoms: C13_19  and  O2_22 
ROOT
HETATM    1  C5  UNL     1      27.851  46.953   8.149  1.00  0.00     0.275 C 
HETATM    2  O1  UNL     1      27.314  46.082   8.879  1.00  0.00    -0.265 OA
HETATM    3  N2  UNL     1      29.202  46.965   7.786  1.00  0.00    -0.351 N 
ATOM      4  H2  UNL     1      29.527  47.724   7.187  1.00  0.00     0.163 HD
ENDROOT
BRANCH   3   5
HETATM    5  C6  UNL     1      30.169  45.975   8.202  1.00  0.00     0.084 C 
HETATM    6  C7  UNL     1      31.411  46.096   7.399  1.00  0.00     0.026 C 
HETATM    7  C8  UNL     1      32.257  44.899   7.247  1.00  0.00     0.010 C 
HETATM    8  C9  UNL     1      31.842  43.642   7.899  1.00  0.00     0.025 C 
HETATM    9  C16 UNL     1      30.542  43.643   8.616  1.00  0.00     0.010 C 
HETATM   10  C17 UNL     1      29.564  44.615   7.938  1.00  0.00     0.026 C 
BRANCH   8  11
HETATM   11  C10 UNL     1      32.971  43.207   8.853  1.00  0.00     0.106 C 
HETATM   12  C11 UNL     1      33.544  41.935   8.289  1.00  0.00     0.052 C 
HETATM   13  F1  UNL     1      32.342  42.992  10.068  1.00  0.00    -0.243 F 
BRANCH  11  14
HETATM   14  C12 UNL     1      33.951  44.309   8.875  1.00  0.00     0.080 C 
BRANCH  14  15
HETATM   15  C13 UNL     1      34.932  44.394   9.961  1.00  0.00     0.053 C 
HETATM   16  C14 UNL     1      36.245  45.013   9.461  1.00  0.00     0.045 C 
HETATM   17  C15 UNL     1      34.568  45.044  11.231  1.00  0.00     0.045 C 
BRANCH  15  18
HETATM   18  O2  UNL     1      35.306  43.060  10.279  1.00  0.00    -0.391 OA
ATOM     19  H2  UNL     1      34.738  42.778  10.986  1.00  0.00     0.210 HD
ENDBRANCH  15  18
ENDBRANCH  14  15
ENDBRANCH  11  14
ENDBRANCH   8  11
ENDBRANCH   3   5
BRANCH   1  20
HETATM   20  C4  UNL     1      26.951  48.022   7.660  1.00  0.00     0.143 A 
HETATM   21  N1  UNL     1      27.260  49.258   7.297  1.00  0.00    -0.348 N 
HETATM   22  C3  UNL     1      26.335  50.065   6.891  1.00  0.00     0.036 A 
ATOM     23  H1  UNL     1      28.229  49.574   7.338  1.00  0.00     0.166 HD
HETATM   24  C2  UNL     1      26.447  51.510   6.428  1.00  0.00     0.138 C 
HETATM   25  C18 UNL     1      25.046  49.593   6.856  1.00  0.00     0.036 A 
HETATM   26  C1  UNL     1      27.865  51.900   6.187  1.00  0.00     0.025 C 
HETATM   27  C21 UNL     1      25.625  51.529   5.132  1.00  0.00     0.446 C 
HETATM   28  N3  UNL     1      24.254  51.463   5.505  1.00  0.00     0.161 N 
HETATM   29  F2  UNL     1      25.844  52.670   4.421  1.00  0.00    -0.172 F 
HETATM   30  F3  UNL     1      25.966  50.410   4.360  1.00  0.00    -0.172 F 
HETATM   31  C19 UNL     1      23.886  50.432   6.405  1.00  0.00     0.328 C 
HETATM   32  C20 UNL     1      23.396  51.565   4.343  1.00  0.00     0.318 C 
HETATM   33  S1  UNL     1      25.256  47.990   7.418  1.00  0.00    -0.068 SA
ENDBRANCH   1  20
TORSDOF 6
ENDMDL
MODEL 5
REMARK VINA RESULT: -7.070246960      1.355      1.561
REMARK  6 active torsions:
REMARK  status: ('A' for Active; 'I' for Inactive)
REMARK    1  A    between atoms: C4_6  and  C5_7 
REMARK       I    between atoms: C5_7  and  N2_9 
REMARK    2  A    between atoms: N2_9  and  C6_11 
REMARK    3  A    between atoms: C9_14  and  C10_15 
REMARK    4  A    between atoms: C10_15  and  C12_18 
REMARK    5  A    between atoms: C12_18  and  C13_19 
REMARK    6  A    between atoms: C13_19  and  O2_22 
ROOT
HETATM    1  C5  UNL     1      28.021  48.615   7.190  1.00  0.00     0.275 C 
HETATM    2  O1  UNL     1      28.915  49.451   6.903  1.00  0.00    -0.265 OA
HETATM    3  N2  UNL     1      28.264  47.321   7.665  1.00  0.00    -0.351 N 
ATOM      4  H2  UNL     1      27.457  46.729   7.865  1.00  0.00     0.163 HD
ENDROOT
BRANCH   3   5
HETATM    5  C6  UNL     1      29.578  46.766   7.891  1.00  0.00     0.084 C 
HETATM    6  C7  UNL     1      30.333  46.689   6.615  1.00  0.00     0.026 C 
HETATM    7  C8  UNL     1      31.402  45.682   6.503  1.00  0.00     0.010 C 
HETATM    8  C9  UNL     1      31.680  44.801   7.654  1.00  0.00     0.025 C 
HETATM    9  C16 UNL     1      30.804  44.939   8.845  1.00  0.00     0.010 C 
HETATM   10  C17 UNL     1      29.389  45.361   8.415  1.00  0.00     0.026 C 
BRANCH   8  11
HETATM   11  C10 UNL     1      33.153  44.998   8.058  1.00  0.00     0.106 C 
HETATM   12  C11 UNL     1      33.335  46.470   8.317  1.00  0.00     0.052 C 
HETATM   13  F1  UNL     1      33.879  44.578   6.955  1.00  0.00    -0.243 F 
BRANCH  11  14
HETATM   14  C12 UNL     1      33.373  44.179   9.264  1.00  0.00     0.080 C 
BRANCH  14  15
HETATM   15  C13 UNL     1      34.381  43.114   9.252  1.00  0.00     0.053 C 
HETATM   16  C14 UNL     1      33.863  41.884   8.492  1.00  0.00     0.045 C 
HETATM   17  C15 UNL     1      35.748  43.402   8.788  1.00  0.00     0.045 C 
BRANCH  15  18
HETATM   18  O2  UNL     1      34.494  42.642  10.588  1.00  0.00    -0.391 OA
ATOM     19  H2  UNL     1      34.106  43.306  11.146  1.00  0.00     0.210 HD
ENDBRANCH  15  18
ENDBRANCH  14  15
ENDBRANCH  11  14
ENDBRANCH   8  11
ENDBRANCH   3   5
BRANCH   1  20
HETATM   20  C4  UNL     1      26.626  49.076   6.997  1.00  0.00     0.143 A 
HETATM   21  N1  UNL     1      26.200  50.213   6.466  1.00  0.00    -0.348 N 
HETATM   22  C3  UNL     1      24.933  50.450   6.377  1.00  0.00     0.036 A 
ATOM     23  H1  UNL     1      26.872  50.900   6.127  1.00  0.00     0.166 HD
HETATM   24  C2  UNL     1      24.214  51.667   5.812  1.00  0.00     0.138 C 
HETATM   25  C18 UNL     1      24.068  49.493   6.850  1.00  0.00     0.036 A 
HETATM   26  C1  UNL     1      25.143  52.542   5.042  1.00  0.00     0.025 C 
HETATM   27  C21 UNL     1      23.135  51.051   4.911  1.00  0.00     0.446 C 
HETATM   28  N3  UNL     1      22.135  50.510   5.765  1.00  0.00     0.161 N 
HETATM   29  F2  UNL     1      22.574  51.987   4.096  1.00  0.00    -0.172 F 
HETATM   30  F3  UNL     1      23.711  50.031   4.143  1.00  0.00    -0.172 F 
HETATM   31  C19 UNL     1      22.577  49.652   6.803  1.00  0.00     0.328 C 
HETATM   32  C20 UNL     1      21.028  49.984   4.996  1.00  0.00     0.318 C 
HETATM   33  S1  UNL     1      25.157  48.293   7.398  1.00  0.00    -0.068 SA
ENDBRANCH   1  20
TORSDOF 6
ENDMDL
