MODEL 1
REMARK VINA RESULT: -8.352215721      0.000      0.000
REMARK  10 active torsions:
REMARK  status: ('A' for Active; 'I' for Inactive)
REMARK    1  A    between atoms: C2_2  and  N1_3 
REMARK    2  A    between atoms: C2_2  and  C3_7 
REMARK    3  A    between atoms: C4_8  and  C5_9 
REMARK    4  A    between atoms: C6_10  and  C7_11 
REMARK    5  A    between atoms: C13_19  and  C14_20 
REMARK    6  A    between atoms: C15_21  and  C16_22 
REMARK    7  A    between atoms: C25_37  and  N5_38 
REMARK    8  A    between atoms: N6_41  and  C28_42 
REMARK    9  A    between atoms: C28_42  and  C29_43 
REMARK   10  A    between atoms: C29_43  and  O3_44 
ROOT
HETATM    1  C5  UNL     1      20.682 -34.843  -5.180  1.00  0.00     0.097 A 
HETATM    2  C6  UNL     1      21.854 -35.494  -4.996  1.00  0.00     0.085 A 
HETATM    3  N4  UNL     1      22.459 -36.150  -6.040  1.00  0.00    -0.339 N 
ATOM      4  H4  UNL     1      23.344 -36.627  -5.869  1.00  0.00     0.167 HD
HETATM    5  C25 UNL     1      21.937 -36.189  -7.272  1.00  0.00     0.107 A 
HETATM    6  C32 UNL     1      20.742 -35.536  -7.466  1.00  0.00     0.104 A 
HETATM    7  C33 UNL     1      20.098 -34.866  -6.463  1.00  0.00     0.196 A 
HETATM    8  O4  UNL     1      19.006 -34.269  -6.634  1.00  0.00    -0.287 OA
ENDROOT
BRANCH   2   9
HETATM    9  C7  UNL     1      22.557 -35.439  -3.695  1.00  0.00     0.077 A 
HETATM   10  C8  UNL     1      22.296 -36.497  -2.799  1.00  0.00     0.120 A 
HETATM   11  N2  UNL     1      22.951 -36.670  -1.659  1.00  0.00    -0.362 N 
HETATM   12  C9  UNL     1      23.914 -35.827  -1.293  1.00  0.00     0.060 A 
ATOM     13  H2  UNL     1      22.714 -37.459  -1.056  1.00  0.00     0.165 HD
HETATM   14  C10 UNL     1      24.595 -35.952  -0.118  1.00  0.00     0.032 A 
HETATM   15  C24 UNL     1      24.202 -34.752  -2.160  1.00  0.00     0.078 A 
HETATM   16  C11 UNL     1      25.553 -35.058   0.259  1.00  0.00     0.004 A 
HETATM   17  C12 UNL     1      25.816 -34.018  -0.582  1.00  0.00     0.023 A 
HETATM   18  C13 UNL     1      25.147 -33.837  -1.805  1.00  0.00     0.047 A 
HETATM   19  N3  UNL     1      23.517 -34.610  -3.320  1.00  0.00    -0.350 N 
ATOM     20  H3  UNL     1      23.751 -33.827  -3.932  1.00  0.00     0.166 HD
BRANCH  18  21
HETATM   21  C14 UNL     1      25.351 -32.616  -2.516  1.00  0.00    -0.059 C 
HETATM   22  C15 UNL     1      25.606 -31.609  -3.133  1.00  0.00    -0.061 C 
BRANCH  22  23
HETATM   23  C16 UNL     1      25.953 -30.428  -3.872  1.00  0.00     0.021 A 
HETATM   24  C17 UNL     1      25.893 -30.449  -5.265  1.00  0.00     0.023 A 
HETATM   25  C18 UNL     1      26.213 -29.347  -6.029  1.00  0.00     0.041 A 
HETATM   26  C19 UNL     1      26.607 -28.174  -5.426  1.00  0.00     0.102 A 
HETATM   27  C20 UNL     1      26.675 -28.124  -4.056  1.00  0.00     0.103 A 
HETATM   28  O2  UNL     1      26.940 -27.039  -6.160  1.00  0.00    -0.346 OA
HETATM   29  C21 UNL     1      26.349 -29.242  -3.308  1.00  0.00     0.060 A 
HETATM   30  O1  UNL     1      27.078 -26.923  -3.491  1.00  0.00    -0.346 OA
HETATM   31  C22 UNL     1      26.876 -25.674  -4.139  1.00  0.00     0.202 C 
HETATM   32  C23 UNL     1      26.966 -25.749  -5.632  1.00  0.00     0.202 C 
ENDBRANCH  22  23
ENDBRANCH  18  21
ENDBRANCH   2   9
BRANCH   1  33
HETATM   33  C4  UNL     1      20.077 -33.913  -4.231  1.00  0.00    -0.058 C 
HETATM   34  C3  UNL     1      19.475 -33.196  -3.486  1.00  0.00    -0.068 C 
BRANCH  34  35
HETATM   35  C2  UNL     1      18.648 -32.368  -2.581  1.00  0.00     0.258 C 
HETATM   36  C1  UNL     1      17.481 -31.735  -3.273  1.00  0.00     0.053 C 
BRANCH  35  37
HETATM   37  N1  UNL     1      18.077 -33.327  -1.616  1.00  0.00    -0.065 N 
ATOM     38  H13 UNL     1      17.157 -33.057  -1.270  1.00  0.00     0.275 HD
ATOM     39  H12 UNL     1      17.796 -34.211  -2.040  1.00  0.00     0.275 HD
ATOM     40  H11 UNL     1      18.774 -33.434  -0.878  1.00  0.00     0.275 HD
ENDBRANCH  35  37
ENDBRANCH  34  35
ENDBRANCH   1  33
BRANCH   5  41
HETATM   41  N5  UNL     1      22.582 -36.888  -8.345  1.00  0.00    -0.364 N 
HETATM   42  C26 UNL     1      24.016 -37.004  -8.327  1.00  0.00     0.154 C 
HETATM   43  C27 UNL     1      24.487 -38.141  -9.211  1.00  0.00     0.292 C 
HETATM   44  N6  UNL     1      23.967 -38.072 -10.544  1.00  0.00     0.093 N 
HETATM   45  C30 UNL     1      22.701 -37.453 -10.680  1.00  0.00     0.292 C 
HETATM   46  C31 UNL     1      21.852 -37.462  -9.422  1.00  0.00     0.154 C 
BRANCH  44  47
HETATM   47  C28 UNL     1      24.174 -39.309 -11.209  1.00  0.00     0.298 C 
BRANCH  47  48
HETATM   48  C29 UNL     1      24.218 -40.522 -10.336  1.00  0.00     0.194 C 
BRANCH  48  49
HETATM   49  O3  UNL     1      22.952 -41.123 -10.307  1.00  0.00    -0.399 OA
ATOM     50  H3  UNL     1      23.011 -41.967  -9.874  1.00  0.00     0.209 HD
ENDBRANCH  48  49
ENDBRANCH  47  48
ENDBRANCH  44  47
ENDBRANCH   5  41
TORSDOF 10
ENDMDL
MODEL 2
REMARK VINA RESULT: -8.318720094      0.588      1.164
REMARK  10 active torsions:
REMARK  status: ('A' for Active; 'I' for Inactive)
REMARK    1  A    between atoms: C2_2  and  N1_3 
REMARK    2  A    between atoms: C2_2  and  C3_7 
REMARK    3  A    between atoms: C4_8  and  C5_9 
REMARK    4  A    between atoms: C6_10  and  C7_11 
REMARK    5  A    between atoms: C13_19  and  C14_20 
REMARK    6  A    between atoms: C15_21  and  C16_22 
REMARK    7  A    between atoms: C25_37  and  N5_38 
REMARK    8  A    between atoms: N6_41  and  C28_42 
REMARK    9  A    between atoms: C28_42  and  C29_43 
REMARK   10  A    between atoms: C29_43  and  O3_44 
ROOT
HETATM    1  C5  UNL     1      20.686 -34.858  -5.178  1.00  0.00     0.097 A 
HETATM    2  C6  UNL     1      21.867 -35.492  -4.999  1.00  0.00     0.085 A 
HETATM    3  N4  UNL     1      22.474 -36.145  -6.045  1.00  0.00    -0.339 N 
ATOM      4  H4  UNL     1      23.367 -36.609  -5.878  1.00  0.00     0.167 HD
HETATM    5  C25 UNL     1      21.944 -36.197  -7.273  1.00  0.00     0.107 A 
HETATM    6  C32 UNL     1      20.738 -35.561  -7.461  1.00  0.00     0.104 A 
HETATM    7  C33 UNL     1      20.093 -34.895  -6.457  1.00  0.00     0.196 A 
HETATM    8  O4  UNL     1      18.992 -34.314  -6.624  1.00  0.00    -0.287 OA
ENDROOT
BRANCH   2   9
HETATM    9  C7  UNL     1      22.579 -35.422  -3.704  1.00  0.00     0.077 A 
HETATM   10  C8  UNL     1      22.317 -36.464  -2.790  1.00  0.00     0.120 A 
HETATM   11  N2  UNL     1      22.979 -36.623  -1.652  1.00  0.00    -0.362 N 
HETATM   12  C9  UNL     1      23.948 -35.780  -1.304  1.00  0.00     0.060 A 
ATOM     13  H2  UNL     1      22.741 -37.401  -1.035  1.00  0.00     0.165 HD
HETATM   14  C10 UNL     1      24.636 -35.890  -0.132  1.00  0.00     0.032 A 
HETATM   15  C24 UNL     1      24.237 -34.720  -2.189  1.00  0.00     0.078 A 
HETATM   16  C11 UNL     1      25.601 -34.996   0.225  1.00  0.00     0.004 A 
HETATM   17  C12 UNL     1      25.864 -33.971  -0.633  1.00  0.00     0.023 A 
HETATM   18  C13 UNL     1      25.189 -33.805  -1.854  1.00  0.00     0.047 A 
HETATM   19  N3  UNL     1      23.545 -34.592  -3.348  1.00  0.00    -0.350 N 
ATOM     20  H3  UNL     1      23.780 -33.820  -3.973  1.00  0.00     0.166 HD
BRANCH  18  21
HETATM   21  C14 UNL     1      25.395 -32.596  -2.586  1.00  0.00    -0.059 C 
HETATM   22  C15 UNL     1      25.584 -31.533  -3.128  1.00  0.00    -0.061 C 
BRANCH  22  23
HETATM   23  C16 UNL     1      25.817 -30.251  -3.731  1.00  0.00     0.021 A 
HETATM   24  C17 UNL     1      26.311 -29.206  -2.951  1.00  0.00     0.023 A 
HETATM   25  C18 UNL     1      26.554 -27.954  -3.473  1.00  0.00     0.041 A 
HETATM   26  C19 UNL     1      26.313 -27.696  -4.803  1.00  0.00     0.102 A 
HETATM   27  C20 UNL     1      25.826 -28.706  -5.596  1.00  0.00     0.103 A 
HETATM   28  O2  UNL     1      26.544 -26.446  -5.370  1.00  0.00    -0.346 OA
HETATM   29  C21 UNL     1      25.589 -29.956  -5.052  1.00  0.00     0.060 A 
HETATM   30  O1  UNL     1      25.597 -28.402  -6.930  1.00  0.00    -0.346 OA
HETATM   31  C22 UNL     1      26.317 -27.384  -7.611  1.00  0.00     0.202 C 
HETATM   32  C23 UNL     1      26.692 -26.225  -6.739  1.00  0.00     0.202 C 
ENDBRANCH  22  23
ENDBRANCH  18  21
ENDBRANCH   2   9
BRANCH   1  33
HETATM   33  C4  UNL     1      20.074 -33.932  -4.230  1.00  0.00    -0.058 C 
HETATM   34  C3  UNL     1      19.468 -33.217  -3.486  1.00  0.00    -0.068 C 
BRANCH  34  35
HETATM   35  C2  UNL     1      18.635 -32.392  -2.583  1.00  0.00     0.258 C 
HETATM   36  C1  UNL     1      17.452 -31.786  -3.272  1.00  0.00     0.053 C 
BRANCH  35  37
HETATM   37  N1  UNL     1      18.089 -33.349  -1.602  1.00  0.00    -0.065 N 
ATOM     38  H13 UNL     1      18.148 -33.022  -0.638  1.00  0.00     0.275 HD
ATOM     39  H12 UNL     1      17.073 -33.437  -1.641  1.00  0.00     0.275 HD
ATOM     40  H11 UNL     1      18.579 -34.229  -1.763  1.00  0.00     0.275 HD
ENDBRANCH  35  37
ENDBRANCH  34  35
ENDBRANCH   1  33
BRANCH   5  41
HETATM   41  N5  UNL     1      22.591 -36.893  -8.346  1.00  0.00    -0.364 N 
HETATM   42  C26 UNL     1      24.024 -37.005  -8.329  1.00  0.00     0.154 C 
HETATM   43  C27 UNL     1      24.498 -38.140  -9.215  1.00  0.00     0.292 C 
HETATM   44  N6  UNL     1      23.978 -38.070 -10.548  1.00  0.00     0.093 N 
HETATM   45  C30 UNL     1      22.711 -37.453 -10.683  1.00  0.00     0.292 C 
HETATM   46  C31 UNL     1      21.862 -37.467  -9.425  1.00  0.00     0.154 C 
BRANCH  44  47
HETATM   47  C28 UNL     1      24.189 -39.305 -11.215  1.00  0.00     0.298 C 
BRANCH  47  48
HETATM   48  C29 UNL     1      24.244 -40.518 -10.343  1.00  0.00     0.194 C 
BRANCH  48  49
HETATM   49  O3  UNL     1      22.988 -41.139 -10.324  1.00  0.00    -0.399 OA
ATOM     50  H3  UNL     1      23.100 -42.081 -10.278  1.00  0.00     0.209 HD
ENDBRANCH  48  49
ENDBRANCH  47  48
ENDBRANCH  44  47
ENDBRANCH   5  41
TORSDOF 10
ENDMDL
MODEL 3
REMARK VINA RESULT: -8.309385963      1.914      2.277
REMARK  10 active torsions:
REMARK  status: ('A' for Active; 'I' for Inactive)
REMARK    1  A    between atoms: C2_2  and  N1_3 
REMARK    2  A    between atoms: C2_2  and  C3_7 
REMARK    3  A    between atoms: C4_8  and  C5_9 
REMARK    4  A    between atoms: C6_10  and  C7_11 
REMARK    5  A    between atoms: C13_19  and  C14_20 
REMARK    6  A    between atoms: C15_21  and  C16_22 
REMARK    7  A    between atoms: C25_37  and  N5_38 
REMARK    8  A    between atoms: N6_41  and  C28_42 
REMARK    9  A    between atoms: C28_42  and  C29_43 
REMARK   10  A    between atoms: C29_43  and  O3_44 
ROOT
HETATM    1  C5  UNL     1      19.629 -34.685  -5.738  1.00  0.00     0.097 A 
HETATM    2  C6  UNL     1      20.871 -35.217  -5.679  1.00  0.00     0.085 A 
HETATM    3  N4  UNL     1      21.376 -35.931  -6.738  1.00  0.00    -0.339 N 
ATOM      4  H4  UNL     1      22.318 -36.315  -6.663  1.00  0.00     0.167 HD
HETATM    5  C25 UNL     1      20.684 -36.146  -7.864  1.00  0.00     0.107 A 
HETATM    6  C32 UNL     1      19.416 -35.616  -7.929  1.00  0.00     0.104 A 
HETATM    7  C33 UNL     1      18.866 -34.895  -6.907  1.00  0.00     0.196 A 
HETATM    8  O4  UNL     1      17.709 -34.409  -6.961  1.00  0.00    -0.287 OA
ENDROOT
BRANCH   2   9
HETATM    9  C7  UNL     1      21.750 -34.965  -4.516  1.00  0.00     0.077 A 
HETATM   10  C8  UNL     1      21.554 -35.796  -3.393  1.00  0.00     0.120 A 
HETATM   11  N2  UNL     1      22.350 -35.794  -2.332  1.00  0.00    -0.362 N 
HETATM   12  C9  UNL     1      23.402 -34.981  -2.272  1.00  0.00     0.060 A 
ATOM     13  H2  UNL     1      22.153 -36.423  -1.553  1.00  0.00     0.165 HD
HETATM   14  C10 UNL     1      24.231 -34.928  -1.191  1.00  0.00     0.032 A 
HETATM   15  C24 UNL     1      23.630 -34.130  -3.373  1.00  0.00     0.078 A 
HETATM   16  C11 UNL     1      25.283 -34.062  -1.130  1.00  0.00     0.004 A 
HETATM   17  C12 UNL     1      25.487 -33.237  -2.196  1.00  0.00     0.023 A 
HETATM   18  C13 UNL     1      24.667 -33.247  -3.337  1.00  0.00     0.047 A 
HETATM   19  N3  UNL     1      22.799 -34.163  -4.444  1.00  0.00    -0.350 N 
ATOM     20  H3  UNL     1      22.992 -33.541  -5.230  1.00  0.00     0.166 HD
BRANCH  18  21
HETATM   21  C14 UNL     1      24.842 -32.214  -4.308  1.00  0.00    -0.059 C 
HETATM   22  C15 UNL     1      25.036 -31.398  -5.176  1.00  0.00    -0.061 C 
BRANCH  22  23
HETATM   23  C16 UNL     1      25.291 -30.459  -6.233  1.00  0.00     0.021 A 
HETATM   24  C17 UNL     1      26.108 -30.832  -7.299  1.00  0.00     0.023 A 
HETATM   25  C18 UNL     1      26.389 -29.975  -8.341  1.00  0.00     0.041 A 
HETATM   26  C19 UNL     1      25.861 -28.704  -8.358  1.00  0.00     0.102 A 
HETATM   27  C20 UNL     1      25.052 -28.308  -7.321  1.00  0.00     0.103 A 
HETATM   28  O2  UNL     1      26.120 -27.807  -9.391  1.00  0.00    -0.346 OA
HETATM   29  C21 UNL     1      24.783 -29.185  -6.285  1.00  0.00     0.060 A 
HETATM   30  O1  UNL     1      24.542 -27.020  -7.379  1.00  0.00    -0.346 OA
HETATM   31  C22 UNL     1      24.333 -26.341  -8.610  1.00  0.00     0.202 C 
HETATM   32  C23 UNL     1      25.337 -26.687  -9.666  1.00  0.00     0.202 C 
ENDBRANCH  22  23
ENDBRANCH  18  21
ENDBRANCH   2   9
BRANCH   1  33
HETATM   33  C4  UNL     1      19.083 -33.710  -4.800  1.00  0.00    -0.058 C 
HETATM   34  C3  UNL     1      18.610 -33.001  -3.959  1.00  0.00    -0.068 C 
BRANCH  34  35
HETATM   35  C2  UNL     1      18.025 -32.206  -2.857  1.00  0.00     0.258 C 
HETATM   36  C1  UNL     1      16.992 -31.230  -3.326  1.00  0.00     0.053 C 
BRANCH  35  37
HETATM   37  N1  UNL     1      17.307 -33.193  -2.027  1.00  0.00    -0.065 N 
ATOM     38  H13 UNL     1      16.896 -32.793  -1.184  1.00  0.00     0.275 HD
ATOM     39  H12 UNL     1      16.436 -33.519  -2.446  1.00  0.00     0.275 HD
ATOM     40  H11 UNL     1      17.973 -33.942  -1.839  1.00  0.00     0.275 HD
ENDBRANCH  35  37
ENDBRANCH  34  35
ENDBRANCH   1  33
BRANCH   5  41
HETATM   41  N5  UNL     1      21.228 -36.903  -8.952  1.00  0.00    -0.364 N 
HETATM   42  C26 UNL     1      22.632 -37.215  -8.941  1.00  0.00     0.154 C 
HETATM   43  C27 UNL     1      22.943 -38.387  -9.850  1.00  0.00     0.292 C 
HETATM   44  N6  UNL     1      22.438 -38.219 -11.180  1.00  0.00     0.093 N 
HETATM   45  C30 UNL     1      21.269 -37.429 -11.300  1.00  0.00     0.292 C 
HETATM   46  C31 UNL     1      20.426 -37.348 -10.040  1.00  0.00     0.154 C 
BRANCH  44  47
HETATM   47  C28 UNL     1      22.474 -39.457 -11.872  1.00  0.00     0.298 C 
BRANCH  47  48
HETATM   48  C29 UNL     1      21.613 -39.552 -13.091  1.00  0.00     0.194 C 
BRANCH  48  49
HETATM   49  O3  UNL     1      20.625 -40.525 -12.891  1.00  0.00    -0.399 OA
ATOM     50  H3  UNL     1      19.946 -40.176 -12.325  1.00  0.00     0.209 HD
ENDBRANCH  48  49
ENDBRANCH  47  48
ENDBRANCH  44  47
ENDBRANCH   5  41
TORSDOF 10
ENDMDL
MODEL 4
REMARK VINA RESULT: -8.281537243      2.827     10.084
REMARK  10 active torsions:
REMARK  status: ('A' for Active; 'I' for Inactive)
REMARK    1  A    between atoms: C2_2  and  N1_3 
REMARK    2  A    between atoms: C2_2  and  C3_7 
REMARK    3  A    between atoms: C4_8  and  C5_9 
REMARK    4  A    between atoms: C6_10  and  C7_11 
REMARK    5  A    between atoms: C13_19  and  C14_20 
REMARK    6  A    between atoms: C15_21  and  C16_22 
REMARK    7  A    between atoms: C25_37  and  N5_38 
REMARK    8  A    between atoms: N6_41  and  C28_42 
REMARK    9  A    between atoms: C28_42  and  C29_43 
REMARK   10  A    between atoms: C29_43  and  O3_44 
ROOT
HETATM    1  C5  UNL     1      23.984 -35.622  -5.269  1.00  0.00     0.097 A 
HETATM    2  C6  UNL     1      23.204 -34.546  -5.018  1.00  0.00     0.085 A 
HETATM    3  N4  UNL     1      23.767 -33.344  -4.666  1.00  0.00    -0.339 N 
ATOM      4  H4  UNL     1      23.150 -32.551  -4.488  1.00  0.00     0.167 HD
HETATM    5  C25 UNL     1      25.088 -33.168  -4.547  1.00  0.00     0.107 A 
HETATM    6  C32 UNL     1      25.889 -34.260  -4.793  1.00  0.00     0.104 A 
HETATM    7  C33 UNL     1      25.382 -35.478  -5.149  1.00  0.00     0.196 A 
HETATM    8  O4  UNL     1      26.109 -36.478  -5.374  1.00  0.00    -0.287 OA
ENDROOT
BRANCH   2   9
HETATM    9  C7  UNL     1      21.738 -34.611  -5.205  1.00  0.00     0.077 A 
HETATM   10  C8  UNL     1      20.951 -34.070  -4.166  1.00  0.00     0.120 A 
HETATM   11  N2  UNL     1      19.636 -33.921  -4.245  1.00  0.00    -0.362 N 
HETATM   12  C9  UNL     1      18.973 -34.290  -5.339  1.00  0.00     0.060 A 
ATOM     13  H2  UNL     1      19.126 -33.519  -3.457  1.00  0.00     0.165 HD
HETATM   14  C10 UNL     1      17.619 -34.180  -5.452  1.00  0.00     0.032 A 
HETATM   15  C24 UNL     1      19.723 -34.842  -6.398  1.00  0.00     0.078 A 
HETATM   16  C11 UNL     1      16.952 -34.597  -6.566  1.00  0.00     0.004 A 
HETATM   17  C12 UNL     1      17.686 -35.138  -7.579  1.00  0.00     0.023 A 
HETATM   18  C13 UNL     1      19.084 -35.277  -7.520  1.00  0.00     0.047 A 
HETATM   19  N3  UNL     1      21.068 -34.973  -6.286  1.00  0.00    -0.350 N 
ATOM     20  H3  UNL     1      21.586 -35.368  -7.071  1.00  0.00     0.166 HD
BRANCH  18  21
HETATM   21  C14 UNL     1      19.735 -36.032  -8.542  1.00  0.00    -0.059 C 
HETATM   22  C15 UNL     1      20.214 -36.661  -9.455  1.00  0.00    -0.061 C 
BRANCH  22  23
HETATM   23  C16 UNL     1      20.744 -37.402 -10.565  1.00  0.00     0.021 A 
HETATM   24  C17 UNL     1      20.098 -38.564 -10.985  1.00  0.00     0.023 A 
HETATM   25  C18 UNL     1      20.559 -39.317 -12.043  1.00  0.00     0.041 A 
HETATM   26  C19 UNL     1      21.691 -38.934 -12.728  1.00  0.00     0.102 A 
HETATM   27  C20 UNL     1      22.348 -37.794 -12.337  1.00  0.00     0.103 A 
HETATM   28  O2  UNL     1      22.190 -39.666 -13.801  1.00  0.00    -0.346 OA
HETATM   29  C21 UNL     1      21.868 -37.053 -11.272  1.00  0.00     0.060 A 
HETATM   30  O1  UNL     1      23.483 -37.446 -13.054  1.00  0.00    -0.346 OA
HETATM   31  C22 UNL     1      23.668 -37.823 -14.412  1.00  0.00     0.202 C 
HETATM   32  C23 UNL     1      23.068 -39.151 -14.756  1.00  0.00     0.202 C 
ENDBRANCH  22  23
ENDBRANCH  18  21
ENDBRANCH   2   9
BRANCH   1  33
HETATM   33  C4  UNL     1      23.533 -36.866  -5.887  1.00  0.00    -0.058 C 
HETATM   34  C3  UNL     1      23.223 -37.852  -6.489  1.00  0.00    -0.068 C 
BRANCH  34  35
HETATM   35  C2  UNL     1      22.912 -39.048  -7.304  1.00  0.00     0.258 C 
HETATM   36  C1  UNL     1      21.441 -39.292  -7.442  1.00  0.00     0.053 C 
BRANCH  35  37
HETATM   37  N1  UNL     1      23.397 -38.712  -8.657  1.00  0.00    -0.065 N 
ATOM     38  H13 UNL     1      24.056 -37.933  -8.670  1.00  0.00     0.275 HD
ATOM     39  H12 UNL     1      24.027 -39.413  -9.048  1.00  0.00     0.275 HD
ATOM     40  H11 UNL     1      22.565 -38.551  -9.223  1.00  0.00     0.275 HD
ENDBRANCH  35  37
ENDBRANCH  34  35
ENDBRANCH   1  33
BRANCH   5  41
HETATM   41  N5  UNL     1      25.652 -31.905  -4.169  1.00  0.00    -0.364 N 
HETATM   42  C26 UNL     1      26.608 -31.287  -5.048  1.00  0.00     0.154 C 
HETATM   43  C27 UNL     1      26.727 -29.802  -4.774  1.00  0.00     0.292 C 
HETATM   44  N6  UNL     1      26.985 -29.500  -3.397  1.00  0.00     0.093 N 
HETATM   45  C30 UNL     1      26.472 -30.426  -2.458  1.00  0.00     0.292 C 
HETATM   46  C31 UNL     1      25.299 -31.252  -2.956  1.00  0.00     0.154 C 
BRANCH  44  47
HETATM   47  C28 UNL     1      26.764 -28.119  -3.155  1.00  0.00     0.298 C 
BRANCH  47  48
HETATM   48  C29 UNL     1      25.678 -27.479  -3.959  1.00  0.00     0.194 C 
BRANCH  48  49
HETATM   49  O3  UNL     1      24.641 -27.075  -3.107  1.00  0.00    -0.399 OA
ATOM     50  H3  UNL     1      23.816 -27.420  -3.427  1.00  0.00     0.209 HD
ENDBRANCH  48  49
ENDBRANCH  47  48
ENDBRANCH  44  47
ENDBRANCH   5  41
TORSDOF 10
ENDMDL
MODEL 5
REMARK VINA RESULT: -8.279945064      3.259      9.637
REMARK  10 active torsions:
REMARK  status: ('A' for Active; 'I' for Inactive)
REMARK    1  A    between atoms: C2_2  and  N1_3 
REMARK    2  A    between atoms: C2_2  and  C3_7 
REMARK    3  A    between atoms: C4_8  and  C5_9 
REMARK    4  A    between atoms: C6_10  and  C7_11 
REMARK    5  A    between atoms: C13_19  and  C14_20 
REMARK    6  A    between atoms: C15_21  and  C16_22 
REMARK    7  A    between atoms: C25_37  and  N5_38 
REMARK    8  A    between atoms: N6_41  and  C28_42 
REMARK    9  A    between atoms: C28_42  and  C29_43 
REMARK   10  A    between atoms: C29_43  and  O3_44 
ROOT
HETATM    1  C5  UNL     1      25.753 -32.207  -3.057  1.00  0.00     0.097 A 
HETATM    2  C6  UNL     1      26.497 -32.014  -4.170  1.00  0.00     0.085 A 
HETATM    3  N4  UNL     1      26.862 -30.747  -4.554  1.00  0.00    -0.339 N 
ATOM      4  H4  UNL     1      27.428 -30.637  -5.396  1.00  0.00     0.167 HD
HETATM    5  C25 UNL     1      26.508 -29.651  -3.872  1.00  0.00     0.107 A 
HETATM    6  C32 UNL     1      25.744 -29.838  -2.742  1.00  0.00     0.104 A 
HETATM    7  C33 UNL     1      25.356 -31.076  -2.313  1.00  0.00     0.196 A 
HETATM    8  O4  UNL     1      24.658 -31.252  -1.284  1.00  0.00    -0.287 OA
ENDROOT
BRANCH   2   9
HETATM    9  C7  UNL     1      27.013 -33.163  -4.947  1.00  0.00     0.077 A 
HETATM   10  C8  UNL     1      28.416 -33.305  -4.994  1.00  0.00     0.120 A 
HETATM   11  N2  UNL     1      29.029 -34.355  -5.524  1.00  0.00    -0.362 N 
HETATM   12  C9  UNL     1      28.328 -35.354  -6.056  1.00  0.00     0.060 A 
ATOM     13  H2  UNL     1      30.048 -34.397  -5.524  1.00  0.00     0.165 HD
HETATM   14  C10 UNL     1      28.917 -36.440  -6.635  1.00  0.00     0.032 A 
HETATM   15  C24 UNL     1      26.922 -35.247  -6.034  1.00  0.00     0.078 A 
HETATM   16  C11 UNL     1      28.184 -37.437  -7.208  1.00  0.00     0.004 A 
HETATM   17  C12 UNL     1      26.827 -37.318  -7.190  1.00  0.00     0.023 A 
HETATM   18  C13 UNL     1      26.164 -36.223  -6.608  1.00  0.00     0.047 A 
HETATM   19  N3  UNL     1      26.329 -34.162  -5.478  1.00  0.00    -0.350 N 
ATOM     20  H3  UNL     1      25.310 -34.115  -5.469  1.00  0.00     0.166 HD
BRANCH  18  21
HETATM   21  C14 UNL     1      24.757 -36.093  -6.814  1.00  0.00    -0.059 C 
HETATM   22  C15 UNL     1      23.569 -35.914  -6.935  1.00  0.00    -0.061 C 
BRANCH  22  23
HETATM   23  C16 UNL     1      22.160 -35.664  -7.051  1.00  0.00     0.021 A 
HETATM   24  C17 UNL     1      21.440 -36.262  -8.085  1.00  0.00     0.023 A 
HETATM   25  C18 UNL     1      20.086 -36.060  -8.248  1.00  0.00     0.041 A 
HETATM   26  C19 UNL     1      19.395 -35.249  -7.377  1.00  0.00     0.102 A 
HETATM   27  C20 UNL     1      20.077 -34.647  -6.349  1.00  0.00     0.103 A 
HETATM   28  O2  UNL     1      18.028 -35.018  -7.506  1.00  0.00    -0.346 OA
HETATM   29  C21 UNL     1      21.436 -34.863  -6.204  1.00  0.00     0.060 A 
HETATM   30  O1  UNL     1      19.341 -33.838  -5.496  1.00  0.00    -0.346 OA
HETATM   31  C22 UNL     1      17.951 -34.034  -5.275  1.00  0.00     0.202 C 
HETATM   32  C23 UNL     1      17.216 -34.546  -6.476  1.00  0.00     0.202 C 
ENDBRANCH  22  23
ENDBRANCH  18  21
ENDBRANCH   2   9
BRANCH   1  33
HETATM   33  C4  UNL     1      25.517 -33.496  -2.413  1.00  0.00    -0.058 C 
HETATM   34  C3  UNL     1      25.244 -34.573  -1.971  1.00  0.00    -0.068 C 
BRANCH  34  35
HETATM   35  C2  UNL     1      24.856 -35.926  -1.511  1.00  0.00     0.258 C 
HETATM   36  C1  UNL     1      23.491 -35.964  -0.900  1.00  0.00     0.053 C 
BRANCH  35  37
HETATM   37  N1  UNL     1      24.772 -36.728  -2.747  1.00  0.00    -0.065 N 
ATOM     38  H13 UNL     1      25.044 -36.213  -3.585  1.00  0.00     0.275 HD
ATOM     39  H12 UNL     1      25.486 -37.453  -2.810  1.00  0.00     0.275 HD
ATOM     40  H11 UNL     1      23.819 -37.090  -2.784  1.00  0.00     0.275 HD
ENDBRANCH  35  37
ENDBRANCH  34  35
ENDBRANCH   1  33
BRANCH   5  41
HETATM   41  N5  UNL     1      26.893 -28.338  -4.297  1.00  0.00    -0.364 N 
HETATM   42  C26 UNL     1      26.306 -27.201  -3.641  1.00  0.00     0.154 C 
HETATM   43  C27 UNL     1      27.143 -25.955  -3.845  1.00  0.00     0.292 C 
HETATM   44  N6  UNL     1      27.437 -25.691  -5.222  1.00  0.00     0.093 N 
HETATM   45  C30 UNL     1      27.513 -26.827  -6.064  1.00  0.00     0.292 C 
HETATM   46  C31 UNL     1      27.830 -28.127  -5.347  1.00  0.00     0.154 C 
BRANCH  44  47
HETATM   47  C28 UNL     1      28.470 -24.723  -5.320  1.00  0.00     0.298 C 
BRANCH  47  48
HETATM   48  C29 UNL     1      29.577 -24.844  -4.321  1.00  0.00     0.194 C 
BRANCH  48  49
HETATM   49  O3  UNL     1      30.534 -25.752  -4.792  1.00  0.00    -0.399 OA
ATOM     50  H3  UNL     1      30.173 -26.630  -4.778  1.00  0.00     0.209 HD
ENDBRANCH  48  49
ENDBRANCH  47  48
ENDBRANCH  44  47
ENDBRANCH   5  41
TORSDOF 10
ENDMDL
