MODEL 1
REMARK VINA RESULT: -8.114548007      0.000      0.000
REMARK  4 active torsions:
REMARK  status: ('A' for Active; 'I' for Inactive)
REMARK    1  A    between atoms: N1_8  and  N2_10 
REMARK    2  A    between atoms: N2_10  and  C7_12 
REMARK    3  A    between atoms: C8_13  and  N3_14 
REMARK    4  A    between atoms: C15_24  and  O3_25 
ROOT
HETATM    1  C7  UNL     1      33.416   8.663  25.168  1.00  0.00     0.135 A 
HETATM    2  C8  UNL     1      32.523   9.709  25.090  1.00  0.00     0.088 A 
HETATM    3  C14 UNL     1      31.542   9.483  26.029  1.00  0.00     0.177 A 
HETATM    4  O2  UNL     1      31.835   8.369  26.629  1.00  0.00    -0.296 OA
HETATM    5  C15 UNL     1      32.936   7.837  26.161  1.00  0.00     0.214 A 
ENDROOT
BRANCH   1   6
HETATM    6  N2  UNL     1      34.598   8.448  24.400  1.00  0.00    -0.294 N 
ATOM      7  H2  UNL     1      34.890   9.178  23.750  1.00  0.00     0.187 HD
BRANCH   6   8
HETATM    8  N1  UNL     1      35.367   7.309  24.487  1.00  0.00    -0.307 N 
HETATM    9  C6  UNL     1      35.410   6.359  23.645  1.00  0.00     0.022 C 
HETATM   10  C5  UNL     1      36.282   5.195  23.868  1.00  0.00     0.129 C 
HETATM   11  C16 UNL     1      34.583   6.410  22.427  1.00  0.00     0.060 C 
HETATM   12  C4  UNL     1      37.050   4.811  22.620  1.00  0.00     0.026 C 
HETATM   13 CL1  UNL     1      35.255   3.832  24.383  1.00  0.00    -0.119 Cl
HETATM   14  C3  UNL     1      36.077   4.621  21.492  1.00  0.00     0.006 C 
HETATM   15  C2  UNL     1      35.298   5.871  21.215  1.00  0.00    -0.013 C 
HETATM   16  C1  UNL     1      36.130   6.963  20.609  1.00  0.00     0.010 C 
ATOM     17  H1  UNL     1      35.961   7.219  25.311  1.00  0.00     0.186 HD
ENDBRANCH   6   8
ENDBRANCH   1   6
BRANCH   2  18
HETATM   18  N3  UNL     1      32.654  10.796  24.176  1.00  0.00    -0.353 N 
HETATM   19  C9  UNL     1      31.617  11.244  23.523  1.00  0.00     0.056 C 
HETATM   20  C10 UNL     1      30.215  10.738  23.609  1.00  0.00     0.061 C 
HETATM   21  C13 UNL     1      31.689  12.350  22.577  1.00  0.00     0.171 C 
HETATM   22  C11 UNL     1      29.433  11.838  22.904  1.00  0.00     0.014 C 
HETATM   23  C12 UNL     1      30.377  12.427  21.905  1.00  0.00     0.085 C 
HETATM   24  O1  UNL     1      32.684  13.113  22.359  1.00  0.00    -0.291 OA
ATOM     25  H3  UNL     1      33.567  11.227  24.031  1.00  0.00     0.166 HD
ENDBRANCH   2  18
BRANCH   5  26
HETATM   26  O3  UNL     1      33.504   6.646  26.604  1.00  0.00    -0.339 OA
ATOM     27  H3  UNL     1      34.202   6.549  27.240  1.00  0.00     0.220 HD
ENDBRANCH   5  26
TORSDOF 4
ENDMDL
MODEL 2
REMARK VINA RESULT: -8.062904920      1.834      2.495
REMARK  4 active torsions:
REMARK  status: ('A' for Active; 'I' for Inactive)
REMARK    1  A    between atoms: N1_8  and  N2_10 
REMARK    2  A    between atoms: N2_10  and  C7_12 
REMARK    3  A    between atoms: C8_13  and  N3_14 
REMARK    4  A    between atoms: C15_24  and  O3_25 
ROOT
HETATM    1  C7  UNL     1      34.560   6.756  25.207  1.00  0.00     0.135 A 
HETATM    2  C8  UNL     1      33.956   7.948  25.542  1.00  0.00     0.088 A 
HETATM    3  C14 UNL     1      33.529   7.840  26.847  1.00  0.00     0.177 A 
HETATM    4  O2  UNL     1      33.860   6.655  27.262  1.00  0.00    -0.296 OA
HETATM    5  C15 UNL     1      34.474   5.966  26.333  1.00  0.00     0.214 A 
ENDROOT
BRANCH   1   6
HETATM    6  N2  UNL     1      35.157   6.383  23.968  1.00  0.00    -0.294 N 
ATOM      7  H2  UNL     1      34.644   6.577  23.108  1.00  0.00     0.187 HD
BRANCH   6   8
HETATM    8  N1  UNL     1      36.389   5.775  23.867  1.00  0.00    -0.307 N 
HETATM    9  C6  UNL     1      36.614   4.575  23.515  1.00  0.00     0.022 C 
HETATM   10  C5  UNL     1      37.989   4.056  23.453  1.00  0.00     0.129 C 
HETATM   11  C16 UNL     1      35.496   3.684  23.164  1.00  0.00     0.060 C 
HETATM   12  C4  UNL     1      38.242   3.267  22.184  1.00  0.00     0.026 C 
HETATM   13 CL1  UNL     1      38.242   3.006  24.872  1.00  0.00    -0.119 Cl
HETATM   14  C3  UNL     1      37.193   2.200  22.060  1.00  0.00     0.006 C 
HETATM   15  C2  UNL     1      35.814   2.782  21.999  1.00  0.00    -0.013 C 
HETATM   16  C1  UNL     1      35.538   3.515  20.719  1.00  0.00     0.010 C 
ATOM     17  H1  UNL     1      37.201   6.346  24.099  1.00  0.00     0.186 HD
ENDBRANCH   6   8
ENDBRANCH   1   6
BRANCH   2  18
HETATM   18  N3  UNL     1      33.830   9.051  24.647  1.00  0.00    -0.353 N 
HETATM   19  C9  UNL     1      32.709   9.713  24.562  1.00  0.00     0.056 C 
HETATM   20  C10 UNL     1      31.453   9.455  25.328  1.00  0.00     0.061 C 
HETATM   21  C13 UNL     1      32.521  10.848  23.667  1.00  0.00     0.171 C 
HETATM   22  C11 UNL     1      30.646  10.717  25.055  1.00  0.00     0.014 C 
HETATM   23  C12 UNL     1      31.086  11.195  23.708  1.00  0.00     0.085 C 
HETATM   24  O1  UNL     1      33.411  11.439  22.975  1.00  0.00    -0.291 OA
ATOM     25  H3  UNL     1      34.624   9.325  24.068  1.00  0.00     0.166 HD
ENDBRANCH   2  18
BRANCH   5  26
HETATM   26  O3  UNL     1      34.949   4.666  26.479  1.00  0.00    -0.339 OA
ATOM     27  H3  UNL     1      34.788   4.078  27.208  1.00  0.00     0.220 HD
ENDBRANCH   5  26
TORSDOF 4
ENDMDL
MODEL 3
REMARK VINA RESULT: -8.046034931      1.887      2.857
REMARK  4 active torsions:
REMARK  status: ('A' for Active; 'I' for Inactive)
REMARK    1  A    between atoms: N1_8  and  N2_10 
REMARK    2  A    between atoms: N2_10  and  C7_12 
REMARK    3  A    between atoms: C8_13  and  N3_14 
REMARK    4  A    between atoms: C15_24  and  O3_25 
ROOT
HETATM    1  C7  UNL     1      34.626   6.721  25.528  1.00  0.00     0.135 A 
HETATM    2  C8  UNL     1      33.924   7.887  25.740  1.00  0.00     0.088 A 
HETATM    3  C14 UNL     1      33.318   7.784  26.971  1.00  0.00     0.177 A 
HETATM    4  O2  UNL     1      33.640   6.626  27.462  1.00  0.00    -0.296 OA
HETATM    5  C15 UNL     1      34.415   5.950  26.650  1.00  0.00     0.214 A 
ENDROOT
BRANCH   1   6
HETATM    6  N2  UNL     1      35.415   6.354  24.398  1.00  0.00    -0.294 N 
ATOM      7  H2  UNL     1      36.190   6.962  24.133  1.00  0.00     0.187 HD
BRANCH   6   8
HETATM    8  N1  UNL     1      35.187   5.225  23.644  1.00  0.00    -0.307 N 
HETATM    9  C6  UNL     1      36.051   4.571  22.980  1.00  0.00     0.022 C 
HETATM   10  C5  UNL     1      35.663   3.376  22.214  1.00  0.00     0.129 C 
HETATM   11  C16 UNL     1      37.458   5.003  22.968  1.00  0.00     0.060 C 
HETATM   12  C4  UNL     1      36.632   2.229  22.420  1.00  0.00     0.026 C 
HETATM   13 CL1  UNL     1      35.621   3.822  20.489  1.00  0.00    -0.119 Cl
HETATM   14  C3  UNL     1      38.022   2.709  22.117  1.00  0.00     0.006 C 
HETATM   15  C2  UNL     1      38.423   3.846  23.007  1.00  0.00    -0.013 C 
HETATM   16  C1  UNL     1      38.637   3.432  24.434  1.00  0.00     0.010 C 
ATOM     17  H1  UNL     1      34.228   4.879  23.615  1.00  0.00     0.186 HD
ENDBRANCH   6   8
ENDBRANCH   1   6
BRANCH   2  18
HETATM   18  N3  UNL     1      33.878   8.964  24.806  1.00  0.00    -0.353 N 
HETATM   19  C9  UNL     1      32.791   9.671  24.660  1.00  0.00     0.056 C 
HETATM   20  C10 UNL     1      31.499   9.491  25.387  1.00  0.00     0.061 C 
HETATM   21  C13 UNL     1      32.684  10.782  23.723  1.00  0.00     0.171 C 
HETATM   22  C11 UNL     1      30.758  10.777  25.046  1.00  0.00     0.014 C 
HETATM   23  C12 UNL     1      31.265  11.191  23.701  1.00  0.00     0.085 C 
HETATM   24  O1  UNL     1      33.623  11.311  23.045  1.00  0.00    -0.291 OA
ATOM     25  H3  UNL     1      34.703   9.185  24.248  1.00  0.00     0.166 HD
ENDBRANCH   2  18
BRANCH   5  26
HETATM   26  O3  UNL     1      34.924   4.679  26.899  1.00  0.00    -0.339 OA
ATOM     27  H3  UNL     1      35.236   4.342  27.731  1.00  0.00     0.220 HD
ENDBRANCH   5  26
TORSDOF 4
ENDMDL
MODEL 4
REMARK VINA RESULT: -8.032273005      2.987      5.252
REMARK  4 active torsions:
REMARK  status: ('A' for Active; 'I' for Inactive)
REMARK    1  A    between atoms: N1_8  and  N2_10 
REMARK    2  A    between atoms: N2_10  and  C7_12 
REMARK    3  A    between atoms: C8_13  and  N3_14 
REMARK    4  A    between atoms: C15_24  and  O3_25 
ROOT
HETATM    1  C7  UNL     1      35.016   6.480  24.400  1.00  0.00     0.135 A 
HETATM    2  C8  UNL     1      34.931   7.436  23.412  1.00  0.00     0.088 A 
HETATM    3  C14 UNL     1      35.126   6.800  22.207  1.00  0.00     0.177 A 
HETATM    4  O2  UNL     1      35.316   5.542  22.463  1.00  0.00    -0.296 OA
HETATM    5  C15 UNL     1      35.262   5.292  23.748  1.00  0.00     0.214 A 
ENDROOT
BRANCH   1   6
HETATM    6  N2  UNL     1      34.883   6.649  25.810  1.00  0.00    -0.294 N 
ATOM      7  H2  UNL     1      34.865   7.598  26.182  1.00  0.00     0.187 HD
BRANCH   6   8
HETATM    8  N1  UNL     1      34.779   5.600  26.696  1.00  0.00    -0.307 N 
HETATM    9  C6  UNL     1      34.461   5.676  27.924  1.00  0.00     0.022 C 
HETATM   10  C5  UNL     1      34.390   4.466  28.758  1.00  0.00     0.129 C 
HETATM   11  C16 UNL     1      34.158   6.982  28.531  1.00  0.00     0.060 C 
HETATM   12  C4  UNL     1      33.142   4.440  29.617  1.00  0.00     0.026 C 
HETATM   13 CL1  UNL     1      35.836   4.434  29.800  1.00  0.00    -0.119 Cl
HETATM   14  C3  UNL     1      33.071   5.715  30.406  1.00  0.00     0.006 C 
HETATM   15  C2  UNL     1      33.017   6.918  29.513  1.00  0.00    -0.013 C 
HETATM   16  C1  UNL     1      31.720   7.044  28.769  1.00  0.00     0.010 C 
ATOM     17  H1  UNL     1      34.978   4.669  26.330  1.00  0.00     0.186 HD
ENDBRANCH   6   8
ENDBRANCH   1   6
BRANCH   2  18
HETATM   18  N3  UNL     1      34.684   8.818  23.665  1.00  0.00    -0.353 N 
HETATM   19  C9  UNL     1      33.475   9.242  23.912  1.00  0.00     0.056 C 
HETATM   20  C10 UNL     1      32.229   8.421  23.969  1.00  0.00     0.061 C 
HETATM   21  C13 UNL     1      33.161  10.640  24.179  1.00  0.00     0.171 C 
HETATM   22  C11 UNL     1      31.239   9.384  24.611  1.00  0.00     0.014 C 
HETATM   23  C12 UNL     1      31.689  10.752  24.209  1.00  0.00     0.085 C 
HETATM   24  O1  UNL     1      33.985  11.595  24.354  1.00  0.00    -0.291 OA
ATOM     25  H3  UNL     1      35.459   9.480  23.654  1.00  0.00     0.166 HD
ENDBRANCH   2  18
BRANCH   5  26
HETATM   26  O3  UNL     1      35.426   4.038  24.329  1.00  0.00    -0.339 OA
ATOM     27  H3  UNL     1      36.206   3.705  24.758  1.00  0.00     0.220 HD
ENDBRANCH   5  26
TORSDOF 4
ENDMDL
MODEL 5
REMARK VINA RESULT: -7.979875521      1.190      1.572
REMARK  4 active torsions:
REMARK  status: ('A' for Active; 'I' for Inactive)
REMARK    1  A    between atoms: N1_8  and  N2_10 
REMARK    2  A    between atoms: N2_10  and  C7_12 
REMARK    3  A    between atoms: C8_13  and  N3_14 
REMARK    4  A    between atoms: C15_24  and  O3_25 
ROOT
HETATM    1  C7  UNL     1      34.377   7.420  25.330  1.00  0.00     0.135 A 
HETATM    2  C8  UNL     1      33.505   8.457  25.577  1.00  0.00     0.088 A 
HETATM    3  C14 UNL     1      32.796   8.137  26.712  1.00  0.00     0.177 A 
HETATM    4  O2  UNL     1      33.221   6.978  27.116  1.00  0.00    -0.296 OA
HETATM    5  C15 UNL     1      34.160   6.504  26.335  1.00  0.00     0.214 A 
ENDROOT
BRANCH   1   6
HETATM    6  N2  UNL     1      35.320   7.289  24.268  1.00  0.00    -0.294 N 
ATOM      7  H2  UNL     1      35.364   8.029  23.568  1.00  0.00     0.187 HD
BRANCH   6   8
HETATM    8  N1  UNL     1      36.175   6.217  24.136  1.00  0.00    -0.307 N 
HETATM    9  C6  UNL     1      36.052   5.247  23.325  1.00  0.00     0.022 C 
HETATM   10  C5  UNL     1      37.047   4.163  23.294  1.00  0.00     0.129 C 
HETATM   11  C16 UNL     1      34.907   5.194  22.401  1.00  0.00     0.060 C 
HETATM   12  C4  UNL     1      37.449   3.801  21.878  1.00  0.00     0.026 C 
HETATM   13 CL1  UNL     1      36.332   2.741  24.096  1.00  0.00    -0.119 Cl
HETATM   14  C3  UNL     1      36.211   3.499  21.085  1.00  0.00     0.006 C 
HETATM   15  C2  UNL     1      35.282   4.675  21.037  1.00  0.00    -0.013 C 
HETATM   16  C1  UNL     1      35.807   5.809  20.207  1.00  0.00     0.010 C 
ATOM     17  H1  UNL     1      36.988   6.201  24.752  1.00  0.00     0.186 HD
ENDBRANCH   6   8
ENDBRANCH   1   6
BRANCH   2  18
HETATM   18  N3  UNL     1      33.408   9.622  24.759  1.00  0.00    -0.353 N 
HETATM   19  C9  UNL     1      32.243  10.090  24.404  1.00  0.00     0.056 C 
HETATM   20  C10 UNL     1      30.905   9.531  24.761  1.00  0.00     0.061 C 
HETATM   21  C13 UNL     1      32.081  11.274  23.571  1.00  0.00     0.171 C 
HETATM   22  C11 UNL     1      29.968  10.661  24.356  1.00  0.00     0.014 C 
HETATM   23  C12 UNL     1      30.649  11.365  23.225  1.00  0.00     0.085 C 
HETATM   24  O1  UNL     1      32.990  12.086  23.202  1.00  0.00    -0.291 OA
ATOM     25  H3  UNL     1      34.258  10.094  24.450  1.00  0.00     0.166 HD
ENDBRANCH   2  18
BRANCH   5  26
HETATM   26  O3  UNL     1      34.810   5.286  26.511  1.00  0.00    -0.339 OA
ATOM     27  H3  UNL     1      35.390   4.855  25.894  1.00  0.00     0.220 HD
ENDBRANCH   5  26
TORSDOF 4
ENDMDL
