MODEL 1
REMARK VINA RESULT: -6.629373913      0.000      0.000
REMARK  1 active torsions:
REMARK  status: ('A' for Active; 'I' for Inactive)
REMARK       I    between atoms: C1_4  and  N3_6 
REMARK    1  A    between atoms: N3_6  and  C2_8 
ROOT
HETATM    1  C2  UNL     1      12.361   9.458   7.810  1.00  0.00     0.114 C 
HETATM    2  C3  UNL     1      11.704   8.420   8.706  1.00  0.00     0.062 C 
HETATM    3  C4  UNL     1      10.939   7.697   7.666  1.00  0.00     0.225 C 
HETATM    4  C5  UNL     1      10.506   6.322   7.948  1.00  0.00     0.037 C 
HETATM    5  C6  UNL     1      10.466   5.778   6.509  1.00  0.00     0.032 C 
HETATM    6  C7  UNL     1      11.347   6.742   5.698  1.00  0.00     0.273 C 
HETATM    7  N4  UNL     1      12.039   7.440   6.710  1.00  0.00     0.095 N 
HETATM    8  C8  UNL     1      12.453   8.772   6.438  1.00  0.00     0.298 C 
ENDROOT
BRANCH   1   9
HETATM    9  N3  UNL     1      13.613   9.906   8.288  1.00  0.00    -0.358 N 
HETATM   10  C1  UNL     1      13.782  10.486   9.569  1.00  0.00     0.182 C 
HETATM   11  N1  UNL     1      14.622  11.455   9.691  1.00  0.00    -0.374 N 
HETATM   12  N2  UNL     1      13.063  10.039  10.710  1.00  0.00    -0.064 NA
ATOM     13  H12 UNL     1      14.744  11.872  10.613  1.00  0.00     0.158 HD
ATOM     14  H11 UNL     1      15.138  11.776   8.871  1.00  0.00     0.158 HD
ATOM     15  H3  UNL     1      14.429   9.807   7.686  1.00  0.00     0.162 HD
ENDBRANCH   1   9
TORSDOF 1
ENDMDL
MODEL 2
REMARK VINA RESULT: -6.387537307      1.397      5.040
REMARK  1 active torsions:
REMARK  status: ('A' for Active; 'I' for Inactive)
REMARK       I    between atoms: C1_4  and  N3_6 
REMARK    1  A    between atoms: N3_6  and  C2_8 
ROOT
HETATM    1  C2  UNL     1      12.094   8.389   6.830  1.00  0.00     0.114 C 
HETATM    2  C3  UNL     1      13.464   8.983   6.549  1.00  0.00     0.062 C 
HETATM    3  C4  UNL     1      13.487   9.988   7.634  1.00  0.00     0.225 C 
HETATM    4  C5  UNL     1      14.788  10.504   8.081  1.00  0.00     0.037 C 
HETATM    5  C6  UNL     1      14.428  10.849   9.536  1.00  0.00     0.032 C 
HETATM    6  C7  UNL     1      13.162  10.030   9.836  1.00  0.00     0.273 C 
HETATM    7  N4  UNL     1      13.145   9.104   8.771  1.00  0.00     0.095 N 
HETATM    8  C8  UNL     1      11.887   8.609   8.337  1.00  0.00     0.298 C 
ENDROOT
BRANCH   1   9
HETATM    9  N3  UNL     1      11.975   7.034   6.448  1.00  0.00    -0.358 N 
HETATM   10  C1  UNL     1      10.785   6.287   6.629  1.00  0.00     0.182 C 
HETATM   11  N1  UNL     1      10.891   5.046   6.957  1.00  0.00    -0.374 N 
HETATM   12  N2  UNL     1       9.494   6.857   6.462  1.00  0.00    -0.064 NA
ATOM     13  H12 UNL     1      10.035   4.509   7.087  1.00  0.00     0.158 HD
ATOM     14  H11 UNL     1      11.819   4.638   7.077  1.00  0.00     0.158 HD
ATOM     15  H3  UNL     1      12.780   6.574   6.025  1.00  0.00     0.162 HD
ENDBRANCH   1   9
TORSDOF 1
ENDMDL
MODEL 3
REMARK VINA RESULT: -5.744686496      0.997      1.717
REMARK  1 active torsions:
REMARK  status: ('A' for Active; 'I' for Inactive)
REMARK       I    between atoms: C1_4  and  N3_6 
REMARK    1  A    between atoms: N3_6  and  C2_8 
ROOT
HETATM    1  C2  UNL     1      13.264   8.719   7.956  1.00  0.00     0.114 C 
HETATM    2  C3  UNL     1      12.900   8.512   6.495  1.00  0.00     0.062 C 
HETATM    3  C4  UNL     1      11.854   7.481   6.681  1.00  0.00     0.225 C 
HETATM    4  C5  UNL     1      10.867   7.288   5.611  1.00  0.00     0.037 C 
HETATM    5  C6  UNL     1       9.688   6.774   6.456  1.00  0.00     0.032 C 
HETATM    6  C7  UNL     1      10.004   7.224   7.892  1.00  0.00     0.273 C 
HETATM    7  N4  UNL     1      11.023   8.179   7.689  1.00  0.00     0.095 N 
HETATM    8  C8  UNL     1      11.981   8.362   8.722  1.00  0.00     0.298 C 
ENDROOT
BRANCH   1   9
HETATM    9  N3  UNL     1      13.735  10.020   8.243  1.00  0.00    -0.358 N 
HETATM   10  C1  UNL     1      13.396  10.714   9.430  1.00  0.00     0.182 C 
HETATM   11  N1  UNL     1      13.206  11.986   9.355  1.00  0.00    -0.374 N 
HETATM   12  N2  UNL     1      13.260  10.061  10.684  1.00  0.00    -0.064 NA
ATOM     13  H12 UNL     1      12.962  12.486  10.210  1.00  0.00     0.158 HD
ATOM     14  H11 UNL     1      13.303  12.455   8.455  1.00  0.00     0.158 HD
ATOM     15  H3  UNL     1      14.345  10.478   7.566  1.00  0.00     0.162 HD
ENDBRANCH   1   9
TORSDOF 1
ENDMDL
MODEL 4
REMARK VINA RESULT: -5.213497885      1.476      2.084
REMARK  1 active torsions:
REMARK  status: ('A' for Active; 'I' for Inactive)
REMARK       I    between atoms: C1_4  and  N3_6 
REMARK    1  A    between atoms: N3_6  and  C2_8 
ROOT
HETATM    1  C2  UNL     1      12.461   8.590   6.202  1.00  0.00     0.114 C 
HETATM    2  C3  UNL     1      11.880   8.678   7.604  1.00  0.00     0.062 C 
HETATM    3  C4  UNL     1      10.711   7.792   7.405  1.00  0.00     0.225 C 
HETATM    4  C5  UNL     1      10.091   7.179   8.587  1.00  0.00     0.037 C 
HETATM    5  C6  UNL     1       9.525   5.907   7.933  1.00  0.00     0.032 C 
HETATM    6  C7  UNL     1      10.322   5.743   6.629  1.00  0.00     0.273 C 
HETATM    7  N4  UNL     1      11.409   6.620   6.830  1.00  0.00     0.095 N 
HETATM    8  C8  UNL     1      12.005   7.216   5.687  1.00  0.00     0.298 C 
ENDROOT
BRANCH   1   9
HETATM    9  N3  UNL     1      13.863   8.759   6.159  1.00  0.00    -0.358 N 
HETATM   10  C1  UNL     1      14.532   9.801   6.847  1.00  0.00     0.182 C 
HETATM   11  N1  UNL     1      15.550  10.348   6.278  1.00  0.00    -0.374 N 
HETATM   12  N2  UNL     1      14.120  10.257   8.129  1.00  0.00    -0.064 NA
ATOM     13  H12 UNL     1      16.031  11.098   6.773  1.00  0.00     0.158 HD
ATOM     14  H11 UNL     1      15.845  10.020   5.359  1.00  0.00     0.158 HD
ATOM     15  H3  UNL     1      14.417   8.102   5.611  1.00  0.00     0.162 HD
ENDBRANCH   1   9
TORSDOF 1
ENDMDL
MODEL 5
REMARK VINA RESULT: -5.099023683      1.924      4.773
REMARK  1 active torsions:
REMARK  status: ('A' for Active; 'I' for Inactive)
REMARK       I    between atoms: C1_4  and  N3_6 
REMARK    1  A    between atoms: N3_6  and  C2_8 
ROOT
HETATM    1  C2  UNL     1      11.673   7.880   8.114  1.00  0.00     0.114 C 
HETATM    2  C3  UNL     1      12.119   8.891   9.159  1.00  0.00     0.062 C 
HETATM    3  C4  UNL     1      13.469   9.170   8.620  1.00  0.00     0.225 C 
HETATM    4  C5  UNL     1      14.128  10.426   9.004  1.00  0.00     0.037 C 
HETATM    5  C6  UNL     1      15.012  10.627   7.762  1.00  0.00     0.032 C 
HETATM    6  C7  UNL     1      14.366   9.758   6.671  1.00  0.00     0.273 C 
HETATM    7  N4  UNL     1      13.097   9.480   7.221  1.00  0.00     0.095 N 
HETATM    8  C8  UNL     1      12.463   8.263   6.854  1.00  0.00     0.298 C 
ENDROOT
BRANCH   1   9
HETATM    9  N3  UNL     1      10.276   7.862   7.906  1.00  0.00    -0.358 N 
HETATM   10  C1  UNL     1       9.651   7.008   6.964  1.00  0.00     0.182 C 
HETATM   11  N1  UNL     1       8.637   7.463   6.312  1.00  0.00    -0.374 N 
HETATM   12  N2  UNL     1      10.102   5.684   6.718  1.00  0.00    -0.064 NA
ATOM     13  H12 UNL     1       8.188   6.848   5.634  1.00  0.00     0.158 HD
ATOM     14  H11 UNL     1       8.314   8.414   6.489  1.00  0.00     0.158 HD
ATOM     15  H3  UNL     1       9.691   8.490   8.458  1.00  0.00     0.162 HD
ENDBRANCH   1   9
TORSDOF 1
ENDMDL
