MODEL 1
REMARK VINA RESULT: -6.948145279      0.000      0.000
REMARK  6 active torsions:
REMARK  status: ('A' for Active; 'I' for Inactive)
REMARK    1  A    between atoms: C4_4  and  C5_5 
REMARK    2  A    between atoms: C5_5  and  N1_6 
REMARK    3  A    between atoms: N1_6  and  C6_8 
REMARK    4  A    between atoms: C6_8  and  C7_9 
REMARK    5  A    between atoms: C7_9  and  N2_10 
REMARK    6  A    between atoms: N2_10  and  C8_13 
ROOT
HETATM    1  C6  UNL     1      33.981   8.294 108.625  1.00  0.00     0.053 C 
HETATM    2  C11 UNL     1      33.386   7.008 108.982  1.00  0.00     0.033 C 
HETATM    3  C12 UNL     1      33.012   6.335 107.660  1.00  0.00     0.002 C 
HETATM    4  C13 UNL     1      33.301   7.338 106.577  1.00  0.00     0.002 C 
HETATM    5  C14 UNL     1      33.315   8.649 107.276  1.00  0.00     0.033 C 
ENDROOT
BRANCH   1   6
HETATM    6  N1  UNL     1      33.870   9.408 109.462  1.00  0.00    -0.388 N 
ATOM      7  H1  UNL     1      33.943   9.284 110.472  1.00  0.00     0.159 HD
BRANCH   6   8
HETATM    8  C5  UNL     1      33.658  10.692 108.940  1.00  0.00     0.084 C 
BRANCH   8   9
HETATM    9  C4  UNL     1      32.765  11.457 109.846  1.00  0.00     0.019 C 
HETATM   10  C2  UNL     1      31.758  12.186 109.481  1.00  0.00    -0.086 C 
HETATM   11  C1  UNL     1      31.383  12.328 108.060  1.00  0.00     0.043 C 
HETATM   12  C3  UNL     1      30.963  12.921 110.494  1.00  0.00     0.043 C 
ENDBRANCH   8   9
ENDBRANCH   6   8
ENDBRANCH   1   6
BRANCH   1  13
HETATM   13  C7  UNL     1      35.437   8.071 108.274  1.00  0.00     0.263 C 
BRANCH  13  14
HETATM   14  N2  UNL     1      36.063   7.021 109.045  1.00  0.00    -0.069 N 
ATOM     15  H22 UNL     1      36.521   7.350 109.894  1.00  0.00     0.277 HD
ATOM     16  H21 UNL     1      35.400   6.396 109.503  1.00  0.00     0.277 HD
BRANCH  14  17
HETATM   17  C8  UNL     1      36.968   6.343 108.104  1.00  0.00     0.186 A 
HETATM   18  C9  UNL     1      36.589   4.978 107.605  1.00  0.00     0.035 A 
HETATM   19  C10 UNL     1      37.750   5.169 108.521  1.00  0.00     0.035 A 
ENDBRANCH  14  17
ENDBRANCH  13  14
ENDBRANCH   1  13
TORSDOF 6
ENDMDL
MODEL 2
REMARK VINA RESULT: -6.699649307      1.250      1.869
REMARK  6 active torsions:
REMARK  status: ('A' for Active; 'I' for Inactive)
REMARK    1  A    between atoms: C4_4  and  C5_5 
REMARK    2  A    between atoms: C5_5  and  N1_6 
REMARK    3  A    between atoms: N1_6  and  C6_8 
REMARK    4  A    between atoms: C6_8  and  C7_9 
REMARK    5  A    between atoms: C7_9  and  N2_10 
REMARK    6  A    between atoms: N2_10  and  C8_13 
ROOT
HETATM    1  C6  UNL     1      34.646   8.419 107.628  1.00  0.00     0.053 C 
HETATM    2  C11 UNL     1      34.518   8.354 109.082  1.00  0.00     0.033 C 
HETATM    3  C12 UNL     1      33.533   7.220 109.368  1.00  0.00     0.002 C 
HETATM    4  C13 UNL     1      33.027   6.750 108.030  1.00  0.00     0.002 C 
HETATM    5  C14 UNL     1      33.290   7.887 107.112  1.00  0.00     0.033 C 
ENDROOT
BRANCH   1   6
HETATM    6  N1  UNL     1      34.909   9.626 106.972  1.00  0.00    -0.388 N 
ATOM      7  H1  UNL     1      35.237   9.609 106.006  1.00  0.00     0.159 HD
BRANCH   6   8
HETATM    8  C5  UNL     1      34.730  10.858 107.616  1.00  0.00     0.084 C 
BRANCH   8   9
HETATM    9  C4  UNL     1      33.465  11.483 107.153  1.00  0.00     0.019 C 
HETATM   10  C2  UNL     1      32.393  11.643 107.863  1.00  0.00    -0.086 C 
HETATM   11  C1  UNL     1      32.326  11.200 109.269  1.00  0.00     0.043 C 
HETATM   12  C3  UNL     1      31.187  12.262 107.264  1.00  0.00     0.043 C 
ENDBRANCH   8   9
ENDBRANCH   6   8
ENDBRANCH   1   6
BRANCH   1  13
HETATM   13  C7  UNL     1      35.649   7.375 107.183  1.00  0.00     0.263 C 
BRANCH  13  14
HETATM   14  N2  UNL     1      36.743   7.195 108.110  1.00  0.00    -0.069 N 
ATOM     15  H22 UNL     1      37.601   7.671 107.832  1.00  0.00     0.277 HD
ATOM     16  H21 UNL     1      36.618   7.685 108.995  1.00  0.00     0.277 HD
BRANCH  14  17
HETATM   17  C8  UNL     1      36.890   5.738 108.250  1.00  0.00     0.186 A 
HETATM   18  C9  UNL     1      37.572   5.204 109.477  1.00  0.00     0.035 A 
HETATM   19  C10 UNL     1      38.209   5.097 108.134  1.00  0.00     0.035 A 
ENDBRANCH  14  17
ENDBRANCH  13  14
ENDBRANCH   1  13
TORSDOF 6
ENDMDL
MODEL 3
REMARK VINA RESULT: -6.619103003      1.352      6.084
REMARK  6 active torsions:
REMARK  status: ('A' for Active; 'I' for Inactive)
REMARK    1  A    between atoms: C4_4  and  C5_5 
REMARK    2  A    between atoms: C5_5  and  N1_6 
REMARK    3  A    between atoms: N1_6  and  C6_8 
REMARK    4  A    between atoms: C6_8  and  C7_9 
REMARK    5  A    between atoms: C7_9  and  N2_10 
REMARK    6  A    between atoms: N2_10  and  C8_13 
ROOT
HETATM    1  C6  UNL     1      34.091   9.744 108.357  1.00  0.00     0.053 C 
HETATM    2  C11 UNL     1      35.034   9.815 107.243  1.00  0.00     0.033 C 
HETATM    3  C12 UNL     1      34.187  10.017 105.986  1.00  0.00     0.002 C 
HETATM    4  C13 UNL     1      32.749   9.928 106.424  1.00  0.00     0.002 C 
HETATM    5  C14 UNL     1      32.798   9.193 107.714  1.00  0.00     0.033 C 
ENDROOT
BRANCH   1   6
HETATM    6  N1  UNL     1      34.362   8.977 109.495  1.00  0.00    -0.388 N 
ATOM      7  H1  UNL     1      34.682   9.440 110.346  1.00  0.00     0.159 HD
BRANCH   6   8
HETATM    8  C5  UNL     1      34.201   7.584 109.488  1.00  0.00     0.084 C 
BRANCH   8   9
HETATM    9  C4  UNL     1      35.515   6.932 109.258  1.00  0.00     0.019 C 
HETATM   10  C2  UNL     1      35.827   6.192 108.242  1.00  0.00    -0.086 C 
HETATM   11  C1  UNL     1      34.859   5.916 107.162  1.00  0.00     0.043 C 
HETATM   12  C3  UNL     1      37.174   5.579 108.150  1.00  0.00     0.043 C 
ENDBRANCH   8   9
ENDBRANCH   6   8
ENDBRANCH   1   6
BRANCH   1  13
HETATM   13  C7  UNL     1      33.728  11.153 108.774  1.00  0.00     0.263 C 
BRANCH  13  14
HETATM   14  N2  UNL     1      32.815  11.206 109.892  1.00  0.00    -0.069 N 
ATOM     15  H22 UNL     1      32.206  10.392 109.967  1.00  0.00     0.277 HD
ATOM     16  H21 UNL     1      33.267  11.099 110.800  1.00  0.00     0.277 HD
BRANCH  14  17
HETATM   17  C8  UNL     1      32.091  12.477 109.736  1.00  0.00     0.186 A 
HETATM   18  C9  UNL     1      30.673  12.558 110.226  1.00  0.00     0.035 A 
HETATM   19  C10 UNL     1      30.988  12.605 108.770  1.00  0.00     0.035 A 
ENDBRANCH  14  17
ENDBRANCH  13  14
ENDBRANCH   1  13
TORSDOF 6
ENDMDL
MODEL 4
REMARK VINA RESULT: -6.530796927      1.598      5.809
REMARK  6 active torsions:
REMARK  status: ('A' for Active; 'I' for Inactive)
REMARK    1  A    between atoms: C4_4  and  C5_5 
REMARK    2  A    between atoms: C5_5  and  N1_6 
REMARK    3  A    between atoms: N1_6  and  C6_8 
REMARK    4  A    between atoms: C6_8  and  C7_9 
REMARK    5  A    between atoms: C7_9  and  N2_10 
REMARK    6  A    between atoms: N2_10  and  C8_13 
ROOT
HETATM    1  C6  UNL     1      34.186   9.466 108.066  1.00  0.00     0.053 C 
HETATM    2  C11 UNL     1      35.398   9.164 107.309  1.00  0.00     0.033 C 
HETATM    3  C12 UNL     1      35.144   9.666 105.887  1.00  0.00     0.002 C 
HETATM    4  C13 UNL     1      33.715  10.135 105.852  1.00  0.00     0.002 C 
HETATM    5  C14 UNL     1      33.068   9.447 106.998  1.00  0.00     0.033 C 
ENDROOT
BRANCH   1   6
HETATM    6  N1  UNL     1      33.771   8.662 109.132  1.00  0.00    -0.388 N 
ATOM      7  H1  UNL     1      33.245   9.081 109.899  1.00  0.00     0.159 HD
BRANCH   6   8
HETATM    8  C5  UNL     1      34.064   7.291 109.167  1.00  0.00     0.084 C 
BRANCH   8   9
HETATM    9  C4  UNL     1      33.138   6.561 108.266  1.00  0.00     0.019 C 
HETATM   10  C2  UNL     1      33.483   5.826 107.256  1.00  0.00    -0.086 C 
HETATM   11  C1  UNL     1      34.900   5.634 106.891  1.00  0.00     0.043 C 
HETATM   12  C3  UNL     1      32.448   5.171 106.421  1.00  0.00     0.043 C 
ENDBRANCH   8   9
ENDBRANCH   6   8
ENDBRANCH   1   6
BRANCH   1  13
HETATM   13  C7  UNL     1      34.244  10.910 108.517  1.00  0.00     0.263 C 
BRANCH  13  14
HETATM   14  N2  UNL     1      33.474  11.173 109.710  1.00  0.00    -0.069 N 
ATOM     15  H22 UNL     1      32.925  10.376 110.032  1.00  0.00     0.277 HD
ATOM     16  H21 UNL     1      34.040  11.273 110.553  1.00  0.00     0.277 HD
BRANCH  14  17
HETATM   17  C8  UNL     1      32.666  12.361 109.391  1.00  0.00     0.186 A 
HETATM   18  C9  UNL     1      31.459  12.653 110.236  1.00  0.00     0.035 A 
HETATM   19  C10 UNL     1      31.320  12.227 108.814  1.00  0.00     0.035 A 
ENDBRANCH  14  17
ENDBRANCH  13  14
ENDBRANCH   1  13
TORSDOF 6
ENDMDL
MODEL 5
REMARK VINA RESULT: -6.456385448      1.032      1.350
REMARK  6 active torsions:
REMARK  status: ('A' for Active; 'I' for Inactive)
REMARK    1  A    between atoms: C4_4  and  C5_5 
REMARK    2  A    between atoms: C5_5  and  N1_6 
REMARK    3  A    between atoms: N1_6  and  C6_8 
REMARK    4  A    between atoms: C6_8  and  C7_9 
REMARK    5  A    between atoms: C7_9  and  N2_10 
REMARK    6  A    between atoms: N2_10  and  C8_13 
ROOT
HETATM    1  C6  UNL     1      34.824   8.554 107.917  1.00  0.00     0.053 C 
HETATM    2  C11 UNL     1      34.383   8.070 109.223  1.00  0.00     0.033 C 
HETATM    3  C12 UNL     1      33.284   7.043 108.943  1.00  0.00     0.002 C 
HETATM    4  C13 UNL     1      33.047   7.071 107.457  1.00  0.00     0.002 C 
HETATM    5  C14 UNL     1      33.577   8.387 107.019  1.00  0.00     0.033 C 
ENDROOT
BRANCH   1   6
HETATM    6  N1  UNL     1      35.303   9.856 107.745  1.00  0.00    -0.388 N 
ATOM      7  H1  UNL     1      36.300  10.042 107.853  1.00  0.00     0.159 HD
BRANCH   6   8
HETATM    8  C5  UNL     1      34.438  10.913 107.426  1.00  0.00     0.084 C 
BRANCH   8   9
HETATM    9  C4  UNL     1      33.760  11.391 108.658  1.00  0.00     0.019 C 
HETATM   10  C2  UNL     1      32.544  11.830 108.733  1.00  0.00    -0.086 C 
HETATM   11  C1  UNL     1      31.673  11.897 107.543  1.00  0.00     0.043 C 
HETATM   12  C3  UNL     1      31.999  12.302 110.028  1.00  0.00     0.043 C 
ENDBRANCH   8   9
ENDBRANCH   6   8
ENDBRANCH   1   6
BRANCH   1  13
HETATM   13  C7  UNL     1      35.826   7.570 107.350  1.00  0.00     0.263 C 
BRANCH  13  14
HETATM   14  N2  UNL     1      36.783   7.096 108.322  1.00  0.00    -0.069 N 
ATOM     15  H22 UNL     1      37.738   7.412 108.149  1.00  0.00     0.277 HD
ATOM     16  H21 UNL     1      36.683   7.525 109.242  1.00  0.00     0.277 HD
BRANCH  14  17
HETATM   17  C8  UNL     1      36.633   5.633 108.327  1.00  0.00     0.186 A 
HETATM   18  C9  UNL     1      37.749   4.797 107.770  1.00  0.00     0.035 A 
HETATM   19  C10 UNL     1      36.435   4.889 107.074  1.00  0.00     0.035 A 
ENDBRANCH  14  17
ENDBRANCH  13  14
ENDBRANCH   1  13
TORSDOF 6
ENDMDL
