MODEL 1
REMARK VINA RESULT: -6.985298757      0.000      0.000
REMARK  3 active torsions:
REMARK  status: ('A' for Active; 'I' for Inactive)
REMARK    1  A    between atoms: N1_4  and  N2_6 
REMARK       I    between atoms: N2_6  and  C4_8 
REMARK    2  A    between atoms: N4_10  and  N5_12 
REMARK    3  A    between atoms: C5_14  and  C6_15 
ROOT
HETATM    1  C1  UNL     1      14.537  18.121  16.500  1.00  0.00     0.018 C 
HETATM    2  C2  UNL     1      15.623  18.648  16.361  1.00  0.00    -0.071 C 
HETATM    3  C3  UNL     1      16.901  19.280  16.175  1.00  0.00     0.170 C 
HETATM    4  N1  UNL     1      17.724  19.426  17.145  1.00  0.00    -0.301 N 
ATOM      5  H1  UNL     1      18.617  19.883  16.960  1.00  0.00     0.186 HD
ENDROOT
BRANCH   4   6
HETATM    6  N2  UNL     1      17.456  18.990  18.444  1.00  0.00    -0.272 N 
HETATM    7  C4  UNL     1      18.279  18.085  19.146  1.00  0.00     0.222 C 
HETATM    8  N3  UNL     1      19.579  18.442  19.555  1.00  0.00    -0.061 NA
HETATM    9  N4  UNL     1      17.842  16.914  19.421  1.00  0.00    -0.273 N 
ATOM     10  H4  UNL     1      18.451  16.274  19.931  1.00  0.00     0.189 HD
ATOM     11  H2  UNL     1      16.621  19.346  18.910  1.00  0.00     0.189 HD
BRANCH   9  12
HETATM   12  N5  UNL     1      16.620  16.489  19.072  1.00  0.00    -0.309 N 
HETATM   13  C5  UNL     1      15.537  16.354  19.613  1.00  0.00     0.118 C 
ATOM     14  H5  UNL     1      16.588  16.202  18.094  1.00  0.00     0.186 HD
BRANCH  13  15
HETATM   15  C6  UNL     1      15.177  16.650  20.990  1.00  0.00    -0.019 A 
HETATM   16  C7  UNL     1      13.858  16.400  21.424  1.00  0.00     0.013 A 
HETATM   17  C8  UNL     1      13.462  16.656  22.697  1.00  0.00     0.001 A 
HETATM   18  C9  UNL     1      14.362  17.173  23.595  1.00  0.00     0.000 A 
HETATM   19  C10 UNL     1      15.650  17.424  23.189  1.00  0.00     0.001 A 
HETATM   20  C11 UNL     1      16.074  17.170  21.895  1.00  0.00     0.013 A 
ENDBRANCH  13  15
ENDBRANCH   9  12
ENDBRANCH   4   6
TORSDOF 3
ENDMDL
MODEL 2
REMARK VINA RESULT: -6.938696248      3.170      4.676
REMARK  3 active torsions:
REMARK  status: ('A' for Active; 'I' for Inactive)
REMARK    1  A    between atoms: N1_4  and  N2_6 
REMARK       I    between atoms: N2_6  and  C4_8 
REMARK    2  A    between atoms: N4_10  and  N5_12 
REMARK    3  A    between atoms: C5_14  and  C6_15 
ROOT
HETATM    1  C1  UNL     1      13.288  17.800  15.613  1.00  0.00     0.018 C 
HETATM    2  C2  UNL     1      12.781  16.699  15.691  1.00  0.00    -0.071 C 
HETATM    3  C3  UNL     1      12.171  15.399  15.761  1.00  0.00     0.170 C 
HETATM    4  N1  UNL     1      12.568  14.517  16.600  1.00  0.00    -0.301 N 
ATOM      5  H1  UNL     1      12.102  13.609  16.608  1.00  0.00     0.186 HD
ENDROOT
BRANCH   4   6
HETATM    6  N2  UNL     1      13.609  14.738  17.503  1.00  0.00    -0.272 N 
HETATM    7  C4  UNL     1      13.464  14.624  18.901  1.00  0.00     0.222 C 
HETATM    8  N3  UNL     1      13.224  13.378  19.514  1.00  0.00    -0.061 NA
HETATM    9  N4  UNL     1      13.552  15.669  19.635  1.00  0.00    -0.273 N 
ATOM     10  H4  UNL     1      13.445  15.566  20.644  1.00  0.00     0.189 HD
ATOM     11  H2  UNL     1      14.524  14.995  17.132  1.00  0.00     0.189 HD
BRANCH   9  12
HETATM   12  N5  UNL     1      13.778  16.893  19.139  1.00  0.00    -0.309 N 
HETATM   13  C5  UNL     1      14.700  17.689  19.121  1.00  0.00     0.118 C 
ATOM     14  H5  UNL     1      12.962  17.255  18.646  1.00  0.00     0.186 HD
BRANCH  13  15
HETATM   15  C6  UNL     1      16.022  17.546  19.708  1.00  0.00    -0.019 A 
HETATM   16  C7  UNL     1      16.143  17.432  21.109  1.00  0.00     0.013 A 
HETATM   17  C8  UNL     1      17.350  17.297  21.715  1.00  0.00     0.001 A 
HETATM   18  C9  UNL     1      18.491  17.269  20.954  1.00  0.00     0.000 A 
HETATM   19  C10 UNL     1      18.392  17.380  19.588  1.00  0.00     0.001 A 
HETATM   20  C11 UNL     1      17.171  17.519  18.950  1.00  0.00     0.013 A 
ENDBRANCH  13  15
ENDBRANCH   9  12
ENDBRANCH   4   6
TORSDOF 3
ENDMDL
MODEL 3
REMARK VINA RESULT: -6.914575718      3.171      4.717
REMARK  3 active torsions:
REMARK  status: ('A' for Active; 'I' for Inactive)
REMARK    1  A    between atoms: N1_4  and  N2_6 
REMARK       I    between atoms: N2_6  and  C4_8 
REMARK    2  A    between atoms: N4_10  and  N5_12 
REMARK    3  A    between atoms: C5_14  and  C6_15 
ROOT
HETATM    1  C1  UNL     1      13.255  17.841  15.739  1.00  0.00     0.018 C 
HETATM    2  C2  UNL     1      12.767  16.729  15.777  1.00  0.00    -0.071 C 
HETATM    3  C3  UNL     1      12.181  15.416  15.800  1.00  0.00     0.170 C 
HETATM    4  N1  UNL     1      12.589  14.513  16.610  1.00  0.00    -0.301 N 
ATOM      5  H1  UNL     1      12.140  13.598  16.585  1.00  0.00     0.186 HD
ENDROOT
BRANCH   4   6
HETATM    6  N2  UNL     1      13.622  14.722  17.526  1.00  0.00    -0.272 N 
HETATM    7  C4  UNL     1      13.465  14.583  18.921  1.00  0.00     0.222 C 
HETATM    8  N3  UNL     1      13.224  13.326  19.510  1.00  0.00    -0.061 NA
HETATM    9  N4  UNL     1      13.542  15.615  19.674  1.00  0.00    -0.273 N 
ATOM     10  H4  UNL     1      13.426  15.494  20.680  1.00  0.00     0.189 HD
ATOM     11  H2  UNL     1      14.539  14.990  17.168  1.00  0.00     0.189 HD
BRANCH   9  12
HETATM   12  N5  UNL     1      13.768  16.849  19.202  1.00  0.00    -0.309 N 
HETATM   13  C5  UNL     1      14.683  17.652  19.216  1.00  0.00     0.118 C 
ATOM     14  H5  UNL     1      12.959  17.211  18.697  1.00  0.00     0.186 HD
BRANCH  13  15
HETATM   15  C6  UNL     1      15.993  17.512  19.830  1.00  0.00    -0.019 A 
HETATM   16  C7  UNL     1      17.140  17.519  19.009  1.00  0.00     0.013 A 
HETATM   17  C8  UNL     1      18.390  17.392  19.524  1.00  0.00     0.001 A 
HETATM   18  C9  UNL     1      18.553  17.252  20.879  1.00  0.00     0.000 A 
HETATM   19  C10 UNL     1      17.447  17.242  21.693  1.00  0.00     0.001 A 
HETATM   20  C11 UNL     1      16.164  17.371  21.188  1.00  0.00     0.013 A 
ENDBRANCH  13  15
ENDBRANCH   9  12
ENDBRANCH   4   6
TORSDOF 3
ENDMDL
MODEL 4
REMARK VINA RESULT: -6.897388966      2.647      4.270
REMARK  3 active torsions:
REMARK  status: ('A' for Active; 'I' for Inactive)
REMARK    1  A    between atoms: N1_4  and  N2_6 
REMARK       I    between atoms: N2_6  and  C4_8 
REMARK    2  A    between atoms: N4_10  and  N5_12 
REMARK    3  A    between atoms: C5_14  and  C6_15 
ROOT
HETATM    1  C1  UNL     1      16.774  17.898  14.451  1.00  0.00     0.018 C 
HETATM    2  C2  UNL     1      15.839  17.146  14.261  1.00  0.00    -0.071 C 
HETATM    3  C3  UNL     1      14.737  16.256  14.014  1.00  0.00     0.170 C 
HETATM    4  N1  UNL     1      14.197  15.578  14.957  1.00  0.00    -0.301 N 
ATOM      5  H1  UNL     1      13.419  14.960  14.728  1.00  0.00     0.186 HD
ENDROOT
BRANCH   4   6
HETATM    6  N2  UNL     1      14.624  15.645  16.284  1.00  0.00    -0.272 N 
HETATM    7  C4  UNL     1      13.785  16.020  17.354  1.00  0.00     0.222 C 
HETATM    8  N3  UNL     1      12.710  15.205  17.762  1.00  0.00    -0.061 NA
HETATM    9  N4  UNL     1      13.998  17.120  17.972  1.00  0.00    -0.273 N 
ATOM     10  H4  UNL     1      13.381  17.373  18.743  1.00  0.00     0.189 HD
ATOM     11  H2  UNL     1      15.595  15.411  16.492  1.00  0.00     0.189 HD
BRANCH   9  12
HETATM   12  N5  UNL     1      14.995  17.956  17.653  1.00  0.00    -0.309 N 
HETATM   13  C5  UNL     1      16.056  18.302  18.141  1.00  0.00     0.118 C 
ATOM     14  H5  UNL     1      14.820  18.429  16.766  1.00  0.00     0.186 HD
BRANCH  13  15
HETATM   15  C6  UNL     1      16.658  17.861  19.388  1.00  0.00    -0.019 A 
HETATM   16  C7  UNL     1      18.052  17.651  19.442  1.00  0.00     0.013 A 
HETATM   17  C8  UNL     1      18.671  17.239  20.578  1.00  0.00     0.001 A 
HETATM   18  C9  UNL     1      17.930  17.018  21.711  1.00  0.00     0.000 A 
HETATM   19  C10 UNL     1      16.571  17.216  21.676  1.00  0.00     0.001 A 
HETATM   20  C11 UNL     1      15.920  17.636  20.528  1.00  0.00     0.013 A 
ENDBRANCH  13  15
ENDBRANCH   9  12
ENDBRANCH   4   6
TORSDOF 3
ENDMDL
MODEL 5
REMARK VINA RESULT: -6.818763394      3.055      4.435
REMARK  3 active torsions:
REMARK  status: ('A' for Active; 'I' for Inactive)
REMARK    1  A    between atoms: N1_4  and  N2_6 
REMARK       I    between atoms: N2_6  and  C4_8 
REMARK    2  A    between atoms: N4_10  and  N5_12 
REMARK    3  A    between atoms: C5_14  and  C6_15 
ROOT
HETATM    1  C1  UNL     1      14.697  16.065  14.247  1.00  0.00     0.018 C 
HETATM    2  C2  UNL     1      13.683  15.708  14.813  1.00  0.00    -0.071 C 
HETATM    3  C3  UNL     1      12.472  15.283  15.461  1.00  0.00     0.170 C 
HETATM    4  N1  UNL     1      12.467  14.883  16.677  1.00  0.00    -0.301 N 
ATOM      5  H1  UNL     1      11.581  14.591  17.089  1.00  0.00     0.186 HD
ENDROOT
BRANCH   4   6
HETATM    6  N2  UNL     1      13.617  14.827  17.465  1.00  0.00    -0.272 N 
HETATM    7  C4  UNL     1      13.598  14.591  18.856  1.00  0.00     0.222 C 
HETATM    8  N3  UNL     1      13.201  13.345  19.382  1.00  0.00    -0.061 NA
HETATM    9  N4  UNL     1      13.947  15.521  19.662  1.00  0.00    -0.273 N 
ATOM     10  H4  UNL     1      13.927  15.330  20.664  1.00  0.00     0.189 HD
ATOM     11  H2  UNL     1      14.521  14.964  17.012  1.00  0.00     0.189 HD
BRANCH   9  12
HETATM   12  N5  UNL     1      14.338  16.735  19.252  1.00  0.00    -0.309 N 
HETATM   13  C5  UNL     1      15.196  17.543  19.558  1.00  0.00     0.118 C 
ATOM     14  H5  UNL     1      13.766  17.072  18.477  1.00  0.00     0.186 HD
BRANCH  13  15
HETATM   15  C6  UNL     1      16.200  17.436  20.603  1.00  0.00    -0.019 A 
HETATM   16  C7  UNL     1      15.799  17.526  21.953  1.00  0.00     0.013 A 
HETATM   17  C8  UNL     1      16.691  17.434  22.973  1.00  0.00     0.001 A 
HETATM   18  C9  UNL     1      18.021  17.247  22.694  1.00  0.00     0.000 A 
HETATM   19  C10 UNL     1      18.429  17.157  21.386  1.00  0.00     0.001 A 
HETATM   20  C11 UNL     1      17.536  17.249  20.331  1.00  0.00     0.013 A 
ENDBRANCH  13  15
ENDBRANCH   9  12
ENDBRANCH   4   6
TORSDOF 3
ENDMDL
