MODEL 1
REMARK VINA RESULT: -8.219145447      0.000      0.000
REMARK  12 active torsions:
REMARK  status: ('A' for Active; 'I' for Inactive)
REMARK    1  A    between atoms: O1_2  and  C2_3 
REMARK    2  A    between atoms: C3_4  and  O2_5 
REMARK    3  A    between atoms: C4_7  and  N1_8 
REMARK       I    between atoms: N1_8  and  C5_10 
REMARK    4  A    between atoms: C5_10  and  C6_12 
REMARK    5  A    between atoms: C12_19  and  O5_20 
REMARK    6  A    between atoms: C12_19  and  C19_36 
REMARK    7  A    between atoms: O5_20  and  C13_21 
REMARK    8  A    between atoms: C14_23  and  C15_24 
REMARK    9  A    between atoms: C15_24  and  O7_25 
REMARK   10  A    between atoms: C16_27  and  O8_28 
REMARK   11  A    between atoms: C17_30  and  O9_31 
REMARK   12  A    between atoms: C18_33  and  O10_34 
ROOT
HETATM    1  C2  UNL     1      10.516  -2.099  12.209  1.00  0.00     0.216 C 
HETATM    2  C3  UNL     1      10.624  -1.696  13.686  1.00  0.00     0.201 C 
HETATM    3  C4  UNL     1      12.009  -1.102  13.704  1.00  0.00     0.258 C 
HETATM    4  O4  UNL     1      12.066  -0.382  12.549  1.00  0.00    -0.325 OA
HETATM    5  C12 UNL     1      11.367  -1.079  11.555  1.00  0.00     0.201 C 
ENDROOT
BRANCH   5   6
HETATM    6  O5  UNL     1      10.788  -0.168  10.752  1.00  0.00    -0.319 OA
BRANCH   6   7
HETATM    7  C13 UNL     1       9.519  -0.316  10.317  1.00  0.00     0.295 C 
HETATM    8  O6  UNL     1       8.709  -0.140  11.424  1.00  0.00    -0.348 OA
HETATM    9  C14 UNL     1       8.086   1.020  11.624  1.00  0.00     0.179 C 
HETATM   10  C16 UNL     1       7.552   1.733  10.412  1.00  0.00     0.180 C 
HETATM   11  C17 UNL     1       7.718   0.863   9.184  1.00  0.00     0.183 C 
HETATM   12  C18 UNL     1       9.228   0.562   9.158  1.00  0.00     0.204 C 
BRANCH   9  13
HETATM   13  C15 UNL     1       8.893   1.990  12.472  1.00  0.00     0.198 C 
BRANCH  13  14
HETATM   14  O7  UNL     1       9.464   2.998  11.669  1.00  0.00    -0.398 OA
ATOM     15  H7  UNL     1      10.388   2.832  11.527  1.00  0.00     0.209 HD
ENDBRANCH  13  14
ENDBRANCH   9  13
BRANCH  10  16
HETATM   16  O8  UNL     1       6.212   2.075  10.512  1.00  0.00    -0.390 OA
ATOM     17  H8  UNL     1       5.645   1.567   9.943  1.00  0.00     0.210 HD
ENDBRANCH  10  16
BRANCH  11  18
HETATM   18  O9  UNL     1       7.321   1.521   8.046  1.00  0.00    -0.390 OA
ATOM     19  H9  UNL     1       7.904   2.243   7.841  1.00  0.00     0.210 HD
ENDBRANCH  11  18
BRANCH  12  20
HETATM   20  O10 UNL     1       9.891   1.785   9.167  1.00  0.00    -0.388 OA
ATOM     21  H10 UNL     1      10.360   1.994   8.366  1.00  0.00     0.210 HD
ENDBRANCH  12  20
ENDBRANCH   6   7
ENDBRANCH   5   6
BRANCH   5  22
HETATM   22  C19 UNL     1      12.440  -1.788  10.755  1.00  0.00     0.051 A 
HETATM   23  C20 UNL     1      13.023  -1.198   9.526  1.00  0.00     0.011 A 
HETATM   24  C21 UNL     1      13.842  -1.318  10.777  1.00  0.00     0.011 A 
ENDBRANCH   5  22
BRANCH   1  25
HETATM   25  O1  UNL     1      10.991  -3.374  11.996  1.00  0.00    -0.382 OA
HETATM   26  C1  UNL     1      10.074  -4.370  12.283  1.00  0.00     0.202 C 
ENDBRANCH   1  25
BRANCH   2  27
HETATM   27  O2  UNL     1       9.702  -0.690  13.905  1.00  0.00    -0.388 OA
ATOM     28  H2  UNL     1      10.166   0.035  14.306  1.00  0.00     0.210 HD
ENDBRANCH   2  27
BRANCH   3  29
HETATM   29  N1  UNL     1      12.171  -0.176  14.830  1.00  0.00    -0.332 N 
HETATM   30  C5  UNL     1      12.486  -0.637  16.128  1.00  0.00     0.223 C 
HETATM   31  O3  UNL     1      12.638  -1.849  16.368  1.00  0.00    -0.273 OA
ATOM     32  H1  UNL     1      12.054   0.824  14.673  1.00  0.00     0.165 HD
BRANCH  30  33
HETATM   33  C6  UNL     1      12.635   0.356  17.212  1.00  0.00     0.078 C 
HETATM   34  C7  UNL     1      11.614   1.470  17.128  1.00  0.00     0.014 C 
HETATM   35  C8  UNL     1      11.986   2.524  18.127  1.00  0.00     0.001 C 
HETATM   36  C9  UNL     1      12.078   1.974  19.521  1.00  0.00     0.000 C 
HETATM   37  C10 UNL     1      12.970   0.755  19.600  1.00  0.00     0.001 C 
HETATM   38  C11 UNL     1      12.528  -0.278  18.581  1.00  0.00     0.014 C 
ENDBRANCH  30  33
ENDBRANCH   3  29
TORSDOF 12
ENDMDL
MODEL 2
REMARK VINA RESULT: -7.937643922      3.303      8.000
REMARK  12 active torsions:
REMARK  status: ('A' for Active; 'I' for Inactive)
REMARK    1  A    between atoms: O1_2  and  C2_3 
REMARK    2  A    between atoms: C3_4  and  O2_5 
REMARK    3  A    between atoms: C4_7  and  N1_8 
REMARK       I    between atoms: N1_8  and  C5_10 
REMARK    4  A    between atoms: C5_10  and  C6_12 
REMARK    5  A    between atoms: C12_19  and  O5_20 
REMARK    6  A    between atoms: C12_19  and  C19_36 
REMARK    7  A    between atoms: O5_20  and  C13_21 
REMARK    8  A    between atoms: C14_23  and  C15_24 
REMARK    9  A    between atoms: C15_24  and  O7_25 
REMARK   10  A    between atoms: C16_27  and  O8_28 
REMARK   11  A    between atoms: C17_30  and  O9_31 
REMARK   12  A    between atoms: C18_33  and  O10_34 
ROOT
HETATM    1  C2  UNL     1       9.396  -0.394  11.681  1.00  0.00     0.216 C 
HETATM    2  C3  UNL     1       9.875   0.492  10.523  1.00  0.00     0.201 C 
HETATM    3  C4  UNL     1       8.552   0.877   9.912  1.00  0.00     0.258 C 
HETATM    4  O4  UNL     1       7.758   1.126  10.991  1.00  0.00    -0.325 OA
HETATM    5  C12 UNL     1       8.084   0.212  12.002  1.00  0.00     0.201 C 
ENDROOT
BRANCH   5   6
HETATM    6  O5  UNL     1       7.931   0.841  13.181  1.00  0.00    -0.319 OA
BRANCH   6   7
HETATM    7  C13 UNL     1       8.942   1.535  13.747  1.00  0.00     0.295 C 
HETATM    8  O6  UNL     1       8.354   2.586  14.428  1.00  0.00    -0.348 OA
HETATM    9  C14 UNL     1       8.185   2.523  15.747  1.00  0.00     0.179 C 
HETATM   10  C16 UNL     1       9.275   1.866  16.550  1.00  0.00     0.180 C 
HETATM   11  C17 UNL     1      10.450   1.534  15.655  1.00  0.00     0.183 C 
HETATM   12  C18 UNL     1       9.827   0.659  14.552  1.00  0.00     0.204 C 
BRANCH   9  13
HETATM   13  C15 UNL     1       6.837   1.944  16.146  1.00  0.00     0.198 C 
BRANCH  13  14
HETATM   14  O7  UNL     1       6.820   0.546  15.962  1.00  0.00    -0.398 OA
ATOM     15  H7  UNL     1       6.332   0.317  15.180  1.00  0.00     0.209 HD
ENDBRANCH  13  14
ENDBRANCH   9  13
BRANCH  10  16
HETATM   16  O8  UNL     1       9.743   2.646  17.596  1.00  0.00    -0.390 OA
ATOM     17  H8  UNL     1      10.511   3.160  17.374  1.00  0.00     0.210 HD
ENDBRANCH  10  16
BRANCH  11  18
HETATM   18  O9  UNL     1      11.426   0.854  16.341  1.00  0.00    -0.390 OA
ATOM     19  H9  UNL     1      11.910   0.271  15.769  1.00  0.00     0.210 HD
ENDBRANCH  11  18
BRANCH  12  20
HETATM   20  O10 UNL     1       9.187  -0.404  15.183  1.00  0.00    -0.388 OA
ATOM     21  H10 UNL     1       9.743  -0.930  15.745  1.00  0.00     0.210 HD
ENDBRANCH  12  20
ENDBRANCH   6   7
ENDBRANCH   5   6
BRANCH   5  22
HETATM   22  C19 UNL     1       7.021  -0.862  11.907  1.00  0.00     0.051 A 
HETATM   23  C20 UNL     1       5.682  -0.699  12.524  1.00  0.00     0.011 A 
HETATM   24  C21 UNL     1       5.841  -0.692  11.033  1.00  0.00     0.011 A 
ENDBRANCH   5  22
BRANCH   1  25
HETATM   25  O1  UNL     1       9.271  -1.709  11.293  1.00  0.00    -0.382 OA
HETATM   26  C1  UNL     1      10.056  -2.586  12.020  1.00  0.00     0.202 C 
ENDBRANCH   1  25
BRANCH   2  27
HETATM   27  O2  UNL     1      10.455   1.616  11.079  1.00  0.00    -0.388 OA
ATOM     28  H2  UNL     1      11.391   1.555  10.925  1.00  0.00     0.210 HD
ENDBRANCH   2  27
BRANCH   3  29
HETATM   29  N1  UNL     1       8.669   2.115   9.135  1.00  0.00    -0.332 N 
HETATM   30  C5  UNL     1       7.688   2.493   8.191  1.00  0.00     0.223 C 
HETATM   31  O3  UNL     1       6.684   1.788   7.980  1.00  0.00    -0.273 OA
ATOM     32  H1  UNL     1       9.479   2.719   9.279  1.00  0.00     0.165 HD
BRANCH  30  33
HETATM   33  C6  UNL     1       7.875   3.755   7.446  1.00  0.00     0.078 C 
HETATM   34  C7  UNL     1       8.609   3.559   6.137  1.00  0.00     0.014 C 
HETATM   35  C8  UNL     1       8.937   4.909   5.575  1.00  0.00     0.001 C 
HETATM   36  C9  UNL     1       7.712   5.757   5.390  1.00  0.00     0.000 C 
HETATM   37  C10 UNL     1       6.873   5.836   6.646  1.00  0.00     0.001 C 
HETATM   38  C11 UNL     1       6.560   4.440   7.149  1.00  0.00     0.014 C 
ENDBRANCH  30  33
ENDBRANCH   3  29
TORSDOF 12
ENDMDL
MODEL 3
REMARK VINA RESULT: -7.723708248      2.285      5.873
REMARK  12 active torsions:
REMARK  status: ('A' for Active; 'I' for Inactive)
REMARK    1  A    between atoms: O1_2  and  C2_3 
REMARK    2  A    between atoms: C3_4  and  O2_5 
REMARK    3  A    between atoms: C4_7  and  N1_8 
REMARK       I    between atoms: N1_8  and  C5_10 
REMARK    4  A    between atoms: C5_10  and  C6_12 
REMARK    5  A    between atoms: C12_19  and  O5_20 
REMARK    6  A    between atoms: C12_19  and  C19_36 
REMARK    7  A    between atoms: O5_20  and  C13_21 
REMARK    8  A    between atoms: C14_23  and  C15_24 
REMARK    9  A    between atoms: C15_24  and  O7_25 
REMARK   10  A    between atoms: C16_27  and  O8_28 
REMARK   11  A    between atoms: C17_30  and  O9_31 
REMARK   12  A    between atoms: C18_33  and  O10_34 
ROOT
HETATM    1  C2  UNL     1      11.646  -0.705  13.445  1.00  0.00     0.216 C 
HETATM    2  C3  UNL     1      12.953  -0.545  12.658  1.00  0.00     0.201 C 
HETATM    3  C4  UNL     1      12.846  -1.716  11.715  1.00  0.00     0.258 C 
HETATM    4  O4  UNL     1      11.538  -1.705  11.335  1.00  0.00    -0.325 OA
HETATM    5  C12 UNL     1      10.758  -1.324  12.436  1.00  0.00     0.201 C 
ENDROOT
BRANCH   5   6
HETATM    6  O5  UNL     1       9.716  -0.616  11.967  1.00  0.00    -0.319 OA
BRANCH   6   7
HETATM    7  C13 UNL     1       9.493  -0.481  10.642  1.00  0.00     0.295 C 
HETATM    8  O6  UNL     1       8.204  -0.930  10.419  1.00  0.00    -0.348 OA
HETATM    9  C14 UNL     1       7.205  -0.063  10.273  1.00  0.00     0.179 C 
HETATM   10  C16 UNL     1       7.500   1.207   9.523  1.00  0.00     0.180 C 
HETATM   11  C17 UNL     1       8.897   1.153   8.942  1.00  0.00     0.183 C 
HETATM   12  C18 UNL     1       9.788   0.894  10.171  1.00  0.00     0.204 C 
BRANCH   9  13
HETATM   13  C15 UNL     1       6.510   0.269  11.584  1.00  0.00     0.198 C 
BRANCH  13  14
HETATM   14  O7  UNL     1       7.345   1.051  12.407  1.00  0.00    -0.398 OA
ATOM     15  H7  UNL     1       7.423   1.933  12.065  1.00  0.00     0.209 HD
ENDBRANCH  13  14
ENDBRANCH   9  13
BRANCH  10  16
HETATM   16  O8  UNL     1       6.618   1.458   8.483  1.00  0.00    -0.390 OA
ATOM     17  H8  UNL     1       5.876   1.997   8.733  1.00  0.00     0.210 HD
ENDBRANCH  10  16
BRANCH  11  18
HETATM   18  O9  UNL     1       9.229   2.335   8.325  1.00  0.00    -0.390 OA
ATOM     19  H9  UNL     1       9.884   2.201   7.650  1.00  0.00     0.210 HD
ENDBRANCH  11  18
BRANCH  12  20
HETATM   20  O10 UNL     1       9.520   1.901  11.093  1.00  0.00    -0.388 OA
ATOM     21  H10 UNL     1      10.283   2.253  11.537  1.00  0.00     0.210 HD
ENDBRANCH  12  20
ENDBRANCH   6   7
ENDBRANCH   5   6
BRANCH   5  22
HETATM   22  C19 UNL     1      10.223  -2.625  12.997  1.00  0.00     0.051 A 
HETATM   23  C20 UNL     1       8.911  -3.178  12.582  1.00  0.00     0.011 A 
HETATM   24  C21 UNL     1      10.187  -3.853  12.174  1.00  0.00     0.011 A 
ENDBRANCH   5  22
BRANCH   1  25
HETATM   25  O1  UNL     1      11.814  -1.517  14.545  1.00  0.00    -0.382 OA
HETATM   26  C1  UNL     1      12.695  -1.013  15.486  1.00  0.00     0.202 C 
ENDBRANCH   1  25
BRANCH   2  27
HETATM   27  O2  UNL     1      12.853   0.626  11.931  1.00  0.00    -0.388 OA
ATOM     28  H2  UNL     1      13.720   1.014  11.900  1.00  0.00     0.210 HD
ENDBRANCH   2  27
BRANCH   3  29
HETATM   29  N1  UNL     1      13.672  -1.509  10.520  1.00  0.00    -0.332 N 
HETATM   30  C5  UNL     1      14.472  -2.543   9.985  1.00  0.00     0.223 C 
HETATM   31  O3  UNL     1      14.509  -3.672  10.508  1.00  0.00    -0.273 OA
ATOM     32  H1  UNL     1      13.668  -0.597  10.065  1.00  0.00     0.165 HD
BRANCH  30  33
HETATM   33  C6  UNL     1      15.276  -2.260   8.779  1.00  0.00     0.078 C 
HETATM   34  C7  UNL     1      15.202  -0.809   8.354  1.00  0.00     0.014 C 
HETATM   35  C8  UNL     1      15.863  -0.677   7.016  1.00  0.00     0.001 C 
HETATM   36  C9  UNL     1      17.282  -1.167   7.035  1.00  0.00     0.000 C 
HETATM   37  C10 UNL     1      17.401  -2.560   7.610  1.00  0.00     0.001 C 
HETATM   38  C11 UNL     1      16.733  -2.620   8.969  1.00  0.00     0.014 C 
ENDBRANCH  30  33
ENDBRANCH   3  29
TORSDOF 12
ENDMDL
MODEL 4
REMARK VINA RESULT: -7.696379611      2.209      5.841
REMARK  12 active torsions:
REMARK  status: ('A' for Active; 'I' for Inactive)
REMARK    1  A    between atoms: O1_2  and  C2_3 
REMARK    2  A    between atoms: C3_4  and  O2_5 
REMARK    3  A    between atoms: C4_7  and  N1_8 
REMARK       I    between atoms: N1_8  and  C5_10 
REMARK    4  A    between atoms: C5_10  and  C6_12 
REMARK    5  A    between atoms: C12_19  and  O5_20 
REMARK    6  A    between atoms: C12_19  and  C19_36 
REMARK    7  A    between atoms: O5_20  and  C13_21 
REMARK    8  A    between atoms: C14_23  and  C15_24 
REMARK    9  A    between atoms: C15_24  and  O7_25 
REMARK   10  A    between atoms: C16_27  and  O8_28 
REMARK   11  A    between atoms: C17_30  and  O9_31 
REMARK   12  A    between atoms: C18_33  and  O10_34 
ROOT
HETATM    1  C2  UNL     1      11.308  -0.866  13.421  1.00  0.00     0.216 C 
HETATM    2  C3  UNL     1      12.682  -0.485  12.855  1.00  0.00     0.201 C 
HETATM    3  C4  UNL     1      12.998  -1.722  12.054  1.00  0.00     0.258 C 
HETATM    4  O4  UNL     1      11.812  -2.032  11.458  1.00  0.00    -0.325 OA
HETATM    5  C12 UNL     1      10.775  -1.744  12.356  1.00  0.00     0.201 C 
ENDROOT
BRANCH   5   6
HETATM    6  O5  UNL     1       9.721  -1.325  11.634  1.00  0.00    -0.319 OA
BRANCH   6   7
HETATM    7  C13 UNL     1       9.139  -0.128  11.864  1.00  0.00     0.295 C 
HETATM    8  O6  UNL     1       9.917   0.811  11.212  1.00  0.00    -0.348 OA
HETATM    9  C14 UNL     1       9.537   1.298  10.033  1.00  0.00     0.179 C 
HETATM   10  C16 UNL     1       8.066   1.541   9.831  1.00  0.00     0.180 C 
HETATM   11  C17 UNL     1       7.319   1.306  11.127  1.00  0.00     0.183 C 
HETATM   12  C18 UNL     1       7.701  -0.136  11.505  1.00  0.00     0.204 C 
BRANCH   9  13
HETATM   13  C15 UNL     1      10.089   0.508   8.857  1.00  0.00     0.198 C 
BRANCH  13  14
HETATM   14  O7  UNL     1      11.232  -0.223   9.240  1.00  0.00    -0.398 OA
ATOM     15  H7  UNL     1      11.902   0.356   9.583  1.00  0.00     0.209 HD
ENDBRANCH  13  14
ENDBRANCH   9  13
BRANCH  10  16
HETATM   16  O8  UNL     1       7.768   2.824   9.395  1.00  0.00    -0.390 OA
ATOM     17  H8  UNL     1       7.799   2.923   8.451  1.00  0.00     0.210 HD
ENDBRANCH  10  16
BRANCH  11  18
HETATM   18  O9  UNL     1       5.963   1.436  10.953  1.00  0.00    -0.390 OA
ATOM     19  H9  UNL     1       5.729   1.434  10.033  1.00  0.00     0.210 HD
ENDBRANCH  11  18
BRANCH  12  20
HETATM   20  O10 UNL     1       7.369  -0.947  10.423  1.00  0.00    -0.388 OA
ATOM     21  H10 UNL     1       6.979  -0.492   9.686  1.00  0.00     0.210 HD
ENDBRANCH  12  20
ENDBRANCH   6   7
ENDBRANCH   5   6
BRANCH   5  22
HETATM   22  C19 UNL     1      10.416  -3.082  12.969  1.00  0.00     0.051 A 
HETATM   23  C20 UNL     1       9.065  -3.676  12.822  1.00  0.00     0.011 A 
HETATM   24  C21 UNL     1      10.246  -4.286  12.126  1.00  0.00     0.011 A 
ENDBRANCH   5  22
BRANCH   1  25
HETATM   25  O1  UNL     1      11.422  -1.530  14.622  1.00  0.00    -0.382 OA
HETATM   26  C1  UNL     1      12.046  -0.794  15.613  1.00  0.00     0.202 C 
ENDBRANCH   1  25
BRANCH   2  27
HETATM   27  O2  UNL     1      12.489   0.573  11.987  1.00  0.00    -0.388 OA
ATOM     28  H2  UNL     1      12.240   1.326  12.510  1.00  0.00     0.210 HD
ENDBRANCH   2  27
BRANCH   3  29
HETATM   29  N1  UNL     1      13.978  -1.435  11.002  1.00  0.00    -0.332 N 
HETATM   30  C5  UNL     1      14.702  -2.466  10.362  1.00  0.00     0.223 C 
HETATM   31  O3  UNL     1      14.536  -3.661  10.668  1.00  0.00    -0.273 OA
ATOM     32  H1  UNL     1      14.141  -0.467  10.724  1.00  0.00     0.165 HD
BRANCH  30  33
HETATM   33  C6  UNL     1      15.673  -2.100   9.311  1.00  0.00     0.078 C 
HETATM   34  C7  UNL     1      15.010  -1.790   7.986  1.00  0.00     0.014 C 
HETATM   35  C8  UNL     1      16.081  -1.648   6.947  1.00  0.00     0.001 C 
HETATM   36  C9  UNL     1      17.087  -0.595   7.312  1.00  0.00     0.000 C 
HETATM   37  C10 UNL     1      17.646  -0.793   8.703  1.00  0.00     0.001 C 
HETATM   38  C11 UNL     1      16.515  -0.907   9.706  1.00  0.00     0.014 C 
ENDBRANCH  30  33
ENDBRANCH   3  29
TORSDOF 12
ENDMDL
MODEL 5
REMARK VINA RESULT: -7.672723177      2.380      6.068
REMARK  12 active torsions:
REMARK  status: ('A' for Active; 'I' for Inactive)
REMARK    1  A    between atoms: O1_2  and  C2_3 
REMARK    2  A    between atoms: C3_4  and  O2_5 
REMARK    3  A    between atoms: C4_7  and  N1_8 
REMARK       I    between atoms: N1_8  and  C5_10 
REMARK    4  A    between atoms: C5_10  and  C6_12 
REMARK    5  A    between atoms: C12_19  and  O5_20 
REMARK    6  A    between atoms: C12_19  and  C19_36 
REMARK    7  A    between atoms: O5_20  and  C13_21 
REMARK    8  A    between atoms: C14_23  and  C15_24 
REMARK    9  A    between atoms: C15_24  and  O7_25 
REMARK   10  A    between atoms: C16_27  and  O8_28 
REMARK   11  A    between atoms: C17_30  and  O9_31 
REMARK   12  A    between atoms: C18_33  and  O10_34 
ROOT
HETATM    1  C2  UNL     1      11.146  -0.946  13.252  1.00  0.00     0.216 C 
HETATM    2  C3  UNL     1      12.395  -0.388  12.557  1.00  0.00     0.201 C 
HETATM    3  C4  UNL     1      12.785  -1.573  11.711  1.00  0.00     0.258 C 
HETATM    4  O4  UNL     1      11.596  -2.034  11.233  1.00  0.00    -0.325 OA
HETATM    5  C12 UNL     1      10.626  -1.885  12.234  1.00  0.00     0.201 C 
ENDROOT
BRANCH   5   6
HETATM    6  O5  UNL     1       9.459  -1.606  11.628  1.00  0.00    -0.319 OA
BRANCH   6   7
HETATM    7  C13 UNL     1       8.634  -0.644  12.094  1.00  0.00     0.295 C 
HETATM    8  O6  UNL     1       9.034   0.534  11.489  1.00  0.00    -0.348 OA
HETATM    9  C14 UNL     1       8.362   1.016  10.446  1.00  0.00     0.179 C 
HETATM   10  C16 UNL     1       6.865   0.868  10.463  1.00  0.00     0.180 C 
HETATM   11  C17 UNL     1       6.416   0.306  11.795  1.00  0.00     0.183 C 
HETATM   12  C18 UNL     1       7.208  -1.008  11.917  1.00  0.00     0.204 C 
BRANCH   9  13
HETATM   13  C15 UNL     1       8.907   0.532   9.111  1.00  0.00     0.198 C 
BRANCH  13  14
HETATM   14  O7  UNL     1      10.221   0.041   9.258  1.00  0.00    -0.398 OA
ATOM     15  H7  UNL     1      10.814   0.740   9.508  1.00  0.00     0.209 HD
ENDBRANCH  13  14
ENDBRANCH   9  13
BRANCH  10  16
HETATM   16  O8  UNL     1       6.185   2.058  10.252  1.00  0.00    -0.390 OA
ATOM     17  H8  UNL     1       5.583   2.028   9.518  1.00  0.00     0.210 HD
ENDBRANCH  10  16
BRANCH  11  18
HETATM   18  O9  UNL     1       5.061   0.077  11.810  1.00  0.00    -0.390 OA
ATOM     19  H9  UNL     1       4.629   0.502  11.079  1.00  0.00     0.210 HD
ENDBRANCH  11  18
BRANCH  12  20
HETATM   20  O10 UNL     1       6.930  -1.763  10.781  1.00  0.00    -0.388 OA
ATOM     21  H10 UNL     1       6.007  -1.854  10.576  1.00  0.00     0.210 HD
ENDBRANCH  12  20
ENDBRANCH   6   7
ENDBRANCH   5   6
BRANCH   5  22
HETATM   22  C19 UNL     1      10.508  -3.259  12.861  1.00  0.00     0.051 A 
HETATM   23  C20 UNL     1       9.214  -3.979  12.935  1.00  0.00     0.011 A 
HETATM   24  C21 UNL     1      10.305  -4.463  12.027  1.00  0.00     0.011 A 
ENDBRANCH   5  22
BRANCH   1  25
HETATM   25  O1  UNL     1      11.466  -1.590  14.427  1.00  0.00    -0.382 OA
HETATM   26  C1  UNL     1      11.939  -0.748  15.418  1.00  0.00     0.202 C 
ENDBRANCH   1  25
BRANCH   2  27
HETATM   27  O2  UNL     1      11.979   0.636  11.727  1.00  0.00    -0.388 OA
ATOM     28  H2  UNL     1      12.118   0.348  10.832  1.00  0.00     0.210 HD
ENDBRANCH   2  27
BRANCH   3  29
HETATM   29  N1  UNL     1      13.609  -1.159  10.570  1.00  0.00    -0.332 N 
HETATM   30  C5  UNL     1      14.405  -2.084   9.858  1.00  0.00     0.223 C 
HETATM   31  O3  UNL     1      14.440  -3.288  10.172  1.00  0.00    -0.273 OA
ATOM     32  H1  UNL     1      13.606  -0.181  10.283  1.00  0.00     0.165 HD
BRANCH  30  33
HETATM   33  C6  UNL     1      15.208  -1.593   8.719  1.00  0.00     0.078 C 
HETATM   34  C7  UNL     1      16.346  -0.694   9.150  1.00  0.00     0.014 C 
HETATM   35  C8  UNL     1      16.952  -0.082   7.923  1.00  0.00     0.001 C 
HETATM   36  C9  UNL     1      17.419  -1.121   6.945  1.00  0.00     0.000 C 
HETATM   37  C10 UNL     1      16.342  -2.131   6.622  1.00  0.00     0.001 C 
HETATM   38  C11 UNL     1      15.787  -2.726   7.901  1.00  0.00     0.014 C 
ENDBRANCH  30  33
ENDBRANCH   3  29
TORSDOF 12
ENDMDL
