MODEL 1
REMARK VINA RESULT: -8.937216071      0.000      0.000
REMARK  11 active torsions:
REMARK  status: ('A' for Active; 'I' for Inactive)
REMARK    1  A    between atoms: O1_2  and  C2_3 
REMARK    2  A    between atoms: C4_5  and  C5_6 
REMARK    3  A    between atoms: C10_15  and  C11_16 
REMARK    4  A    between atoms: C11_16  and  S1_17 
REMARK    5  A    between atoms: S1_17  and  C12_18 
REMARK    6  A    between atoms: C14_23  and  C15_24 
REMARK    7  A    between atoms: C16_26  and  C17_27 
REMARK    8  A    between atoms: C17_27  and  O4_28 
REMARK    9  A    between atoms: C18_30  and  O5_31 
REMARK   10  A    between atoms: C19_33  and  O6_34 
REMARK   11  A    between atoms: C20_36  and  O7_37 
ROOT
HETATM    1  C12 UNL     1      11.043   1.135  16.892  1.00  0.00     0.075 C 
HETATM    2  C13 UNL     1      11.631   2.001  17.972  1.00  0.00     0.247 C 
HETATM    3  N2  UNL     1      10.717   3.100  18.197  1.00  0.00    -0.067 N 
ATOM      4  H21 UNL     1      11.073   3.998  17.869  1.00  0.00     0.277 HD
ATOM      5  H22 UNL     1      10.622   3.356  19.179  1.00  0.00     0.277 HD
HETATM    6  C14 UNL     1       9.464   2.711  17.577  1.00  0.00     0.218 C 
HETATM    7  C21 UNL     1       9.959   2.023  16.322  1.00  0.00     0.052 C 
ENDROOT
BRANCH   1   8
HETATM    8  S1  UNL     1      12.261   0.659  15.654  1.00  0.00    -0.160 SA
BRANCH   8   9
HETATM    9  C11 UNL     1      11.966  -0.950  14.953  1.00  0.00     0.109 C 
BRANCH   9  10
HETATM   10  C10 UNL     1      11.421  -0.979  13.574  1.00  0.00     0.160 C 
HETATM   11  C2  UNL     1      11.487   0.311  12.812  1.00  0.00     0.153 C 
HETATM   12  C3  UNL     1      10.563  -0.065  11.627  1.00  0.00     0.068 C 
HETATM   13  C4  UNL     1       9.596  -0.978  12.295  1.00  0.00     0.155 C 
HETATM   14  O2  UNL     1      10.048  -1.225  13.584  1.00  0.00    -0.375 OA
BRANCH  11  15
HETATM   15  O1  UNL     1      12.698   0.609  12.244  1.00  0.00    -0.388 OA
HETATM   16  C1  UNL     1      13.089  -0.443  11.420  1.00  0.00     0.202 C 
ENDBRANCH  11  15
BRANCH  13  17
HETATM   17  C5  UNL     1       8.165  -0.504  12.266  1.00  0.00     0.214 C 
HETATM   18  C6  UNL     1       8.018   0.514  11.158  1.00  0.00     0.036 C 
HETATM   19  C7  UNL     1       6.600   0.417  10.636  1.00  0.00     0.004 C 
HETATM   20  C8  UNL     1       5.675   0.251  11.826  1.00  0.00     0.027 C 
HETATM   21  C9  UNL     1       5.921  -1.089  12.491  1.00  0.00     0.233 C 
HETATM   22  N1  UNL     1       7.223  -1.555  12.034  1.00  0.00    -0.069 N 
ATOM     23  H12 UNL     1       7.212  -1.872  11.065  1.00  0.00     0.277 HD
ATOM     24  H11 UNL     1       7.501  -2.439  12.461  1.00  0.00     0.277 HD
ENDBRANCH  13  17
ENDBRANCH   9  10
ENDBRANCH   8   9
ENDBRANCH   1   8
BRANCH   6  25
HETATM   25  C15 UNL     1       8.583   3.888  17.277  1.00  0.00     0.184 C 
HETATM   26  O3  UNL     1       7.842   4.229  18.390  1.00  0.00    -0.371 OA
HETATM   27  C16 UNL     1       6.928   5.229  18.169  1.00  0.00     0.177 C 
HETATM   28  C18 UNL     1       5.961   4.947  17.051  1.00  0.00     0.180 C 
HETATM   29  C19 UNL     1       6.216   3.539  16.552  1.00  0.00     0.180 C 
HETATM   30  C20 UNL     1       7.687   3.509  16.116  1.00  0.00     0.180 C 
BRANCH  27  31
HETATM   31  C17 UNL     1       7.532   6.578  17.936  1.00  0.00     0.198 C 
BRANCH  31  32
HETATM   32  O4  UNL     1       8.550   6.893  18.816  1.00  0.00    -0.398 OA
ATOM     33  H4  UNL     1       8.797   7.810  18.805  1.00  0.00     0.209 HD
ENDBRANCH  31  32
ENDBRANCH  27  31
BRANCH  28  34
HETATM   34  O5  UNL     1       4.640   5.152  17.416  1.00  0.00    -0.390 OA
ATOM     35  H5  UNL     1       4.030   4.650  16.890  1.00  0.00     0.210 HD
ENDBRANCH  28  34
BRANCH  29  36
HETATM   36  O6  UNL     1       5.468   3.246  15.413  1.00  0.00    -0.390 OA
ATOM     37  H6  UNL     1       6.019   3.024  14.672  1.00  0.00     0.210 HD
ENDBRANCH  29  36
BRANCH  30  38
HETATM   38  O7  UNL     1       7.873   4.350  15.023  1.00  0.00    -0.390 OA
ATOM     39  H7  UNL     1       8.400   3.939  14.348  1.00  0.00     0.210 HD
ENDBRANCH  30  38
ENDBRANCH   6  25
TORSDOF 11
ENDMDL
MODEL 2
REMARK VINA RESULT: -8.857243358      2.870      6.370
REMARK  11 active torsions:
REMARK  status: ('A' for Active; 'I' for Inactive)
REMARK    1  A    between atoms: O1_2  and  C2_3 
REMARK    2  A    between atoms: C4_5  and  C5_6 
REMARK    3  A    between atoms: C10_15  and  C11_16 
REMARK    4  A    between atoms: C11_16  and  S1_17 
REMARK    5  A    between atoms: S1_17  and  C12_18 
REMARK    6  A    between atoms: C14_23  and  C15_24 
REMARK    7  A    between atoms: C16_26  and  C17_27 
REMARK    8  A    between atoms: C17_27  and  O4_28 
REMARK    9  A    between atoms: C18_30  and  O5_31 
REMARK   10  A    between atoms: C19_33  and  O6_34 
REMARK   11  A    between atoms: C20_36  and  O7_37 
ROOT
HETATM    1  C12 UNL     1      11.743  -1.454  11.969  1.00  0.00     0.075 C 
HETATM    2  C13 UNL     1      10.951  -2.703  12.244  1.00  0.00     0.247 C 
HETATM    3  N2  UNL     1       9.621  -2.504  11.712  1.00  0.00    -0.067 N 
ATOM      4  H21 UNL     1       8.906  -2.398  12.432  1.00  0.00     0.277 HD
ATOM      5  H22 UNL     1       9.230  -3.336  11.271  1.00  0.00     0.277 HD
HETATM    6  C14 UNL     1       9.715  -1.366  10.817  1.00  0.00     0.218 C 
HETATM    7  C21 UNL     1      10.663  -0.467  11.584  1.00  0.00     0.052 C 
ENDROOT
BRANCH   1   8
HETATM    8  S1  UNL     1      12.689  -0.911  13.401  1.00  0.00    -0.160 SA
BRANCH   8   9
HETATM    9  C11 UNL     1      11.728  -0.836  14.897  1.00  0.00     0.109 C 
BRANCH   9  10
HETATM   10  C10 UNL     1      11.302   0.514  15.341  1.00  0.00     0.160 C 
HETATM   11  C2  UNL     1      11.342   0.766  16.819  1.00  0.00     0.153 C 
HETATM   12  C3  UNL     1      10.547   2.094  16.856  1.00  0.00     0.068 C 
HETATM   13  C4  UNL     1       9.593   1.891  15.732  1.00  0.00     0.155 C 
HETATM   14  O2  UNL     1       9.953   0.731  15.059  1.00  0.00    -0.375 OA
BRANCH  11  15
HETATM   15  O1  UNL     1      12.572   1.066  17.341  1.00  0.00    -0.388 OA
HETATM   16  C1  UNL     1      12.851   0.192  18.389  1.00  0.00     0.202 C 
ENDBRANCH  11  15
BRANCH  13  17
HETATM   17  C5  UNL     1       8.141   1.897  16.135  1.00  0.00     0.214 C 
HETATM   18  C6  UNL     1       7.794   3.272  16.659  1.00  0.00     0.036 C 
HETATM   19  C7  UNL     1       6.333   3.523  16.348  1.00  0.00     0.004 C 
HETATM   20  C8  UNL     1       5.570   2.242  16.624  1.00  0.00     0.027 C 
HETATM   21  C9  UNL     1       5.984   1.168  15.637  1.00  0.00     0.233 C 
HETATM   22  N1  UNL     1       7.250   1.593  15.057  1.00  0.00    -0.069 N 
ATOM     23  H12 UNL     1       7.146   2.365  14.399  1.00  0.00     0.277 HD
ATOM     24  H11 UNL     1       7.637   0.912  14.404  1.00  0.00     0.277 HD
ENDBRANCH  13  17
ENDBRANCH   9  10
ENDBRANCH   8   9
ENDBRANCH   1   8
BRANCH   6  25
HETATM   25  C15 UNL     1       8.383  -0.718  10.570  1.00  0.00     0.184 C 
HETATM   26  O3  UNL     1       8.356   0.547  11.121  1.00  0.00    -0.371 OA
HETATM   27  C16 UNL     1       7.136   1.169  11.036  1.00  0.00     0.177 C 
HETATM   28  C18 UNL     1       6.001   0.388  11.640  1.00  0.00     0.180 C 
HETATM   29  C19 UNL     1       6.577  -0.852  12.293  1.00  0.00     0.180 C 
HETATM   30  C20 UNL     1       7.318  -1.605  11.181  1.00  0.00     0.180 C 
BRANCH  27  31
HETATM   31  C17 UNL     1       6.742   1.569   9.648  1.00  0.00     0.198 C 
BRANCH  31  32
HETATM   32  O4  UNL     1       7.119   2.855   9.310  1.00  0.00    -0.398 OA
ATOM     33  H4  UNL     1       6.893   3.099   8.420  1.00  0.00     0.209 HD
ENDBRANCH  31  32
ENDBRANCH  27  31
BRANCH  28  34
HETATM   34  O5  UNL     1       5.232   1.142  12.512  1.00  0.00    -0.390 OA
ATOM     35  H5  UNL     1       5.461   1.000  13.423  1.00  0.00     0.210 HD
ENDBRANCH  28  34
BRANCH  29  36
HETATM   36  O6  UNL     1       5.580  -1.714  12.747  1.00  0.00    -0.390 OA
ATOM     37  H6  UNL     1       5.941  -2.504  13.131  1.00  0.00     0.210 HD
ENDBRANCH  29  36
BRANCH  30  38
HETATM   38  O7  UNL     1       6.410  -2.053  10.227  1.00  0.00    -0.390 OA
ATOM     39  H7  UNL     1       6.674  -2.886   9.853  1.00  0.00     0.210 HD
ENDBRANCH  30  38
ENDBRANCH   6  25
TORSDOF 11
ENDMDL
MODEL 3
REMARK VINA RESULT: -8.671308904      1.401      2.110
REMARK  11 active torsions:
REMARK  status: ('A' for Active; 'I' for Inactive)
REMARK    1  A    between atoms: O1_2  and  C2_3 
REMARK    2  A    between atoms: C4_5  and  C5_6 
REMARK    3  A    between atoms: C10_15  and  C11_16 
REMARK    4  A    between atoms: C11_16  and  S1_17 
REMARK    5  A    between atoms: S1_17  and  C12_18 
REMARK    6  A    between atoms: C14_23  and  C15_24 
REMARK    7  A    between atoms: C16_26  and  C17_27 
REMARK    8  A    between atoms: C17_27  and  O4_28 
REMARK    9  A    between atoms: C18_30  and  O5_31 
REMARK   10  A    between atoms: C19_33  and  O6_34 
REMARK   11  A    between atoms: C20_36  and  O7_37 
ROOT
HETATM    1  C12 UNL     1      10.856   1.016  16.546  1.00  0.00     0.075 C 
HETATM    2  C13 UNL     1      11.552   1.843  17.591  1.00  0.00     0.247 C 
HETATM    3  N2  UNL     1      10.693   2.964  17.905  1.00  0.00    -0.067 N 
ATOM      4  H21 UNL     1      11.049   3.857  17.566  1.00  0.00     0.277 HD
ATOM      5  H22 UNL     1      10.683   3.203  18.897  1.00  0.00     0.277 HD
HETATM    6  C14 UNL     1       9.385   2.624  17.379  1.00  0.00     0.218 C 
HETATM    7  C21 UNL     1       9.758   1.946  16.077  1.00  0.00     0.052 C 
ENDROOT
BRANCH   1   8
HETATM    8  S1  UNL     1      11.958   0.529  15.208  1.00  0.00    -0.160 SA
BRANCH   8   9
HETATM    9  C11 UNL     1      11.479  -0.990  14.414  1.00  0.00     0.109 C 
BRANCH   9  10
HETATM   10  C10 UNL     1      10.120  -1.025  13.821  1.00  0.00     0.160 C 
HETATM   11  C2  UNL     1       9.889  -2.061  12.761  1.00  0.00     0.153 C 
HETATM   12  C3  UNL     1       8.531  -1.549  12.220  1.00  0.00     0.068 C 
HETATM   13  C4  UNL     1       8.684  -0.080  12.402  1.00  0.00     0.155 C 
HETATM   14  O2  UNL     1       9.847   0.151  13.123  1.00  0.00    -0.375 OA
BRANCH  11  15
HETATM   15  O1  UNL     1       9.642  -3.331  13.210  1.00  0.00    -0.388 OA
HETATM   16  C1  UNL     1      10.110  -4.248  12.272  1.00  0.00     0.202 C 
ENDBRANCH  11  15
BRANCH  13  17
HETATM   17  C5  UNL     1       8.627   0.719  11.126  1.00  0.00     0.214 C 
HETATM   18  C6  UNL     1       9.966   0.614  10.433  1.00  0.00     0.036 C 
HETATM   19  C7  UNL     1       9.717   0.716   8.943  1.00  0.00     0.004 C 
HETATM   20  C8  UNL     1       8.675   1.795   8.716  1.00  0.00     0.027 C 
HETATM   21  C9  UNL     1       7.342   1.357   9.289  1.00  0.00     0.233 C 
HETATM   22  N1  UNL     1       7.618   0.269  10.217  1.00  0.00    -0.069 N 
ATOM     23  H12 UNL     1       7.867  -0.600   9.746  1.00  0.00     0.277 HD
ATOM     24  H11 UNL     1       6.780  -0.071  10.691  1.00  0.00     0.277 HD
ENDBRANCH  13  17
ENDBRANCH   9  10
ENDBRANCH   8   9
ENDBRANCH   1   8
BRANCH   6  25
HETATM   25  C15 UNL     1       8.519   3.832  17.169  1.00  0.00     0.184 C 
HETATM   26  O3  UNL     1       7.816   4.124  18.320  1.00  0.00    -0.371 OA
HETATM   27  C16 UNL     1       6.917   5.152  18.181  1.00  0.00     0.177 C 
HETATM   28  C18 UNL     1       5.914   4.950  17.078  1.00  0.00     0.180 C 
HETATM   29  C19 UNL     1       6.126   3.568  16.495  1.00  0.00     0.180 C 
HETATM   30  C20 UNL     1       7.584   3.535  16.015  1.00  0.00     0.180 C 
BRANCH  27  31
HETATM   31  C17 UNL     1       7.541   6.500  18.005  1.00  0.00     0.198 C 
BRANCH  31  32
HETATM   32  O4  UNL     1       8.641   6.716  18.815  1.00  0.00    -0.398 OA
ATOM     33  H4  UNL     1       8.637   7.561  19.250  1.00  0.00     0.209 HD
ENDBRANCH  31  32
ENDBRANCH  27  31
BRANCH  28  34
HETATM   34  O5  UNL     1       4.608   5.160  17.491  1.00  0.00    -0.390 OA
ATOM     35  H5  UNL     1       4.388   4.677  18.279  1.00  0.00     0.210 HD
ENDBRANCH  28  34
BRANCH  29  36
HETATM   36  O6  UNL     1       5.341   3.352  15.364  1.00  0.00    -0.390 OA
ATOM     37  H6  UNL     1       5.052   2.450  15.297  1.00  0.00     0.210 HD
ENDBRANCH  29  36
BRANCH  30  38
HETATM   38  O7  UNL     1       7.757   4.432  14.966  1.00  0.00    -0.390 OA
ATOM     39  H7  UNL     1       7.869   5.322  15.278  1.00  0.00     0.210 HD
ENDBRANCH  30  38
ENDBRANCH   6  25
TORSDOF 11
ENDMDL
MODEL 4
REMARK VINA RESULT: -8.657892012      1.974      3.763
REMARK  11 active torsions:
REMARK  status: ('A' for Active; 'I' for Inactive)
REMARK    1  A    between atoms: O1_2  and  C2_3 
REMARK    2  A    between atoms: C4_5  and  C5_6 
REMARK    3  A    between atoms: C10_15  and  C11_16 
REMARK    4  A    between atoms: C11_16  and  S1_17 
REMARK    5  A    between atoms: S1_17  and  C12_18 
REMARK    6  A    between atoms: C14_23  and  C15_24 
REMARK    7  A    between atoms: C16_26  and  C17_27 
REMARK    8  A    between atoms: C17_27  and  O4_28 
REMARK    9  A    between atoms: C18_30  and  O5_31 
REMARK   10  A    between atoms: C19_33  and  O6_34 
REMARK   11  A    between atoms: C20_36  and  O7_37 
ROOT
HETATM    1  C12 UNL     1      11.115   1.418  17.348  1.00  0.00     0.075 C 
HETATM    2  C13 UNL     1      11.665   2.378  18.367  1.00  0.00     0.247 C 
HETATM    3  N2  UNL     1      10.718   3.462  18.503  1.00  0.00    -0.067 N 
ATOM      4  H21 UNL     1      11.050   4.345  18.113  1.00  0.00     0.277 HD
ATOM      5  H22 UNL     1      10.605   3.786  19.463  1.00  0.00     0.277 HD
HETATM    6  C14 UNL     1       9.483   2.992  17.903  1.00  0.00     0.218 C 
HETATM    7  C21 UNL     1      10.010   2.229  16.705  1.00  0.00     0.052 C 
ENDROOT
BRANCH   1   8
HETATM    8  S1  UNL     1      12.359   0.890  16.159  1.00  0.00    -0.160 SA
BRANCH   8   9
HETATM    9  C11 UNL     1      11.948  -0.633  15.334  1.00  0.00     0.109 C 
BRANCH   9  10
HETATM   10  C10 UNL     1      11.543  -0.525  13.911  1.00  0.00     0.160 C 
HETATM   11  C2  UNL     1      11.234  -1.816  13.214  1.00  0.00     0.153 C 
HETATM   12  C3  UNL     1      11.189  -1.294  11.757  1.00  0.00     0.068 C 
HETATM   13  C4  UNL     1      12.205  -0.210  11.807  1.00  0.00     0.155 C 
HETATM   14  O2  UNL     1      12.586  -0.030  13.130  1.00  0.00    -0.375 OA
BRANCH  11  15
HETATM   15  O1  UNL     1       9.990  -2.340  13.449  1.00  0.00    -0.388 OA
HETATM   16  C1  UNL     1       9.313  -2.472  12.239  1.00  0.00     0.202 C 
ENDBRANCH  11  15
BRANCH  13  17
HETATM   17  C5  UNL     1      13.384  -0.413  10.889  1.00  0.00     0.214 C 
HETATM   18  C6  UNL     1      14.443  -1.194  11.633  1.00  0.00     0.036 C 
HETATM   19  C7  UNL     1      15.202  -2.016  10.613  1.00  0.00     0.004 C 
HETATM   20  C8  UNL     1      15.425  -1.150   9.388  1.00  0.00     0.027 C 
HETATM   21  C9  UNL     1      14.100  -0.852   8.716  1.00  0.00     0.233 C 
HETATM   22  N1  UNL     1      13.058  -1.129   9.694  1.00  0.00    -0.069 N 
ATOM     23  H12 UNL     1      12.920  -2.126   9.855  1.00  0.00     0.277 HD
ATOM     24  H11 UNL     1      12.122  -0.918   9.348  1.00  0.00     0.277 HD
ENDBRANCH  13  17
ENDBRANCH   9  10
ENDBRANCH   8   9
ENDBRANCH   1   8
BRANCH   6  25
HETATM   25  C15 UNL     1       8.571   4.117  17.510  1.00  0.00     0.184 C 
HETATM   26  O3  UNL     1       7.777   4.485  18.576  1.00  0.00    -0.371 OA
HETATM   27  C16 UNL     1       6.836   5.437  18.272  1.00  0.00     0.177 C 
HETATM   28  C18 UNL     1       5.922   5.060  17.136  1.00  0.00     0.180 C 
HETATM   29  C19 UNL     1       6.247   3.640  16.721  1.00  0.00     0.180 C 
HETATM   30  C20 UNL     1       7.733   3.644  16.339  1.00  0.00     0.180 C 
BRANCH  27  31
HETATM   31  C17 UNL     1       7.398   6.794  17.989  1.00  0.00     0.198 C 
BRANCH  31  32
HETATM   32  O4  UNL     1       8.448   7.147  18.816  1.00  0.00    -0.398 OA
ATOM     33  H4  UNL     1       8.176   7.447  19.675  1.00  0.00     0.209 HD
ENDBRANCH  31  32
ENDBRANCH  27  31
BRANCH  28  34
HETATM   34  O5  UNL     1       4.582   5.234  17.443  1.00  0.00    -0.390 OA
ATOM     35  H5  UNL     1       4.050   5.420  16.678  1.00  0.00     0.210 HD
ENDBRANCH  28  34
BRANCH  29  36
HETATM   36  O6  UNL     1       5.553   3.260  15.574  1.00  0.00    -0.390 OA
ATOM     37  H6  UNL     1       5.304   2.344  15.596  1.00  0.00     0.210 HD
ENDBRANCH  29  36
BRANCH  30  38
HETATM   38  O7  UNL     1       7.929   4.435  15.211  1.00  0.00    -0.390 OA
ATOM     39  H7  UNL     1       7.108   4.644  14.780  1.00  0.00     0.210 HD
ENDBRANCH  30  38
ENDBRANCH   6  25
TORSDOF 11
ENDMDL
MODEL 5
REMARK VINA RESULT: -8.636313089      2.887      6.545
REMARK  11 active torsions:
REMARK  status: ('A' for Active; 'I' for Inactive)
REMARK    1  A    between atoms: O1_2  and  C2_3 
REMARK    2  A    between atoms: C4_5  and  C5_6 
REMARK    3  A    between atoms: C10_15  and  C11_16 
REMARK    4  A    between atoms: C11_16  and  S1_17 
REMARK    5  A    between atoms: S1_17  and  C12_18 
REMARK    6  A    between atoms: C14_23  and  C15_24 
REMARK    7  A    between atoms: C16_26  and  C17_27 
REMARK    8  A    between atoms: C17_27  and  O4_28 
REMARK    9  A    between atoms: C18_30  and  O5_31 
REMARK   10  A    between atoms: C19_33  and  O6_34 
REMARK   11  A    between atoms: C20_36  and  O7_37 
ROOT
HETATM    1  C12 UNL     1      11.829  -1.449  11.641  1.00  0.00     0.075 C 
HETATM    2  C13 UNL     1      11.029  -2.576  12.234  1.00  0.00     0.247 C 
HETATM    3  N2  UNL     1       9.650  -2.388  11.841  1.00  0.00    -0.067 N 
ATOM      4  H21 UNL     1       9.041  -2.112  12.611  1.00  0.00     0.277 HD
ATOM      5  H22 UNL     1       9.170  -3.257  11.610  1.00  0.00     0.277 HD
HETATM    6  C14 UNL     1       9.673  -1.432  10.749  1.00  0.00     0.218 C 
HETATM    7  C21 UNL     1      10.750  -0.476  11.218  1.00  0.00     0.052 C 
ENDROOT
BRANCH   1   8
HETATM    8  S1  UNL     1      12.978  -0.725  12.824  1.00  0.00    -0.160 SA
BRANCH   8   9
HETATM    9  C11 UNL     1      12.591  -1.118  14.517  1.00  0.00     0.109 C 
BRANCH   9  10
HETATM   10  C10 UNL     1      12.401   0.032  15.435  1.00  0.00     0.160 C 
HETATM   11  C2  UNL     1      12.150  -0.308  16.874  1.00  0.00     0.153 C 
HETATM   12  C3  UNL     1      11.703   1.087  17.373  1.00  0.00     0.068 C 
HETATM   13  C4  UNL     1      11.021   1.621  16.164  1.00  0.00     0.155 C 
HETATM   14  O2  UNL     1      11.247   0.744  15.113  1.00  0.00    -0.375 OA
BRANCH  11  15
HETATM   15  O1  UNL     1      13.258  -0.620  17.617  1.00  0.00    -0.388 OA
HETATM   16  C1  UNL     1      13.212   0.076  18.822  1.00  0.00     0.202 C 
ENDBRANCH  11  15
BRANCH  13  17
HETATM   17  C5  UNL     1       9.557   1.929  16.355  1.00  0.00     0.214 C 
HETATM   18  C6  UNL     1       9.428   3.038  17.374  1.00  0.00     0.036 C 
HETATM   19  C7  UNL     1       8.184   3.830  17.029  1.00  0.00     0.004 C 
HETATM   20  C8  UNL     1       7.099   2.846  16.636  1.00  0.00     0.027 C 
HETATM   21  C9  UNL     1       7.472   2.152  15.341  1.00  0.00     0.233 C 
HETATM   22  N1  UNL     1       8.902   2.347  15.154  1.00  0.00    -0.069 N 
ATOM     23  H12 UNL     1       9.141   3.301  14.884  1.00  0.00     0.277 HD
ATOM     24  H11 UNL     1       9.262   1.878  14.323  1.00  0.00     0.277 HD
ENDBRANCH  13  17
ENDBRANCH   9  10
ENDBRANCH   8   9
ENDBRANCH   1   8
BRANCH   6  25
HETATM   25  C15 UNL     1       8.348  -0.753  10.553  1.00  0.00     0.184 C 
HETATM   26  O3  UNL     1       8.360   0.498  11.135  1.00  0.00    -0.371 OA
HETATM   27  C16 UNL     1       7.151   1.145  11.096  1.00  0.00     0.177 C 
HETATM   28  C18 UNL     1       6.016   0.371  11.711  1.00  0.00     0.180 C 
HETATM   29  C19 UNL     1       6.584  -0.895  12.318  1.00  0.00     0.180 C 
HETATM   30  C20 UNL     1       7.282  -1.635  11.169  1.00  0.00     0.180 C 
BRANCH  27  31
HETATM   31  C17 UNL     1       6.730   1.587   9.730  1.00  0.00     0.198 C 
BRANCH  31  32
HETATM   32  O4  UNL     1       7.187   2.844   9.384  1.00  0.00    -0.398 OA
ATOM     33  H4  UNL     1       6.743   3.222   8.634  1.00  0.00     0.209 HD
ENDBRANCH  31  32
ENDBRANCH  27  31
BRANCH  28  34
HETATM   34  O5  UNL     1       5.285   1.118  12.621  1.00  0.00    -0.390 OA
ATOM     35  H5  UNL     1       5.689   1.151  13.480  1.00  0.00     0.210 HD
ENDBRANCH  28  34
BRANCH  29  36
HETATM   36  O6  UNL     1       5.583  -1.749  12.777  1.00  0.00    -0.390 OA
ATOM     37  H6  UNL     1       5.834  -2.662  12.708  1.00  0.00     0.210 HD
ENDBRANCH  29  36
BRANCH  30  38
HETATM   38  O7  UNL     1       6.341  -2.042  10.228  1.00  0.00    -0.390 OA
ATOM     39  H7  UNL     1       6.632  -2.807   9.746  1.00  0.00     0.210 HD
ENDBRANCH  30  38
ENDBRANCH   6  25
TORSDOF 11
ENDMDL
