MODEL 1
REMARK VINA RESULT: -9.431913625      0.000      0.000
REMARK  2 active torsions:
REMARK  status: ('A' for Active; 'I' for Inactive)
REMARK    1  A    between atoms: C4_7  and  N2_8 
REMARK       I    between atoms: N2_8  and  C5_10 
REMARK       I    between atoms: C5_10  and  N3_12 
REMARK    2  A    between atoms: N3_12  and  S2_14 
ROOT
HETATM    1  C1  UNL     1      52.951 -12.520  69.645  1.00  0.00     0.059 C 
HETATM    2  C2  UNL     1      53.098 -11.686  68.422  1.00  0.00     0.011 A 
HETATM    3  S1  UNL     1      53.850 -12.013  66.897  1.00  0.00    -0.072 SA
HETATM    4  C3  UNL     1      53.545 -10.519  66.105  1.00  0.00     0.121 A 
HETATM    5  N1  UNL     1      53.636  -9.682  65.018  1.00  0.00    -0.182 N 
ATOM      6  H1  UNL     1      54.084  -9.889  64.125  1.00  0.00     0.185 HD
HETATM    7  C4  UNL     1      53.009  -8.520  65.369  1.00  0.00     0.698 A 
HETATM    8  N4  UNL     1      52.545  -8.634  66.637  1.00  0.00    -0.089 N 
HETATM    9  C7  UNL     1      51.859  -7.841  67.511  1.00  0.00     0.362 A 
HETATM   10  O4  UNL     1      51.538  -6.708  67.133  1.00  0.00    -0.244 OA
HETATM   11  N5  UNL     1      51.575  -8.358  68.747  1.00  0.00    -0.246 N 
HETATM   12  C8  UNL     1      50.844  -7.472  69.642  1.00  0.00     0.183 C 
HETATM   13  N6  UNL     1      51.936  -9.583  69.118  1.00  0.00    -0.292 N 
ATOM     14  H6  UNL     1      51.700  -9.921  70.051  1.00  0.00     0.187 HD
HETATM   15  C9  UNL     1      52.633 -10.402  68.242  1.00  0.00     0.092 A 
HETATM   16  C10 UNL     1      52.879  -9.851  67.065  1.00  0.00     0.125 A 
ENDROOT
BRANCH   7  17
HETATM   17  N2  UNL     1      52.882  -7.488  64.625  1.00  0.00    -0.140 N 
HETATM   18  C5  UNL     1      53.355  -7.281  63.339  1.00  0.00     0.347 C 
HETATM   19  O1  UNL     1      53.990  -6.244  63.050  1.00  0.00    -0.245 OA
HETATM   20  N3  UNL     1      53.134  -8.234  62.315  1.00  0.00    -0.236 N 
ATOM     21  H3  UNL     1      52.617  -9.086  62.534  1.00  0.00     0.183 HD
ATOM     22  H2  UNL     1      52.362  -6.712  65.034  1.00  0.00     0.189 HD
BRANCH  20  23
HETATM   23  S2  UNL     1      53.714  -7.998  60.707  1.00  0.00     0.230 S 
HETATM   24  C6  UNL     1      52.897  -9.052  59.535  1.00  0.00     0.186 C 
HETATM   25  O2  UNL     1      53.450  -6.567  60.295  1.00  0.00    -0.206 OA
HETATM   26  O3  UNL     1      55.181  -8.316  60.633  1.00  0.00    -0.206 OA
ENDBRANCH  20  23
ENDBRANCH   7  17
TORSDOF 2
ENDMDL
MODEL 2
REMARK VINA RESULT: -9.049998232      1.315      1.400
REMARK  2 active torsions:
REMARK  status: ('A' for Active; 'I' for Inactive)
REMARK    1  A    between atoms: C4_7  and  N2_8 
REMARK       I    between atoms: N2_8  and  C5_10 
REMARK       I    between atoms: C5_10  and  N3_12 
REMARK    2  A    between atoms: N3_12  and  S2_14 
ROOT
HETATM    1  C1  UNL     1      55.469 -12.287  69.216  1.00  0.00     0.059 C 
HETATM    2  C2  UNL     1      55.055 -11.435  68.069  1.00  0.00     0.011 A 
HETATM    3  S1  UNL     1      55.664 -11.316  66.453  1.00  0.00    -0.072 SA
HETATM    4  C3  UNL     1      54.609 -10.106  65.841  1.00  0.00     0.121 A 
HETATM    5  N1  UNL     1      54.163  -9.283  64.834  1.00  0.00    -0.182 N 
ATOM      6  H1  UNL     1      54.533  -9.223  63.885  1.00  0.00     0.185 HD
HETATM    7  C4  UNL     1      53.127  -8.559  65.355  1.00  0.00     0.698 A 
HETATM    8  N4  UNL     1      52.939  -8.925  66.646  1.00  0.00    -0.089 N 
HETATM    9  C7  UNL     1      52.089  -8.575  67.656  1.00  0.00     0.362 A 
HETATM   10  O4  UNL     1      51.239  -7.707  67.421  1.00  0.00    -0.244 OA
HETATM   11  N5  UNL     1      52.239  -9.211  68.859  1.00  0.00    -0.246 N 
HETATM   12  C8  UNL     1      51.309  -8.801  69.903  1.00  0.00     0.183 C 
HETATM   13  N6  UNL     1      53.165 -10.140  69.074  1.00  0.00    -0.292 N 
ATOM     14  H6  UNL     1      53.235 -10.585  69.990  1.00  0.00     0.187 HD
HETATM   15  C9  UNL     1      54.036 -10.508  68.060  1.00  0.00     0.092 A 
HETATM   16  C10 UNL     1      53.845  -9.861  66.921  1.00  0.00     0.125 A 
ENDROOT
BRANCH   7  17
HETATM   17  N2  UNL     1      52.446  -7.677  64.729  1.00  0.00    -0.140 N 
HETATM   18  C5  UNL     1      52.681  -7.122  63.481  1.00  0.00     0.347 C 
HETATM   19  O1  UNL     1      52.667  -5.884  63.318  1.00  0.00    -0.245 OA
HETATM   20  N3  UNL     1      52.944  -7.940  62.354  1.00  0.00    -0.236 N 
ATOM     21  H3  UNL     1      52.958  -8.953  62.469  1.00  0.00     0.183 HD
ATOM     22  H2  UNL     1      51.616  -7.335  65.213  1.00  0.00     0.189 HD
BRANCH  20  23
HETATM   23  S2  UNL     1      53.240  -7.271  60.790  1.00  0.00     0.230 S 
HETATM   24  C6  UNL     1      54.344  -8.274  59.828  1.00  0.00     0.186 C 
HETATM   25  O2  UNL     1      51.931  -7.183  60.038  1.00  0.00    -0.206 OA
HETATM   26  O3  UNL     1      53.878  -5.917  60.919  1.00  0.00    -0.206 OA
ENDBRANCH  20  23
ENDBRANCH   7  17
TORSDOF 2
ENDMDL
MODEL 3
REMARK VINA RESULT: -8.932963708      2.475      3.355
REMARK  2 active torsions:
REMARK  status: ('A' for Active; 'I' for Inactive)
REMARK    1  A    between atoms: C4_7  and  N2_8 
REMARK       I    between atoms: N2_8  and  C5_10 
REMARK       I    between atoms: C5_10  and  N3_12 
REMARK    2  A    between atoms: N3_12  and  S2_14 
ROOT
HETATM    1  C1  UNL     1      51.162  -8.621  71.091  1.00  0.00     0.059 C 
HETATM    2  C2  UNL     1      51.695  -8.058  69.822  1.00  0.00     0.011 A 
HETATM    3  S1  UNL     1      51.386  -6.556  69.016  1.00  0.00    -0.072 SA
HETATM    4  C3  UNL     1      52.414  -6.750  67.653  1.00  0.00     0.121 A 
HETATM    5  N1  UNL     1      52.956  -6.304  66.471  1.00  0.00    -0.182 N 
ATOM      6  H1  UNL     1      52.763  -5.416  66.008  1.00  0.00     0.185 HD
HETATM    7  C4  UNL     1      53.803  -7.285  66.039  1.00  0.00     0.698 A 
HETATM    8  N4  UNL     1      53.785  -8.308  66.928  1.00  0.00    -0.089 N 
HETATM    9  C7  UNL     1      54.396  -9.523  67.046  1.00  0.00     0.362 A 
HETATM   10  O4  UNL     1      55.187  -9.861  66.156  1.00  0.00    -0.244 OA
HETATM   11  N5  UNL     1      54.089 -10.282  68.143  1.00  0.00    -0.246 N 
HETATM   12  C8  UNL     1      54.766 -11.569  68.221  1.00  0.00     0.183 C 
HETATM   13  N6  UNL     1      53.233  -9.885  69.080  1.00  0.00    -0.292 N 
ATOM     14  H6  UNL     1      53.039 -10.490  69.879  1.00  0.00     0.187 HD
HETATM   15  C9  UNL     1      52.604  -8.654  68.976  1.00  0.00     0.092 A 
HETATM   16  C10 UNL     1      52.938  -7.964  67.897  1.00  0.00     0.125 A 
ENDROOT
BRANCH   7  17
HETATM   17  N2  UNL     1      54.500  -7.249  64.967  1.00  0.00    -0.140 N 
HETATM   18  C5  UNL     1      54.075  -7.060  63.661  1.00  0.00     0.347 C 
HETATM   19  O1  UNL     1      54.443  -7.832  62.751  1.00  0.00    -0.245 OA
HETATM   20  N3  UNL     1      53.214  -5.989  63.319  1.00  0.00    -0.236 N 
ATOM     21  H3  UNL     1      52.904  -5.349  64.051  1.00  0.00     0.183 HD
ATOM     22  H2  UNL     1      55.504  -7.377  65.090  1.00  0.00     0.189 HD
BRANCH  20  23
HETATM   23  S2  UNL     1      52.673  -5.734  61.700  1.00  0.00     0.230 S 
HETATM   24  C6  UNL     1      51.897  -7.176  61.016  1.00  0.00     0.186 C 
HETATM   25  O2  UNL     1      51.651  -4.620  61.693  1.00  0.00    -0.206 OA
HETATM   26  O3  UNL     1      53.838  -5.400  60.812  1.00  0.00    -0.206 OA
ENDBRANCH  20  23
ENDBRANCH   7  17
TORSDOF 2
ENDMDL
MODEL 4
REMARK VINA RESULT: -8.853792681      1.800      2.106
REMARK  2 active torsions:
REMARK  status: ('A' for Active; 'I' for Inactive)
REMARK    1  A    between atoms: C4_7  and  N2_8 
REMARK       I    between atoms: N2_8  and  C5_10 
REMARK       I    between atoms: C5_10  and  N3_12 
REMARK    2  A    between atoms: N3_12  and  S2_14 
ROOT
HETATM    1  C1  UNL     1      52.135 -13.120  70.347  1.00  0.00     0.059 C 
HETATM    2  C2  UNL     1      52.977 -12.274  69.459  1.00  0.00     0.011 A 
HETATM    3  S1  UNL     1      54.426 -12.627  68.579  1.00  0.00    -0.072 SA
HETATM    4  C3  UNL     1      54.689 -11.097  67.843  1.00  0.00     0.121 A 
HETATM    5  N1  UNL     1      55.410 -10.248  67.037  1.00  0.00    -0.182 N 
ATOM      6  H1  UNL     1      56.264 -10.470  66.525  1.00  0.00     0.185 HD
HETATM    7  C4  UNL     1      54.758  -9.047  67.057  1.00  0.00     0.698 A 
HETATM    8  N4  UNL     1      53.667  -9.151  67.854  1.00  0.00    -0.089 N 
HETATM    9  C7  UNL     1      52.657  -8.325  68.256  1.00  0.00     0.362 A 
HETATM   10  O4  UNL     1      52.660  -7.161  67.835  1.00  0.00    -0.244 OA
HETATM   11  N5  UNL     1      51.712  -8.844  69.100  1.00  0.00    -0.246 N 
HETATM   12  C8  UNL     1      50.658  -7.921  69.500  1.00  0.00     0.183 C 
HETATM   13  N6  UNL     1      51.741 -10.100  69.532  1.00  0.00    -0.292 N 
ATOM     14  H6  UNL     1      51.012 -10.438  70.160  1.00  0.00     0.187 HD
HETATM   15  C9  UNL     1      52.759 -10.954  69.133  1.00  0.00     0.092 A 
HETATM   16  C10 UNL     1      53.643 -10.399  68.319  1.00  0.00     0.125 A 
ENDROOT
BRANCH   7  17
HETATM   17  N2  UNL     1      55.118  -7.992  66.431  1.00  0.00    -0.140 N 
HETATM   18  C5  UNL     1      54.829  -7.614  65.129  1.00  0.00     0.347 C 
HETATM   19  O1  UNL     1      55.736  -7.243  64.354  1.00  0.00    -0.245 OA
HETATM   20  N3  UNL     1      53.501  -7.637  64.638  1.00  0.00    -0.236 N 
ATOM     21  H3  UNL     1      52.748  -7.937  65.257  1.00  0.00     0.183 HD
ATOM     22  H2  UNL     1      55.697  -7.341  66.961  1.00  0.00     0.189 HD
BRANCH  20  23
HETATM   23  S2  UNL     1      53.117  -7.170  63.021  1.00  0.00     0.230 S 
HETATM   24  C6  UNL     1      53.778  -8.298  61.821  1.00  0.00     0.186 C 
HETATM   25  O2  UNL     1      51.615  -7.157  62.856  1.00  0.00    -0.206 OA
HETATM   26  O3  UNL     1      53.703  -5.819  62.720  1.00  0.00    -0.206 OA
ENDBRANCH  20  23
ENDBRANCH   7  17
TORSDOF 2
ENDMDL
MODEL 5
REMARK VINA RESULT: -8.733450615      1.933      2.337
REMARK  2 active torsions:
REMARK  status: ('A' for Active; 'I' for Inactive)
REMARK    1  A    between atoms: C4_7  and  N2_8 
REMARK       I    between atoms: N2_8  and  C5_10 
REMARK       I    between atoms: C5_10  and  N3_12 
REMARK    2  A    between atoms: N3_12  and  S2_14 
ROOT
HETATM    1  C1  UNL     1      52.631 -14.691  69.207  1.00  0.00     0.059 C 
HETATM    2  C2  UNL     1      53.273 -13.615  68.406  1.00  0.00     0.011 A 
HETATM    3  S1  UNL     1      54.397 -13.682  67.090  1.00  0.00    -0.072 SA
HETATM    4  C3  UNL     1      54.584 -12.000  66.791  1.00  0.00     0.121 A 
HETATM    5  N1  UNL     1      55.132 -10.946  66.100  1.00  0.00    -0.182 N 
ATOM      6  H1  UNL     1      55.795 -11.001  65.327  1.00  0.00     0.185 HD
HETATM    7  C4  UNL     1      54.614  -9.808  66.654  1.00  0.00     0.698 A 
HETATM    8  N4  UNL     1      53.771 -10.150  67.658  1.00  0.00    -0.089 N 
HETATM    9  C7  UNL     1      52.981  -9.486  68.552  1.00  0.00     0.362 A 
HETATM   10  O4  UNL     1      52.970  -8.250  68.506  1.00  0.00    -0.244 OA
HETATM   11  N5  UNL     1      52.256 -10.238  69.437  1.00  0.00    -0.246 N 
HETATM   12  C8  UNL     1      51.431  -9.482  70.369  1.00  0.00     0.183 C 
HETATM   13  N6  UNL     1      52.293 -11.567  69.456  1.00  0.00    -0.292 N 
ATOM     14  H6  UNL     1      51.732 -12.080  70.137  1.00  0.00     0.187 HD
HETATM   15  C9  UNL     1      53.090 -12.258  68.555  1.00  0.00     0.092 A 
HETATM   16  C10 UNL     1      53.767 -11.481  67.725  1.00  0.00     0.125 A 
ENDROOT
BRANCH   7  17
HETATM   17  N2  UNL     1      54.882  -8.613  66.288  1.00  0.00    -0.140 N 
HETATM   18  C5  UNL     1      54.664  -8.011  65.058  1.00  0.00     0.347 C 
HETATM   19  O1  UNL     1      55.577  -7.385  64.481  1.00  0.00    -0.245 OA
HETATM   20  N3  UNL     1      53.401  -8.086  64.421  1.00  0.00    -0.236 N 
ATOM     21  H3  UNL     1      52.643  -8.593  64.879  1.00  0.00     0.183 HD
ATOM     22  H2  UNL     1      55.315  -8.022  66.997  1.00  0.00     0.189 HD
BRANCH  20  23
HETATM   23  S2  UNL     1      53.106  -7.345  62.890  1.00  0.00     0.230 S 
HETATM   24  C6  UNL     1      53.761  -8.297  61.544  1.00  0.00     0.186 C 
HETATM   25  O2  UNL     1      51.613  -7.226  62.681  1.00  0.00    -0.206 OA
HETATM   26  O3  UNL     1      53.766  -5.996  62.833  1.00  0.00    -0.206 OA
ENDBRANCH  20  23
ENDBRANCH   7  17
TORSDOF 2
ENDMDL
