MODEL 1
REMARK VINA RESULT: -7.465766161      0.000      0.000
REMARK  4 active torsions:
REMARK  status: ('A' for Active; 'I' for Inactive)
REMARK    1  A    between atoms: O1_1  and  N1_3 
REMARK    2  A    between atoms: C5_9  and  C6_10 
REMARK    3  A    between atoms: C7_15  and  C8_16 
REMARK    4  A    between atoms: C8_16  and  C9_17 
ROOT
HETATM    1  C6  UNL     1      41.514  32.149  57.901  1.00  0.00     0.101 A 
HETATM    2  N2  UNL     1      40.822  33.124  57.315  1.00  0.00    -0.287 N 
ATOM      3  H2  UNL     1      39.819  33.277  57.416  1.00  0.00     0.188 HD
HETATM    4  N3  UNL     1      41.631  33.859  56.587  1.00  0.00    -0.287 N 
ATOM      5  H3  UNL     1      41.369  34.674  56.032  1.00  0.00     0.188 HD
HETATM    6  C7  UNL     1      42.856  33.351  56.706  1.00  0.00     0.103 A 
HETATM    7  N6  UNL     1      42.793  32.293  57.516  1.00  0.00    -0.333 N 
ATOM      8  H6  UNL     1      43.575  31.699  57.793  1.00  0.00     0.168 HD
ENDROOT
BRANCH   1   9
HETATM    9  C5  UNL     1      40.918  31.130  58.798  1.00  0.00     0.060 C 
HETATM   10  C4  UNL     1      42.005  30.480  59.641  1.00  0.00     0.013 C 
HETATM   11  C3  UNL     1      41.421  29.622  60.708  1.00  0.00     0.006 C 
HETATM   12  C2  UNL     1      40.096  29.024  60.391  1.00  0.00     0.054 C 
HETATM   13  C1  UNL     1      39.687  29.075  59.001  1.00  0.00     0.010 C 
HETATM   14  N1  UNL     1      38.747  28.318  58.569  1.00  0.00    -0.277 N 
HETATM   15  C11 UNL     1      40.311  29.990  57.983  1.00  0.00     0.067 C 
ATOM     16  H1  UNL     1      38.457  28.351  57.592  1.00  0.00     0.193 HD
BRANCH  14  17
HETATM   17  O1  UNL     1      38.142  27.464  59.451  1.00  0.00    -0.290 OA
ATOM     18  H1  UNL     1      37.300  27.093  59.215  1.00  0.00     0.244 HD
ENDBRANCH  14  17
ENDBRANCH   1   9
BRANCH   6  19
HETATM   19  C8  UNL     1      44.068  33.883  56.042  1.00  0.00     0.144 C 
BRANCH  19  20
HETATM   20  C9  UNL     1      44.869  34.559  57.128  1.00  0.00     0.076 A 
HETATM   21  N4  UNL     1      44.606  35.700  57.747  1.00  0.00    -0.296 N 
HETATM   22  N5  UNL     1      45.387  36.135  58.646  1.00  0.00    -0.284 N 
ATOM     23  H4  UNL     1      43.771  36.231  57.499  1.00  0.00     0.187 HD
HETATM   24  C10 UNL     1      46.475  35.421  58.953  1.00  0.00     0.159 A 
ATOM     25  H5  UNL     1      45.189  37.013  59.126  1.00  0.00     0.188 HD
HETATM   26  S1  UNL     1      47.634  35.775  60.078  1.00  0.00    -0.051 SA
HETATM   27  S2  UNL     1      46.325  34.089  57.886  1.00  0.00    -0.044 SA
ENDBRANCH  19  20
ENDBRANCH   6  19
TORSDOF 4
ENDMDL
MODEL 2
REMARK VINA RESULT: -7.243598286      1.088      1.362
REMARK  4 active torsions:
REMARK  status: ('A' for Active; 'I' for Inactive)
REMARK    1  A    between atoms: O1_1  and  N1_3 
REMARK    2  A    between atoms: C5_9  and  C6_10 
REMARK    3  A    between atoms: C7_15  and  C8_16 
REMARK    4  A    between atoms: C8_16  and  C9_17 
ROOT
HETATM    1  C6  UNL     1      42.184  31.826  58.192  1.00  0.00     0.101 A 
HETATM    2  N2  UNL     1      43.390  31.487  57.741  1.00  0.00    -0.287 N 
ATOM      3  H2  UNL     1      43.849  30.592  57.905  1.00  0.00     0.188 HD
HETATM    4  N3  UNL     1      43.896  32.485  57.052  1.00  0.00    -0.287 N 
ATOM      5  H3  UNL     1      44.807  32.497  56.593  1.00  0.00     0.188 HD
HETATM    6  C7  UNL     1      43.006  33.475  57.061  1.00  0.00     0.103 A 
HETATM    7  N6  UNL     1      41.944  33.077  57.764  1.00  0.00    -0.333 N 
ATOM      8  H6  UNL     1      41.102  33.624  57.944  1.00  0.00     0.168 HD
ENDROOT
BRANCH   1   9
HETATM    9  C5  UNL     1      41.322  30.938  59.009  1.00  0.00     0.060 C 
HETATM   10  C4  UNL     1      42.169  30.180  60.021  1.00  0.00     0.013 C 
HETATM   11  C3  UNL     1      41.316  29.457  61.004  1.00  0.00     0.006 C 
HETATM   12  C2  UNL     1      39.980  29.036  60.503  1.00  0.00     0.054 C 
HETATM   13  C1  UNL     1      39.792  29.084  59.066  1.00  0.00     0.010 C 
HETATM   14  N1  UNL     1      38.827  28.447  58.512  1.00  0.00    -0.277 N 
HETATM   15  C11 UNL     1      40.684  29.860  58.135  1.00  0.00     0.067 C 
ATOM     16  H1  UNL     1      38.692  28.479  57.502  1.00  0.00     0.193 HD
BRANCH  14  17
HETATM   17  O1  UNL     1      37.983  27.724  59.310  1.00  0.00    -0.290 OA
ATOM     18  H1  UNL     1      37.116  27.520  58.981  1.00  0.00     0.244 HD
ENDBRANCH  14  17
ENDBRANCH   1   9
BRANCH   6  19
HETATM   19  C8  UNL     1      43.185  34.787  56.398  1.00  0.00     0.144 C 
BRANCH  19  20
HETATM   20  C9  UNL     1      44.383  35.423  57.060  1.00  0.00     0.076 A 
HETATM   21  N4  UNL     1      44.534  35.751  58.334  1.00  0.00    -0.296 N 
HETATM   22  N5  UNL     1      45.614  36.283  58.734  1.00  0.00    -0.284 N 
ATOM     23  H4  UNL     1      43.778  35.575  58.996  1.00  0.00     0.187 HD
HETATM   24  C10 UNL     1      46.590  36.503  57.847  1.00  0.00     0.159 A 
ATOM     25  H5  UNL     1      45.735  36.537  59.714  1.00  0.00     0.188 HD
HETATM   26  S1  UNL     1      48.074  37.177  58.121  1.00  0.00    -0.051 SA
HETATM   27  S2  UNL     1      45.883  35.909  56.404  1.00  0.00    -0.044 SA
ENDBRANCH  19  20
ENDBRANCH   6  19
TORSDOF 4
ENDMDL
MODEL 3
REMARK VINA RESULT: -7.230965581      2.857      3.801
REMARK  4 active torsions:
REMARK  status: ('A' for Active; 'I' for Inactive)
REMARK    1  A    between atoms: O1_1  and  N1_3 
REMARK    2  A    between atoms: C5_9  and  C6_10 
REMARK    3  A    between atoms: C7_15  and  C8_16 
REMARK    4  A    between atoms: C8_16  and  C9_17 
ROOT
HETATM    1  C6  UNL     1      40.220  29.897  58.701  1.00  0.00     0.101 A 
HETATM    2  N2  UNL     1      39.860  30.102  57.435  1.00  0.00    -0.287 N 
ATOM      3  H2  UNL     1      39.228  29.508  56.900  1.00  0.00     0.188 HD
HETATM    4  N3  UNL     1      40.445  31.188  56.984  1.00  0.00    -0.287 N 
ATOM      5  H3  UNL     1      40.346  31.579  56.047  1.00  0.00     0.188 HD
HETATM    6  C7  UNL     1      41.189  31.685  57.969  1.00  0.00     0.103 A 
HETATM    7  N6  UNL     1      41.057  30.893  59.034  1.00  0.00    -0.333 N 
ATOM      8  H6  UNL     1      41.510  31.021  59.940  1.00  0.00     0.168 HD
ENDROOT
BRANCH   1   9
HETATM    9  C5  UNL     1      39.747  28.759  59.526  1.00  0.00     0.060 C 
HETATM   10  C4  UNL     1      38.240  28.604  59.382  1.00  0.00     0.013 C 
HETATM   11  C3  UNL     1      37.765  27.340  60.009  1.00  0.00     0.006 C 
HETATM   12  C2  UNL     1      38.582  26.849  61.152  1.00  0.00     0.054 C 
HETATM   13  C1  UNL     1      39.525  27.794  61.717  1.00  0.00     0.010 C 
HETATM   14  N1  UNL     1      40.027  27.599  62.880  1.00  0.00    -0.277 N 
HETATM   15  C11 UNL     1      39.978  29.043  61.009  1.00  0.00     0.067 C 
ATOM     16  H1  UNL     1      40.690  28.262  63.281  1.00  0.00     0.193 HD
BRANCH  14  17
HETATM   17  O1  UNL     1      39.651  26.479  63.571  1.00  0.00    -0.290 OA
ATOM     18  H1  UNL     1      39.008  26.572  64.264  1.00  0.00     0.244 HD
ENDBRANCH  14  17
ENDBRANCH   1   9
BRANCH   6  19
HETATM   19  C8  UNL     1      42.017  32.910  57.877  1.00  0.00     0.144 C 
BRANCH  19  20
HETATM   20  C9  UNL     1      43.191  32.548  57.000  1.00  0.00     0.076 A 
HETATM   21  N4  UNL     1      43.478  33.005  55.790  1.00  0.00    -0.296 N 
HETATM   22  N5  UNL     1      44.512  32.596  55.181  1.00  0.00    -0.284 N 
ATOM     23  H4  UNL     1      42.864  33.688  55.347  1.00  0.00     0.187 HD
HETATM   24  C10 UNL     1      45.301  31.700  55.783  1.00  0.00     0.159 A 
ATOM     25  H5  UNL     1      44.738  32.945  54.249  1.00  0.00     0.188 HD
HETATM   26  S1  UNL     1      46.692  31.022  55.199  1.00  0.00    -0.051 SA
HETATM   27  S2  UNL     1      44.486  31.470  57.272  1.00  0.00    -0.044 SA
ENDBRANCH  19  20
ENDBRANCH   6  19
TORSDOF 4
ENDMDL
MODEL 4
REMARK VINA RESULT: -7.223677679      4.683      7.817
REMARK  4 active torsions:
REMARK  status: ('A' for Active; 'I' for Inactive)
REMARK    1  A    between atoms: O1_1  and  N1_3 
REMARK    2  A    between atoms: C5_9  and  C6_10 
REMARK    3  A    between atoms: C7_15  and  C8_16 
REMARK    4  A    between atoms: C8_16  and  C9_17 
ROOT
HETATM    1  C6  UNL     1      41.550  30.899  57.543  1.00  0.00     0.101 A 
HETATM    2  N2  UNL     1      41.818  29.599  57.436  1.00  0.00    -0.287 N 
ATOM      3  H2  UNL     1      42.714  29.204  57.152  1.00  0.00     0.188 HD
HETATM    4  N3  UNL     1      40.750  28.903  57.752  1.00  0.00    -0.287 N 
ATOM      5  H3  UNL     1      40.674  27.886  57.758  1.00  0.00     0.188 HD
HETATM    6  C7  UNL     1      39.785  29.765  58.065  1.00  0.00     0.103 A 
HETATM    7  N6  UNL     1      40.270  31.001  57.938  1.00  0.00    -0.333 N 
ATOM      8  H6  UNL     1      39.761  31.869  58.109  1.00  0.00     0.168 HD
ENDROOT
BRANCH   1   9
HETATM    9  C5  UNL     1      42.529  31.976  57.261  1.00  0.00     0.060 C 
HETATM   10  C4  UNL     1      42.028  33.295  57.830  1.00  0.00     0.013 C 
HETATM   11  C3  UNL     1      43.082  34.345  57.769  1.00  0.00     0.006 C 
HETATM   12  C2  UNL     1      44.068  34.196  56.664  1.00  0.00     0.054 C 
HETATM   13  C1  UNL     1      43.712  33.264  55.612  1.00  0.00     0.010 C 
HETATM   14  N1  UNL     1      44.309  33.301  54.478  1.00  0.00    -0.277 N 
HETATM   15  C11 UNL     1      42.648  32.210  55.757  1.00  0.00     0.067 C 
ATOM     16  H1  UNL     1      44.062  32.648  53.735  1.00  0.00     0.193 HD
BRANCH  14  17
HETATM   17  O1  UNL     1      45.287  34.241  54.288  1.00  0.00    -0.290 OA
ATOM     18  H1  UNL     1      46.097  33.970  53.873  1.00  0.00     0.244 HD
ENDBRANCH  14  17
ENDBRANCH   1   9
BRANCH   6  19
HETATM   19  C8  UNL     1      38.412  29.394  58.480  1.00  0.00     0.144 C 
BRANCH  19  20
HETATM   20  C9  UNL     1      38.575  28.478  59.668  1.00  0.00     0.076 A 
HETATM   21  N4  UNL     1      38.045  27.279  59.854  1.00  0.00    -0.296 N 
HETATM   22  N5  UNL     1      38.282  26.632  60.918  1.00  0.00    -0.284 N 
ATOM     23  H4  UNL     1      37.443  26.874  59.137  1.00  0.00     0.187 HD
HETATM   24  C10 UNL     1      39.074  27.185  61.844  1.00  0.00     0.159 A 
ATOM     25  H5  UNL     1      37.876  25.708  61.066  1.00  0.00     0.188 HD
HETATM   26  S1  UNL     1      39.528  26.546  63.299  1.00  0.00    -0.051 SA
HETATM   27  S2  UNL     1      39.465  28.683  61.111  1.00  0.00    -0.044 SA
ENDBRANCH  19  20
ENDBRANCH   6  19
TORSDOF 4
ENDMDL
MODEL 5
REMARK VINA RESULT: -7.218790292      4.272      7.705
REMARK  4 active torsions:
REMARK  status: ('A' for Active; 'I' for Inactive)
REMARK    1  A    between atoms: O1_1  and  N1_3 
REMARK    2  A    between atoms: C5_9  and  C6_10 
REMARK    3  A    between atoms: C7_15  and  C8_16 
REMARK    4  A    between atoms: C8_16  and  C9_17 
ROOT
HETATM    1  C6  UNL     1      42.242  32.974  57.213  1.00  0.00     0.101 A 
HETATM    2  N2  UNL     1      40.927  32.986  57.421  1.00  0.00    -0.287 N 
ATOM      3  H2  UNL     1      40.350  33.824  57.493  1.00  0.00     0.188 HD
HETATM    4  N3  UNL     1      40.487  31.752  57.519  1.00  0.00    -0.287 N 
ATOM      5  H3  UNL     1      39.520  31.469  57.677  1.00  0.00     0.188 HD
HETATM    6  C7  UNL     1      41.531  30.939  57.373  1.00  0.00     0.103 A 
HETATM    7  N6  UNL     1      42.620  31.685  57.184  1.00  0.00    -0.333 N 
ATOM      8  H6  UNL     1      43.570  31.340  57.043  1.00  0.00     0.168 HD
ENDROOT
BRANCH   1   9
HETATM    9  C5  UNL     1      43.070  34.194  57.054  1.00  0.00     0.060 C 
HETATM   10  C4  UNL     1      43.698  34.218  55.668  1.00  0.00     0.013 C 
HETATM   11  C3  UNL     1      44.345  35.530  55.392  1.00  0.00     0.006 C 
HETATM   12  C2  UNL     1      44.855  36.254  56.588  1.00  0.00     0.054 C 
HETATM   13  C1  UNL     1      44.955  35.481  57.810  1.00  0.00     0.010 C 
HETATM   14  N1  UNL     1      45.673  35.895  58.788  1.00  0.00    -0.277 N 
HETATM   15  C11 UNL     1      44.249  34.170  58.026  1.00  0.00     0.067 C 
ATOM     16  H1  UNL     1      45.746  35.353  59.649  1.00  0.00     0.193 HD
BRANCH  14  17
HETATM   17  O1  UNL     1      46.339  37.083  58.648  1.00  0.00    -0.290 OA
ATOM     18  H1  UNL     1      46.818  37.421  59.395  1.00  0.00     0.244 HD
ENDBRANCH  14  17
ENDBRANCH   1   9
BRANCH   6  19
HETATM   19  C8  UNL     1      41.471  29.459  57.418  1.00  0.00     0.144 C 
BRANCH  19  20
HETATM   20  C9  UNL     1      40.380  29.121  58.404  1.00  0.00     0.076 A 
HETATM   21  N4  UNL     1      39.135  28.751  58.149  1.00  0.00    -0.296 N 
HETATM   22  N5  UNL     1      38.334  28.500  59.099  1.00  0.00    -0.284 N 
ATOM     23  H4  UNL     1      38.818  28.668  57.183  1.00  0.00     0.187 HD
HETATM   24  C10 UNL     1      38.773  28.616  60.358  1.00  0.00     0.159 A 
ATOM     25  H5  UNL     1      37.374  28.215  58.909  1.00  0.00     0.188 HD
HETATM   26  S1  UNL     1      37.929  28.347  61.753  1.00  0.00    -0.051 SA
HETATM   27  S2  UNL     1      40.397  29.105  60.111  1.00  0.00    -0.044 SA
ENDBRANCH  19  20
ENDBRANCH   6  19
TORSDOF 4
ENDMDL
