MODEL 1
REMARK VINA RESULT: -7.236239372      0.000      0.000
REMARK  7 active torsions:
REMARK  status: ('A' for Active; 'I' for Inactive)
REMARK    1  A    between atoms: C4_4  and  C5_5 
REMARK    2  A    between atoms: C6_6  and  C7_7 
REMARK    3  A    between atoms: C7_7  and  N1_8 
REMARK    4  A    between atoms: C9_12  and  N3_13 
REMARK    5  A    between atoms: N3_13  and  C10_15 
REMARK    6  A    between atoms: C10_15  and  C11_16 
REMARK    7  A    between atoms: C11_16  and  N4_17 
ROOT
HETATM    1  N1  UNL     1      16.168 -12.703  20.538  1.00  0.00    -0.343 N 
HETATM    2  C8  UNL     1      16.549 -11.394  20.548  1.00  0.00     0.184 A 
HETATM    3  N2  UNL     1      15.624 -10.420  20.490  1.00  0.00    -0.339 N 
ATOM      4  H2  UNL     1      15.933  -9.448  20.501  1.00  0.00     0.168 HD
HETATM    5  C9  UNL     1      14.306 -10.679  20.420  1.00  0.00     0.103 A 
HETATM    6  C14 UNL     1      13.928 -12.004  20.410  1.00  0.00     0.073 A 
HETATM    7  C15 UNL     1      14.869 -13.038  20.469  1.00  0.00     0.012 A 
HETATM    8  C16 UNL     1      14.434 -14.449  20.451  1.00  0.00     0.068 C 
ENDROOT
BRANCH   1   9
HETATM    9  C7  UNL     1      17.164 -13.753  20.605  1.00  0.00     0.157 C 
BRANCH   9  10
HETATM   10  C6  UNL     1      17.844 -13.780  21.924  1.00  0.00    -0.006 C 
HETATM   11  C5  UNL     1      19.132 -13.995  22.064  1.00  0.00     0.012 C 
BRANCH  11  12
HETATM   12  C4  UNL     1      19.738 -14.009  23.380  1.00  0.00    -0.001 A 
HETATM   13  C3  UNL     1      19.797 -12.964  24.302  1.00  0.00     0.038 A 
HETATM   14  C2  UNL     1      20.458 -13.369  25.440  1.00  0.00     0.007 A 
HETATM   15  C1  UNL     1      20.719 -12.526  26.650  1.00  0.00     0.068 C 
HETATM   16  N5  UNL     1      20.808 -14.651  25.233  1.00  0.00    -0.353 N 
HETATM   17  C17 UNL     1      20.391 -15.053  24.018  1.00  0.00     0.090 A 
ATOM     18  H5  UNL     1      21.314 -15.234  25.900  1.00  0.00     0.166 HD
HETATM   19 BR1  UNL     1      20.637 -16.793  23.237  1.00  0.00    -0.030 Br
ENDBRANCH  11  12
ENDBRANCH   9  10
ENDBRANCH   1   9
BRANCH   5  20
HETATM   20  N3  UNL     1      13.396  -9.773  20.363  1.00  0.00    -0.374 N 
ATOM     21  H3  UNL     1      13.440  -9.104  19.594  1.00  0.00     0.161 HD
BRANCH  20  22
HETATM   22  C10 UNL     1      12.323  -9.635  21.304  1.00  0.00     0.151 C 
BRANCH  22  23
HETATM   23  C11 UNL     1      12.886  -9.303  22.668  1.00  0.00     0.290 C 
BRANCH  23  24
HETATM   24  N4  UNL     1      11.759  -8.931  23.525  1.00  0.00     0.081 N 
HETATM   25  C12 UNL     1      11.346 -10.154  24.201  1.00  0.00     0.309 C 
HETATM   26  C13 UNL     1      12.156  -7.931  24.490  1.00  0.00     0.309 C 
ENDBRANCH  23  24
ENDBRANCH  22  23
ENDBRANCH  20  22
ENDBRANCH   5  20
TORSDOF 7
ENDMDL
MODEL 2
REMARK VINA RESULT: -7.230157369      1.245      1.284
REMARK  7 active torsions:
REMARK  status: ('A' for Active; 'I' for Inactive)
REMARK    1  A    between atoms: C4_4  and  C5_5 
REMARK    2  A    between atoms: C6_6  and  C7_7 
REMARK    3  A    between atoms: C7_7  and  N1_8 
REMARK    4  A    between atoms: C9_12  and  N3_13 
REMARK    5  A    between atoms: N3_13  and  C10_15 
REMARK    6  A    between atoms: C10_15  and  C11_16 
REMARK    7  A    between atoms: C11_16  and  N4_17 
ROOT
HETATM    1  N1  UNL     1      16.057 -12.466  20.220  1.00  0.00    -0.343 N 
HETATM    2  C8  UNL     1      16.348 -11.159  20.479  1.00  0.00     0.184 A 
HETATM    3  N2  UNL     1      15.366 -10.242  20.516  1.00  0.00    -0.339 N 
ATOM      4  H2  UNL     1      15.609  -9.271  20.713  1.00  0.00     0.168 HD
HETATM    5  C9  UNL     1      14.076 -10.556  20.302  1.00  0.00     0.103 A 
HETATM    6  C14 UNL     1      13.789 -11.878  20.040  1.00  0.00     0.073 A 
HETATM    7  C15 UNL     1      14.791 -12.854  19.996  1.00  0.00     0.012 A 
HETATM    8  C16 UNL     1      14.452 -14.262  19.708  1.00  0.00     0.068 C 
ENDROOT
BRANCH   1   9
HETATM    9  C7  UNL     1      17.114 -13.456  20.185  1.00  0.00     0.157 C 
BRANCH   9  10
HETATM   10  C6  UNL     1      18.090 -13.254  21.284  1.00  0.00    -0.006 C 
HETATM   11  C5  UNL     1      18.314 -14.148  22.219  1.00  0.00     0.012 C 
BRANCH  11  12
HETATM   12  C4  UNL     1      19.281 -13.892  23.268  1.00  0.00    -0.001 A 
HETATM   13  C3  UNL     1      20.579 -13.398  23.129  1.00  0.00     0.038 A 
HETATM   14  C2  UNL     1      21.183 -13.295  24.362  1.00  0.00     0.007 A 
HETATM   15  C1  UNL     1      22.575 -12.804  24.617  1.00  0.00     0.068 C 
HETATM   16  N5  UNL     1      20.277 -13.718  25.261  1.00  0.00    -0.353 N 
HETATM   17  C17 UNL     1      19.140 -14.078  24.635  1.00  0.00     0.090 A 
ATOM     18  H5  UNL     1      20.428 -13.759  26.268  1.00  0.00     0.166 HD
HETATM   19 BR1  UNL     1      17.539 -14.750  25.461  1.00  0.00    -0.030 Br
ENDBRANCH  11  12
ENDBRANCH   9  10
ENDBRANCH   1   9
BRANCH   5  20
HETATM   20  N3  UNL     1      13.114  -9.704  20.330  1.00  0.00    -0.374 N 
ATOM     21  H3  UNL     1      13.048  -9.038  19.560  1.00  0.00     0.161 HD
BRANCH  20  22
HETATM   22  C10 UNL     1      12.126  -9.624  21.364  1.00  0.00     0.151 C 
BRANCH  22  23
HETATM   23  C11 UNL     1      12.783  -9.204  22.660  1.00  0.00     0.290 C 
BRANCH  23  24
HETATM   24  N4  UNL     1      11.714  -8.841  23.593  1.00  0.00     0.081 N 
HETATM   25  C12 UNL     1      11.369 -10.065  24.304  1.00  0.00     0.309 C 
HETATM   26  C13 UNL     1      12.163  -7.828  24.521  1.00  0.00     0.309 C 
ENDBRANCH  23  24
ENDBRANCH  22  23
ENDBRANCH  20  22
ENDBRANCH   5  20
TORSDOF 7
ENDMDL
MODEL 3
REMARK VINA RESULT: -7.179310837      2.169      3.171
REMARK  7 active torsions:
REMARK  status: ('A' for Active; 'I' for Inactive)
REMARK    1  A    between atoms: C4_4  and  C5_5 
REMARK    2  A    between atoms: C6_6  and  C7_7 
REMARK    3  A    between atoms: C7_7  and  N1_8 
REMARK    4  A    between atoms: C9_12  and  N3_13 
REMARK    5  A    between atoms: N3_13  and  C10_15 
REMARK    6  A    between atoms: C10_15  and  C11_16 
REMARK    7  A    between atoms: C11_16  and  N4_17 
ROOT
HETATM    1  N1  UNL     1      18.443 -13.553  21.392  1.00  0.00    -0.343 N 
HETATM    2  C8  UNL     1      17.257 -13.782  22.026  1.00  0.00     0.184 A 
HETATM    3  N2  UNL     1      16.261 -12.884  21.939  1.00  0.00    -0.339 N 
ATOM      4  H2  UNL     1      15.383 -13.077  22.421  1.00  0.00     0.168 HD
HETATM    5  C9  UNL     1      16.377 -11.740  21.242  1.00  0.00     0.103 A 
HETATM    6  C14 UNL     1      17.577 -11.515  20.604  1.00  0.00     0.073 A 
HETATM    7  C15 UNL     1      18.632 -12.433  20.677  1.00  0.00     0.012 A 
HETATM    8  C16 UNL     1      19.909 -12.162  19.986  1.00  0.00     0.068 C 
ENDROOT
BRANCH   1   9
HETATM    9  C7  UNL     1      19.516 -14.522  21.482  1.00  0.00     0.157 C 
BRANCH   9  10
HETATM   10  C6  UNL     1      19.918 -14.765  22.890  1.00  0.00    -0.006 C 
HETATM   11  C5  UNL     1      21.164 -14.714  23.301  1.00  0.00     0.012 C 
BRANCH  11  12
HETATM   12  C4  UNL     1      21.494 -14.960  24.689  1.00  0.00    -0.001 A 
HETATM   13  C3  UNL     1      21.935 -16.154  25.262  1.00  0.00     0.038 A 
HETATM   14  C2  UNL     1      22.142 -15.987  26.612  1.00  0.00     0.007 A 
HETATM   15  C1  UNL     1      22.616 -17.043  27.564  1.00  0.00     0.068 C 
HETATM   16  N5  UNL     1      21.836 -14.706  26.883  1.00  0.00    -0.353 N 
HETATM   17  C17 UNL     1      21.448 -14.077  25.757  1.00  0.00     0.090 A 
ATOM     18  H5  UNL     1      21.890 -14.274  27.805  1.00  0.00     0.166 HD
HETATM   19 BR1  UNL     1      20.907 -12.239  25.599  1.00  0.00    -0.030 Br
ENDBRANCH  11  12
ENDBRANCH   9  10
ENDBRANCH   1   9
BRANCH   5  20
HETATM   20  N3  UNL     1      15.444 -10.861  21.138  1.00  0.00    -0.374 N 
ATOM     21  H3  UNL     1      15.708  -9.923  20.837  1.00  0.00     0.161 HD
BRANCH  20  22
HETATM   22  C10 UNL     1      14.060 -11.105  21.416  1.00  0.00     0.151 C 
BRANCH  22  23
HETATM   23  C11 UNL     1      13.394  -9.815  21.838  1.00  0.00     0.290 C 
BRANCH  23  24
HETATM   24  N4  UNL     1      12.023 -10.142  22.237  1.00  0.00     0.081 N 
HETATM   25  C12 UNL     1      11.917 -11.593  22.157  1.00  0.00     0.309 C 
HETATM   26  C13 UNL     1      11.758  -9.691  23.584  1.00  0.00     0.309 C 
ENDBRANCH  23  24
ENDBRANCH  22  23
ENDBRANCH  20  22
ENDBRANCH   5  20
TORSDOF 7
ENDMDL
MODEL 4
REMARK VINA RESULT: -7.164894608      1.967      2.481
REMARK  7 active torsions:
REMARK  status: ('A' for Active; 'I' for Inactive)
REMARK    1  A    between atoms: C4_4  and  C5_5 
REMARK    2  A    between atoms: C6_6  and  C7_7 
REMARK    3  A    between atoms: C7_7  and  N1_8 
REMARK    4  A    between atoms: C9_12  and  N3_13 
REMARK    5  A    between atoms: N3_13  and  C10_15 
REMARK    6  A    between atoms: C10_15  and  C11_16 
REMARK    7  A    between atoms: C11_16  and  N4_17 
ROOT
HETATM    1  N1  UNL     1      14.721 -13.416  20.276  1.00  0.00    -0.343 N 
HETATM    2  C8  UNL     1      14.090 -13.164  21.457  1.00  0.00     0.184 A 
HETATM    3  N2  UNL     1      13.375 -12.036  21.615  1.00  0.00    -0.339 N 
ATOM      4  H2  UNL     1      12.911 -11.870  22.508  1.00  0.00     0.168 HD
HETATM    5  C9  UNL     1      13.248 -11.119  20.640  1.00  0.00     0.103 A 
HETATM    6  C14 UNL     1      13.889 -11.380  19.447  1.00  0.00     0.073 A 
HETATM    7  C15 UNL     1      14.640 -12.546  19.256  1.00  0.00     0.012 A 
HETATM    8  C16 UNL     1      15.319 -12.796  17.969  1.00  0.00     0.068 C 
ENDROOT
BRANCH   1   9
HETATM    9  C7  UNL     1      15.488 -14.633  20.104  1.00  0.00     0.157 C 
BRANCH   9  10
HETATM   10  C6  UNL     1      16.764 -14.587  20.861  1.00  0.00    -0.006 C 
HETATM   11  C5  UNL     1      17.543 -13.530  20.892  1.00  0.00     0.012 C 
BRANCH  11  12
HETATM   12  C4  UNL     1      18.777 -13.545  21.650  1.00  0.00    -0.001 A 
HETATM   13  C3  UNL     1      19.026 -14.192  22.862  1.00  0.00     0.038 A 
HETATM   14  C2  UNL     1      20.323 -13.968  23.264  1.00  0.00     0.007 A 
HETATM   15  C1  UNL     1      20.957 -14.499  24.513  1.00  0.00     0.068 C 
HETATM   16  N5  UNL     1      20.881 -13.192  22.317  1.00  0.00    -0.353 N 
HETATM   17  C17 UNL     1      19.982 -12.928  21.350  1.00  0.00     0.090 A 
ATOM     18  H5  UNL     1      21.843 -12.854  22.331  1.00  0.00     0.166 HD
HETATM   19 BR1  UNL     1      20.273 -11.866  19.773  1.00  0.00    -0.030 Br
ENDBRANCH  11  12
ENDBRANCH   9  10
ENDBRANCH   1   9
BRANCH   5  20
HETATM   20  N3  UNL     1      12.573 -10.032  20.757  1.00  0.00    -0.374 N 
ATOM     21  H3  UNL     1      12.525  -9.414  19.946  1.00  0.00     0.161 HD
BRANCH  20  22
HETATM   22  C10 UNL     1      11.881  -9.625  21.944  1.00  0.00     0.151 C 
BRANCH  22  23
HETATM   23  C11 UNL     1      12.800  -8.782  22.800  1.00  0.00     0.290 C 
BRANCH  23  24
HETATM   24  N4  UNL     1      12.335  -8.900  24.184  1.00  0.00     0.081 N 
HETATM   25  C12 UNL     1      11.861  -7.575  24.563  1.00  0.00     0.309 C 
HETATM   26  C13 UNL     1      11.265  -9.866  24.287  1.00  0.00     0.309 C 
ENDBRANCH  23  24
ENDBRANCH  22  23
ENDBRANCH  20  22
ENDBRANCH   5  20
TORSDOF 7
ENDMDL
MODEL 5
REMARK VINA RESULT: -7.151291793      2.172      3.129
REMARK  7 active torsions:
REMARK  status: ('A' for Active; 'I' for Inactive)
REMARK    1  A    between atoms: C4_4  and  C5_5 
REMARK    2  A    between atoms: C6_6  and  C7_7 
REMARK    3  A    between atoms: C7_7  and  N1_8 
REMARK    4  A    between atoms: C9_12  and  N3_13 
REMARK    5  A    between atoms: N3_13  and  C10_15 
REMARK    6  A    between atoms: C10_15  and  C11_16 
REMARK    7  A    between atoms: C11_16  and  N4_17 
ROOT
HETATM    1  N1  UNL     1      18.212 -12.972  21.612  1.00  0.00    -0.343 N 
HETATM    2  C8  UNL     1      17.539 -13.492  22.678  1.00  0.00     0.184 A 
HETATM    3  N2  UNL     1      16.198 -13.418  22.732  1.00  0.00    -0.339 N 
ATOM      4  H2  UNL     1      15.717 -13.816  23.539  1.00  0.00     0.168 HD
HETATM    5  C9  UNL     1      15.466 -12.841  21.763  1.00  0.00     0.103 A 
HETATM    6  C14 UNL     1      16.153 -12.318  20.688  1.00  0.00     0.073 A 
HETATM    7  C15 UNL     1      17.548 -12.380  20.606  1.00  0.00     0.012 A 
HETATM    8  C16 UNL     1      18.256 -11.806  19.444  1.00  0.00     0.068 C 
ENDROOT
BRANCH   1   9
HETATM    9  C7  UNL     1      19.657 -13.054  21.551  1.00  0.00     0.157 C 
BRANCH   9  10
HETATM   10  C6  UNL     1      20.205 -13.885  22.652  1.00  0.00    -0.006 C 
HETATM   11  C5  UNL     1      21.178 -13.485  23.438  1.00  0.00     0.012 C 
BRANCH  11  12
HETATM   12  C4  UNL     1      21.671 -14.342  24.497  1.00  0.00    -0.001 A 
HETATM   13  C3  UNL     1      22.350 -15.554  24.367  1.00  0.00     0.038 A 
HETATM   14  C2  UNL     1      22.652 -16.068  25.608  1.00  0.00     0.007 A 
HETATM   15  C1  UNL     1      23.376 -17.352  25.873  1.00  0.00     0.068 C 
HETATM   16  N5  UNL     1      22.168 -15.189  26.505  1.00  0.00    -0.353 N 
HETATM   17  C17 UNL     1      21.581 -14.157  25.869  1.00  0.00     0.090 A 
ATOM     18  H5  UNL     1      22.236 -15.290  27.517  1.00  0.00     0.166 HD
HETATM   19 BR1  UNL     1      20.736 -12.636  26.687  1.00  0.00    -0.030 Br
ENDBRANCH  11  12
ENDBRANCH   9  10
ENDBRANCH   1   9
BRANCH   5  20
HETATM   20  N3  UNL     1      14.184 -12.755  21.783  1.00  0.00    -0.374 N 
ATOM     21  H3  UNL     1      13.654 -13.605  21.976  1.00  0.00     0.161 HD
BRANCH  20  22
HETATM   22  C10 UNL     1      13.445 -11.549  21.554  1.00  0.00     0.151 C 
BRANCH  22  23
HETATM   23  C11 UNL     1      12.077 -11.666  22.187  1.00  0.00     0.290 C 
BRANCH  23  24
HETATM   24  N4  UNL     1      11.668 -10.320  22.593  1.00  0.00     0.081 N 
HETATM   25  C12 UNL     1      11.183 -10.442  23.962  1.00  0.00     0.309 C 
HETATM   26  C13 UNL     1      12.783  -9.403  22.534  1.00  0.00     0.309 C 
ENDBRANCH  23  24
ENDBRANCH  22  23
ENDBRANCH  20  22
ENDBRANCH   5  20
TORSDOF 7
ENDMDL
