MODEL 1
REMARK VINA RESULT: -7.815725495      0.000      0.000
REMARK  10 active torsions:
REMARK  status: ('A' for Active; 'I' for Inactive)
REMARK    1  A    between atoms: C4_4  and  C5_5 
REMARK    2  A    between atoms: C5_5  and  C7_7 
REMARK    3  A    between atoms: C7_7  and  C8_9 
REMARK    4  A    between atoms: C9_10  and  C10_11 
REMARK    5  A    between atoms: C11_12  and  C12_13 
REMARK    6  A    between atoms: C14_15  and  C15_16 
REMARK    7  A    between atoms: C15_16  and  O2_17 
REMARK    8  A    between atoms: C15_16  and  O3_19 
REMARK    9  A    between atoms: C16_21  and  N1_22 
REMARK   10  A    between atoms: C21_33  and  O4_34 
ROOT
HETATM    1  C8  UNL     1      53.981   8.188  50.912  1.00  0.00     0.057 A 
HETATM    2  C9  UNL     1      55.331   7.867  51.222  1.00  0.00     0.011 A 
HETATM    3  C16 UNL     1      56.184   8.874  51.675  1.00  0.00     0.086 A 
HETATM    4  C17 UNL     1      55.719  10.192  51.833  1.00  0.00     0.074 A 
HETATM    5  N3  UNL     1      56.344  11.332  52.248  1.00  0.00    -0.363 N 
ATOM      6  H3  UNL     1      57.320  11.405  52.537  1.00  0.00     0.165 HD
HETATM    7  C18 UNL     1      55.458  12.341  52.214  1.00  0.00     0.089 A 
HETATM    8  C19 UNL     1      54.244  11.832  51.766  1.00  0.00     0.034 A 
HETATM    9  C20 UNL     1      54.427  10.461  51.528  1.00  0.00     0.028 A 
HETATM   10  C21 UNL     1      53.556   9.489  51.070  1.00  0.00     0.093 A 
ENDROOT
BRANCH   2  11
HETATM   11  C10 UNL     1      55.778   6.542  50.928  1.00  0.00     0.015 C 
HETATM   12  C11 UNL     1      55.886   5.360  51.289  1.00  0.00     0.007 C 
BRANCH  12  13
HETATM   13  C12 UNL     1      55.588   4.473  52.341  1.00  0.00    -0.061 C 
HETATM   14  C13 UNL     1      54.299   3.881  52.744  1.00  0.00     0.048 C 
HETATM   15  C14 UNL     1      56.660   3.992  53.052  1.00  0.00     0.039 C 
BRANCH  15  16
HETATM   16  C15 UNL     1      56.497   3.061  54.177  1.00  0.00     0.278 C 
BRANCH  16  17
HETATM   17  O2  UNL     1      57.498   3.308  55.109  1.00  0.00    -0.368 OA
ATOM     18  H2  UNL     1      57.397   2.700  55.832  1.00  0.00     0.213 HD
ENDBRANCH  16  17
BRANCH  16  19
HETATM   19  O3  UNL     1      56.649   1.739  53.695  1.00  0.00    -0.368 OA
ATOM     20  H3  UNL     1      57.440   1.368  54.067  1.00  0.00     0.213 HD
ENDBRANCH  16  19
ENDBRANCH  15  16
ENDBRANCH  12  13
ENDBRANCH   2  11
BRANCH   1  21
HETATM   21  C7  UNL     1      53.064   7.162  50.523  1.00  0.00     0.170 C 
HETATM   22  O1  UNL     1      52.452   6.452  51.357  1.00  0.00    -0.291 OA
BRANCH  21  23
HETATM   23  C5  UNL     1      52.681   6.784  49.118  1.00  0.00     0.079 C 
HETATM   24  C6  UNL     1      51.173   6.995  49.081  1.00  0.00     0.022 C 
BRANCH  23  25
HETATM   25  C4  UNL     1      52.951   5.334  48.953  1.00  0.00    -0.013 C 
HETATM   26  C2  UNL     1      53.748   4.597  48.288  1.00  0.00    -0.091 C 
HETATM   27  C1  UNL     1      54.821   4.900  47.323  1.00  0.00     0.042 C 
HETATM   28  C3  UNL     1      53.578   3.083  48.537  1.00  0.00     0.042 C 
ENDBRANCH  23  25
ENDBRANCH  21  23
ENDBRANCH   1  21
BRANCH   3  29
HETATM   29  N1  UNL     1      57.522   8.698  51.915  1.00  0.00    -0.304 N 
HETATM   30  N2  UNL     1      58.168   8.328  52.876  1.00  0.00    -0.345 N 
ATOM     31  H22 UNL     1      57.567   8.105  53.669  1.00  0.00     0.176 HD
ATOM     32  H21 UNL     1      59.164   8.197  53.054  1.00  0.00     0.176 HD
ATOM     33  H1  UNL     1      58.104   8.927  51.109  1.00  0.00     0.186 HD
ENDBRANCH   3  29
BRANCH  10  34
HETATM   34  O4  UNL     1      52.287   9.855  50.761  1.00  0.00    -0.359 OA
ATOM     35  H4  UNL     1      51.881  10.610  51.170  1.00  0.00     0.217 HD
ENDBRANCH  10  34
TORSDOF 10
ENDMDL
MODEL 2
REMARK VINA RESULT: -7.812917011      3.497      7.590
REMARK  10 active torsions:
REMARK  status: ('A' for Active; 'I' for Inactive)
REMARK    1  A    between atoms: C4_4  and  C5_5 
REMARK    2  A    between atoms: C5_5  and  C7_7 
REMARK    3  A    between atoms: C7_7  and  C8_9 
REMARK    4  A    between atoms: C9_10  and  C10_11 
REMARK    5  A    between atoms: C11_12  and  C12_13 
REMARK    6  A    between atoms: C14_15  and  C15_16 
REMARK    7  A    between atoms: C15_16  and  O2_17 
REMARK    8  A    between atoms: C15_16  and  O3_19 
REMARK    9  A    between atoms: C16_21  and  N1_22 
REMARK   10  A    between atoms: C21_33  and  O4_34 
ROOT
HETATM    1  C8  UNL     1      56.228   9.107  52.399  1.00  0.00     0.057 A 
HETATM    2  C9  UNL     1      54.874   9.061  51.965  1.00  0.00     0.011 A 
HETATM    3  C16 UNL     1      54.255   7.823  51.794  1.00  0.00     0.086 A 
HETATM    4  C17 UNL     1      54.953   6.630  52.052  1.00  0.00     0.074 A 
HETATM    5  N3  UNL     1      54.578   5.320  51.958  1.00  0.00    -0.363 N 
ATOM      6  H3  UNL     1      53.659   4.982  51.670  1.00  0.00     0.165 HD
HETATM    7  C18 UNL     1      55.622   4.551  52.309  1.00  0.00     0.089 A 
HETATM    8  C19 UNL     1      56.684   5.390  52.632  1.00  0.00     0.034 A 
HETATM    9  C20 UNL     1      56.240   6.711  52.464  1.00  0.00     0.028 A 
HETATM   10  C21 UNL     1      56.887   7.921  52.637  1.00  0.00     0.093 A 
ENDROOT
BRANCH   2  11
HETATM   11  C10 UNL     1      54.256  10.298  51.604  1.00  0.00     0.015 C 
HETATM   12  C11 UNL     1      53.409  11.169  51.857  1.00  0.00     0.007 C 
BRANCH  12  13
HETATM   13  C12 UNL     1      52.413  11.534  52.781  1.00  0.00    -0.061 C 
HETATM   14  C13 UNL     1      50.944  11.514  52.647  1.00  0.00     0.048 C 
HETATM   15  C14 UNL     1      52.845  11.866  54.041  1.00  0.00     0.039 C 
BRANCH  15  16
HETATM   16  C15 UNL     1      51.916  12.267  55.106  1.00  0.00     0.278 C 
BRANCH  16  17
HETATM   17  O2  UNL     1      52.307  13.507  55.597  1.00  0.00    -0.368 OA
ATOM     18  H2  UNL     1      52.080  13.556  56.518  1.00  0.00     0.213 HD
ENDBRANCH  16  17
BRANCH  16  19
HETATM   19  O3  UNL     1      51.997  11.322  56.157  1.00  0.00    -0.368 OA
ATOM     20  H3  UNL     1      51.264  10.722  56.084  1.00  0.00     0.213 HD
ENDBRANCH  16  19
ENDBRANCH  15  16
ENDBRANCH  12  13
ENDBRANCH   2  11
BRANCH   1  21
HETATM   21  C7  UNL     1      56.862  10.361  52.660  1.00  0.00     0.170 C 
HETATM   22  O1  UNL     1      57.163  10.737  53.818  1.00  0.00    -0.291 OA
BRANCH  21  23
HETATM   23  C5  UNL     1      57.273  11.391  51.642  1.00  0.00     0.079 C 
HETATM   24  C6  UNL     1      58.696  10.996  51.276  1.00  0.00     0.022 C 
BRANCH  23  25
HETATM   25  C4  UNL     1      57.318  12.706  52.327  1.00  0.00    -0.013 C 
HETATM   26  C2  UNL     1      56.593  13.751  52.404  1.00  0.00    -0.091 C 
HETATM   27  C1  UNL     1      55.303  14.120  51.794  1.00  0.00     0.042 C 
HETATM   28  C3  UNL     1      57.158  14.854  53.323  1.00  0.00     0.042 C 
ENDBRANCH  23  25
ENDBRANCH  21  23
ENDBRANCH   1  21
BRANCH   3  29
HETATM   29  N1  UNL     1      52.989   7.659  51.294  1.00  0.00    -0.304 N 
HETATM   30  N2  UNL     1      52.514   7.660  50.175  1.00  0.00    -0.345 N 
ATOM     31  H22 UNL     1      53.228   7.818  49.464  1.00  0.00     0.176 HD
ATOM     32  H21 UNL     1      51.571   7.538  49.804  1.00  0.00     0.176 HD
ATOM     33  H1  UNL     1      52.291   7.503  52.022  1.00  0.00     0.186 HD
ENDBRANCH   3  29
BRANCH  10  34
HETATM   34  O4  UNL     1      58.187   7.907  53.023  1.00  0.00    -0.359 OA
ATOM     35  H4  UNL     1      58.508   8.504  53.689  1.00  0.00     0.217 HD
ENDBRANCH  10  34
TORSDOF 10
ENDMDL
MODEL 3
REMARK VINA RESULT: -7.804406120      1.531      1.780
REMARK  10 active torsions:
REMARK  status: ('A' for Active; 'I' for Inactive)
REMARK    1  A    between atoms: C4_4  and  C5_5 
REMARK    2  A    between atoms: C5_5  and  C7_7 
REMARK    3  A    between atoms: C7_7  and  C8_9 
REMARK    4  A    between atoms: C9_10  and  C10_11 
REMARK    5  A    between atoms: C11_12  and  C12_13 
REMARK    6  A    between atoms: C14_15  and  C15_16 
REMARK    7  A    between atoms: C15_16  and  O2_17 
REMARK    8  A    between atoms: C15_16  and  O3_19 
REMARK    9  A    between atoms: C16_21  and  N1_22 
REMARK   10  A    between atoms: C21_33  and  O4_34 
ROOT
HETATM    1  C8  UNL     1      54.107   8.472  51.186  1.00  0.00     0.057 A 
HETATM    2  C9  UNL     1      55.431   8.284  51.672  1.00  0.00     0.011 A 
HETATM    3  C16 UNL     1      56.128   9.376  52.190  1.00  0.00     0.086 A 
HETATM    4  C17 UNL     1      55.533  10.649  52.241  1.00  0.00     0.074 A 
HETATM    5  N3  UNL     1      55.998  11.851  52.690  1.00  0.00    -0.363 N 
ATOM      6  H3  UNL     1      56.920  12.021  53.094  1.00  0.00     0.165 HD
HETATM    7  C18 UNL     1      55.039  12.774  52.509  1.00  0.00     0.089 A 
HETATM    8  C19 UNL     1      53.940  12.145  51.934  1.00  0.00     0.034 A 
HETATM    9  C20 UNL     1      54.271  10.791  51.770  1.00  0.00     0.028 A 
HETATM   10  C21 UNL     1      53.554   9.732  51.243  1.00  0.00     0.093 A 
ENDROOT
BRANCH   2  11
HETATM   11  C10 UNL     1      56.025   6.999  51.483  1.00  0.00     0.015 C 
HETATM   12  C11 UNL     1      56.619   6.027  51.977  1.00  0.00     0.007 C 
BRANCH  12  13
HETATM   13  C12 UNL     1      57.131   5.517  53.184  1.00  0.00    -0.061 C 
HETATM   14  C13 UNL     1      57.015   4.167  53.768  1.00  0.00     0.048 C 
HETATM   15  C14 UNL     1      57.954   6.354  53.897  1.00  0.00     0.039 C 
BRANCH  15  16
HETATM   16  C15 UNL     1      58.558   5.954  55.175  1.00  0.00     0.278 C 
BRANCH  16  17
HETATM   17  O2  UNL     1      58.340   6.962  56.107  1.00  0.00    -0.368 OA
ATOM     18  H2  UNL     1      58.306   7.795  55.652  1.00  0.00     0.213 HD
ENDBRANCH  16  17
BRANCH  16  19
HETATM   19  O3  UNL     1      59.954   5.808  54.990  1.00  0.00    -0.368 OA
ATOM     20  H3  UNL     1      60.362   6.662  55.068  1.00  0.00     0.213 HD
ENDBRANCH  16  19
ENDBRANCH  15  16
ENDBRANCH  12  13
ENDBRANCH   2  11
BRANCH   1  21
HETATM   21  C7  UNL     1      53.341   7.358  50.723  1.00  0.00     0.170 C 
HETATM   22  O1  UNL     1      52.720   6.595  51.503  1.00  0.00    -0.291 OA
BRANCH  21  23
HETATM   23  C5  UNL     1      53.142   6.934  49.293  1.00  0.00     0.079 C 
HETATM   24  C6  UNL     1      51.635   7.019  49.092  1.00  0.00     0.022 C 
BRANCH  23  25
HETATM   25  C4  UNL     1      53.544   5.509  49.187  1.00  0.00    -0.013 C 
HETATM   26  C2  UNL     1      54.168   4.768  48.359  1.00  0.00    -0.091 C 
HETATM   27  C1  UNL     1      54.799   5.038  47.055  1.00  0.00     0.042 C 
HETATM   28  C3  UNL     1      54.308   3.296  48.800  1.00  0.00     0.042 C 
ENDBRANCH  23  25
ENDBRANCH  21  23
ENDBRANCH   1  21
BRANCH   3  29
HETATM   29  N1  UNL     1      57.435   9.329  52.600  1.00  0.00    -0.304 N 
HETATM   30  N2  UNL     1      58.503   9.487  52.042  1.00  0.00    -0.345 N 
ATOM     31  H22 UNL     1      58.382   9.700  51.051  1.00  0.00     0.176 HD
ATOM     32  H21 UNL     1      59.476   9.451  52.347  1.00  0.00     0.176 HD
ATOM     33  H1  UNL     1      57.533   9.113  53.592  1.00  0.00     0.186 HD
ENDBRANCH   3  29
BRANCH  10  34
HETATM   34  O4  UNL     1      52.307   9.973  50.766  1.00  0.00    -0.359 OA
ATOM     35  H4  UNL     1      51.892  10.820  50.882  1.00  0.00     0.217 HD
ENDBRANCH  10  34
TORSDOF 10
ENDMDL
MODEL 4
REMARK VINA RESULT: -7.804021860      1.066      1.453
REMARK  10 active torsions:
REMARK  status: ('A' for Active; 'I' for Inactive)
REMARK    1  A    between atoms: C4_4  and  C5_5 
REMARK    2  A    between atoms: C5_5  and  C7_7 
REMARK    3  A    between atoms: C7_7  and  C8_9 
REMARK    4  A    between atoms: C9_10  and  C10_11 
REMARK    5  A    between atoms: C11_12  and  C12_13 
REMARK    6  A    between atoms: C14_15  and  C15_16 
REMARK    7  A    between atoms: C15_16  and  O2_17 
REMARK    8  A    between atoms: C15_16  and  O3_19 
REMARK    9  A    between atoms: C16_21  and  N1_22 
REMARK   10  A    between atoms: C21_33  and  O4_34 
ROOT
HETATM    1  C8  UNL     1      53.963   8.066  50.889  1.00  0.00     0.057 A 
HETATM    2  C9  UNL     1      55.301   7.719  51.225  1.00  0.00     0.011 A 
HETATM    3  C16 UNL     1      56.160   8.705  51.710  1.00  0.00     0.086 A 
HETATM    4  C17 UNL     1      55.714  10.028  51.875  1.00  0.00     0.074 A 
HETATM    5  N3  UNL     1      56.350  11.151  52.319  1.00  0.00    -0.363 N 
ATOM      6  H3  UNL     1      57.320  11.204  52.630  1.00  0.00     0.165 HD
HETATM    7  C18 UNL     1      55.482  12.177  52.279  1.00  0.00     0.089 A 
HETATM    8  C19 UNL     1      54.269  11.695  51.797  1.00  0.00     0.034 A 
HETATM    9  C20 UNL     1      54.434  10.323  51.546  1.00  0.00     0.028 A 
HETATM   10  C21 UNL     1      53.558   9.373  51.055  1.00  0.00     0.093 A 
ENDROOT
BRANCH   2  11
HETATM   11  C10 UNL     1      55.731   6.390  50.923  1.00  0.00     0.015 C 
HETATM   12  C11 UNL     1      55.851   5.210  51.289  1.00  0.00     0.007 C 
BRANCH  12  13
HETATM   13  C12 UNL     1      55.594   4.333  52.359  1.00  0.00    -0.061 C 
HETATM   14  C13 UNL     1      56.496   3.839  53.417  1.00  0.00     0.048 C 
HETATM   15  C14 UNL     1      54.287   3.942  52.524  1.00  0.00     0.039 C 
BRANCH  15  16
HETATM   16  C15 UNL     1      53.875   3.029  53.599  1.00  0.00     0.278 C 
BRANCH  16  17
HETATM   17  O2  UNL     1      53.715   1.756  53.065  1.00  0.00    -0.368 OA
ATOM     18  H2  UNL     1      52.787   1.583  52.961  1.00  0.00     0.213 HD
ENDBRANCH  16  17
BRANCH  16  19
HETATM   19  O3  UNL     1      52.627   3.463  54.107  1.00  0.00    -0.368 OA
ATOM     20  H3  UNL     1      52.282   2.789  54.681  1.00  0.00     0.213 HD
ENDBRANCH  16  19
ENDBRANCH  15  16
ENDBRANCH  12  13
ENDBRANCH   2  11
BRANCH   1  21
HETATM   21  C7  UNL     1      53.038   7.062  50.466  1.00  0.00     0.170 C 
HETATM   22  O1  UNL     1      52.388   6.360  51.276  1.00  0.00    -0.291 OA
BRANCH  21  23
HETATM   23  C5  UNL     1      52.690   6.700  49.048  1.00  0.00     0.079 C 
HETATM   24  C6  UNL     1      51.183   6.909  48.977  1.00  0.00     0.022 C 
BRANCH  23  25
HETATM   25  C4  UNL     1      52.966   5.253  48.873  1.00  0.00    -0.013 C 
HETATM   26  C2  UNL     1      53.805   4.525  48.249  1.00  0.00    -0.091 C 
HETATM   27  C1  UNL     1      54.943   4.843  47.367  1.00  0.00     0.042 C 
HETATM   28  C3  UNL     1      53.613   3.008  48.455  1.00  0.00     0.042 C 
ENDBRANCH  23  25
ENDBRANCH  21  23
ENDBRANCH   1  21
BRANCH   3  29
HETATM   29  N1  UNL     1      57.489   8.502  51.977  1.00  0.00    -0.304 N 
HETATM   30  N2  UNL     1      58.110   8.145  52.959  1.00  0.00    -0.345 N 
ATOM     31  H22 UNL     1      57.491   7.961  53.749  1.00  0.00     0.176 HD
ATOM     32  H21 UNL     1      59.100   7.994  53.158  1.00  0.00     0.176 HD
ATOM     33  H1  UNL     1      58.090   8.693  51.175  1.00  0.00     0.186 HD
ENDBRANCH   3  29
BRANCH  10  34
HETATM   34  O4  UNL     1      52.302   9.765  50.723  1.00  0.00    -0.359 OA
ATOM     35  H4  UNL     1      52.091  10.683  50.600  1.00  0.00     0.217 HD
ENDBRANCH  10  34
TORSDOF 10
ENDMDL
MODEL 5
REMARK VINA RESULT: -7.621054375      2.621      5.643
REMARK  10 active torsions:
REMARK  status: ('A' for Active; 'I' for Inactive)
REMARK    1  A    between atoms: C4_4  and  C5_5 
REMARK    2  A    between atoms: C5_5  and  C7_7 
REMARK    3  A    between atoms: C7_7  and  C8_9 
REMARK    4  A    between atoms: C9_10  and  C10_11 
REMARK    5  A    between atoms: C11_12  and  C12_13 
REMARK    6  A    between atoms: C14_15  and  C15_16 
REMARK    7  A    between atoms: C15_16  and  O2_17 
REMARK    8  A    between atoms: C15_16  and  O3_19 
REMARK    9  A    between atoms: C16_21  and  N1_22 
REMARK   10  A    between atoms: C21_33  and  O4_34 
ROOT
HETATM    1  C8  UNL     1      57.071   5.778  53.005  1.00  0.00     0.057 A 
HETATM    2  C9  UNL     1      57.107   7.174  52.738  1.00  0.00     0.011 A 
HETATM    3  C16 UNL     1      57.932   7.995  53.506  1.00  0.00     0.086 A 
HETATM    4  C17 UNL     1      58.728   7.453  54.532  1.00  0.00     0.074 A 
HETATM    5  N3  UNL     1      59.598   8.035  55.408  1.00  0.00    -0.363 N 
ATOM      6  H3  UNL     1      59.826   9.028  55.451  1.00  0.00     0.165 HD
HETATM    7  C18 UNL     1      60.104   7.078  56.205  1.00  0.00     0.089 A 
HETATM    8  C19 UNL     1      59.543   5.863  55.827  1.00  0.00     0.034 A 
HETATM    9  C20 UNL     1      58.668   6.119  54.759  1.00  0.00     0.028 A 
HETATM   10  C21 UNL     1      57.856   5.278  54.021  1.00  0.00     0.093 A 
ENDROOT
BRANCH   2  11
HETATM   11  C10 UNL     1      56.189   7.682  51.767  1.00  0.00     0.015 C 
HETATM   12  C11 UNL     1      55.248   8.446  51.502  1.00  0.00     0.007 C 
BRANCH  12  13
HETATM   13  C12 UNL     1      54.399   9.420  52.059  1.00  0.00    -0.061 C 
HETATM   14  C13 UNL     1      53.360  10.249  51.420  1.00  0.00     0.048 C 
HETATM   15  C14 UNL     1      54.456   9.567  53.423  1.00  0.00     0.039 C 
BRANCH  15  16
HETATM   16  C15 UNL     1      53.627  10.546  54.140  1.00  0.00     0.278 C 
BRANCH  16  17
HETATM   17  O2  UNL     1      54.376  11.697  54.349  1.00  0.00    -0.368 OA
ATOM     18  H2  UNL     1      53.993  12.183  55.070  1.00  0.00     0.213 HD
ENDBRANCH  16  17
BRANCH  16  19
HETATM   19  O3  UNL     1      53.274  10.005  55.399  1.00  0.00    -0.368 OA
ATOM     20  H3  UNL     1      52.527   9.429  55.284  1.00  0.00     0.213 HD
ENDBRANCH  16  19
ENDBRANCH  15  16
ENDBRANCH  12  13
ENDBRANCH   2  11
BRANCH   1  21
HETATM   21  C7  UNL     1      56.296   4.902  52.183  1.00  0.00     0.170 C 
HETATM   22  O1  UNL     1      56.798   4.235  51.247  1.00  0.00    -0.291 OA
BRANCH  21  23
HETATM   23  C5  UNL     1      54.821   4.629  52.299  1.00  0.00     0.079 C 
HETATM   24  C6  UNL     1      54.753   3.203  52.827  1.00  0.00     0.022 C 
BRANCH  23  25
HETATM   25  C4  UNL     1      54.252   4.644  50.929  1.00  0.00    -0.013 C 
HETATM   26  C2  UNL     1      53.328   5.257  50.301  1.00  0.00    -0.091 C 
HETATM   27  C1  UNL     1      52.359   6.290  50.708  1.00  0.00     0.042 C 
HETATM   28  C3  UNL     1      53.191   4.859  48.816  1.00  0.00     0.042 C 
ENDBRANCH  23  25
ENDBRANCH  21  23
ENDBRANCH   1  21
BRANCH   3  29
HETATM   29  N1  UNL     1      57.976   9.360  53.396  1.00  0.00    -0.304 N 
HETATM   30  N2  UNL     1      58.403  10.128  52.556  1.00  0.00    -0.345 N 
ATOM     31  H22 UNL     1      58.816   9.630  51.767  1.00  0.00     0.176 HD
ATOM     32  H21 UNL     1      58.436  11.144  52.474  1.00  0.00     0.176 HD
ATOM     33  H1  UNL     1      57.559   9.837  54.195  1.00  0.00     0.186 HD
ENDBRANCH   3  29
BRANCH  10  34
HETATM   34  O4  UNL     1      57.837   3.959  54.338  1.00  0.00    -0.359 OA
ATOM     35  H4  UNL     1      57.762   3.673  55.241  1.00  0.00     0.217 HD
ENDBRANCH  10  34
TORSDOF 10
ENDMDL
