MODEL 1
REMARK VINA RESULT: -6.383876316      0.000      0.000
REMARK  9 active torsions:
REMARK  status: ('A' for Active; 'I' for Inactive)
REMARK    1  A    between atoms: C3_3  and  C4_4 
REMARK    2  A    between atoms: C4_4  and  N1_6 
REMARK    3  A    between atoms: N1_6  and  C6_8 
REMARK    4  A    between atoms: N2_10  and  C8_11 
REMARK    5  A    between atoms: C8_11  and  C9_12 
REMARK    6  A    between atoms: C10_13  and  C11_14 
REMARK    7  A    between atoms: C11_14  and  N3_15 
REMARK    8  A    between atoms: C16_22  and  N5_23 
REMARK       I    between atoms: N5_23  and  C17_25 
REMARK       I    between atoms: C17_25  and  N6_27 
REMARK    9  A    between atoms: N6_27  and  C18_29 
ROOT
HETATM    1  C1  UNL     1     -26.813   3.312   8.243  1.00  0.00     0.097 C 
HETATM    2  C2  UNL     1     -26.171   3.670   9.219  1.00  0.00    -0.186 C 
HETATM    3  C3  UNL     1     -25.422   4.116  10.391  1.00  0.00     0.104 C 
ENDROOT
BRANCH   3   4
HETATM    4  C4  UNL     1     -26.235   3.897  11.641  1.00  0.00     0.088 C 
HETATM    5  C5  UNL     1     -27.335   4.934  11.760  1.00  0.00     0.033 C 
BRANCH   4   6
HETATM    6  N1  UNL     1     -26.707   2.565  11.812  1.00  0.00    -0.381 N 
ATOM      7  H1  UNL     1     -26.842   2.025  10.958  1.00  0.00     0.160 HD
BRANCH   6   8
HETATM    8  C6  UNL     1     -27.013   1.901  13.023  1.00  0.00     0.089 A 
HETATM    9  C7  UNL     1     -28.285   1.885  13.571  1.00  0.00     0.125 A 
HETATM   10  N2  UNL     1     -28.576   1.255  14.744  1.00  0.00    -0.340 N 
HETATM   11  C15 UNL     1     -27.553   0.639  15.358  1.00  0.00     0.185 A 
HETATM   12  N4  UNL     1     -26.303   0.638  14.849  1.00  0.00    -0.336 N 
HETATM   13  C16 UNL     1     -25.989   1.249  13.697  1.00  0.00     0.138 A 
ATOM     14  H4  UNL     1     -25.566   0.152  15.362  1.00  0.00     0.168 HD
BRANCH  10  15
HETATM   15  C8  UNL     1     -29.915   1.254  15.292  1.00  0.00     0.223 C 
BRANCH  15  16
HETATM   16  C9  UNL     1     -30.756   0.522  14.316  1.00  0.00    -0.085 C 
HETATM   17  C10 UNL     1     -31.425  -0.072  13.507  1.00  0.00    -0.077 C 
BRANCH  17  18
HETATM   18  C11 UNL     1     -32.219  -0.788  12.508  1.00  0.00     0.329 C 
BRANCH  18  19
HETATM   19  N3  UNL     1     -32.597   0.061  11.397  1.00  0.00    -0.069 N 
HETATM   20  C12 UNL     1     -33.164  -0.723  10.332  1.00  0.00     0.272 C 
HETATM   21  C13 UNL     1     -33.606   0.995  11.861  1.00  0.00     0.272 C 
HETATM   22  C14 UNL     1     -31.442   0.764  10.888  1.00  0.00     0.272 C 
ENDBRANCH  18  19
ENDBRANCH  17  18
ENDBRANCH  15  16
ENDBRANCH  10  15
BRANCH  13  23
HETATM   23  N5  UNL     1     -24.780   1.220  13.253  1.00  0.00    -0.293 N 
HETATM   24  C17 UNL     1     -23.689   1.850  13.849  1.00  0.00     0.322 C 
HETATM   25  O1  UNL     1     -23.171   2.844  13.280  1.00  0.00    -0.247 OA
HETATM   26  N6  UNL     1     -23.128   1.421  15.080  1.00  0.00    -0.339 N 
ATOM     27  H6  UNL     1     -23.542   0.615  15.548  1.00  0.00     0.164 HD
ATOM     28  H5  UNL     1     -24.608   0.694  12.396  1.00  0.00     0.172 HD
BRANCH  26  29
HETATM   29  C18 UNL     1     -21.996   2.075  15.700  1.00  0.00     0.078 C 
HETATM   30  C19 UNL     1     -22.456   2.515  17.095  1.00  0.00     0.032 C 
HETATM   31  C20 UNL     1     -20.866   1.093  15.836  1.00  0.00     0.032 C 
ENDBRANCH  26  29
ENDBRANCH  13  23
ENDBRANCH   6   8
ENDBRANCH   4   6
ENDBRANCH   3   4
TORSDOF 9
ENDMDL
MODEL 2
REMARK VINA RESULT: -6.219884404      0.650      1.320
REMARK  9 active torsions:
REMARK  status: ('A' for Active; 'I' for Inactive)
REMARK    1  A    between atoms: C3_3  and  C4_4 
REMARK    2  A    between atoms: C4_4  and  N1_6 
REMARK    3  A    between atoms: N1_6  and  C6_8 
REMARK    4  A    between atoms: N2_10  and  C8_11 
REMARK    5  A    between atoms: C8_11  and  C9_12 
REMARK    6  A    between atoms: C10_13  and  C11_14 
REMARK    7  A    between atoms: C11_14  and  N3_15 
REMARK    8  A    between atoms: C16_22  and  N5_23 
REMARK       I    between atoms: N5_23  and  C17_25 
REMARK       I    between atoms: C17_25  and  N6_27 
REMARK    9  A    between atoms: N6_27  and  C18_29 
ROOT
HETATM    1  C1  UNL     1     -25.018   5.748   9.319  1.00  0.00     0.097 C 
HETATM    2  C2  UNL     1     -25.931   5.375  10.039  1.00  0.00    -0.186 C 
HETATM    3  C3  UNL     1     -27.037   4.920  10.878  1.00  0.00     0.104 C 
ENDROOT
BRANCH   3   4
HETATM    4  C4  UNL     1     -27.147   3.418  10.822  1.00  0.00     0.088 C 
HETATM    5  C5  UNL     1     -26.897   2.909   9.415  1.00  0.00     0.033 C 
BRANCH   4   6
HETATM    6  N1  UNL     1     -26.378   2.733  11.804  1.00  0.00    -0.381 N 
ATOM      7  H1  UNL     1     -25.368   2.736  11.665  1.00  0.00     0.160 HD
BRANCH   6   8
HETATM    8  C6  UNL     1     -26.845   2.046  12.950  1.00  0.00     0.089 A 
HETATM    9  C7  UNL     1     -28.139   2.172  13.427  1.00  0.00     0.125 A 
HETATM   10  N2  UNL     1     -28.583   1.521  14.538  1.00  0.00    -0.340 N 
HETATM   11  C15 UNL     1     -27.692   0.735  15.164  1.00  0.00     0.185 A 
HETATM   12  N4  UNL     1     -26.424   0.593  14.723  1.00  0.00    -0.336 N 
HETATM   13  C16 UNL     1     -25.961   1.222  13.633  1.00  0.00     0.138 A 
ATOM     14  H4  UNL     1     -25.792  -0.018  15.242  1.00  0.00     0.168 HD
BRANCH  10  15
HETATM   15  C8  UNL     1     -29.943   1.671  15.012  1.00  0.00     0.223 C 
BRANCH  15  16
HETATM   16  C9  UNL     1     -30.773   0.788  14.160  1.00  0.00    -0.085 C 
HETATM   17  C10 UNL     1     -31.431   0.061  13.457  1.00  0.00    -0.077 C 
BRANCH  17  18
HETATM   18  C11 UNL     1     -32.208  -0.831  12.595  1.00  0.00     0.329 C 
BRANCH  18  19
HETATM   19  N3  UNL     1     -32.787  -0.133  11.466  1.00  0.00    -0.069 N 
HETATM   20  C12 UNL     1     -31.779   0.615  10.763  1.00  0.00     0.272 C 
HETATM   21  C13 UNL     1     -33.339  -1.121  10.557  1.00  0.00     0.272 C 
HETATM   22  C14 UNL     1     -33.812   0.781  11.914  1.00  0.00     0.272 C 
ENDBRANCH  18  19
ENDBRANCH  17  18
ENDBRANCH  15  16
ENDBRANCH  10  15
BRANCH  13  23
HETATM   23  N5  UNL     1     -24.741   1.054  13.253  1.00  0.00    -0.293 N 
HETATM   24  C17 UNL     1     -23.635   1.717  13.784  1.00  0.00     0.322 C 
HETATM   25  O1  UNL     1     -23.039   2.571  13.081  1.00  0.00    -0.247 OA
HETATM   26  N6  UNL     1     -23.143   1.472  15.092  1.00  0.00    -0.339 N 
ATOM     27  H6  UNL     1     -23.620   0.779  15.670  1.00  0.00     0.164 HD
ATOM     28  H5  UNL     1     -24.571   0.382  12.504  1.00  0.00     0.172 HD
BRANCH  26  29
HETATM   29  C18 UNL     1     -21.996   2.160  15.644  1.00  0.00     0.078 C 
HETATM   30  C19 UNL     1     -22.372   2.556  17.077  1.00  0.00     0.032 C 
HETATM   31  C20 UNL     1     -20.823   1.221  15.680  1.00  0.00     0.032 C 
ENDBRANCH  26  29
ENDBRANCH  13  23
ENDBRANCH   6   8
ENDBRANCH   4   6
ENDBRANCH   3   4
TORSDOF 9
ENDMDL
MODEL 3
REMARK VINA RESULT: -6.171872857      2.703      3.749
REMARK  9 active torsions:
REMARK  status: ('A' for Active; 'I' for Inactive)
REMARK    1  A    between atoms: C3_3  and  C4_4 
REMARK    2  A    between atoms: C4_4  and  N1_6 
REMARK    3  A    between atoms: N1_6  and  C6_8 
REMARK    4  A    between atoms: N2_10  and  C8_11 
REMARK    5  A    between atoms: C8_11  and  C9_12 
REMARK    6  A    between atoms: C10_13  and  C11_14 
REMARK    7  A    between atoms: C11_14  and  N3_15 
REMARK    8  A    between atoms: C16_22  and  N5_23 
REMARK       I    between atoms: N5_23  and  C17_25 
REMARK       I    between atoms: C17_25  and  N6_27 
REMARK    9  A    between atoms: N6_27  and  C18_29 
ROOT
HETATM    1  C1  UNL     1     -25.016   6.385   9.374  1.00  0.00     0.097 C 
HETATM    2  C2  UNL     1     -25.373   5.251   9.656  1.00  0.00    -0.186 C 
HETATM    3  C3  UNL     1     -25.779   3.894  10.012  1.00  0.00     0.104 C 
ENDROOT
BRANCH   3   4
HETATM    4  C4  UNL     1     -26.202   3.840  11.457  1.00  0.00     0.088 C 
HETATM    5  C5  UNL     1     -27.281   4.867  11.743  1.00  0.00     0.033 C 
BRANCH   4   6
HETATM    6  N1  UNL     1     -26.536   2.539  11.927  1.00  0.00    -0.381 N 
ATOM      7  H1  UNL     1     -26.574   1.804  11.220  1.00  0.00     0.160 HD
BRANCH   6   8
HETATM    8  C6  UNL     1     -26.823   2.141  13.254  1.00  0.00     0.089 A 
HETATM    9  C7  UNL     1     -28.011   2.453  13.892  1.00  0.00     0.125 A 
HETATM   10  N2  UNL     1     -28.281   2.080  15.174  1.00  0.00    -0.340 N 
HETATM   11  C15 UNL     1     -27.323   1.382  15.805  1.00  0.00     0.185 A 
HETATM   12  N4  UNL     1     -26.154   1.063  15.209  1.00  0.00    -0.336 N 
HETATM   13  C16 UNL     1     -25.863   1.417  13.949  1.00  0.00     0.138 A 
ATOM     14  H4  UNL     1     -25.464   0.531  15.740  1.00  0.00     0.168 HD
BRANCH  10  15
HETATM   15  C8  UNL     1     -29.533   2.420  15.816  1.00  0.00     0.223 C 
BRANCH  15  16
HETATM   16  C9  UNL     1     -30.025   1.170  16.441  1.00  0.00    -0.085 C 
HETATM   17  C10 UNL     1     -30.407   0.143  16.946  1.00  0.00    -0.077 C 
BRANCH  17  18
HETATM   18  C11 UNL     1     -30.848  -1.114  17.552  1.00  0.00     0.329 C 
BRANCH  18  19
HETATM   19  N3  UNL     1     -30.237  -1.343  18.845  1.00  0.00    -0.069 N 
HETATM   20  C12 UNL     1     -30.747  -0.413  19.817  1.00  0.00     0.272 C 
HETATM   21  C13 UNL     1     -30.577  -2.685  19.277  1.00  0.00     0.272 C 
HETATM   22  C14 UNL     1     -28.804  -1.178  18.758  1.00  0.00     0.272 C 
ENDBRANCH  18  19
ENDBRANCH  17  18
ENDBRANCH  15  16
ENDBRANCH  10  15
BRANCH  13  23
HETATM   23  N5  UNL     1     -24.733   1.089  13.425  1.00  0.00    -0.293 N 
HETATM   24  C17 UNL     1     -23.491   1.587  13.815  1.00  0.00     0.322 C 
HETATM   25  O1  UNL     1     -22.872   2.361  13.042  1.00  0.00    -0.247 OA
HETATM   26  N6  UNL     1     -22.883   1.260  15.055  1.00  0.00    -0.339 N 
ATOM     27  H6  UNL     1     -23.378   0.632  15.689  1.00  0.00     0.164 HD
ATOM     28  H5  UNL     1     -24.749   0.411  12.663  1.00  0.00     0.172 HD
BRANCH  26  29
HETATM   29  C18 UNL     1     -21.594   1.777  15.462  1.00  0.00     0.078 C 
HETATM   30  C19 UNL     1     -21.731   2.181  16.935  1.00  0.00     0.032 C 
HETATM   31  C20 UNL     1     -20.561   0.693  15.338  1.00  0.00     0.032 C 
ENDBRANCH  26  29
ENDBRANCH  13  23
ENDBRANCH   6   8
ENDBRANCH   4   6
ENDBRANCH   3   4
TORSDOF 9
ENDMDL
MODEL 4
REMARK VINA RESULT: -6.118235287      0.596      1.719
REMARK  9 active torsions:
REMARK  status: ('A' for Active; 'I' for Inactive)
REMARK    1  A    between atoms: C3_3  and  C4_4 
REMARK    2  A    between atoms: C4_4  and  N1_6 
REMARK    3  A    between atoms: N1_6  and  C6_8 
REMARK    4  A    between atoms: N2_10  and  C8_11 
REMARK    5  A    between atoms: C8_11  and  C9_12 
REMARK    6  A    between atoms: C10_13  and  C11_14 
REMARK    7  A    between atoms: C11_14  and  N3_15 
REMARK    8  A    between atoms: C16_22  and  N5_23 
REMARK       I    between atoms: N5_23  and  C17_25 
REMARK       I    between atoms: C17_25  and  N6_27 
REMARK    9  A    between atoms: N6_27  and  C18_29 
ROOT
HETATM    1  C1  UNL     1     -28.009   5.916  13.311  1.00  0.00     0.097 C 
HETATM    2  C2  UNL     1     -27.543   5.499  12.263  1.00  0.00    -0.186 C 
HETATM    3  C3  UNL     1     -26.967   4.986  11.022  1.00  0.00     0.104 C 
ENDROOT
BRANCH   3   4
HETATM    4  C4  UNL     1     -27.160   3.494  10.938  1.00  0.00     0.088 C 
HETATM    5  C5  UNL     1     -27.013   3.008   9.508  1.00  0.00     0.033 C 
BRANCH   4   6
HETATM    6  N1  UNL     1     -26.379   2.744  11.861  1.00  0.00    -0.381 N 
ATOM      7  H1  UNL     1     -25.375   2.723  11.685  1.00  0.00     0.160 HD
BRANCH   6   8
HETATM    8  C6  UNL     1     -26.826   2.023  12.994  1.00  0.00     0.089 A 
HETATM    9  C7  UNL     1     -28.118   2.116  13.482  1.00  0.00     0.125 A 
HETATM   10  N2  UNL     1     -28.544   1.432  14.581  1.00  0.00    -0.340 N 
HETATM   11  C15 UNL     1     -27.635   0.647  15.182  1.00  0.00     0.185 A 
HETATM   12  N4  UNL     1     -26.368   0.537  14.730  1.00  0.00    -0.336 N 
HETATM   13  C16 UNL     1     -25.923   1.198  13.652  1.00  0.00     0.138 A 
ATOM     14  H4  UNL     1     -25.722  -0.075  15.230  1.00  0.00     0.168 HD
BRANCH  10  15
HETATM   15  C8  UNL     1     -29.902   1.548  15.067  1.00  0.00     0.223 C 
BRANCH  15  16
HETATM   16  C9  UNL     1     -30.727   0.690  14.185  1.00  0.00    -0.085 C 
HETATM   17  C10 UNL     1     -31.389  -0.000  13.450  1.00  0.00    -0.077 C 
BRANCH  17  18
HETATM   18  C11 UNL     1     -32.182  -0.826  12.538  1.00  0.00     0.329 C 
BRANCH  18  19
HETATM   19  N3  UNL     1     -32.699  -0.064  11.420  1.00  0.00    -0.069 N 
HETATM   20  C12 UNL     1     -33.727   0.842  11.858  1.00  0.00     0.272 C 
HETATM   21  C13 UNL     1     -31.612   0.716  10.859  1.00  0.00     0.272 C 
HETATM   22  C14 UNL     1     -33.260  -0.952  10.427  1.00  0.00     0.272 C 
ENDBRANCH  18  19
ENDBRANCH  17  18
ENDBRANCH  15  16
ENDBRANCH  10  15
BRANCH  13  23
HETATM   23  N5  UNL     1     -24.704   1.060  13.260  1.00  0.00    -0.293 N 
HETATM   24  C17 UNL     1     -23.603   1.721  13.806  1.00  0.00     0.322 C 
HETATM   25  O1  UNL     1     -23.024   2.606  13.129  1.00  0.00    -0.247 OA
HETATM   26  N6  UNL     1     -23.101   1.439  15.103  1.00  0.00    -0.339 N 
ATOM     27  H6  UNL     1     -23.565   0.721  15.660  1.00  0.00     0.164 HD
ATOM     28  H5  UNL     1     -24.529   0.416  12.488  1.00  0.00     0.172 HD
BRANCH  26  29
HETATM   29  C18 UNL     1     -21.960   2.124  15.671  1.00  0.00     0.078 C 
HETATM   30  C19 UNL     1     -22.373   2.565  17.081  1.00  0.00     0.032 C 
HETATM   31  C20 UNL     1     -20.803   1.169  15.768  1.00  0.00     0.032 C 
ENDBRANCH  26  29
ENDBRANCH  13  23
ENDBRANCH   6   8
ENDBRANCH   4   6
ENDBRANCH   3   4
TORSDOF 9
ENDMDL
MODEL 5
REMARK VINA RESULT: -6.040226858      2.398      4.236
REMARK  9 active torsions:
REMARK  status: ('A' for Active; 'I' for Inactive)
REMARK    1  A    between atoms: C3_3  and  C4_4 
REMARK    2  A    between atoms: C4_4  and  N1_6 
REMARK    3  A    between atoms: N1_6  and  C6_8 
REMARK    4  A    between atoms: N2_10  and  C8_11 
REMARK    5  A    between atoms: C8_11  and  C9_12 
REMARK    6  A    between atoms: C10_13  and  C11_14 
REMARK    7  A    between atoms: C11_14  and  N3_15 
REMARK    8  A    between atoms: C16_22  and  N5_23 
REMARK       I    between atoms: N5_23  and  C17_25 
REMARK       I    between atoms: C17_25  and  N6_27 
REMARK    9  A    between atoms: N6_27  and  C18_29 
ROOT
HETATM    1  C1  UNL     1     -25.178   5.880   9.249  1.00  0.00     0.097 C 
HETATM    2  C2  UNL     1     -26.045   5.458   9.998  1.00  0.00    -0.186 C 
HETATM    3  C3  UNL     1     -27.095   4.943  10.874  1.00  0.00     0.104 C 
ENDROOT
BRANCH   3   4
HETATM    4  C4  UNL     1     -27.091   3.436  10.857  1.00  0.00     0.088 C 
HETATM    5  C5  UNL     1     -26.719   2.910   9.484  1.00  0.00     0.033 C 
BRANCH   4   6
HETATM    6  N1  UNL     1     -26.336   2.835  11.904  1.00  0.00    -0.381 N 
ATOM      7  H1  UNL     1     -25.322   2.919  11.829  1.00  0.00     0.160 HD
BRANCH   6   8
HETATM    8  C6  UNL     1     -26.820   2.136  13.034  1.00  0.00     0.089 A 
HETATM    9  C7  UNL     1     -28.099   2.311  13.536  1.00  0.00     0.125 A 
HETATM   10  N2  UNL     1     -28.560   1.646  14.632  1.00  0.00    -0.340 N 
HETATM   11  C15 UNL     1     -27.700   0.796  15.218  1.00  0.00     0.185 A 
HETATM   12  N4  UNL     1     -26.448   0.606  14.752  1.00  0.00    -0.336 N 
HETATM   13  C16 UNL     1     -25.969   1.246  13.676  1.00  0.00     0.138 A 
ATOM     14  H4  UNL     1     -25.840  -0.053  15.241  1.00  0.00     0.168 HD
BRANCH  10  15
HETATM   15  C8  UNL     1     -29.903   1.848  15.133  1.00  0.00     0.223 C 
BRANCH  15  16
HETATM   16  C9  UNL     1     -29.866   1.470  16.564  1.00  0.00    -0.085 C 
HETATM   17  C10 UNL     1     -29.824   1.179  17.734  1.00  0.00    -0.077 C 
BRANCH  17  18
HETATM   18  C11 UNL     1     -29.757   0.845  19.158  1.00  0.00     0.329 C 
BRANCH  18  19
HETATM   19  N3  UNL     1     -28.666  -0.059  19.458  1.00  0.00    -0.069 N 
HETATM   20  C12 UNL     1     -27.403   0.546  19.129  1.00  0.00     0.272 C 
HETATM   21  C13 UNL     1     -28.682  -0.332  20.883  1.00  0.00     0.272 C 
HETATM   22  C14 UNL     1     -28.805  -1.280  18.699  1.00  0.00     0.272 C 
ENDBRANCH  18  19
ENDBRANCH  17  18
ENDBRANCH  15  16
ENDBRANCH  10  15
BRANCH  13  23
HETATM   23  N5  UNL     1     -24.765   1.030  13.271  1.00  0.00    -0.293 N 
HETATM   24  C17 UNL     1     -23.623   1.648  13.779  1.00  0.00     0.322 C 
HETATM   25  O1  UNL     1     -23.008   2.478  13.064  1.00  0.00    -0.247 OA
HETATM   26  N6  UNL     1     -23.115   1.382  15.077  1.00  0.00    -0.339 N 
ATOM     27  H6  UNL     1     -23.607   0.709  15.664  1.00  0.00     0.164 HD
ATOM     28  H5  UNL     1     -24.638   0.353  12.519  1.00  0.00     0.172 HD
BRANCH  26  29
HETATM   29  C18 UNL     1     -21.930   2.024  15.605  1.00  0.00     0.078 C 
HETATM   30  C19 UNL     1     -22.287   2.508  17.016  1.00  0.00     0.032 C 
HETATM   31  C20 UNL     1     -20.816   1.017  15.693  1.00  0.00     0.032 C 
ENDBRANCH  26  29
ENDBRANCH  13  23
ENDBRANCH   6   8
ENDBRANCH   4   6
ENDBRANCH   3   4
TORSDOF 9
ENDMDL
