MODEL 1
REMARK VINA RESULT: -5.316380116      0.000      0.000
REMARK  12 active torsions:
REMARK  status: ('A' for Active; 'I' for Inactive)
REMARK    1  A    between atoms: C3_3  and  C4_4 
REMARK    2  A    between atoms: C5_5  and  C6_6 
REMARK    3  A    between atoms: C7_7  and  C8_8 
REMARK    4  A    between atoms: C10_10  and  N1_11 
REMARK       I    between atoms: N1_11  and  C11_13 
REMARK    5  A    between atoms: C11_13  and  C12_15 
REMARK    6  A    between atoms: C12_15  and  C13_16 
REMARK    7  A    between atoms: C13_16  and  O2_17 
REMARK    8  A    between atoms: C13_16  and  N2_19 
REMARK    9  A    between atoms: N2_19  and  C15_21 
REMARK   10  A    between atoms: C15_21  and  C16_22 
REMARK   11  A    between atoms: C16_22  and  C17_23 
REMARK   12  A    between atoms: C17_23  and  N3_24 
ROOT
HETATM    1  C1  UNL     1     -30.383  -2.659  20.162  1.00  0.00     0.113 C 
HETATM    2  C2  UNL     1     -29.751  -1.846  19.114  1.00  0.00    -0.097 C 
HETATM    3  C3  UNL     1     -29.242  -1.189  18.233  1.00  0.00    -0.015 C 
ENDROOT
BRANCH   3   4
HETATM    4  C4  UNL     1     -28.661  -0.434  17.181  1.00  0.00    -0.001 C 
HETATM    5  C5  UNL     1     -28.150   0.191  16.284  1.00  0.00    -0.001 C 
BRANCH   5   6
HETATM    6  C6  UNL     1     -27.530   0.906  15.220  1.00  0.00    -0.007 C 
HETATM    7  C7  UNL     1     -26.989   1.534  14.326  1.00  0.00    -0.033 C 
BRANCH   7   8
HETATM    8  C8  UNL     1     -26.345   2.294  13.294  1.00  0.00     0.105 A 
HETATM    9  C9  UNL     1     -26.978   3.066  12.319  1.00  0.00     0.090 A 
HETATM   10  C10 UNL     1     -26.031   3.651  11.510  1.00  0.00     0.125 A 
HETATM   11  N4  UNL     1     -24.848   3.239  11.988  1.00  0.00    -0.284 N 
HETATM   12  N5  UNL     1     -25.032   2.432  13.051  1.00  0.00    -0.291 N 
ATOM     13  H4  UNL     1     -23.939   3.499  11.604  1.00  0.00     0.188 HD
ATOM     14  H5  UNL     1     -24.286   1.992  13.589  1.00  0.00     0.188 HD
BRANCH  10  15
HETATM   15  N1  UNL     1     -26.241   4.424  10.513  1.00  0.00    -0.312 N 
HETATM   16  C11 UNL     1     -25.883   4.123   9.194  1.00  0.00     0.227 C 
HETATM   17  O1  UNL     1     -24.681   4.194   8.850  1.00  0.00    -0.273 OA
ATOM     18  H1  UNL     1     -26.699   5.318  10.691  1.00  0.00     0.170 HD
BRANCH  16  19
HETATM   19  C12 UNL     1     -26.887   3.725   8.190  1.00  0.00     0.167 C 
BRANCH  19  20
HETATM   20  C13 UNL     1     -27.856   2.723   8.708  1.00  0.00     0.364 C 
BRANCH  20  21
HETATM   21  O2  UNL     1     -28.287   1.774   7.833  1.00  0.00    -0.367 OA
ATOM     22  H2  UNL     1     -29.227   1.664   7.747  1.00  0.00     0.212 HD
ENDBRANCH  20  21
BRANCH  20  23
HETATM   23  N2  UNL     1     -29.089   3.363   9.267  1.00  0.00     0.113 N 
HETATM   24  C14 UNL     1     -29.595   4.238   8.183  1.00  0.00     0.313 C 
BRANCH  23  25
HETATM   25  C15 UNL     1     -30.076   2.324   9.451  1.00  0.00     0.277 C 
BRANCH  25  26
HETATM   26  C16 UNL     1     -30.288   1.782  10.795  1.00  0.00     0.058 C 
BRANCH  26  27
HETATM   27  C17 UNL     1     -31.405   0.819  10.927  1.00  0.00     0.237 C 
BRANCH  27  28
HETATM   28  N3  UNL     1     -31.641   0.431  12.316  1.00  0.00    -0.079 N 
HETATM   29  C18 UNL     1     -30.407   0.207  13.047  1.00  0.00     0.271 C 
HETATM   30  C19 UNL     1     -32.356   1.514  12.958  1.00  0.00     0.271 C 
HETATM   31  C20 UNL     1     -32.481  -0.754  12.385  1.00  0.00     0.271 C 
ENDBRANCH  27  28
ENDBRANCH  26  27
ENDBRANCH  25  26
ENDBRANCH  23  25
ENDBRANCH  20  23
ENDBRANCH  19  20
ENDBRANCH  16  19
ENDBRANCH  10  15
ENDBRANCH   7   8
ENDBRANCH   5   6
ENDBRANCH   3   4
TORSDOF 12
ENDMDL
MODEL 2
REMARK VINA RESULT: -5.254276206      4.176      9.148
REMARK  12 active torsions:
REMARK  status: ('A' for Active; 'I' for Inactive)
REMARK    1  A    between atoms: C3_3  and  C4_4 
REMARK    2  A    between atoms: C5_5  and  C6_6 
REMARK    3  A    between atoms: C7_7  and  C8_8 
REMARK    4  A    between atoms: C10_10  and  N1_11 
REMARK       I    between atoms: N1_11  and  C11_13 
REMARK    5  A    between atoms: C11_13  and  C12_15 
REMARK    6  A    between atoms: C12_15  and  C13_16 
REMARK    7  A    between atoms: C13_16  and  O2_17 
REMARK    8  A    between atoms: C13_16  and  N2_19 
REMARK    9  A    between atoms: N2_19  and  C15_21 
REMARK   10  A    between atoms: C15_21  and  C16_22 
REMARK   11  A    between atoms: C16_22  and  C17_23 
REMARK   12  A    between atoms: C17_23  and  N3_24 
ROOT
HETATM    1  C1  UNL     1     -28.636   3.553   7.435  1.00  0.00     0.113 C 
HETATM    2  C2  UNL     1     -29.065   2.958   8.708  1.00  0.00    -0.097 C 
HETATM    3  C3  UNL     1     -29.437   2.456   9.746  1.00  0.00    -0.015 C 
ENDROOT
BRANCH   3   4
HETATM    4  C4  UNL     1     -29.891   1.852  10.947  1.00  0.00    -0.001 C 
HETATM    5  C5  UNL     1     -30.274   1.359  11.980  1.00  0.00    -0.001 C 
BRANCH   5   6
HETATM    6  C6  UNL     1     -30.724   0.804  13.212  1.00  0.00    -0.007 C 
HETATM    7  C7  UNL     1     -31.087   0.335  14.277  1.00  0.00    -0.033 C 
BRANCH   7   8
HETATM    8  C8  UNL     1     -31.487  -0.212  15.541  1.00  0.00     0.105 A 
HETATM    9  C9  UNL     1     -30.645  -0.527  16.609  1.00  0.00     0.090 A 
HETATM   10  C10 UNL     1     -31.392  -1.024  17.652  1.00  0.00     0.125 A 
HETATM   11  N4  UNL     1     -32.663  -1.008  17.221  1.00  0.00    -0.284 N 
HETATM   12  N5  UNL     1     -32.721  -0.525  15.965  1.00  0.00    -0.291 N 
ATOM     13  H4  UNL     1     -33.468  -1.318  17.765  1.00  0.00     0.188 HD
ATOM     14  H5  UNL     1     -33.575  -0.414  15.419  1.00  0.00     0.188 HD
BRANCH  10  15
HETATM   15  N1  UNL     1     -30.961  -1.414  18.790  1.00  0.00    -0.312 N 
HETATM   16  C11 UNL     1     -29.622  -1.718  19.063  1.00  0.00     0.227 C 
HETATM   17  O1  UNL     1     -29.134  -2.791  18.636  1.00  0.00    -0.273 OA
ATOM     18  H1  UNL     1     -31.636  -1.511  19.549  1.00  0.00     0.170 HD
BRANCH  16  19
HETATM   19  C12 UNL     1     -28.764  -0.808  19.843  1.00  0.00     0.167 C 
BRANCH  19  20
HETATM   20  C13 UNL     1     -27.970   0.113  18.987  1.00  0.00     0.364 C 
BRANCH  20  21
HETATM   21  O2  UNL     1     -26.703   0.395  19.397  1.00  0.00    -0.367 OA
ATOM     22  H2  UNL     1     -26.089  -0.330  19.423  1.00  0.00     0.212 HD
ENDBRANCH  20  21
BRANCH  20  23
HETATM   23  N2  UNL     1     -28.647   1.434  18.795  1.00  0.00     0.113 N 
HETATM   24  C14 UNL     1     -28.579   2.100  20.117  1.00  0.00     0.313 C 
BRANCH  23  25
HETATM   25  C15 UNL     1     -27.830   2.218  17.898  1.00  0.00     0.277 C 
BRANCH  25  26
HETATM   26  C16 UNL     1     -27.834   1.889  16.471  1.00  0.00     0.058 C 
BRANCH  26  27
HETATM   27  C17 UNL     1     -26.500   1.716  15.851  1.00  0.00     0.237 C 
BRANCH  27  28
HETATM   28  N3  UNL     1     -26.565   1.698  14.390  1.00  0.00    -0.079 N 
HETATM   29  C18 UNL     1     -25.250   1.721  13.777  1.00  0.00     0.271 C 
HETATM   30  C19 UNL     1     -27.226   0.471  13.996  1.00  0.00     0.271 C 
HETATM   31  C20 UNL     1     -27.363   2.808  13.896  1.00  0.00     0.271 C 
ENDBRANCH  27  28
ENDBRANCH  26  27
ENDBRANCH  25  26
ENDBRANCH  23  25
ENDBRANCH  20  23
ENDBRANCH  19  20
ENDBRANCH  16  19
ENDBRANCH  10  15
ENDBRANCH   7   8
ENDBRANCH   5   6
ENDBRANCH   3   4
TORSDOF 12
ENDMDL
MODEL 3
REMARK VINA RESULT: -5.030292172      5.479      9.012
REMARK  12 active torsions:
REMARK  status: ('A' for Active; 'I' for Inactive)
REMARK    1  A    between atoms: C3_3  and  C4_4 
REMARK    2  A    between atoms: C5_5  and  C6_6 
REMARK    3  A    between atoms: C7_7  and  C8_8 
REMARK    4  A    between atoms: C10_10  and  N1_11 
REMARK       I    between atoms: N1_11  and  C11_13 
REMARK    5  A    between atoms: C11_13  and  C12_15 
REMARK    6  A    between atoms: C12_15  and  C13_16 
REMARK    7  A    between atoms: C13_16  and  O2_17 
REMARK    8  A    between atoms: C13_16  and  N2_19 
REMARK    9  A    between atoms: N2_19  and  C15_21 
REMARK   10  A    between atoms: C15_21  and  C16_22 
REMARK   11  A    between atoms: C16_22  and  C17_23 
REMARK   12  A    between atoms: C17_23  and  N3_24 
ROOT
HETATM    1  C1  UNL     1     -22.935   2.095  14.076  1.00  0.00     0.113 C 
HETATM    2  C2  UNL     1     -24.354   1.724  14.002  1.00  0.00    -0.097 C 
HETATM    3  C3  UNL     1     -25.523   1.413  13.917  1.00  0.00    -0.015 C 
ENDROOT
BRANCH   3   4
HETATM    4  C4  UNL     1     -26.885   1.039  13.791  1.00  0.00    -0.001 C 
HETATM    5  C5  UNL     1     -28.051   0.738  13.701  1.00  0.00    -0.001 C 
BRANCH   5   6
HETATM    6  C6  UNL     1     -29.432   0.404  13.613  1.00  0.00    -0.007 C 
HETATM    7  C7  UNL     1     -30.621   0.143  13.544  1.00  0.00    -0.033 C 
BRANCH   7   8
HETATM    8  C8  UNL     1     -32.026  -0.138  13.474  1.00  0.00     0.105 A 
HETATM    9  C9  UNL     1     -33.049   0.618  14.047  1.00  0.00     0.090 A 
HETATM   10  C10 UNL     1     -34.264   0.038  13.761  1.00  0.00     0.125 A 
HETATM   11  N4  UNL     1     -33.978  -1.049  13.028  1.00  0.00    -0.284 N 
HETATM   12  N5  UNL     1     -32.647  -1.155  12.856  1.00  0.00    -0.291 N 
ATOM     13  H4  UNL     1     -34.668  -1.701  12.655  1.00  0.00     0.188 HD
ATOM     14  H5  UNL     1     -32.180  -1.897  12.334  1.00  0.00     0.188 HD
BRANCH  10  15
HETATM   15  N1  UNL     1     -35.419   0.453  14.119  1.00  0.00    -0.312 N 
HETATM   16  C11 UNL     1     -36.257  -0.225  15.012  1.00  0.00     0.227 C 
HETATM   17  O1  UNL     1     -36.869  -1.248  14.627  1.00  0.00    -0.273 OA
ATOM     18  H1  UNL     1     -35.751   1.335  13.729  1.00  0.00     0.170 HD
BRANCH  16  19
HETATM   19  C12 UNL     1     -36.443   0.233  16.401  1.00  0.00     0.167 C 
BRANCH  19  20
HETATM   20  C13 UNL     1     -35.533  -0.447  17.361  1.00  0.00     0.364 C 
BRANCH  20  21
HETATM   21  O2  UNL     1     -36.074  -0.846  18.544  1.00  0.00    -0.367 OA
ATOM     22  H2  UNL     1     -36.799  -1.459  18.499  1.00  0.00     0.212 HD
ENDBRANCH  20  21
BRANCH  20  23
HETATM   23  N2  UNL     1     -34.346   0.396  17.710  1.00  0.00     0.113 N 
HETATM   24  C14 UNL     1     -34.398   0.544  19.184  1.00  0.00     0.313 C 
BRANCH  23  25
HETATM   25  C15 UNL     1     -33.160  -0.377  17.417  1.00  0.00     0.277 C 
BRANCH  25  26
HETATM   26  C16 UNL     1     -31.848   0.245  17.607  1.00  0.00     0.058 C 
BRANCH  26  27
HETATM   27  C17 UNL     1     -30.684  -0.589  17.227  1.00  0.00     0.237 C 
BRANCH  27  28
HETATM   28  N3  UNL     1     -29.540  -0.381  18.112  1.00  0.00    -0.079 N 
HETATM   29  C18 UNL     1     -28.456   0.330  17.459  1.00  0.00     0.271 C 
HETATM   30  C19 UNL     1     -29.992   0.415  19.233  1.00  0.00     0.271 C 
HETATM   31  C20 UNL     1     -29.057  -1.649  18.637  1.00  0.00     0.271 C 
ENDBRANCH  27  28
ENDBRANCH  26  27
ENDBRANCH  25  26
ENDBRANCH  23  25
ENDBRANCH  20  23
ENDBRANCH  19  20
ENDBRANCH  16  19
ENDBRANCH  10  15
ENDBRANCH   7   8
ENDBRANCH   5   6
ENDBRANCH   3   4
TORSDOF 12
ENDMDL
MODEL 4
REMARK VINA RESULT: -4.995258884      4.576      8.597
REMARK  12 active torsions:
REMARK  status: ('A' for Active; 'I' for Inactive)
REMARK    1  A    between atoms: C3_3  and  C4_4 
REMARK    2  A    between atoms: C5_5  and  C6_6 
REMARK    3  A    between atoms: C7_7  and  C8_8 
REMARK    4  A    between atoms: C10_10  and  N1_11 
REMARK       I    between atoms: N1_11  and  C11_13 
REMARK    5  A    between atoms: C11_13  and  C12_15 
REMARK    6  A    between atoms: C12_15  and  C13_16 
REMARK    7  A    between atoms: C13_16  and  O2_17 
REMARK    8  A    between atoms: C13_16  and  N2_19 
REMARK    9  A    between atoms: N2_19  and  C15_21 
REMARK   10  A    between atoms: C15_21  and  C16_22 
REMARK   11  A    between atoms: C16_22  and  C17_23 
REMARK   12  A    between atoms: C17_23  and  N3_24 
ROOT
HETATM    1  C1  UNL     1     -35.708  -1.727   9.669  1.00  0.00     0.113 C 
HETATM    2  C2  UNL     1     -34.540  -1.295  10.447  1.00  0.00    -0.097 C 
HETATM    3  C3  UNL     1     -33.564  -0.960  11.084  1.00  0.00    -0.015 C 
ENDROOT
BRANCH   3   4
HETATM    4  C4  UNL     1     -32.409  -0.592  11.820  1.00  0.00    -0.001 C 
HETATM    5  C5  UNL     1     -31.424  -0.302  12.455  1.00  0.00    -0.001 C 
BRANCH   5   6
HETATM    6  C6  UNL     1     -30.260   0.013  13.213  1.00  0.00    -0.007 C 
HETATM    7  C7  UNL     1     -29.277   0.300  13.875  1.00  0.00    -0.033 C 
BRANCH   7   8
HETATM    8  C8  UNL     1     -28.136   0.659  14.666  1.00  0.00     0.105 A 
HETATM    9  C9  UNL     1     -28.158   1.158  15.969  1.00  0.00     0.090 A 
HETATM   10  C10 UNL     1     -26.869   1.378  16.397  1.00  0.00     0.125 A 
HETATM   11  N4  UNL     1     -26.084   1.019  15.371  1.00  0.00    -0.284 N 
HETATM   12  N5  UNL     1     -26.836   0.590  14.340  1.00  0.00    -0.291 N 
ATOM     13  H4  UNL     1     -25.065   1.063  15.371  1.00  0.00     0.188 HD
ATOM     14  H5  UNL     1     -26.472   0.262  13.445  1.00  0.00     0.188 HD
BRANCH  10  15
HETATM   15  N1  UNL     1     -26.503   1.830  17.536  1.00  0.00    -0.312 N 
HETATM   16  C11 UNL     1     -26.780   3.123  17.996  1.00  0.00     0.227 C 
HETATM   17  O1  UNL     1     -26.138   4.093  17.532  1.00  0.00    -0.273 OA
ATOM     18  H1  UNL     1     -25.976   1.208  18.150  1.00  0.00     0.170 HD
BRANCH  16  19
HETATM   19  C12 UNL     1     -27.811   3.378  19.019  1.00  0.00     0.167 C 
BRANCH  19  20
HETATM   20  C13 UNL     1     -27.248   3.489  20.391  1.00  0.00     0.364 C 
BRANCH  20  21
HETATM   21  O2  UNL     1     -25.987   3.990  20.500  1.00  0.00    -0.367 OA
ATOM     22  H2  UNL     1     -25.276   3.360  20.531  1.00  0.00     0.212 HD
ENDBRANCH  20  21
BRANCH  20  23
HETATM   23  N2  UNL     1     -27.236   2.175  21.108  1.00  0.00     0.113 N 
HETATM   24  C14 UNL     1     -27.245   2.520  22.549  1.00  0.00     0.313 C 
BRANCH  23  25
HETATM   25  C15 UNL     1     -28.494   1.517  20.835  1.00  0.00     0.277 C 
BRANCH  25  26
HETATM   26  C16 UNL     1     -28.513   0.058  20.705  1.00  0.00     0.058 C 
BRANCH  26  27
HETATM   27  C17 UNL     1     -28.643  -0.459  19.323  1.00  0.00     0.237 C 
BRANCH  27  28
HETATM   28  N3  UNL     1     -29.766  -1.384  19.181  1.00  0.00    -0.079 N 
HETATM   29  C18 UNL     1     -30.693  -1.306  20.296  1.00  0.00     0.271 C 
HETATM   30  C19 UNL     1     -30.480  -1.025  17.974  1.00  0.00     0.271 C 
HETATM   31  C20 UNL     1     -29.292  -2.750  19.025  1.00  0.00     0.271 C 
ENDBRANCH  27  28
ENDBRANCH  26  27
ENDBRANCH  25  26
ENDBRANCH  23  25
ENDBRANCH  20  23
ENDBRANCH  19  20
ENDBRANCH  16  19
ENDBRANCH  10  15
ENDBRANCH   7   8
ENDBRANCH   5   6
ENDBRANCH   3   4
TORSDOF 12
ENDMDL
MODEL 5
REMARK VINA RESULT: -4.920573887      5.298     10.037
REMARK  12 active torsions:
REMARK  status: ('A' for Active; 'I' for Inactive)
REMARK    1  A    between atoms: C3_3  and  C4_4 
REMARK    2  A    between atoms: C5_5  and  C6_6 
REMARK    3  A    between atoms: C7_7  and  C8_8 
REMARK    4  A    between atoms: C10_10  and  N1_11 
REMARK       I    between atoms: N1_11  and  C11_13 
REMARK    5  A    between atoms: C11_13  and  C12_15 
REMARK    6  A    between atoms: C12_15  and  C13_16 
REMARK    7  A    between atoms: C13_16  and  O2_17 
REMARK    8  A    between atoms: C13_16  and  N2_19 
REMARK    9  A    between atoms: N2_19  and  C15_21 
REMARK   10  A    between atoms: C15_21  and  C16_22 
REMARK   11  A    between atoms: C16_22  and  C17_23 
REMARK   12  A    between atoms: C17_23  and  N3_24 
ROOT
HETATM    1  C1  UNL     1     -25.406   4.400  10.057  1.00  0.00     0.113 C 
HETATM    2  C2  UNL     1     -26.198   3.612  11.011  1.00  0.00    -0.097 C 
HETATM    3  C3  UNL     1     -26.871   2.976  11.793  1.00  0.00    -0.015 C 
ENDROOT
BRANCH   3   4
HETATM    4  C4  UNL     1     -27.682   2.246  12.700  1.00  0.00    -0.001 C 
HETATM    5  C5  UNL     1     -28.373   1.646  13.486  1.00  0.00    -0.001 C 
BRANCH   5   6
HETATM    6  C6  UNL     1     -29.192   0.961  14.428  1.00  0.00    -0.007 C 
HETATM    7  C7  UNL     1     -29.888   0.393  15.253  1.00  0.00    -0.033 C 
BRANCH   7   8
HETATM    8  C8  UNL     1     -30.696  -0.257  16.244  1.00  0.00     0.105 A 
HETATM    9  C9  UNL     1     -30.381  -0.413  17.594  1.00  0.00     0.090 A 
HETATM   10  C10 UNL     1     -31.402  -1.083  18.229  1.00  0.00     0.125 A 
HETATM   11  N4  UNL     1     -32.316  -1.325  17.278  1.00  0.00    -0.284 N 
HETATM   12  N5  UNL     1     -31.898  -0.835  16.096  1.00  0.00    -0.291 N 
ATOM     13  H4  UNL     1     -33.201  -1.811  17.429  1.00  0.00     0.188 HD
ATOM     14  H5  UNL     1     -32.418  -0.893  15.221  1.00  0.00     0.188 HD
BRANCH  10  15
HETATM   15  N1  UNL     1     -31.461  -1.401  19.466  1.00  0.00    -0.312 N 
HETATM   16  C11 UNL     1     -30.374  -1.341  20.347  1.00  0.00     0.227 C 
HETATM   17  O1  UNL     1     -29.478  -2.213  20.282  1.00  0.00    -0.273 OA
ATOM     18  H1  UNL     1     -32.357  -1.720  19.835  1.00  0.00     0.170 HD
BRANCH  16  19
HETATM   19  C12 UNL     1     -30.255  -0.274  21.358  1.00  0.00     0.167 C 
BRANCH  19  20
HETATM   20  C13 UNL     1     -28.855   0.191  21.544  1.00  0.00     0.364 C 
BRANCH  20  21
HETATM   21  O2  UNL     1     -28.125  -0.426  22.514  1.00  0.00    -0.367 OA
ATOM     22  H2  UNL     1     -28.358  -0.232  23.414  1.00  0.00     0.212 HD
ENDBRANCH  20  21
BRANCH  20  23
HETATM   23  N2  UNL     1     -28.779   1.657  21.837  1.00  0.00     0.113 N 
HETATM   24  C14 UNL     1     -27.366   1.903  22.212  1.00  0.00     0.313 C 
BRANCH  23  25
HETATM   25  C15 UNL     1     -29.003   2.363  20.596  1.00  0.00     0.277 C 
BRANCH  25  26
HETATM   26  C16 UNL     1     -27.880   2.539  19.672  1.00  0.00     0.058 C 
BRANCH  26  27
HETATM   27  C17 UNL     1     -28.206   2.390  18.235  1.00  0.00     0.237 C 
BRANCH  27  28
HETATM   28  N3  UNL     1     -27.258   3.097  17.375  1.00  0.00    -0.079 N 
HETATM   29  C18 UNL     1     -27.920   3.939  16.396  1.00  0.00     0.271 C 
HETATM   30  C19 UNL     1     -26.444   3.942  18.222  1.00  0.00     0.271 C 
HETATM   31  C20 UNL     1     -26.372   2.159  16.704  1.00  0.00     0.271 C 
ENDBRANCH  27  28
ENDBRANCH  26  27
ENDBRANCH  25  26
ENDBRANCH  23  25
ENDBRANCH  20  23
ENDBRANCH  19  20
ENDBRANCH  16  19
ENDBRANCH  10  15
ENDBRANCH   7   8
ENDBRANCH   5   6
ENDBRANCH   3   4
TORSDOF 12
ENDMDL
