MODEL 1
REMARK VINA RESULT: -5.982603094      0.000      0.000
REMARK  5 active torsions:
REMARK  status: ('A' for Active; 'I' for Inactive)
REMARK    1  A    between atoms: C1_2  and  C2_3 
REMARK    2  A    between atoms: C2_3  and  N1_4 
REMARK    3  A    between atoms: N1_4  and  C3_5 
REMARK    4  A    between atoms: C3_5  and  C4_6 
REMARK    5  A    between atoms: C4_6  and  N2_7 
ROOT
HETATM    1  C4  UNL     1      13.522 -12.242  20.165  1.00  0.00     0.166 C 
ENDROOT
BRANCH   1   2
HETATM    2  C3  UNL     1      14.806 -12.777  20.651  1.00  0.00     0.257 C 
BRANCH   2   3
HETATM    3  N1  UNL     1      15.709 -13.378  19.686  1.00  0.00    -0.061 N 
HETATM    4  C9  UNL     1      15.495 -12.765  18.426  1.00  0.00     0.263 C 
HETATM    5  C10 UNL     1      16.529 -11.712  18.085  1.00  0.00     0.195 C 
HETATM    6  O1  UNL     1      16.685 -10.941  19.224  1.00  0.00    -0.388 OA
HETATM    7  C11 UNL     1      17.438 -11.667  20.123  1.00  0.00     0.195 C 
HETATM    8  C12 UNL     1      17.039 -13.110  20.232  1.00  0.00     0.263 C 
BRANCH   3   9
HETATM    9  C2  UNL     1      15.492 -14.791  19.753  1.00  0.00     0.248 C 
BRANCH   9  10
HETATM   10  C1  UNL     1      14.724 -15.434  18.666  1.00  0.00     0.113 C 
HETATM   11 BR1  UNL     1      12.900 -15.867  19.114  1.00  0.00    -0.095 Br
ENDBRANCH   9  10
ENDBRANCH   3   9
ENDBRANCH   2   3
ENDBRANCH   1   2
BRANCH   1  12
HETATM   12  N2  UNL     1      12.463 -12.548  21.106  1.00  0.00    -0.225 N 
HETATM   13  C5  UNL     1      12.077 -11.668  21.998  1.00  0.00     0.669 C 
HETATM   14  N3  UNL     1      12.674 -10.381  22.086  1.00  0.00    -0.227 N 
HETATM   15  N4  UNL     1      11.042 -11.977  22.913  1.00  0.00    -0.227 N 
HETATM   16  C6  UNL     1      12.008  -9.383  22.899  1.00  0.00     0.139 C 
ATOM     17  H3  UNL     1      13.541 -10.166  21.594  1.00  0.00     0.177 HD
HETATM   18  C7  UNL     1      11.574  -9.978  24.201  1.00  0.00     0.040 C 
HETATM   19  C8  UNL     1      10.680 -11.170  24.042  1.00  0.00     0.139 C 
ATOM     20  H4  UNL     1      10.515 -12.837  22.758  1.00  0.00     0.177 HD
ATOM     21  H2  UNL     1      12.013 -13.463  21.074  1.00  0.00     0.177 HD
ENDBRANCH   1  12
TORSDOF 5
ENDMDL
MODEL 2
REMARK VINA RESULT: -5.936632770      1.246      1.331
REMARK  5 active torsions:
REMARK  status: ('A' for Active; 'I' for Inactive)
REMARK    1  A    between atoms: C1_2  and  C2_3 
REMARK    2  A    between atoms: C2_3  and  N1_4 
REMARK    3  A    between atoms: N1_4  and  C3_5 
REMARK    4  A    between atoms: C3_5  and  C4_6 
REMARK    5  A    between atoms: C4_6  and  N2_7 
ROOT
HETATM    1  C4  UNL     1      12.827 -13.856  20.713  1.00  0.00     0.166 C 
ENDROOT
BRANCH   1   2
HETATM    2  C3  UNL     1      14.183 -14.321  21.054  1.00  0.00     0.257 C 
BRANCH   2   3
HETATM    3  N1  UNL     1      15.238 -14.143  20.073  1.00  0.00    -0.061 N 
HETATM    4  C9  UNL     1      14.882 -13.069  19.219  1.00  0.00     0.263 C 
HETATM    5  C10 UNL     1      15.579 -11.769  19.562  1.00  0.00     0.195 C 
HETATM    6  O1  UNL     1      15.487 -11.634  20.937  1.00  0.00    -0.388 OA
HETATM    7  C11 UNL     1      16.400 -12.499  21.506  1.00  0.00     0.195 C 
HETATM    8  C12 UNL     1      16.426 -13.861  20.878  1.00  0.00     0.263 C 
BRANCH   3   9
HETATM    9  C2  UNL     1      15.431 -15.417  19.449  1.00  0.00     0.248 C 
BRANCH   9  10
HETATM   10  C1  UNL     1      14.842 -15.639  18.112  1.00  0.00     0.113 C 
HETATM   11 BR1  UNL     1      13.253 -16.730  18.102  1.00  0.00    -0.095 Br
ENDBRANCH   9  10
ENDBRANCH   3   9
ENDBRANCH   2   3
ENDBRANCH   1   2
BRANCH   1  12
HETATM   12  N2  UNL     1      12.124 -13.441  21.910  1.00  0.00    -0.225 N 
HETATM   13  C5  UNL     1      11.980 -12.171  22.203  1.00  0.00     0.669 C 
HETATM   14  N3  UNL     1      12.505 -11.146  21.368  1.00  0.00    -0.227 N 
HETATM   15  N4  UNL     1      11.292 -11.776  23.375  1.00  0.00    -0.227 N 
HETATM   16  C6  UNL     1      12.066  -9.787  21.611  1.00  0.00     0.139 C 
ATOM     17  H3  UNL     1      13.168 -11.361  20.623  1.00  0.00     0.177 HD
HETATM   18  C7  UNL     1      12.083  -9.490  23.077  1.00  0.00     0.040 C 
HETATM   19  C8  UNL     1      11.248 -10.436  23.886  1.00  0.00     0.139 C 
ATOM     20  H4  UNL     1      10.791 -12.497  23.894  1.00  0.00     0.177 HD
ATOM     21  H2  UNL     1      11.736 -14.148  22.534  1.00  0.00     0.177 HD
ENDBRANCH   1  12
TORSDOF 5
ENDMDL
MODEL 3
REMARK VINA RESULT: -5.926904513      2.019      2.225
REMARK  5 active torsions:
REMARK  status: ('A' for Active; 'I' for Inactive)
REMARK    1  A    between atoms: C1_2  and  C2_3 
REMARK    2  A    between atoms: C2_3  and  N1_4 
REMARK    3  A    between atoms: N1_4  and  C3_5 
REMARK    4  A    between atoms: C3_5  and  C4_6 
REMARK    5  A    between atoms: C4_6  and  N2_7 
ROOT
HETATM    1  C4  UNL     1      13.496 -13.848  21.003  1.00  0.00     0.166 C 
ENDROOT
BRANCH   1   2
HETATM    2  C3  UNL     1      14.883 -13.468  21.324  1.00  0.00     0.257 C 
BRANCH   2   3
HETATM    3  N1  UNL     1      15.887 -13.589  20.284  1.00  0.00    -0.061 N 
HETATM    4  C9  UNL     1      15.236 -13.569  19.025  1.00  0.00     0.263 C 
HETATM    5  C10 UNL     1      15.307 -12.225  18.331  1.00  0.00     0.195 C 
HETATM    6  O1  UNL     1      15.004 -11.278  19.293  1.00  0.00    -0.388 OA
HETATM    7  C11 UNL     1      16.110 -11.134  20.104  1.00  0.00     0.195 C 
HETATM    8  C12 UNL     1      16.757 -12.432  20.494  1.00  0.00     0.263 C 
BRANCH   3   9
HETATM    9  C2  UNL     1      16.648 -14.762  20.590  1.00  0.00     0.248 C 
BRANCH   9  10
HETATM   10  C1  UNL     1      17.479 -14.759  21.812  1.00  0.00     0.113 C 
HETATM   11 BR1  UNL     1      19.367 -14.991  21.506  1.00  0.00    -0.095 Br
ENDBRANCH   9  10
ENDBRANCH   3   9
ENDBRANCH   2   3
ENDBRANCH   1   2
BRANCH   1  12
HETATM   12  N2  UNL     1      12.616 -13.511  22.105  1.00  0.00    -0.225 N 
HETATM   13  C5  UNL     1      12.264 -12.268  22.333  1.00  0.00     0.669 C 
HETATM   14  N3  UNL     1      12.725 -11.199  21.517  1.00  0.00    -0.227 N 
HETATM   15  N4  UNL     1      11.405 -11.950  23.411  1.00  0.00    -0.227 N 
HETATM   16  C6  UNL     1      12.075  -9.912  21.660  1.00  0.00     0.139 C 
ATOM     17  H3  UNL     1      13.488 -11.333  20.853  1.00  0.00     0.177 HD
HETATM   18  C7  UNL     1      11.892  -9.581  23.108  1.00  0.00     0.040 C 
HETATM   19  C8  UNL     1      11.117 -10.618  23.862  1.00  0.00     0.139 C 
ATOM     20  H4  UNL     1      10.957 -12.723  23.903  1.00  0.00     0.177 HD
ATOM     21  H2  UNL     1      12.267 -14.252  22.713  1.00  0.00     0.177 HD
ENDBRANCH   1  12
TORSDOF 5
ENDMDL
MODEL 4
REMARK VINA RESULT: -5.895559666      2.810      3.643
REMARK  5 active torsions:
REMARK  status: ('A' for Active; 'I' for Inactive)
REMARK    1  A    between atoms: C1_2  and  C2_3 
REMARK    2  A    between atoms: C2_3  and  N1_4 
REMARK    3  A    between atoms: N1_4  and  C3_5 
REMARK    4  A    between atoms: C3_5  and  C4_6 
REMARK    5  A    between atoms: C4_6  and  N2_7 
ROOT
HETATM    1  C4  UNL     1      14.713 -12.801  21.073  1.00  0.00     0.166 C 
ENDROOT
BRANCH   1   2
HETATM    2  C3  UNL     1      15.897 -13.025  21.921  1.00  0.00     0.257 C 
BRANCH   2   3
HETATM    3  N1  UNL     1      17.100 -13.547  21.299  1.00  0.00    -0.061 N 
HETATM    4  C9  UNL     1      18.120 -13.620  22.280  1.00  0.00     0.263 C 
HETATM    5  C10 UNL     1      18.325 -15.014  22.835  1.00  0.00     0.195 C 
HETATM    6  O1  UNL     1      17.062 -15.514  23.097  1.00  0.00    -0.388 OA
HETATM    7  C11 UNL     1      16.492 -15.868  21.891  1.00  0.00     0.195 C 
HETATM    8  C12 UNL     1      16.697 -14.861  20.797  1.00  0.00     0.263 C 
BRANCH   3   9
HETATM    9  C2  UNL     1      17.363 -12.715  20.164  1.00  0.00     0.248 C 
BRANCH   9  10
HETATM   10  C1  UNL     1      18.393 -11.662  20.292  1.00  0.00     0.113 C 
HETATM   11 BR1  UNL     1      20.081 -12.081  19.461  1.00  0.00    -0.095 Br
ENDBRANCH   9  10
ENDBRANCH   3   9
ENDBRANCH   2   3
ENDBRANCH   1   2
BRANCH   1  12
HETATM   12  N2  UNL     1      13.503 -13.082  21.819  1.00  0.00    -0.225 N 
HETATM   13  C5  UNL     1      12.760 -12.110  22.294  1.00  0.00     0.669 C 
HETATM   14  N3  UNL     1      13.105 -10.744  22.103  1.00  0.00    -0.227 N 
HETATM   15  N4  UNL     1      11.580 -12.396  23.021  1.00  0.00    -0.227 N 
HETATM   16  C6  UNL     1      12.101  -9.746  22.410  1.00  0.00     0.139 C 
ATOM     17  H3  UNL     1      14.029 -10.476  21.763  1.00  0.00     0.177 HD
HETATM   18  C7  UNL     1      11.433 -10.063  23.710  1.00  0.00     0.040 C 
HETATM   19  C8  UNL     1      10.809 -11.424  23.743  1.00  0.00     0.139 C 
ATOM     20  H4  UNL     1      11.253 -13.362  23.031  1.00  0.00     0.177 HD
ATOM     21  H2  UNL     1      13.224 -14.050  21.977  1.00  0.00     0.177 HD
ENDBRANCH   1  12
TORSDOF 5
ENDMDL
MODEL 5
REMARK VINA RESULT: -5.816326782      2.223      2.832
REMARK  5 active torsions:
REMARK  status: ('A' for Active; 'I' for Inactive)
REMARK    1  A    between atoms: C1_2  and  C2_3 
REMARK    2  A    between atoms: C2_3  and  N1_4 
REMARK    3  A    between atoms: N1_4  and  C3_5 
REMARK    4  A    between atoms: C3_5  and  C4_6 
REMARK    5  A    between atoms: C4_6  and  N2_7 
ROOT
HETATM    1  C4  UNL     1      13.645 -11.037  19.986  1.00  0.00     0.166 C 
ENDROOT
BRANCH   1   2
HETATM    2  C3  UNL     1      14.375 -12.006  19.151  1.00  0.00     0.257 C 
BRANCH   2   3
HETATM    3  N1  UNL     1      15.771 -12.263  19.456  1.00  0.00    -0.061 N 
HETATM    4  C9  UNL     1      16.043 -11.782  20.761  1.00  0.00     0.263 C 
HETATM    5  C10 UNL     1      16.063 -12.870  21.813  1.00  0.00     0.195 C 
HETATM    6  O1  UNL     1      14.952 -13.659  21.574  1.00  0.00    -0.388 OA
HETATM    7  C11 UNL     1      15.226 -14.448  20.475  1.00  0.00     0.195 C 
HETATM    8  C12 UNL     1      15.895 -13.717  19.348  1.00  0.00     0.263 C 
BRANCH   3   9
HETATM    9  C2  UNL     1      16.532 -11.685  18.391  1.00  0.00     0.248 C 
BRANCH   9  10
HETATM   10  C1  UNL     1      16.076 -11.907  17.003  1.00  0.00     0.113 C 
HETATM   11 BR1  UNL     1      17.031 -10.896  15.669  1.00  0.00    -0.095 Br
ENDBRANCH   9  10
ENDBRANCH   3   9
ENDBRANCH   2   3
ENDBRANCH   1   2
BRANCH   1  12
HETATM   12  N2  UNL     1      12.627 -11.715  20.765  1.00  0.00    -0.225 N 
HETATM   13  C5  UNL     1      12.137 -11.172  21.853  1.00  0.00     0.669 C 
HETATM   14  N3  UNL     1      12.577  -9.903  22.320  1.00  0.00    -0.227 N 
HETATM   15  N4  UNL     1      11.143 -11.841  22.606  1.00  0.00    -0.227 N 
HETATM   16  C6  UNL     1      11.796  -9.257  23.355  1.00  0.00     0.139 C 
ATOM     17  H3  UNL     1      13.414  -9.462  21.939  1.00  0.00     0.177 HD
HETATM   18  C7  UNL     1      11.431 -10.241  24.421  1.00  0.00     0.040 C 
HETATM   19  C8  UNL     1      10.684 -11.431  23.903  1.00  0.00     0.139 C 
ATOM     20  H4  UNL     1      10.722 -12.676  22.198  1.00  0.00     0.177 HD
ATOM     21  H2  UNL     1      12.288 -12.627  20.462  1.00  0.00     0.177 HD
ENDBRANCH   1  12
TORSDOF 5
ENDMDL
