MODEL 1
REMARK VINA RESULT: -7.621841310      0.000      0.000
REMARK  10 active torsions:
REMARK  status: ('A' for Active; 'I' for Inactive)
REMARK    1  A    between atoms: N3_6  and  C3_7 
REMARK    2  A    between atoms: C4_8  and  C5_9 
REMARK    3  A    between atoms: C5_9  and  C6_10 
REMARK    4  A    between atoms: C6_10  and  C7_11 
REMARK    5  A    between atoms: C7_11  and  C8_12 
REMARK    6  A    between atoms: C8_12  and  C9_13 
REMARK    7  A    between atoms: N4_15  and  C11_16 
REMARK    8  A    between atoms: C11_16  and  C12_17 
REMARK    9  A    between atoms: C15_20  and  C16_21 
REMARK   10  A    between atoms: C16_21  and  O1_22 
ROOT
HETATM    1  C9  UNL     1      16.649 -12.287  21.371  1.00  0.00     0.045 A 
HETATM    2  C10 UNL     1      15.265 -12.317  21.293  1.00  0.00     0.138 A 
HETATM    3  N4  UNL     1      14.827 -11.254  20.593  1.00  0.00    -0.282 N 
HETATM    4  N6  UNL     1      15.912 -10.572  20.241  1.00  0.00    -0.240 N 
ATOM      5  H6  UNL     1      15.904  -9.709  19.698  1.00  0.00     0.208 HD
HETATM    6  N7  UNL     1      16.997 -11.166  20.689  1.00  0.00    -0.289 N 
ATOM      7  H7  UNL     1      17.952 -10.836  20.548  1.00  0.00     0.188 HD
ENDROOT
BRANCH   1   8
HETATM    8  C8  UNL     1      17.571 -13.243  22.037  1.00  0.00     0.072 C 
BRANCH   8   9
HETATM    9  C7  UNL     1      18.978 -12.684  22.117  1.00  0.00     0.101 C 
BRANCH   9  10
HETATM   10  C6  UNL     1      19.742 -13.357  23.168  1.00  0.00    -0.092 C 
BRANCH  10  11
HETATM   11  C5  UNL     1      20.368 -13.927  24.048  1.00  0.00    -0.013 C 
BRANCH  11  12
HETATM   12  C4  UNL     1      21.090 -14.609  25.056  1.00  0.00     0.010 C 
HETATM   13  C3  UNL     1      21.695 -15.206  25.910  1.00  0.00     0.049 C 
BRANCH  13  14
HETATM   14  N3  UNL     1      22.392 -15.929  26.913  1.00  0.00    -0.206 N 
HETATM   15  N2  UNL     1      23.226 -15.433  27.801  1.00  0.00    -0.281 N 
HETATM   16  C2  UNL     1      23.713 -16.391  28.608  1.00  0.00     0.201 A 
ATOM     17  H2  UNL     1      23.473 -14.445  27.869  1.00  0.00     0.189 HD
HETATM   18  N1  UNL     1      23.147 -17.545  28.193  1.00  0.00    -0.340 N 
HETATM   19  C1  UNL     1      23.419 -18.824  28.815  1.00  0.00     0.158 C 
HETATM   20  C17 UNL     1      22.340 -17.251  27.155  1.00  0.00     0.220 A 
ENDBRANCH  13  14
ENDBRANCH  11  12
ENDBRANCH  10  11
ENDBRANCH   9  10
ENDBRANCH   8   9
ENDBRANCH   1   8
BRANCH   3  21
HETATM   21  C11 UNL     1      13.456 -10.900  20.276  1.00  0.00     0.206 C 
BRANCH  21  22
HETATM   22  C12 UNL     1      12.706 -10.523  21.480  1.00  0.00     0.029 A 
HETATM   23  C13 UNL     1      11.774 -11.273  22.154  1.00  0.00     0.029 A 
HETATM   24  C14 UNL     1      11.309 -10.536  23.239  1.00  0.00     0.029 A 
HETATM   25  C15 UNL     1      11.983  -9.337  23.195  1.00  0.00     0.033 A 
HETATM   26  N5  UNL     1      12.810  -9.359  22.134  1.00  0.00    -0.360 N 
ATOM     27  H5  UNL     1      13.430  -8.595  21.865  1.00  0.00     0.165 HD
BRANCH  25  28
HETATM   28  C16 UNL     1      11.799  -8.216  24.184  1.00  0.00     0.220 C 
BRANCH  28  29
HETATM   29  O1  UNL     1      12.995  -7.483  24.240  1.00  0.00    -0.395 OA
ATOM     30  H1  UNL     1      12.789  -6.571  24.077  1.00  0.00     0.209 HD
ENDBRANCH  28  29
ENDBRANCH  25  28
ENDBRANCH  21  22
ENDBRANCH   3  21
TORSDOF 10
ENDMDL
MODEL 2
REMARK VINA RESULT: -7.487581584      1.184      1.451
REMARK  10 active torsions:
REMARK  status: ('A' for Active; 'I' for Inactive)
REMARK    1  A    between atoms: N3_6  and  C3_7 
REMARK    2  A    between atoms: C4_8  and  C5_9 
REMARK    3  A    between atoms: C5_9  and  C6_10 
REMARK    4  A    between atoms: C6_10  and  C7_11 
REMARK    5  A    between atoms: C7_11  and  C8_12 
REMARK    6  A    between atoms: C8_12  and  C9_13 
REMARK    7  A    between atoms: N4_15  and  C11_16 
REMARK    8  A    between atoms: C11_16  and  C12_17 
REMARK    9  A    between atoms: C15_20  and  C16_21 
REMARK   10  A    between atoms: C16_21  and  O1_22 
ROOT
HETATM    1  C9  UNL     1      16.859 -11.682  20.889  1.00  0.00     0.045 A 
HETATM    2  C10 UNL     1      15.706 -11.137  20.347  1.00  0.00     0.138 A 
HETATM    3  N4  UNL     1      14.625 -11.739  20.879  1.00  0.00    -0.282 N 
HETATM    4  N6  UNL     1      15.091 -12.641  21.736  1.00  0.00    -0.240 N 
ATOM      5  H6  UNL     1      14.509 -13.261  22.300  1.00  0.00     0.208 HD
HETATM    6  N7  UNL     1      16.407 -12.623  21.758  1.00  0.00    -0.289 N 
ATOM      7  H7  UNL     1      16.996 -13.222  22.336  1.00  0.00     0.188 HD
ENDROOT
BRANCH   1   8
HETATM    8  C8  UNL     1      18.278 -11.342  20.611  1.00  0.00     0.072 C 
BRANCH   8   9
HETATM    9  C7  UNL     1      19.064 -12.566  20.183  1.00  0.00     0.101 C 
BRANCH   9  10
HETATM   10  C6  UNL     1      19.664 -13.226  21.343  1.00  0.00    -0.092 C 
BRANCH  10  11
HETATM   11  C5  UNL     1      20.151 -13.778  22.318  1.00  0.00    -0.013 C 
BRANCH  11  12
HETATM   12  C4  UNL     1      20.694 -14.426  23.452  1.00  0.00     0.010 C 
HETATM   13  C3  UNL     1      21.146 -14.995  24.413  1.00  0.00     0.049 C 
BRANCH  13  14
HETATM   14  N3  UNL     1      21.662 -15.684  25.542  1.00  0.00    -0.206 N 
HETATM   15  N2  UNL     1      22.590 -15.251  26.369  1.00  0.00    -0.281 N 
HETATM   16  C2  UNL     1      22.847 -16.149  27.334  1.00  0.00     0.201 A 
ATOM     17  H2  UNL     1      23.055 -14.347  26.287  1.00  0.00     0.189 HD
HETATM   18  N1  UNL     1      22.032 -17.198  27.088  1.00  0.00    -0.340 N 
HETATM   19  C1  UNL     1      22.006 -18.386  27.914  1.00  0.00     0.158 C 
HETATM   20  C17 UNL     1      21.310 -16.903  25.989  1.00  0.00     0.220 A 
ENDBRANCH  13  14
ENDBRANCH  11  12
ENDBRANCH  10  11
ENDBRANCH   9  10
ENDBRANCH   8   9
ENDBRANCH   1   8
BRANCH   3  21
HETATM   21  C11 UNL     1      13.228 -11.475  20.593  1.00  0.00     0.206 C 
BRANCH  21  22
HETATM   22  C12 UNL     1      12.549 -10.870  21.746  1.00  0.00     0.029 A 
HETATM   23  C13 UNL     1      11.590 -11.441  22.545  1.00  0.00     0.029 A 
HETATM   24  C14 UNL     1      11.217 -10.520  23.520  1.00  0.00     0.029 A 
HETATM   25  C15 UNL     1      11.972  -9.394  23.281  1.00  0.00     0.033 A 
HETATM   26  N5  UNL     1      12.758  -9.634  22.216  1.00  0.00    -0.360 N 
ATOM     27  H5  UNL     1      13.421  -8.967  21.822  1.00  0.00     0.165 HD
BRANCH  25  28
HETATM   28  C16 UNL     1      11.903  -8.130  24.097  1.00  0.00     0.220 C 
BRANCH  28  29
HETATM   29  O1  UNL     1      13.180  -7.547  24.107  1.00  0.00    -0.395 OA
ATOM     30  H1  UNL     1      13.652  -7.887  24.858  1.00  0.00     0.209 HD
ENDBRANCH  28  29
ENDBRANCH  25  28
ENDBRANCH  21  22
ENDBRANCH   3  21
TORSDOF 10
ENDMDL
MODEL 3
REMARK VINA RESULT: -7.365191758      1.459      1.770
REMARK  10 active torsions:
REMARK  status: ('A' for Active; 'I' for Inactive)
REMARK    1  A    between atoms: N3_6  and  C3_7 
REMARK    2  A    between atoms: C4_8  and  C5_9 
REMARK    3  A    between atoms: C5_9  and  C6_10 
REMARK    4  A    between atoms: C6_10  and  C7_11 
REMARK    5  A    between atoms: C7_11  and  C8_12 
REMARK    6  A    between atoms: C8_12  and  C9_13 
REMARK    7  A    between atoms: N4_15  and  C11_16 
REMARK    8  A    between atoms: C11_16  and  C12_17 
REMARK    9  A    between atoms: C15_20  and  C16_21 
REMARK   10  A    between atoms: C16_21  and  O1_22 
ROOT
HETATM    1  C9  UNL     1      17.391 -11.765  19.641  1.00  0.00     0.045 A 
HETATM    2  C10 UNL     1      16.155 -11.672  19.021  1.00  0.00     0.138 A 
HETATM    3  N4  UNL     1      15.271 -11.095  19.856  1.00  0.00    -0.282 N 
HETATM    4  N6  UNL     1      15.938 -10.832  20.974  1.00  0.00    -0.240 N 
ATOM      5  H6  UNL     1      15.534 -10.390  21.801  1.00  0.00     0.208 HD
HETATM    6  N7  UNL     1      17.191 -11.219  20.868  1.00  0.00    -0.289 N 
ATOM      7  H7  UNL     1      17.902 -11.124  21.593  1.00  0.00     0.188 HD
ENDROOT
BRANCH   1   8
HETATM    8  C8  UNL     1      18.663 -12.326  19.117  1.00  0.00     0.072 C 
BRANCH   8   9
HETATM    9  C7  UNL     1      19.861 -11.743  19.842  1.00  0.00     0.101 C 
BRANCH   9  10
HETATM   10  C6  UNL     1      20.213 -12.565  21.000  1.00  0.00    -0.092 C 
BRANCH  10  11
HETATM   11  C5  UNL     1      20.496 -13.244  21.975  1.00  0.00    -0.013 C 
BRANCH  11  12
HETATM   12  C4  UNL     1      20.847 -14.022  23.104  1.00  0.00     0.010 C 
HETATM   13  C3  UNL     1      21.164 -14.686  24.058  1.00  0.00     0.049 C 
BRANCH  13  14
HETATM   14  N3  UNL     1      21.559 -15.475  25.170  1.00  0.00    -0.206 N 
HETATM   15  N2  UNL     1      22.488 -15.177  26.053  1.00  0.00    -0.281 N 
HETATM   16  C2  UNL     1      22.612 -16.141  26.980  1.00  0.00     0.201 A 
ATOM     17  H2  UNL     1      23.043 -14.321  26.036  1.00  0.00     0.189 HD
HETATM   18  N1  UNL     1      21.709 -17.089  26.650  1.00  0.00    -0.340 N 
HETATM   19  C1  UNL     1      21.529 -18.307  27.412  1.00  0.00     0.158 C 
HETATM   20  C17 UNL     1      21.069 -16.672  25.540  1.00  0.00     0.220 A 
ENDBRANCH  13  14
ENDBRANCH  11  12
ENDBRANCH  10  11
ENDBRANCH   9  10
ENDBRANCH   8   9
ENDBRANCH   1   8
BRANCH   3  21
HETATM   21  C11 UNL     1      13.870 -10.808  19.610  1.00  0.00     0.206 C 
BRANCH  21  22
HETATM   22  C12 UNL     1      13.138 -10.593  20.865  1.00  0.00     0.029 A 
HETATM   23  C13 UNL     1      12.426 -11.518  21.587  1.00  0.00     0.029 A 
HETATM   24  C14 UNL     1      11.891 -10.892  22.709  1.00  0.00     0.029 A 
HETATM   25  C15 UNL     1      12.300  -9.580  22.636  1.00  0.00     0.033 A 
HETATM   26  N5  UNL     1      13.042  -9.432  21.525  1.00  0.00    -0.360 N 
ATOM     27  H5  UNL     1      13.473  -8.557  21.227  1.00  0.00     0.165 HD
BRANCH  25  28
HETATM   28  C16 UNL     1      11.953  -8.520  23.649  1.00  0.00     0.220 C 
BRANCH  28  29
HETATM   29  O1  UNL     1      13.120  -7.795  23.938  1.00  0.00    -0.395 OA
ATOM     30  H1  UNL     1      13.535  -7.565  23.115  1.00  0.00     0.209 HD
ENDBRANCH  28  29
ENDBRANCH  25  28
ENDBRANCH  21  22
ENDBRANCH   3  21
TORSDOF 10
ENDMDL
MODEL 4
REMARK VINA RESULT: -7.349360692      1.081      1.342
REMARK  10 active torsions:
REMARK  status: ('A' for Active; 'I' for Inactive)
REMARK    1  A    between atoms: N3_6  and  C3_7 
REMARK    2  A    between atoms: C4_8  and  C5_9 
REMARK    3  A    between atoms: C5_9  and  C6_10 
REMARK    4  A    between atoms: C6_10  and  C7_11 
REMARK    5  A    between atoms: C7_11  and  C8_12 
REMARK    6  A    between atoms: C8_12  and  C9_13 
REMARK    7  A    between atoms: N4_15  and  C11_16 
REMARK    8  A    between atoms: C11_16  and  C12_17 
REMARK    9  A    between atoms: C15_20  and  C16_21 
REMARK   10  A    between atoms: C16_21  and  O1_22 
ROOT
HETATM    1  C9  UNL     1      16.243 -11.357  20.737  1.00  0.00     0.045 A 
HETATM    2  C10 UNL     1      15.130 -11.983  21.273  1.00  0.00     0.138 A 
HETATM    3  N4  UNL     1      14.010 -11.416  20.785  1.00  0.00    -0.282 N 
HETATM    4  N6  UNL     1      14.414 -10.455  19.961  1.00  0.00    -0.240 N 
ATOM      5  H6  UNL     1      13.792  -9.842  19.434  1.00  0.00     0.208 HD
HETATM    6  N7  UNL     1      15.729 -10.405  19.918  1.00  0.00    -0.289 N 
ATOM      7  H7  UNL     1      16.276  -9.752  19.357  1.00  0.00     0.188 HD
ENDROOT
BRANCH   1   8
HETATM    8  C8  UNL     1      17.683 -11.636  20.978  1.00  0.00     0.072 C 
BRANCH   8   9
HETATM    9  C7  UNL     1      18.028 -13.073  20.638  1.00  0.00     0.101 C 
BRANCH   9  10
HETATM   10  C6  UNL     1      18.781 -13.695  21.727  1.00  0.00    -0.092 C 
BRANCH  10  11
HETATM   11  C5  UNL     1      19.410 -14.201  22.644  1.00  0.00    -0.013 C 
BRANCH  11  12
HETATM   12  C4  UNL     1      20.137 -14.767  23.718  1.00  0.00     0.010 C 
HETATM   13  C3  UNL     1      20.744 -15.265  24.632  1.00  0.00     0.049 C 
BRANCH  13  14
HETATM   14  N3  UNL     1      21.440 -15.870  25.711  1.00  0.00    -0.206 N 
HETATM   15  N2  UNL     1      22.389 -15.320  26.439  1.00  0.00    -0.281 N 
HETATM   16  C2  UNL     1      22.839 -16.165  27.381  1.00  0.00     0.201 A 
ATOM     17  H2  UNL     1      22.739 -14.371  26.304  1.00  0.00     0.189 HD
HETATM   18  N1  UNL     1      22.127 -17.303  27.225  1.00  0.00    -0.340 N 
HETATM   19  C1  UNL     1      22.315 -18.471  28.060  1.00  0.00     0.158 C 
HETATM   20  C17 UNL     1      21.274 -17.111  26.200  1.00  0.00     0.220 A 
ENDBRANCH  13  14
ENDBRANCH  11  12
ENDBRANCH  10  11
ENDBRANCH   9  10
ENDBRANCH   8   9
ENDBRANCH   1   8
BRANCH   3  21
HETATM   21  C11 UNL     1      12.633 -11.762  21.082  1.00  0.00     0.206 C 
BRANCH  21  22
HETATM   22  C12 UNL     1      12.114 -10.979  22.210  1.00  0.00     0.029 A 
HETATM   23  C13 UNL     1      11.202 -11.378  23.156  1.00  0.00     0.029 A 
HETATM   24  C14 UNL     1      10.990 -10.327  24.042  1.00  0.00     0.029 A 
HETATM   25  C15 UNL     1      11.794  -9.298  23.604  1.00  0.00     0.033 A 
HETATM   26  N5  UNL     1      12.452  -9.718  22.509  1.00  0.00    -0.360 N 
ATOM     27  H5  UNL     1      13.117  -9.154  21.979  1.00  0.00     0.165 HD
BRANCH  25  28
HETATM   28  C16 UNL     1      11.891  -7.948  24.265  1.00  0.00     0.220 C 
BRANCH  28  29
HETATM   29  O1  UNL     1      13.194  -7.463  24.074  1.00  0.00    -0.395 OA
ATOM     30  H1  UNL     1      13.141  -6.524  23.937  1.00  0.00     0.209 HD
ENDBRANCH  28  29
ENDBRANCH  25  28
ENDBRANCH  21  22
ENDBRANCH   3  21
TORSDOF 10
ENDMDL
MODEL 5
REMARK VINA RESULT: -7.271675958      1.745      2.078
REMARK  10 active torsions:
REMARK  status: ('A' for Active; 'I' for Inactive)
REMARK    1  A    between atoms: N3_6  and  C3_7 
REMARK    2  A    between atoms: C4_8  and  C5_9 
REMARK    3  A    between atoms: C5_9  and  C6_10 
REMARK    4  A    between atoms: C6_10  and  C7_11 
REMARK    5  A    between atoms: C7_11  and  C8_12 
REMARK    6  A    between atoms: C8_12  and  C9_13 
REMARK    7  A    between atoms: N4_15  and  C11_16 
REMARK    8  A    between atoms: C11_16  and  C12_17 
REMARK    9  A    between atoms: C15_20  and  C16_21 
REMARK   10  A    between atoms: C16_21  and  O1_22 
ROOT
HETATM    1  C9  UNL     1      17.541 -11.658  20.588  1.00  0.00     0.045 A 
HETATM    2  C10 UNL     1      16.393 -11.233  19.937  1.00  0.00     0.138 A 
HETATM    3  N4  UNL     1      15.309 -11.764  20.535  1.00  0.00    -0.282 N 
HETATM    4  N6  UNL     1      15.768 -12.506  21.537  1.00  0.00    -0.240 N 
ATOM      5  H6  UNL     1      15.183 -13.040  22.180  1.00  0.00     0.208 HD
HETATM    6  N7  UNL     1      17.083 -12.456  21.586  1.00  0.00    -0.289 N 
ATOM      7  H7  UNL     1      17.666 -12.941  22.267  1.00  0.00     0.188 HD
ENDROOT
BRANCH   1   8
HETATM    8  C8  UNL     1      18.960 -11.336  20.290  1.00  0.00     0.072 C 
BRANCH   8   9
HETATM    9  C7  UNL     1      19.747 -12.585  19.944  1.00  0.00     0.101 C 
BRANCH   9  10
HETATM   10  C6  UNL     1      20.200 -13.264  21.159  1.00  0.00    -0.092 C 
BRANCH  10  11
HETATM   11  C5  UNL     1      20.569 -13.822  22.181  1.00  0.00    -0.013 C 
BRANCH  11  12
HETATM   12  C4  UNL     1      20.980 -14.486  23.360  1.00  0.00     0.010 C 
HETATM   13  C3  UNL     1      21.336 -15.068  24.354  1.00  0.00     0.049 C 
BRANCH  13  14
HETATM   14  N3  UNL     1      21.757 -15.774  25.510  1.00  0.00    -0.206 N 
HETATM   15  N2  UNL     1      22.730 -15.432  26.328  1.00  0.00    -0.281 N 
HETATM   16  C2  UNL     1      22.869 -16.320  27.327  1.00  0.00     0.201 A 
ATOM     17  H2  UNL     1      23.307 -14.598  26.217  1.00  0.00     0.189 HD
HETATM   18  N1  UNL     1      21.928 -17.265  27.113  1.00  0.00    -0.340 N 
HETATM   19  C1  UNL     1      21.749 -18.409  27.981  1.00  0.00     0.158 C 
HETATM   20  C17 UNL     1      21.253 -16.921  25.999  1.00  0.00     0.220 A 
ENDBRANCH  13  14
ENDBRANCH  11  12
ENDBRANCH  10  11
ENDBRANCH   9  10
ENDBRANCH   8   9
ENDBRANCH   1   8
BRANCH   3  21
HETATM   21  C11 UNL     1      13.916 -11.582  20.177  1.00  0.00     0.206 C 
BRANCH  21  22
HETATM   22  C12 UNL     1      13.182 -10.863  21.227  1.00  0.00     0.029 A 
HETATM   23  C13 UNL     1      13.205  -9.516  21.491  1.00  0.00     0.029 A 
HETATM   24  C14 UNL     1      12.366  -9.259  22.570  1.00  0.00     0.029 A 
HETATM   25  C15 UNL     1      11.846 -10.479  22.940  1.00  0.00     0.033 A 
HETATM   26  N5  UNL     1      12.352 -11.417  22.119  1.00  0.00    -0.360 N 
ATOM     27  H5  UNL     1      12.133 -12.412  22.170  1.00  0.00     0.165 HD
BRANCH  25  28
HETATM   28  C16 UNL     1      10.878 -10.687  24.075  1.00  0.00     0.220 C 
BRANCH  28  29
HETATM   29  O1  UNL     1      10.085 -11.804  23.773  1.00  0.00    -0.395 OA
ATOM     30  H1  UNL     1       9.292 -11.752  24.294  1.00  0.00     0.209 HD
ENDBRANCH  28  29
ENDBRANCH  25  28
ENDBRANCH  21  22
ENDBRANCH   3  21
TORSDOF 10
ENDMDL
