MODEL 1
REMARK VINA RESULT: -6.216903693      0.000      0.000
REMARK  9 active torsions:
REMARK  status: ('A' for Active; 'I' for Inactive)
REMARK    1  A    between atoms: C3_3  and  C4_4 
REMARK    2  A    between atoms: C4_4  and  C5_5 
REMARK    3  A    between atoms: C4_4  and  C14_18 
REMARK    4  A    between atoms: C5_5  and  N1_6 
REMARK    5  A    between atoms: C12_14  and  C13_15 
REMARK    6  A    between atoms: C14_18  and  O2_19 
REMARK    7  A    between atoms: C14_18  and  C15_21 
REMARK    8  A    between atoms: C15_21  and  O3_22 
REMARK    9  A    between atoms: C15_21  and  C16_24 
ROOT
HETATM    1  C1  UNL     1      18.756 -14.237  25.178  1.00  0.00     0.112 C 
HETATM    2  C2  UNL     1      18.122 -13.891  23.907  1.00  0.00    -0.111 C 
HETATM    3  C3  UNL     1      17.572 -13.612  22.845  1.00  0.00    -0.098 C 
ENDROOT
BRANCH   3   4
HETATM    4  C4  UNL     1      16.922 -13.314  21.539  1.00  0.00     0.122 C 
BRANCH   4   5
HETATM    5  C5  UNL     1      15.481 -13.126  21.649  1.00  0.00     0.258 C 
BRANCH   5   6
HETATM    6  N1  UNL     1      14.564 -13.838  20.837  1.00  0.00    -0.049 N 
HETATM    7  C6  UNL     1      13.179 -13.586  20.958  1.00  0.00     0.266 C 
HETATM    8  C7  UNL     1      12.459 -14.325  19.815  1.00  0.00     0.265 C 
HETATM    9  N2  UNL     1      13.230 -15.478  19.394  1.00  0.00    -0.065 N 
HETATM   10  C8  UNL     1      12.400 -16.337  18.601  1.00  0.00     0.272 C 
HETATM   11  C9  UNL     1      13.658 -16.134  20.634  1.00  0.00     0.265 C 
HETATM   12  C11 UNL     1      14.463 -15.092  18.732  1.00  0.00     0.280 C 
HETATM   13  C10 UNL     1      14.731 -15.267  21.223  1.00  0.00     0.266 C 
HETATM   14  C12 UNL     1      15.003 -13.863  19.436  1.00  0.00     0.304 C 
BRANCH  14  15
HETATM   15  C13 UNL     1      14.824 -12.639  18.686  1.00  0.00     0.264 C 
HETATM   16  N3  UNL     1      14.670 -11.310  19.147  1.00  0.00    -0.060 NA
HETATM   17  O1  UNL     1      14.790 -12.698  17.396  1.00  0.00    -0.274 OA
ENDBRANCH  14  15
ENDBRANCH   5   6
ENDBRANCH   4   5
BRANCH   4  18
HETATM   18  C14 UNL     1      17.711 -12.155  20.990  1.00  0.00     0.164 C 
BRANCH  18  19
HETATM   19  O2  UNL     1      16.962 -10.980  20.964  1.00  0.00    -0.392 OA
ATOM     20  H2  UNL     1      16.330 -10.977  20.255  1.00  0.00     0.210 HD
ENDBRANCH  18  19
BRANCH  18  21
HETATM   21  C15 UNL     1      18.426 -12.309  19.722  1.00  0.00     0.151 C 
BRANCH  21  22
HETATM   22  O3  UNL     1      17.922 -11.476  18.742  1.00  0.00    -0.393 OA
ATOM     23  H3  UNL     1      17.008 -11.657  18.559  1.00  0.00     0.210 HD
ENDBRANCH  21  22
BRANCH  21  24
HETATM   24  C16 UNL     1      19.872 -11.819  19.938  1.00  0.00     0.009 C 
HETATM   25  C17 UNL     1      20.534 -12.809  20.854  1.00  0.00     0.012 C 
HETATM   26  C18 UNL     1      20.532 -11.845  18.556  1.00  0.00     0.012 C 
ENDBRANCH  21  24
ENDBRANCH  18  21
ENDBRANCH   4  18
ENDBRANCH   3   4
TORSDOF 9
ENDMDL
MODEL 2
REMARK VINA RESULT: -5.979768090      2.016      3.549
REMARK  9 active torsions:
REMARK  status: ('A' for Active; 'I' for Inactive)
REMARK    1  A    between atoms: C3_3  and  C4_4 
REMARK    2  A    between atoms: C4_4  and  C5_5 
REMARK    3  A    between atoms: C4_4  and  C14_18 
REMARK    4  A    between atoms: C5_5  and  N1_6 
REMARK    5  A    between atoms: C12_14  and  C13_15 
REMARK    6  A    between atoms: C14_18  and  O2_19 
REMARK    7  A    between atoms: C14_18  and  C15_21 
REMARK    8  A    between atoms: C15_21  and  O3_22 
REMARK    9  A    between atoms: C15_21  and  C16_24 
ROOT
HETATM    1  C1  UNL     1      20.873 -11.573  19.860  1.00  0.00     0.112 C 
HETATM    2  C2  UNL     1      19.481 -11.952  19.627  1.00  0.00    -0.111 C 
HETATM    3  C3  UNL     1      18.312 -12.286  19.449  1.00  0.00    -0.098 C 
ENDROOT
BRANCH   3   4
HETATM    4  C4  UNL     1      16.910 -12.726  19.209  1.00  0.00     0.122 C 
BRANCH   4   5
HETATM    5  C5  UNL     1      16.216 -13.110  20.432  1.00  0.00     0.258 C 
BRANCH   5   6
HETATM    6  N1  UNL     1      15.196 -14.093  20.441  1.00  0.00    -0.049 N 
HETATM    7  C6  UNL     1      15.026 -14.914  21.579  1.00  0.00     0.266 C 
HETATM    8  C7  UNL     1      13.724 -15.717  21.396  1.00  0.00     0.265 C 
HETATM    9  N2  UNL     1      13.431 -15.891  19.986  1.00  0.00    -0.065 N 
HETATM   10  C8  UNL     1      12.442 -16.917  19.833  1.00  0.00     0.272 C 
HETATM   11  C9  UNL     1      14.705 -16.271  19.367  1.00  0.00     0.265 C 
HETATM   12  C11 UNL     1      13.068 -14.637  19.351  1.00  0.00     0.280 C 
HETATM   13  C10 UNL     1      15.548 -15.030  19.338  1.00  0.00     0.266 C 
HETATM   14  C12 UNL     1      13.922 -13.543  19.959  1.00  0.00     0.304 C 
BRANCH  14  15
HETATM   15  C13 UNL     1      13.204 -12.688  20.879  1.00  0.00     0.264 C 
HETATM   16  N3  UNL     1      13.692 -11.688  21.753  1.00  0.00    -0.060 NA
HETATM   17  O1  UNL     1      11.920 -12.805  20.964  1.00  0.00    -0.274 OA
ENDBRANCH  14  15
ENDBRANCH   5   6
ENDBRANCH   4   5
BRANCH   4  18
HETATM   18  C14 UNL     1      16.300 -11.601  18.416  1.00  0.00     0.164 C 
BRANCH  18  19
HETATM   19  O2  UNL     1      15.747 -10.621  19.240  1.00  0.00    -0.392 OA
ATOM     20  H2  UNL     1      15.097 -10.100  18.784  1.00  0.00     0.210 HD
ENDBRANCH  18  19
BRANCH  18  21
HETATM   21  C15 UNL     1      15.369 -11.909  17.329  1.00  0.00     0.151 C 
BRANCH  21  22
HETATM   22  O3  UNL     1      14.568 -10.829  17.014  1.00  0.00    -0.393 OA
ATOM     23  H3  UNL     1      14.625 -10.143  17.668  1.00  0.00     0.210 HD
ENDBRANCH  21  22
BRANCH  21  24
HETATM   24  C16 UNL     1      16.202 -12.156  16.055  1.00  0.00     0.009 C 
HETATM   25  C17 UNL     1      15.240 -12.159  14.901  1.00  0.00     0.012 C 
HETATM   26  C18 UNL     1      17.162 -10.968  15.947  1.00  0.00     0.012 C 
ENDBRANCH  21  24
ENDBRANCH  18  21
ENDBRANCH   4  18
ENDBRANCH   3   4
TORSDOF 9
ENDMDL
MODEL 3
REMARK VINA RESULT: -5.955963301      2.677      5.957
REMARK  9 active torsions:
REMARK  status: ('A' for Active; 'I' for Inactive)
REMARK    1  A    between atoms: C3_3  and  C4_4 
REMARK    2  A    between atoms: C4_4  and  C5_5 
REMARK    3  A    between atoms: C4_4  and  C14_18 
REMARK    4  A    between atoms: C5_5  and  N1_6 
REMARK    5  A    between atoms: C12_14  and  C13_15 
REMARK    6  A    between atoms: C14_18  and  O2_19 
REMARK    7  A    between atoms: C14_18  and  C15_21 
REMARK    8  A    between atoms: C15_21  and  O3_22 
REMARK    9  A    between atoms: C15_21  and  C16_24 
ROOT
HETATM    1  C1  UNL     1      14.598 -15.453  17.212  1.00  0.00     0.112 C 
HETATM    2  C2  UNL     1      15.066 -14.564  18.273  1.00  0.00    -0.111 C 
HETATM    3  C3  UNL     1      15.439 -13.811  19.170  1.00  0.00    -0.098 C 
ENDROOT
BRANCH   3   4
HETATM    4  C4  UNL     1      15.884 -12.864  20.229  1.00  0.00     0.122 C 
BRANCH   4   5
HETATM    5  C5  UNL     1      17.327 -12.879  20.437  1.00  0.00     0.258 C 
BRANCH   5   6
HETATM    6  N1  UNL     1      17.931 -13.645  21.464  1.00  0.00    -0.049 N 
HETATM    7  C6  UNL     1      18.258 -14.999  21.227  1.00  0.00     0.266 C 
HETATM    8  C7  UNL     1      19.092 -15.504  22.421  1.00  0.00     0.265 C 
HETATM    9  N2  UNL     1      18.771 -14.748  23.616  1.00  0.00    -0.065 N 
HETATM   10  C8  UNL     1      19.274 -15.446  24.763  1.00  0.00     0.272 C 
HETATM   11  C9  UNL     1      17.308 -14.656  23.638  1.00  0.00     0.265 C 
HETATM   12  C11 UNL     1      19.230 -13.374  23.526  1.00  0.00     0.280 C 
HETATM   13  C10 UNL     1      16.929 -13.677  22.566  1.00  0.00     0.266 C 
HETATM   14  C12 UNL     1      19.034 -12.911  22.097  1.00  0.00     0.304 C 
BRANCH  14  15
HETATM   15  C13 UNL     1      20.265 -12.826  21.340  1.00  0.00     0.264 C 
HETATM   16  N3  UNL     1      20.467 -12.509  19.977  1.00  0.00    -0.060 NA
HETATM   17  O1  UNL     1      21.383 -13.065  21.942  1.00  0.00    -0.274 OA
ENDBRANCH  14  15
ENDBRANCH   5   6
ENDBRANCH   4   5
BRANCH   4  18
HETATM   18  C14 UNL     1      15.277 -11.547  19.825  1.00  0.00     0.164 C 
BRANCH  18  19
HETATM   19  O2  UNL     1      16.147 -10.789  19.044  1.00  0.00    -0.392 OA
ATOM     20  H2  UNL     1      15.969 -10.888  18.116  1.00  0.00     0.210 HD
ENDBRANCH  18  19
BRANCH  18  21
HETATM   21  C15 UNL     1      14.665 -10.694  20.846  1.00  0.00     0.151 C 
BRANCH  21  22
HETATM   22  O3  UNL     1      14.830  -9.353  20.563  1.00  0.00    -0.393 OA
ATOM     23  H3  UNL     1      14.312  -9.082  19.814  1.00  0.00     0.210 HD
ENDBRANCH  21  22
BRANCH  21  24
HETATM   24  C16 UNL     1      13.141 -10.916  20.791  1.00  0.00     0.009 C 
HETATM   25  C17 UNL     1      12.834 -12.062  21.713  1.00  0.00     0.012 C 
HETATM   26  C18 UNL     1      12.511  -9.624  21.317  1.00  0.00     0.012 C 
ENDBRANCH  21  24
ENDBRANCH  18  21
ENDBRANCH   4  18
ENDBRANCH   3   4
TORSDOF 9
ENDMDL
MODEL 4
REMARK VINA RESULT: -5.892247386      4.090      7.249
REMARK  9 active torsions:
REMARK  status: ('A' for Active; 'I' for Inactive)
REMARK    1  A    between atoms: C3_3  and  C4_4 
REMARK    2  A    between atoms: C4_4  and  C5_5 
REMARK    3  A    between atoms: C4_4  and  C14_18 
REMARK    4  A    between atoms: C5_5  and  N1_6 
REMARK    5  A    between atoms: C12_14  and  C13_15 
REMARK    6  A    between atoms: C14_18  and  O2_19 
REMARK    7  A    between atoms: C14_18  and  C15_21 
REMARK    8  A    between atoms: C15_21  and  O3_22 
REMARK    9  A    between atoms: C15_21  and  C16_24 
ROOT
HETATM    1  C1  UNL     1      20.519 -11.893  19.148  1.00  0.00     0.112 C 
HETATM    2  C2  UNL     1      19.937 -12.593  20.291  1.00  0.00    -0.111 C 
HETATM    3  C3  UNL     1      19.436 -13.195  21.238  1.00  0.00    -0.098 C 
ENDROOT
BRANCH   3   4
HETATM    4  C4  UNL     1      18.792 -13.898  22.382  1.00  0.00     0.122 C 
BRANCH   4   5
HETATM    5  C5  UNL     1      19.623 -13.920  23.579  1.00  0.00     0.258 C 
BRANCH   5   6
HETATM    6  N1  UNL     1      20.238 -15.107  24.047  1.00  0.00    -0.049 N 
HETATM    7  C6  UNL     1      20.396 -16.205  23.173  1.00  0.00     0.266 C 
HETATM    8  C7  UNL     1      21.281 -17.251  23.877  1.00  0.00     0.265 C 
HETATM    9  N2  UNL     1      21.157 -17.131  25.316  1.00  0.00    -0.065 N 
HETATM   10  C8  UNL     1      21.690 -18.309  25.935  1.00  0.00     0.272 C 
HETATM   11  C9  UNL     1      19.720 -16.988  25.573  1.00  0.00     0.265 C 
HETATM   12  C11 UNL     1      21.747 -15.900  25.809  1.00  0.00     0.280 C 
HETATM   13  C10 UNL     1      19.347 -15.603  25.133  1.00  0.00     0.266 C 
HETATM   14  C12 UNL     1      21.468 -14.811  24.794  1.00  0.00     0.304 C 
BRANCH  14  15
HETATM   15  C13 UNL     1      22.623 -14.441  24.005  1.00  0.00     0.264 C 
HETATM   16  N3  UNL     1      23.866 -15.100  23.858  1.00  0.00    -0.060 NA
HETATM   17  O1  UNL     1      22.577 -13.356  23.305  1.00  0.00    -0.274 OA
ENDBRANCH  14  15
ENDBRANCH   5   6
ENDBRANCH   4   5
BRANCH   4  18
HETATM   18  C14 UNL     1      17.445 -13.238  22.509  1.00  0.00     0.164 C 
BRANCH  18  19
HETATM   19  O2  UNL     1      16.792 -13.608  23.684  1.00  0.00    -0.392 OA
ATOM     20  H2  UNL     1      15.941 -13.195  23.762  1.00  0.00     0.210 HD
ENDBRANCH  18  19
BRANCH  18  21
HETATM   21  C15 UNL     1      16.506 -13.298  21.388  1.00  0.00     0.151 C 
BRANCH  21  22
HETATM   22  O3  UNL     1      15.359 -13.995  21.712  1.00  0.00    -0.393 OA
ATOM     23  H3  UNL     1      15.252 -14.771  21.174  1.00  0.00     0.210 HD
ENDBRANCH  21  22
BRANCH  21  24
HETATM   24  C16 UNL     1      16.018 -11.862  21.109  1.00  0.00     0.009 C 
HETATM   25  C17 UNL     1      16.386 -11.546  19.686  1.00  0.00     0.012 C 
HETATM   26  C18 UNL     1      14.497 -11.898  21.272  1.00  0.00     0.012 C 
ENDBRANCH  21  24
ENDBRANCH  18  21
ENDBRANCH   4  18
ENDBRANCH   3   4
TORSDOF 9
ENDMDL
MODEL 5
REMARK VINA RESULT: -5.882575303      4.227      7.590
REMARK  9 active torsions:
REMARK  status: ('A' for Active; 'I' for Inactive)
REMARK    1  A    between atoms: C3_3  and  C4_4 
REMARK    2  A    between atoms: C4_4  and  C5_5 
REMARK    3  A    between atoms: C4_4  and  C14_18 
REMARK    4  A    between atoms: C5_5  and  N1_6 
REMARK    5  A    between atoms: C12_14  and  C13_15 
REMARK    6  A    between atoms: C14_18  and  O2_19 
REMARK    7  A    between atoms: C14_18  and  C15_21 
REMARK    8  A    between atoms: C15_21  and  O3_22 
REMARK    9  A    between atoms: C15_21  and  C16_24 
ROOT
HETATM    1  C1  UNL     1      20.501 -11.884  19.093  1.00  0.00     0.112 C 
HETATM    2  C2  UNL     1      19.958 -12.547  20.277  1.00  0.00    -0.111 C 
HETATM    3  C3  UNL     1      19.482 -13.093  21.269  1.00  0.00    -0.098 C 
ENDROOT
BRANCH   3   4
HETATM    4  C4  UNL     1      18.914 -13.718  22.495  1.00  0.00     0.122 C 
BRANCH   4   5
HETATM    5  C5  UNL     1      19.743 -13.512  23.676  1.00  0.00     0.258 C 
BRANCH   5   6
HETATM    6  N1  UNL     1      20.770 -14.416  24.043  1.00  0.00    -0.049 N 
HETATM    7  C6  UNL     1      22.091 -14.193  23.595  1.00  0.00     0.266 C 
HETATM    8  C7  UNL     1      23.015 -15.189  24.321  1.00  0.00     0.265 C 
HETATM    9  N2  UNL     1      22.276 -16.378  24.701  1.00  0.00    -0.065 N 
HETATM   10  C8  UNL     1      23.202 -17.418  25.044  1.00  0.00     0.272 C 
HETATM   11  C9  UNL     1      21.477 -16.732  23.524  1.00  0.00     0.265 C 
HETATM   12  C11 UNL     1      21.304 -16.101  25.742  1.00  0.00     0.280 C 
HETATM   13  C10 UNL     1      20.373 -15.720  23.441  1.00  0.00     0.266 C 
HETATM   14  C12 UNL     1      20.716 -14.730  25.477  1.00  0.00     0.304 C 
BRANCH  14  15
HETATM   15  C13 UNL     1      21.201 -13.705  26.376  1.00  0.00     0.264 C 
HETATM   16  N3  UNL     1      20.822 -12.347  26.487  1.00  0.00    -0.060 NA
HETATM   17  O1  UNL     1      22.119 -14.012  27.231  1.00  0.00    -0.274 OA
ENDBRANCH  14  15
ENDBRANCH   5   6
ENDBRANCH   4   5
BRANCH   4  18
HETATM   18  C14 UNL     1      17.506 -13.190  22.561  1.00  0.00     0.164 C 
BRANCH  18  19
HETATM   19  O2  UNL     1      16.842 -13.615  23.711  1.00  0.00    -0.392 OA
ATOM     20  H2  UNL     1      17.282 -14.349  24.123  1.00  0.00     0.210 HD
ENDBRANCH  18  19
BRANCH  18  21
HETATM   21  C15 UNL     1      16.625 -13.344  21.401  1.00  0.00     0.151 C 
BRANCH  21  22
HETATM   22  O3  UNL     1      15.531 -14.137  21.687  1.00  0.00    -0.393 OA
ATOM     23  H3  UNL     1      14.728 -13.631  21.732  1.00  0.00     0.210 HD
ENDBRANCH  21  22
BRANCH  21  24
HETATM   24  C16 UNL     1      16.026 -11.960  21.081  1.00  0.00     0.009 C 
HETATM   25  C17 UNL     1      16.344 -11.671  19.641  1.00  0.00     0.012 C 
HETATM   26  C18 UNL     1      14.514 -12.105  21.275  1.00  0.00     0.012 C 
ENDBRANCH  21  24
ENDBRANCH  18  21
ENDBRANCH   4  18
ENDBRANCH   3   4
TORSDOF 9
ENDMDL
