MODEL 1
REMARK VINA RESULT: -6.706549605      0.000      0.000
REMARK  8 active torsions:
REMARK  status: ('A' for Active; 'I' for Inactive)
REMARK    1  A    between atoms: C2_2  and  N1_3 
REMARK    2  A    between atoms: C3_5  and  C4_7 
REMARK    3  A    between atoms: C4_7  and  N3_8 
REMARK    4  A    between atoms: N3_8  and  C7_11 
REMARK    5  A    between atoms: C7_11  and  C8_12 
REMARK    6  A    between atoms: C8_12  and  N4_13 
REMARK    7  A    between atoms: C15_21  and  O1_22 
REMARK    8  A    between atoms: C16_24  and  O2_25 
ROOT
HETATM    1  N4  UNL     1      16.434 -12.978  20.721  1.00  0.00    -0.036 N 
HETATM    2  C9  UNL     1      15.531 -13.849  19.950  1.00  0.00     0.275 C 
HETATM    3  C10 UNL     1      16.323 -13.252  22.137  1.00  0.00     0.267 C 
HETATM    4  C11 UNL     1      17.751 -13.350  22.630  1.00  0.00     0.267 C 
HETATM    5  N5  UNL     1      18.400 -13.894  21.425  1.00  0.00    -0.037 N 
HETATM    6  C12 UNL     1      18.036 -15.322  21.447  1.00  0.00     0.275 C 
HETATM    7  C13 UNL     1      19.810 -13.855  21.503  1.00  0.00     0.242 C 
HETATM    8  C14 UNL     1      20.518 -12.698  20.909  1.00  0.00     0.062 C 
HETATM    9  C15 UNL     1      19.946 -12.504  19.497  1.00  0.00     0.152 C 
HETATM   10  C16 UNL     1      18.504 -12.047  19.774  1.00  0.00     0.206 C 
HETATM   11  C17 UNL     1      17.778 -13.246  20.318  1.00  0.00     0.421 C 
ENDROOT
BRANCH   1  12
HETATM   12  C8  UNL     1      15.981 -11.636  20.507  1.00  0.00     0.267 C 
BRANCH  12  13
HETATM   13  C7  UNL     1      14.783 -11.304  21.368  1.00  0.00     0.265 C 
BRANCH  13  14
HETATM   14  N3  UNL     1      13.782 -10.532  20.681  1.00  0.00    -0.067 N 
HETATM   15  C5  UNL     1      13.882 -10.629  19.240  1.00  0.00     0.272 C 
HETATM   16  C6  UNL     1      13.868  -9.127  21.028  1.00  0.00     0.272 C 
BRANCH  14  17
HETATM   17  C4  UNL     1      12.435 -10.970  21.001  1.00  0.00     0.308 C 
BRANCH  17  18
HETATM   18  C3  UNL     1      11.995 -10.647  22.359  1.00  0.00     0.115 C 
HETATM   19  N1  UNL     1      11.803  -9.431  22.707  1.00  0.00    -0.381 N 
ATOM     20  H1  UNL     1      11.966  -8.703  22.011  1.00  0.00     0.160 HD
HETATM   21  N2  UNL     1      11.775 -11.673  23.307  1.00  0.00    -0.086 NA
BRANCH  19  22
HETATM   22  C2  UNL     1      11.370  -9.021  24.023  1.00  0.00     0.116 C 
HETATM   23  C1  UNL     1      11.836  -7.630  24.383  1.00  0.00     0.026 C 
ENDBRANCH  19  22
ENDBRANCH  17  18
ENDBRANCH  14  17
ENDBRANCH  13  14
ENDBRANCH  12  13
ENDBRANCH   1  12
BRANCH  10  24
HETATM   24  O2  UNL     1      18.613 -10.992  20.644  1.00  0.00    -0.389 OA
ATOM     25  H2  UNL     1      18.173 -10.266  20.219  1.00  0.00     0.210 HD
ENDBRANCH  10  24
BRANCH   9  26
HETATM   26  O1  UNL     1      20.660 -11.559  18.802  1.00  0.00    -0.393 OA
ATOM     27  H1  UNL     1      20.543 -10.696  19.181  1.00  0.00     0.210 HD
ENDBRANCH   9  26
TORSDOF 8
ENDMDL
MODEL 2
REMARK VINA RESULT: -6.630092756      2.804      6.861
REMARK  8 active torsions:
REMARK  status: ('A' for Active; 'I' for Inactive)
REMARK    1  A    between atoms: C2_2  and  N1_3 
REMARK    2  A    between atoms: C3_5  and  C4_7 
REMARK    3  A    between atoms: C4_7  and  N3_8 
REMARK    4  A    between atoms: N3_8  and  C7_11 
REMARK    5  A    between atoms: C7_11  and  C8_12 
REMARK    6  A    between atoms: C8_12  and  N4_13 
REMARK    7  A    between atoms: C15_21  and  O1_22 
REMARK    8  A    between atoms: C16_24  and  O2_25 
ROOT
HETATM    1  N4  UNL     1      15.545 -13.710  19.781  1.00  0.00    -0.036 N 
HETATM    2  C9  UNL     1      15.374 -14.703  18.706  1.00  0.00     0.275 C 
HETATM    3  C10 UNL     1      16.624 -12.798  19.467  1.00  0.00     0.267 C 
HETATM    4  C11 UNL     1      16.069 -11.420  19.757  1.00  0.00     0.267 C 
HETATM    5  N5  UNL     1      14.651 -11.642  19.428  1.00  0.00    -0.037 N 
HETATM    6  C12 UNL     1      14.625 -11.611  17.954  1.00  0.00     0.275 C 
HETATM    7  C13 UNL     1      13.821 -10.579  19.849  1.00  0.00     0.242 C 
HETATM    8  C14 UNL     1      13.149 -10.688  21.164  1.00  0.00     0.062 C 
HETATM    9  C15 UNL     1      12.490 -12.075  21.213  1.00  0.00     0.152 C 
HETATM   10  C16 UNL     1      13.700 -13.024  21.254  1.00  0.00     0.206 C 
HETATM   11  C17 UNL     1      14.340 -12.952  19.896  1.00  0.00     0.421 C 
ENDROOT
BRANCH   1  12
HETATM   12  C8  UNL     1      15.928 -14.442  20.950  1.00  0.00     0.267 C 
BRANCH  12  13
HETATM   13  C7  UNL     1      17.376 -14.876  20.891  1.00  0.00     0.265 C 
BRANCH  13  14
HETATM   14  N3  UNL     1      17.981 -15.021  22.189  1.00  0.00    -0.067 N 
HETATM   15  C5  UNL     1      17.504 -16.182  22.910  1.00  0.00     0.272 C 
HETATM   16  C6  UNL     1      17.731 -13.860  23.021  1.00  0.00     0.272 C 
BRANCH  14  17
HETATM   17  C4  UNL     1      19.422 -15.187  22.107  1.00  0.00     0.308 C 
BRANCH  17  18
HETATM   18  C3  UNL     1      20.156 -13.974  21.745  1.00  0.00     0.115 C 
HETATM   19  N1  UNL     1      19.948 -13.399  20.621  1.00  0.00    -0.381 N 
ATOM     20  H1  UNL     1      19.258 -13.814  19.994  1.00  0.00     0.160 HD
HETATM   21  N2  UNL     1      21.109 -13.418  22.631  1.00  0.00    -0.086 NA
BRANCH  19  22
HETATM   22  C2  UNL     1      20.626 -12.202  20.182  1.00  0.00     0.116 C 
HETATM   23  C1  UNL     1      20.333 -11.862  18.739  1.00  0.00     0.026 C 
ENDBRANCH  19  22
ENDBRANCH  17  18
ENDBRANCH  14  17
ENDBRANCH  13  14
ENDBRANCH  12  13
ENDBRANCH   1  12
BRANCH  10  24
HETATM   24  O2  UNL     1      14.484 -12.576  22.288  1.00  0.00    -0.389 OA
ATOM     25  H2  UNL     1      14.785 -11.715  22.023  1.00  0.00     0.210 HD
ENDBRANCH  10  24
BRANCH   9  26
HETATM   26  O1  UNL     1      11.697 -12.205  22.326  1.00  0.00    -0.393 OA
ATOM     27  H1  UNL     1      11.895 -13.008  22.794  1.00  0.00     0.210 HD
ENDBRANCH   9  26
TORSDOF 8
ENDMDL
MODEL 3
REMARK VINA RESULT: -6.476394609      2.936      6.827
REMARK  8 active torsions:
REMARK  status: ('A' for Active; 'I' for Inactive)
REMARK    1  A    between atoms: C2_2  and  N1_3 
REMARK    2  A    between atoms: C3_5  and  C4_7 
REMARK    3  A    between atoms: C4_7  and  N3_8 
REMARK    4  A    between atoms: N3_8  and  C7_11 
REMARK    5  A    between atoms: C7_11  and  C8_12 
REMARK    6  A    between atoms: C8_12  and  N4_13 
REMARK    7  A    between atoms: C15_21  and  O1_22 
REMARK    8  A    between atoms: C16_24  and  O2_25 
ROOT
HETATM    1  N4  UNL     1      15.598 -13.706  19.690  1.00  0.00    -0.036 N 
HETATM    2  C9  UNL     1      15.416 -14.651  18.575  1.00  0.00     0.275 C 
HETATM    3  C10 UNL     1      16.677 -12.784  19.408  1.00  0.00     0.267 C 
HETATM    4  C11 UNL     1      16.128 -11.418  19.761  1.00  0.00     0.267 C 
HETATM    5  N5  UNL     1      14.707 -11.622  19.434  1.00  0.00    -0.037 N 
HETATM    6  C12 UNL     1      14.671 -11.527  17.963  1.00  0.00     0.275 C 
HETATM    7  C13 UNL     1      13.884 -10.576  19.907  1.00  0.00     0.242 C 
HETATM    8  C14 UNL     1      13.221 -10.740  21.220  1.00  0.00     0.062 C 
HETATM    9  C15 UNL     1      12.559 -12.125  21.215  1.00  0.00     0.152 C 
HETATM   10  C16 UNL     1      13.766 -13.079  21.206  1.00  0.00     0.206 C 
HETATM   11  C17 UNL     1      14.395 -12.951  19.847  1.00  0.00     0.421 C 
ENDROOT
BRANCH   1  12
HETATM   12  C8  UNL     1      15.987 -14.489  20.824  1.00  0.00     0.267 C 
BRANCH  12  13
HETATM   13  C7  UNL     1      17.478 -14.418  21.070  1.00  0.00     0.265 C 
BRANCH  13  14
HETATM   14  N3  UNL     1      17.860 -14.851  22.388  1.00  0.00    -0.067 N 
HETATM   15  C5  UNL     1      17.076 -15.971  22.867  1.00  0.00     0.272 C 
HETATM   16  C6  UNL     1      17.724 -13.780  23.356  1.00  0.00     0.272 C 
BRANCH  14  17
HETATM   17  C4  UNL     1      19.240 -15.301  22.439  1.00  0.00     0.308 C 
BRANCH  17  18
HETATM   18  C3  UNL     1      20.189 -14.304  22.937  1.00  0.00     0.115 C 
HETATM   19  N1  UNL     1      20.465 -14.235  24.184  1.00  0.00    -0.381 N 
ATOM     20  H1  UNL     1      20.004 -14.894  24.812  1.00  0.00     0.160 HD
HETATM   21  N2  UNL     1      20.815 -13.401  22.046  1.00  0.00    -0.086 NA
BRANCH  19  22
HETATM   22  C2  UNL     1      21.387 -13.284  24.761  1.00  0.00     0.116 C 
HETATM   23  C1  UNL     1      20.767 -12.474  25.875  1.00  0.00     0.026 C 
ENDBRANCH  19  22
ENDBRANCH  17  18
ENDBRANCH  14  17
ENDBRANCH  13  14
ENDBRANCH  12  13
ENDBRANCH   1  12
BRANCH  10  24
HETATM   24  O2  UNL     1      14.558 -12.678  22.252  1.00  0.00    -0.389 OA
ATOM     25  H2  UNL     1      14.491 -13.368  22.900  1.00  0.00     0.210 HD
ENDBRANCH  10  24
BRANCH   9  26
HETATM   26  O1  UNL     1      11.773 -12.302  22.327  1.00  0.00    -0.393 OA
ATOM     27  H1  UNL     1      11.773 -13.210  22.604  1.00  0.00     0.210 HD
ENDBRANCH   9  26
TORSDOF 8
ENDMDL
MODEL 4
REMARK VINA RESULT: -6.436352301      2.447      6.618
REMARK  8 active torsions:
REMARK  status: ('A' for Active; 'I' for Inactive)
REMARK    1  A    between atoms: C2_2  and  N1_3 
REMARK    2  A    between atoms: C3_5  and  C4_7 
REMARK    3  A    between atoms: C4_7  and  N3_8 
REMARK    4  A    between atoms: N3_8  and  C7_11 
REMARK    5  A    between atoms: C7_11  and  C8_12 
REMARK    6  A    between atoms: C8_12  and  N4_13 
REMARK    7  A    between atoms: C15_21  and  O1_22 
REMARK    8  A    between atoms: C16_24  and  O2_25 
ROOT
HETATM    1  N4  UNL     1      16.368 -13.122  21.151  1.00  0.00    -0.036 N 
HETATM    2  C9  UNL     1      16.625 -13.638  22.507  1.00  0.00     0.275 C 
HETATM    3  C10 UNL     1      15.948 -14.190  20.269  1.00  0.00     0.267 C 
HETATM    4  C11 UNL     1      14.742 -13.641  19.537  1.00  0.00     0.267 C 
HETATM    5  N5  UNL     1      14.191 -12.758  20.579  1.00  0.00    -0.037 N 
HETATM    6  C12 UNL     1      13.514 -13.688  21.502  1.00  0.00     0.275 C 
HETATM    7  C13 UNL     1      13.181 -11.901  20.088  1.00  0.00     0.242 C 
HETATM    8  C14 UNL     1      13.562 -10.537  19.657  1.00  0.00     0.062 C 
HETATM    9  C15 UNL     1      14.422  -9.939  20.781  1.00  0.00     0.152 C 
HETATM   10  C16 UNL     1      15.699 -10.795  20.724  1.00  0.00     0.206 C 
HETATM   11  C17 UNL     1      15.314 -12.161  21.222  1.00  0.00     0.421 C 
ENDROOT
BRANCH   1  12
HETATM   12  C8  UNL     1      17.621 -12.630  20.662  1.00  0.00     0.267 C 
BRANCH  12  13
HETATM   13  C7  UNL     1      18.707 -12.721  21.712  1.00  0.00     0.265 C 
BRANCH  13  14
HETATM   14  N3  UNL     1      19.951 -13.236  21.204  1.00  0.00    -0.067 N 
HETATM   15  C5  UNL     1      20.288 -12.714  19.896  1.00  0.00     0.272 C 
HETATM   16  C6  UNL     1      19.920 -14.683  21.099  1.00  0.00     0.272 C 
BRANCH  14  17
HETATM   17  C4  UNL     1      21.076 -12.892  22.054  1.00  0.00     0.308 C 
BRANCH  17  18
HETATM   18  C3  UNL     1      21.043 -13.499  23.386  1.00  0.00     0.115 C 
HETATM   19  N1  UNL     1      20.296 -13.011  24.303  1.00  0.00    -0.381 N 
ATOM     20  H1  UNL     1      19.731 -12.193  24.074  1.00  0.00     0.160 HD
HETATM   21  N2  UNL     1      21.836 -14.633  23.679  1.00  0.00    -0.086 NA
BRANCH  19  22
HETATM   22  C2  UNL     1      20.201 -13.544  25.643  1.00  0.00     0.116 C 
HETATM   23  C1  UNL     1      20.817 -12.632  26.677  1.00  0.00     0.026 C 
ENDBRANCH  19  22
ENDBRANCH  17  18
ENDBRANCH  14  17
ENDBRANCH  13  14
ENDBRANCH  12  13
ENDBRANCH   1  12
BRANCH  10  24
HETATM   24  O2  UNL     1      16.113 -10.750  19.417  1.00  0.00    -0.389 OA
ATOM     25  H2  UNL     1      17.013 -11.053  19.426  1.00  0.00     0.210 HD
ENDBRANCH  10  24
BRANCH   9  26
HETATM   26  O1  UNL     1      14.683  -8.611  20.550  1.00  0.00    -0.393 OA
ATOM     27  H1  UNL     1      14.314  -8.066  21.235  1.00  0.00     0.210 HD
ENDBRANCH   9  26
TORSDOF 8
ENDMDL
MODEL 5
REMARK VINA RESULT: -6.359286095      1.341      2.159
REMARK  8 active torsions:
REMARK  status: ('A' for Active; 'I' for Inactive)
REMARK    1  A    between atoms: C2_2  and  N1_3 
REMARK    2  A    between atoms: C3_5  and  C4_7 
REMARK    3  A    between atoms: C4_7  and  N3_8 
REMARK    4  A    between atoms: N3_8  and  C7_11 
REMARK    5  A    between atoms: C7_11  and  C8_12 
REMARK    6  A    between atoms: C8_12  and  N4_13 
REMARK    7  A    between atoms: C15_21  and  O1_22 
REMARK    8  A    between atoms: C16_24  and  O2_25 
ROOT
HETATM    1  N4  UNL     1      17.147 -14.202  22.190  1.00  0.00    -0.036 N 
HETATM    2  C9  UNL     1      16.495 -15.462  21.797  1.00  0.00     0.275 C 
HETATM    3  C10 UNL     1      17.377 -14.170  23.619  1.00  0.00     0.267 C 
HETATM    4  C11 UNL     1      18.808 -13.702  23.774  1.00  0.00     0.267 C 
HETATM    5  N5  UNL     1      19.398 -14.272  22.551  1.00  0.00    -0.037 N 
HETATM    6  C12 UNL     1      19.571 -15.699  22.879  1.00  0.00     0.275 C 
HETATM    7  C13 UNL     1      20.695 -13.777  22.290  1.00  0.00     0.242 C 
HETATM    8  C14 UNL     1      20.839 -12.622  21.375  1.00  0.00     0.062 C 
HETATM    9  C15 UNL     1      20.009 -12.942  20.122  1.00  0.00     0.152 C 
HETATM   10  C16 UNL     1      18.565 -12.909  20.653  1.00  0.00     0.206 C 
HETATM   11  C17 UNL     1      18.412 -14.119  21.532  1.00  0.00     0.421 C 
ENDROOT
BRANCH   1  12
HETATM   12  C8  UNL     1      16.220 -13.154  21.881  1.00  0.00     0.267 C 
BRANCH  12  13
HETATM   13  C7  UNL     1      15.111 -13.637  20.973  1.00  0.00     0.265 C 
BRANCH  13  14
HETATM   14  N3  UNL     1      14.423 -12.570  20.296  1.00  0.00    -0.067 N 
HETATM   15  C5  UNL     1      12.987 -12.620  20.471  1.00  0.00     0.272 C 
HETATM   16  C6  UNL     1      14.688 -12.592  18.870  1.00  0.00     0.272 C 
BRANCH  14  17
HETATM   17  C4  UNL     1      14.822 -11.262  20.784  1.00  0.00     0.308 C 
BRANCH  17  18
HETATM   18  C3  UNL     1      13.720 -10.317  20.969  1.00  0.00     0.115 C 
HETATM   19  N1  UNL     1      13.055 -10.300  22.062  1.00  0.00    -0.381 N 
ATOM     20  H1  UNL     1      13.319 -10.963  22.791  1.00  0.00     0.160 HD
HETATM   21  N2  UNL     1      13.372  -9.408  19.942  1.00  0.00    -0.086 NA
BRANCH  19  22
HETATM   22  C2  UNL     1      11.954  -9.404  22.330  1.00  0.00     0.116 C 
HETATM   23  C1  UNL     1      11.304  -9.664  23.669  1.00  0.00     0.026 C 
ENDBRANCH  19  22
ENDBRANCH  17  18
ENDBRANCH  14  17
ENDBRANCH  13  14
ENDBRANCH  12  13
ENDBRANCH   1  12
BRANCH  10  24
HETATM   24  O2  UNL     1      18.438 -11.705  21.298  1.00  0.00    -0.389 OA
ATOM     25  H2  UNL     1      17.933 -11.888  22.082  1.00  0.00     0.210 HD
ENDBRANCH  10  24
BRANCH   9  26
HETATM   26  O1  UNL     1      20.216 -12.003  19.141  1.00  0.00    -0.393 OA
ATOM     27  H1  UNL     1      19.866 -11.158  19.397  1.00  0.00     0.210 HD
ENDBRANCH   9  26
TORSDOF 8
ENDMDL
