MODEL 1
REMARK VINA RESULT: -8.095839300      0.000      0.000
REMARK  5 active torsions:
REMARK  status: ('A' for Active; 'I' for Inactive)
REMARK    1  A    between atoms: C2_2  and  C3_4 
REMARK    2  A    between atoms: C5_8  and  S1_9 
REMARK    3  A    between atoms: C7_12  and  O3_13 
REMARK    4  A    between atoms: C8_15  and  O4_16 
REMARK    5  A    between atoms: C9_18  and  O5_19 
ROOT
HETATM    1  C3  UNL     1      53.542  -6.103  43.034  1.00  0.00     0.238 C 
HETATM    2  C4  UNL     1      52.181  -5.703  42.547  1.00  0.00     0.109 C 
HETATM    3  N1  UNL     1      51.119  -5.396  42.195  1.00  0.00    -0.193 NA
HETATM    4  O2  UNL     1      53.281  -6.771  44.215  1.00  0.00    -0.337 OA
HETATM    5  C5  UNL     1      53.070  -8.123  44.077  1.00  0.00     0.231 C 
HETATM    6  C7  UNL     1      54.314  -8.770  43.580  1.00  0.00     0.189 C 
HETATM    7  C8  UNL     1      54.559  -8.274  42.172  1.00  0.00     0.183 C 
HETATM    8  C9  UNL     1      54.285  -6.833  41.985  1.00  0.00     0.206 C 
ENDROOT
BRANCH   1   9
HETATM    9  C2  UNL     1      54.206  -4.826  43.363  1.00  0.00     0.174 C 
HETATM   10  C1  UNL     1      54.875  -4.586  44.668  1.00  0.00     0.095 C 
HETATM   11  O1  UNL     1      54.216  -3.932  42.531  1.00  0.00    -0.294 OA
ENDBRANCH   1   9
BRANCH   8  12
HETATM   12  O5  UNL     1      55.516  -6.225  41.640  1.00  0.00    -0.388 OA
ATOM     13  H5  UNL     1      55.879  -6.544  40.822  1.00  0.00     0.210 HD
ENDBRANCH   8  12
BRANCH   5  14
HETATM   14  S1  UNL     1      51.732  -8.566  42.944  1.00  0.00    -0.016 SA
HETATM   15  C6  UNL     1      51.073 -10.162  43.282  1.00  0.00     0.136 C 
HETATM   16  N2  UNL     1      50.659 -11.231  43.481  1.00  0.00    -0.184 NA
ENDBRANCH   5  14
BRANCH   7  17
HETATM   17  O4  UNL     1      53.750  -9.064  41.336  1.00  0.00    -0.390 OA
ATOM     18  H4  UNL     1      54.342  -9.493  40.730  1.00  0.00     0.210 HD
ENDBRANCH   7  17
BRANCH   6  19
HETATM   19  O3  UNL     1      54.181 -10.171  43.521  1.00  0.00    -0.389 OA
ATOM     20  H3  UNL     1      55.009 -10.593  43.328  1.00  0.00     0.210 HD
ENDBRANCH   6  19
TORSDOF 5
ENDMDL
MODEL 2
REMARK VINA RESULT: -7.533359751      2.459      4.603
REMARK  5 active torsions:
REMARK  status: ('A' for Active; 'I' for Inactive)
REMARK    1  A    between atoms: C2_2  and  C3_4 
REMARK    2  A    between atoms: C5_8  and  S1_9 
REMARK    3  A    between atoms: C7_12  and  O3_13 
REMARK    4  A    between atoms: C8_15  and  O4_16 
REMARK    5  A    between atoms: C9_18  and  O5_19 
ROOT
HETATM    1  C3  UNL     1      54.104  -6.156  42.701  1.00  0.00     0.238 C 
HETATM    2  C4  UNL     1      52.743  -6.779  42.812  1.00  0.00     0.109 C 
HETATM    3  N1  UNL     1      51.687  -7.252  42.873  1.00  0.00    -0.193 NA
HETATM    4  O2  UNL     1      53.969  -5.265  41.653  1.00  0.00    -0.337 OA
HETATM    5  C5  UNL     1      53.559  -4.004  42.019  1.00  0.00     0.231 C 
HETATM    6  C7  UNL     1      54.598  -3.375  42.878  1.00  0.00     0.189 C 
HETATM    7  C8  UNL     1      54.655  -4.152  44.175  1.00  0.00     0.183 C 
HETATM    8  C9  UNL     1      54.546  -5.617  44.005  1.00  0.00     0.206 C 
ENDROOT
BRANCH   1   9
HETATM    9  C2  UNL     1      54.980  -7.259  42.258  1.00  0.00     0.174 C 
HETATM   10  C1  UNL     1      54.605  -8.688  42.409  1.00  0.00     0.095 C 
HETATM   11  O1  UNL     1      56.053  -6.990  41.740  1.00  0.00    -0.294 OA
ENDBRANCH   1   9
BRANCH   8  12
HETATM   12  O5  UNL     1      55.767  -6.172  44.458  1.00  0.00    -0.388 OA
ATOM     13  H5  UNL     1      56.506  -5.969  43.896  1.00  0.00     0.210 HD
ENDBRANCH   8  12
BRANCH   5  14
HETATM   14  S1  UNL     1      51.995  -3.953  42.926  1.00  0.00    -0.016 SA
HETATM   15  C6  UNL     1      50.620  -4.362  41.907  1.00  0.00     0.136 C 
HETATM   16  N2  UNL     1      49.706  -4.597  41.227  1.00  0.00    -0.184 NA
ENDBRANCH   5  14
BRANCH   7  17
HETATM   17  O4  UNL     1      53.614  -3.649  44.974  1.00  0.00    -0.390 OA
ATOM     18  H4  UNL     1      54.030  -3.282  45.745  1.00  0.00     0.210 HD
ENDBRANCH   7  17
BRANCH   6  19
HETATM   19  O3  UNL     1      54.271  -2.042  43.193  1.00  0.00    -0.389 OA
ATOM     20  H3  UNL     1      53.334  -1.927  43.299  1.00  0.00     0.210 HD
ENDBRANCH   6  19
TORSDOF 5
ENDMDL
MODEL 3
REMARK VINA RESULT: -7.454301329      2.062      2.456
REMARK  5 active torsions:
REMARK  status: ('A' for Active; 'I' for Inactive)
REMARK    1  A    between atoms: C2_2  and  C3_4 
REMARK    2  A    between atoms: C5_8  and  S1_9 
REMARK    3  A    between atoms: C7_12  and  O3_13 
REMARK    4  A    between atoms: C8_15  and  O4_16 
REMARK    5  A    between atoms: C9_18  and  O5_19 
ROOT
HETATM    1  C3  UNL     1      52.468  -6.769  42.966  1.00  0.00     0.238 C 
HETATM    2  C4  UNL     1      51.589  -7.963  42.740  1.00  0.00     0.109 C 
HETATM    3  N1  UNL     1      50.909  -8.891  42.591  1.00  0.00    -0.193 NA
HETATM    4  O2  UNL     1      53.018  -7.002  44.212  1.00  0.00    -0.337 OA
HETATM    5  C5  UNL     1      54.197  -7.710  44.198  1.00  0.00     0.231 C 
HETATM    6  C7  UNL     1      55.243  -6.917  43.499  1.00  0.00     0.189 C 
HETATM    7  C8  UNL     1      54.842  -6.807  42.044  1.00  0.00     0.183 C 
HETATM    8  C9  UNL     1      53.398  -6.576  41.833  1.00  0.00     0.206 C 
ENDROOT
BRANCH   1   9
HETATM    9  C2  UNL     1      51.529  -5.636  43.082  1.00  0.00     0.174 C 
HETATM   10  C1  UNL     1      51.507  -4.732  44.260  1.00  0.00     0.095 C 
HETATM   11  O1  UNL     1      50.742  -5.424  42.172  1.00  0.00    -0.294 OA
ENDBRANCH   1   9
BRANCH   8  12
HETATM   12  O5  UNL     1      53.274  -5.308  41.214  1.00  0.00    -0.388 OA
ATOM     13  H5  UNL     1      54.049  -4.766  41.306  1.00  0.00     0.210 HD
ENDBRANCH   8  12
BRANCH   5  14
HETATM   14  S1  UNL     1      54.098  -9.322  43.384  1.00  0.00    -0.016 SA
HETATM   15  C6  UNL     1      53.211 -10.500  44.344  1.00  0.00     0.136 C 
HETATM   16  N2  UNL     1      52.655 -11.290  44.992  1.00  0.00    -0.184 NA
ENDBRANCH   5  14
BRANCH   7  17
HETATM   17  O4  UNL     1      55.266  -8.001  41.435  1.00  0.00    -0.390 OA
ATOM     18  H4  UNL     1      56.134  -7.826  41.091  1.00  0.00     0.210 HD
ENDBRANCH   7  17
BRANCH   6  19
HETATM   19  O3  UNL     1      56.497  -7.556  43.549  1.00  0.00    -0.389 OA
ATOM     20  H3  UNL     1      57.188  -6.950  43.791  1.00  0.00     0.210 HD
ENDBRANCH   6  19
TORSDOF 5
ENDMDL
MODEL 4
REMARK VINA RESULT: -7.391621889      2.774      5.050
REMARK  5 active torsions:
REMARK  status: ('A' for Active; 'I' for Inactive)
REMARK    1  A    between atoms: C2_2  and  C3_4 
REMARK    2  A    between atoms: C5_8  and  S1_9 
REMARK    3  A    between atoms: C7_12  and  O3_13 
REMARK    4  A    between atoms: C8_15  and  O4_16 
REMARK    5  A    between atoms: C9_18  and  O5_19 
ROOT
HETATM    1  C3  UNL     1      54.088  -7.097  43.129  1.00  0.00     0.238 C 
HETATM    2  C4  UNL     1      54.720  -6.638  44.410  1.00  0.00     0.109 C 
HETATM    3  N1  UNL     1      55.186  -6.273  45.407  1.00  0.00    -0.193 NA
HETATM    4  O2  UNL     1      52.949  -6.321  43.033  1.00  0.00    -0.337 OA
HETATM    5  C5  UNL     1      53.121  -5.126  42.373  1.00  0.00     0.231 C 
HETATM    6  C7  UNL     1      53.482  -5.391  40.955  1.00  0.00     0.189 C 
HETATM    7  C8  UNL     1      54.850  -6.038  40.941  1.00  0.00     0.183 C 
HETATM    8  C9  UNL     1      55.054  -7.036  42.012  1.00  0.00     0.206 C 
ENDROOT
BRANCH   1   9
HETATM    9  C2  UNL     1      53.675  -8.489  43.399  1.00  0.00     0.174 C 
HETATM   10  C1  UNL     1      52.314  -8.995  43.086  1.00  0.00     0.095 C 
HETATM   11  O1  UNL     1      54.483  -9.260  43.892  1.00  0.00    -0.294 OA
ENDBRANCH   1   9
BRANCH   8  12
HETATM   12  O5  UNL     1      55.254  -8.284  41.372  1.00  0.00    -0.388 OA
ATOM     13  H5  UNL     1      56.030  -8.308  40.824  1.00  0.00     0.210 HD
ENDBRANCH   8  12
BRANCH   5  14
HETATM   14  S1  UNL     1      54.400  -4.056  43.073  1.00  0.00    -0.016 SA
HETATM   15  C6  UNL     1      54.084  -2.352  42.768  1.00  0.00     0.136 C 
HETATM   16  N2  UNL     1      53.895  -1.227  42.537  1.00  0.00    -0.184 NA
ENDBRANCH   5  14
BRANCH   7  17
HETATM   17  O4  UNL     1      55.777  -4.985  41.036  1.00  0.00    -0.390 OA
ATOM     18  H4  UNL     1      56.566  -5.292  40.607  1.00  0.00     0.210 HD
ENDBRANCH   7  17
BRANCH   6  19
HETATM   19  O3  UNL     1      53.567  -4.197  40.211  1.00  0.00    -0.389 OA
ATOM     20  H3  UNL     1      52.841  -4.111  39.605  1.00  0.00     0.210 HD
ENDBRANCH   6  19
TORSDOF 5
ENDMDL
MODEL 5
REMARK VINA RESULT: -7.226253711      3.310      5.099
REMARK  5 active torsions:
REMARK  status: ('A' for Active; 'I' for Inactive)
REMARK    1  A    between atoms: C2_2  and  C3_4 
REMARK    2  A    between atoms: C5_8  and  S1_9 
REMARK    3  A    between atoms: C7_12  and  O3_13 
REMARK    4  A    between atoms: C8_15  and  O4_16 
REMARK    5  A    between atoms: C9_18  and  O5_19 
ROOT
HETATM    1  C3  UNL     1      54.194  -6.110  42.375  1.00  0.00     0.238 C 
HETATM    2  C4  UNL     1      55.000  -5.275  41.424  1.00  0.00     0.109 C 
HETATM    3  N1  UNL     1      55.634  -4.618  40.709  1.00  0.00    -0.193 NA
HETATM    4  O2  UNL     1      54.278  -5.416  43.567  1.00  0.00    -0.337 OA
HETATM    5  C5  UNL     1      53.291  -4.476  43.755  1.00  0.00     0.231 C 
HETATM    6  C7  UNL     1      51.970  -5.153  43.839  1.00  0.00     0.189 C 
HETATM    7  C8  UNL     1      51.674  -5.754  42.482  1.00  0.00     0.183 C 
HETATM    8  C9  UNL     1      52.846  -6.378  41.832  1.00  0.00     0.206 C 
ENDROOT
BRANCH   1   9
HETATM    9  C2  UNL     1      54.968  -7.360  42.515  1.00  0.00     0.174 C 
HETATM   10  C1  UNL     1      55.116  -8.068  43.812  1.00  0.00     0.095 C 
HETATM   11  O1  UNL     1      55.502  -7.839  41.526  1.00  0.00    -0.294 OA
ENDBRANCH   1   9
BRANCH   8  12
HETATM   12  O5  UNL     1      52.554  -7.758  41.703  1.00  0.00    -0.388 OA
ATOM     13  H5  UNL     1      51.738  -7.930  41.248  1.00  0.00     0.210 HD
ENDBRANCH   8  12
BRANCH   5  14
HETATM   14  S1  UNL     1      53.184  -3.226  42.453  1.00  0.00    -0.016 SA
HETATM   15  C6  UNL     1      54.257  -1.863  42.748  1.00  0.00     0.136 C 
HETATM   16  N2  UNL     1      54.940  -0.944  42.958  1.00  0.00    -0.184 NA
ENDBRANCH   5  14
BRANCH   7  17
HETATM   17  O4  UNL     1      51.149  -4.709  41.703  1.00  0.00    -0.390 OA
ATOM     18  H4  UNL     1      50.527  -5.113  41.109  1.00  0.00     0.210 HD
ENDBRANCH   7  17
BRANCH   6  19
HETATM   19  O3  UNL     1      50.939  -4.241  44.136  1.00  0.00    -0.389 OA
ATOM     20  H3  UNL     1      50.172  -4.682  44.483  1.00  0.00     0.210 HD
ENDBRANCH   6  19
TORSDOF 5
ENDMDL
