MODEL 1
REMARK VINA RESULT: -7.599835030      0.000      0.000
REMARK  1 active torsions:
REMARK  status: ('A' for Active; 'I' for Inactive)
REMARK    1  A    between atoms: C11_19  and  N5_20 
ROOT
HETATM    1  N1  UNL     1      37.270  -0.374   9.492  1.00  0.00    -0.191 NA
HETATM    2  C1  UNL     1      36.935  -1.345  10.025  1.00  0.00     0.105 C 
HETATM    3  C2  UNL     1      36.521  -2.575  10.681  1.00  0.00     0.112 A 
HETATM    4  C3  UNL     1      35.906  -2.411  11.903  1.00  0.00     0.074 A 
HETATM    5  N2  UNL     1      35.690  -1.126  12.482  1.00  0.00    -0.101 NA
HETATM    6  C4  UNL     1      35.502  -3.568  12.555  1.00  0.00     0.076 A 
HETATM    7  C5  UNL     1      35.725  -4.802  11.969  1.00  0.00     0.106 A 
HETATM    8  N3  UNL     1      36.326  -4.891  10.781  1.00  0.00    -0.328 N 
ATOM      9  H3  UNL     1      36.476  -5.816  10.377  1.00  0.00     0.169 HD
HETATM   10  C6  UNL     1      36.742  -3.818  10.097  1.00  0.00     0.125 A 
HETATM   11  N4  UNL     1      37.382  -3.901   8.836  1.00  0.00    -0.375 N 
ATOM     12  H4  UNL     1      38.098  -3.196   8.657  1.00  0.00     0.161 HD
HETATM   13  C7  UNL     1      37.162  -4.830   7.791  1.00  0.00     0.121 C 
HETATM   14  C8  UNL     1      36.771  -6.213   8.151  1.00  0.00     0.020 C 
HETATM   15  C9  UNL     1      37.933  -6.983   8.716  1.00  0.00     0.012 C 
HETATM   16  C10 UNL     1      37.515  -8.295   9.345  1.00  0.00     0.086 C 
HETATM   17  S1  UNL     1      35.731  -8.374   9.584  1.00  0.00    -0.094 SA
HETATM   18  S2  UNL     1      35.208  -8.480  11.615  1.00  0.00    -0.044 SA
HETATM   19  C11 UNL     1      35.979  -7.231  12.638  1.00  0.00     0.357 C 
HETATM   20  N6  UNL     1      35.297  -5.976  12.673  1.00  0.00    -0.340 N 
ATOM     21  H6  UNL     1      34.449  -5.910  13.236  1.00  0.00     0.164 HD
ENDROOT
BRANCH  19  22
HETATM   22  N5  UNL     1      37.405  -7.054  12.333  1.00  0.00    -0.048 N 
ATOM     23  H53 UNL     1      37.698  -7.673  11.577  1.00  0.00     0.277 HD
ATOM     24  H52 UNL     1      37.575  -6.154  11.883  1.00  0.00     0.277 HD
ATOM     25  H51 UNL     1      37.998  -7.171  13.153  1.00  0.00     0.277 HD
ENDBRANCH  19  22
TORSDOF 1
ENDMDL
MODEL 2
REMARK VINA RESULT: -7.262681599      3.325      5.533
REMARK  1 active torsions:
REMARK  status: ('A' for Active; 'I' for Inactive)
REMARK    1  A    between atoms: C11_19  and  N5_20 
ROOT
HETATM    1  N1  UNL     1      36.027  -9.660  11.515  1.00  0.00    -0.191 NA
HETATM    2  C1  UNL     1      36.253  -8.685  10.931  1.00  0.00     0.105 C 
HETATM    3  C2  UNL     1      36.535  -7.472  10.182  1.00  0.00     0.112 A 
HETATM    4  C3  UNL     1      36.621  -6.322  10.938  1.00  0.00     0.074 A 
HETATM    5  N2  UNL     1      36.448  -6.325  12.353  1.00  0.00    -0.101 NA
HETATM    6  C4  UNL     1      36.888  -5.146  10.250  1.00  0.00     0.076 A 
HETATM    7  C5  UNL     1      37.051  -5.175   8.876  1.00  0.00     0.106 A 
HETATM    8  N3  UNL     1      36.954  -6.323   8.203  1.00  0.00    -0.328 N 
ATOM      9  H3  UNL     1      37.080  -6.309   7.191  1.00  0.00     0.169 HD
HETATM   10  C6  UNL     1      36.700  -7.493   8.802  1.00  0.00     0.125 A 
HETATM   11  N4  UNL     1      36.594  -8.719   8.098  1.00  0.00    -0.375 N 
ATOM     12  H4  UNL     1      35.919  -9.386   8.471  1.00  0.00     0.161 HD
HETATM   13  C7  UNL     1      37.301  -9.141   6.945  1.00  0.00     0.121 C 
HETATM   14  C8  UNL     1      37.691  -8.119   5.947  1.00  0.00     0.020 C 
HETATM   15  C9  UNL     1      36.503  -7.641   5.157  1.00  0.00     0.012 C 
HETATM   16  C10 UNL     1      36.810  -6.413   4.326  1.00  0.00     0.086 C 
HETATM   17  S1  UNL     1      38.369  -5.656   4.816  1.00  0.00    -0.094 SA
HETATM   18  S2  UNL     1      38.100  -3.726   5.601  1.00  0.00    -0.044 SA
HETATM   19  C11 UNL     1      36.859  -3.622   6.884  1.00  0.00     0.357 C 
HETATM   20  N6  UNL     1      37.321  -3.939   8.198  1.00  0.00    -0.340 N 
ATOM     21  H6  UNL     1      37.882  -3.241   8.687  1.00  0.00     0.164 HD
ENDROOT
BRANCH  19  22
HETATM   22  N5  UNL     1      35.641  -4.374   6.552  1.00  0.00    -0.048 N 
ATOM     23  H53 UNL     1      34.951  -4.305   7.301  1.00  0.00     0.277 HD
ATOM     24  H52 UNL     1      35.118  -3.917   5.806  1.00  0.00     0.277 HD
ATOM     25  H51 UNL     1      35.833  -5.349   6.322  1.00  0.00     0.277 HD
ENDBRANCH  19  22
TORSDOF 1
ENDMDL
MODEL 3
REMARK VINA RESULT: -7.252823013      1.683      3.781
REMARK  1 active torsions:
REMARK  status: ('A' for Active; 'I' for Inactive)
REMARK    1  A    between atoms: C11_19  and  N5_20 
ROOT
HETATM    1  N1  UNL     1      35.663  -1.289  12.910  1.00  0.00    -0.191 NA
HETATM    2  C1  UNL     1      36.013  -1.834  11.950  1.00  0.00     0.105 C 
HETATM    3  C2  UNL     1      36.446  -2.534  10.752  1.00  0.00     0.112 A 
HETATM    4  C3  UNL     1      36.907  -1.727   9.734  1.00  0.00     0.074 A 
HETATM    5  N2  UNL     1      36.957  -0.307   9.850  1.00  0.00    -0.101 NA
HETATM    6  C4  UNL     1      37.326  -2.368   8.576  1.00  0.00     0.076 A 
HETATM    7  C5  UNL     1      37.266  -3.748   8.492  1.00  0.00     0.106 A 
HETATM    8  N3  UNL     1      36.809  -4.471   9.516  1.00  0.00    -0.328 N 
ATOM      9  H3  UNL     1      36.777  -5.487   9.421  1.00  0.00     0.169 HD
HETATM   10  C6  UNL     1      36.389  -3.921  10.661  1.00  0.00     0.125 A 
HETATM   11  N4  UNL     1      35.900  -4.679  11.755  1.00  0.00    -0.375 N 
ATOM     12  H4  UNL     1      35.156  -4.242  12.298  1.00  0.00     0.161 HD
HETATM   13  C7  UNL     1      36.307  -5.962  12.193  1.00  0.00     0.121 C 
HETATM   14  C8  UNL     1      36.762  -6.940  11.178  1.00  0.00     0.020 C 
HETATM   15  C9  UNL     1      35.608  -7.478  10.376  1.00  0.00     0.012 C 
HETATM   16  C10 UNL     1      36.055  -8.262   9.161  1.00  0.00     0.086 C 
HETATM   17  S1  UNL     1      37.803  -7.998   8.810  1.00  0.00    -0.094 SA
HETATM   18  S2  UNL     1      38.104  -7.046   6.962  1.00  0.00    -0.044 SA
HETATM   19  C11 UNL     1      37.130  -5.564   6.732  1.00  0.00     0.357 C 
HETATM   20  N6  UNL     1      37.704  -4.375   7.279  1.00  0.00    -0.340 N 
ATOM     21  H6  UNL     1      38.477  -3.942   6.772  1.00  0.00     0.164 HD
ENDROOT
BRANCH  19  22
HETATM   22  N5  UNL     1      35.737  -5.731   7.168  1.00  0.00    -0.048 N 
ATOM     23  H53 UNL     1      35.258  -6.433   6.604  1.00  0.00     0.277 HD
ATOM     24  H52 UNL     1      35.689  -6.191   8.077  1.00  0.00     0.277 HD
ATOM     25  H51 UNL     1      35.221  -4.852   7.174  1.00  0.00     0.277 HD
ENDBRANCH  19  22
TORSDOF 1
ENDMDL
MODEL 4
REMARK VINA RESULT: -7.197044128      3.208      5.350
REMARK  1 active torsions:
REMARK  status: ('A' for Active; 'I' for Inactive)
REMARK    1  A    between atoms: C11_19  and  N5_20 
ROOT
HETATM    1  N1  UNL     1      36.442  -8.879   9.606  1.00  0.00    -0.191 NA
HETATM    2  C1  UNL     1      36.579  -7.737   9.743  1.00  0.00     0.105 C 
HETATM    3  C2  UNL     1      36.750  -6.302   9.895  1.00  0.00     0.112 A 
HETATM    4  C3  UNL     1      36.797  -5.851  11.197  1.00  0.00     0.074 A 
HETATM    5  N2  UNL     1      36.687  -6.731  12.314  1.00  0.00    -0.101 NA
HETATM    6  C4  UNL     1      36.957  -4.483  11.375  1.00  0.00     0.076 A 
HETATM    7  C5  UNL     1      37.061  -3.654  10.272  1.00  0.00     0.106 A 
HETATM    8  N3  UNL     1      37.008  -4.154   9.037  1.00  0.00    -0.328 N 
ATOM      9  H3  UNL     1      37.087  -3.515   8.246  1.00  0.00     0.169 HD
HETATM   10  C6  UNL     1      36.855  -5.462   8.792  1.00  0.00     0.125 A 
HETATM   11  N4  UNL     1      36.796  -6.005   7.484  1.00  0.00    -0.375 N 
ATOM     12  H4  UNL     1      36.182  -6.811   7.368  1.00  0.00     0.161 HD
HETATM   13  C7  UNL     1      37.476  -5.579   6.318  1.00  0.00     0.121 C 
HETATM   14  C8  UNL     1      37.757  -4.134   6.156  1.00  0.00     0.020 C 
HETATM   15  C9  UNL     1      36.507  -3.366   5.820  1.00  0.00     0.012 C 
HETATM   16  C10 UNL     1      36.698  -1.867   5.917  1.00  0.00     0.086 C 
HETATM   17  S1  UNL     1      38.227  -1.450   6.774  1.00  0.00    -0.094 SA
HETATM   18  S2  UNL     1      37.871  -0.430   8.576  1.00  0.00    -0.044 SA
HETATM   19  C11 UNL     1      36.683  -1.228   9.649  1.00  0.00     0.357 C 
HETATM   20  N6  UNL     1      37.223  -2.246  10.495  1.00  0.00    -0.340 N 
ATOM     21  H6  UNL     1      37.759  -1.951  11.311  1.00  0.00     0.164 HD
ENDROOT
BRANCH  19  22
HETATM   22  N5  UNL     1      35.502  -1.712   8.921  1.00  0.00    -0.048 N 
ATOM     23  H53 UNL     1      34.786  -0.989   8.861  1.00  0.00     0.277 HD
ATOM     24  H52 UNL     1      35.704  -1.826   7.928  1.00  0.00     0.277 HD
ATOM     25  H51 UNL     1      35.122  -2.571   9.319  1.00  0.00     0.277 HD
ENDBRANCH  19  22
TORSDOF 1
ENDMDL
MODEL 5
REMARK VINA RESULT: -6.995662348      2.825      4.910
REMARK  1 active torsions:
REMARK  status: ('A' for Active; 'I' for Inactive)
REMARK    1  A    between atoms: C11_19  and  N5_20 
ROOT
HETATM    1  N1  UNL     1      35.803  -6.244  12.643  1.00  0.00    -0.191 NA
HETATM    2  C1  UNL     1      36.089  -5.649  11.692  1.00  0.00     0.105 C 
HETATM    3  C2  UNL     1      36.446  -4.919  10.487  1.00  0.00     0.112 A 
HETATM    4  C3  UNL     1      36.521  -3.550  10.630  1.00  0.00     0.074 A 
HETATM    5  N2  UNL     1      36.267  -2.898  11.873  1.00  0.00    -0.101 NA
HETATM    6  C4  UNL     1      36.858  -2.824   9.496  1.00  0.00     0.076 A 
HETATM    7  C5  UNL     1      37.099  -3.484   8.303  1.00  0.00     0.106 A 
HETATM    8  N3  UNL     1      37.011  -4.813   8.232  1.00  0.00    -0.328 N 
ATOM      9  H3  UNL     1      37.194  -5.269   7.338  1.00  0.00     0.169 HD
HETATM   10  C6  UNL     1      36.690  -5.575   9.285  1.00  0.00     0.125 A 
HETATM   11  N4  UNL     1      36.592  -6.988   9.221  1.00  0.00    -0.375 N 
ATOM     12  H4  UNL     1      35.878  -7.408   9.817  1.00  0.00     0.161 HD
HETATM   13  C7  UNL     1      37.351  -7.893   8.442  1.00  0.00     0.121 C 
HETATM   14  C8  UNL     1      37.826  -7.448   7.112  1.00  0.00     0.020 C 
HETATM   15  C9  UNL     1      36.699  -7.392   6.116  1.00  0.00     0.012 C 
HETATM   16  C10 UNL     1      37.087  -6.686   4.833  1.00  0.00     0.086 C 
HETATM   17  S1  UNL     1      38.636  -5.785   5.017  1.00  0.00    -0.094 SA
HETATM   18  S2  UNL     1      38.375  -3.711   4.804  1.00  0.00    -0.044 SA
HETATM   19  C11 UNL     1      37.065  -3.029   5.812  1.00  0.00     0.357 C 
HETATM   20  N6  UNL     1      37.442  -2.702   7.151  1.00  0.00    -0.340 N 
ATOM     21  H6  UNL     1      37.992  -1.855   7.297  1.00  0.00     0.164 HD
ENDROOT
BRANCH  19  22
HETATM   22  N5  UNL     1      35.848  -3.852   5.788  1.00  0.00    -0.048 N 
ATOM     23  H53 UNL     1      35.708  -4.325   6.681  1.00  0.00     0.277 HD
ATOM     24  H52 UNL     1      35.011  -3.269   5.779  1.00  0.00     0.277 HD
ATOM     25  H51 UNL     1      35.840  -4.517   5.016  1.00  0.00     0.277 HD
ENDBRANCH  19  22
TORSDOF 1
ENDMDL
