MODEL 1
REMARK VINA RESULT: -9.036576906      0.000      0.000
REMARK  9 active torsions:
REMARK  status: ('A' for Active; 'I' for Inactive)
REMARK    1  A    between atoms: C4_5  and  C5_6 
REMARK    2  A    between atoms: C5_6  and  N1_7 
REMARK    3  A    between atoms: N1_7  and  C6_9 
REMARK    4  A    between atoms: C12_17  and  N3_18 
REMARK    5  A    between atoms: N3_18  and  C13_20 
REMARK    6  A    between atoms: C13_20  and  C14_21 
REMARK    7  A    between atoms: C14_21  and  N4_22 
REMARK    8  A    between atoms: N4_22  and  C15_23 
REMARK    9  A    between atoms: C16_26  and  C17_27 
ROOT
HETATM    1  N3  UNL     1      45.859  12.258  -3.541  1.00  0.00    -0.383 N 
ATOM      2  H3  UNL     1      45.272  13.075  -3.377  1.00  0.00     0.160 HD
ENDROOT
BRANCH   1   3
HETATM    3  C12 UNL     1      45.710  11.257  -2.771  1.00  0.00     0.042 A 
HETATM    4  C11 UNL     1      45.987   9.971  -3.170  1.00  0.00     0.047 A 
HETATM    5  C10 UNL     1      45.801   8.936  -2.277  1.00  0.00     0.090 A 
HETATM    6  N2  UNL     1      45.354   9.153  -1.019  1.00  0.00    -0.365 N 
HETATM    7  C9  UNL     1      45.086  10.416  -0.634  1.00  0.00     0.044 A 
ATOM      8  H2  UNL     1      45.223   8.374  -0.373  1.00  0.00     0.165 HD
HETATM    9  C8  UNL     1      44.625  10.669   0.654  1.00  0.00     0.033 A 
HETATM   10  C28 UNL     1      45.252  11.488  -1.481  1.00  0.00     0.019 A 
HETATM   11  C7  UNL     1      44.345  11.954   1.066  1.00  0.00     0.031 A 
HETATM   12  C6  UNL     1      44.512  13.040   0.213  1.00  0.00     0.029 A 
HETATM   13  C29 UNL     1      44.967  12.788  -1.061  1.00  0.00     0.045 A 
BRANCH  12  14
HETATM   14  N1  UNL     1      44.226  14.368   0.649  1.00  0.00    -0.386 N 
ATOM     15  H1  UNL     1      44.026  15.073  -0.061  1.00  0.00     0.160 HD
BRANCH  14  16
HETATM   16  C5  UNL     1      44.203  14.766   2.018  1.00  0.00     0.158 C 
BRANCH  16  17
HETATM   17  C4  UNL     1      45.487  15.212   2.566  1.00  0.00    -0.040 A 
HETATM   18  C3  UNL     1      45.740  16.557   2.699  1.00  0.00     0.012 A 
HETATM   19  C2  UNL     1      46.953  16.987   3.208  1.00  0.00     0.043 A 
HETATM   20  C1  UNL     1      47.909  16.063   3.583  1.00  0.00     0.116 A 
HETATM   21  F1  UNL     1      49.087  16.477   4.077  1.00  0.00    -0.206 F 
HETATM   22  C31 UNL     1      47.651  14.701   3.447  1.00  0.00     0.043 A 
HETATM   23  C30 UNL     1      46.436  14.295   2.938  1.00  0.00     0.012 A 
ENDBRANCH  16  17
ENDBRANCH  14  16
ENDBRANCH  12  14
ENDBRANCH   1   3
BRANCH   1  24
HETATM   24  C13 UNL     1      46.807  12.314  -4.634  1.00  0.00     0.179 C 
BRANCH  24  25
HETATM   25  C14 UNL     1      47.987  13.142  -4.135  1.00  0.00     0.177 C 
BRANCH  25  26
HETATM   26  N4  UNL     1      47.875  14.473  -4.180  1.00  0.00    -0.401 NA
BRANCH  26  27
HETATM   27  C15 UNL     1      47.544  15.625  -4.145  1.00  0.00     0.192 A 
HETATM   28  N5  UNL     1      46.227  15.990  -4.348  1.00  0.00    -0.316 N 
HETATM   29  C16 UNL     1      45.782  17.239  -4.324  1.00  0.00     0.118 A 
ATOM     30  H5  UNL     1      45.551  15.248  -4.528  1.00  0.00     0.170 HD
HETATM   31  N7  UNL     1      46.718  18.206  -4.079  1.00  0.00    -0.341 N 
HETATM   32  C22 UNL     1      48.013  17.928  -3.873  1.00  0.00     0.048 A 
ATOM     33  H7  UNL     1      46.418  19.180  -4.053  1.00  0.00     0.167 HD
HETATM   34  C23 UNL     1      48.941  18.936  -3.627  1.00  0.00     0.030 A 
HETATM   35  C27 UNL     1      48.475  16.636  -3.897  1.00  0.00     0.049 A 
HETATM   36  C24 UNL     1      50.284  18.685  -3.411  1.00  0.00     0.002 A 
HETATM   37  C25 UNL     1      50.727  17.381  -3.438  1.00  0.00     0.001 A 
HETATM   38  C26 UNL     1      49.820  16.372  -3.680  1.00  0.00     0.018 A 
BRANCH  29  39
HETATM   39  C17 UNL     1      44.398  17.639  -4.537  1.00  0.00     0.011 A 
HETATM   40  C18 UNL     1      44.070  18.769  -5.253  1.00  0.00     0.032 A 
HETATM   41  C19 UNL     1      42.752  19.152  -5.456  1.00  0.00     0.088 A 
HETATM   42  N6  UNL     1      41.779  18.388  -4.933  1.00  0.00    -0.375 N 
HETATM   43  C20 UNL     1      42.035  17.277  -4.226  1.00  0.00     0.088 A 
ATOM     44  H6  UNL     1      40.808  18.663  -5.079  1.00  0.00     0.164 HD
HETATM   45  C21 UNL     1      43.373  16.891  -4.021  1.00  0.00     0.032 A 
ENDBRANCH  29  39
ENDBRANCH  26  27
ENDBRANCH  25  26
ENDBRANCH  24  25
ENDBRANCH   1  24
TORSDOF 9
ENDMDL
MODEL 2
REMARK VINA RESULT: -8.898188960      1.137      1.384
REMARK  9 active torsions:
REMARK  status: ('A' for Active; 'I' for Inactive)
REMARK    1  A    between atoms: C4_5  and  C5_6 
REMARK    2  A    between atoms: C5_6  and  N1_7 
REMARK    3  A    between atoms: N1_7  and  C6_9 
REMARK    4  A    between atoms: C12_17  and  N3_18 
REMARK    5  A    between atoms: N3_18  and  C13_20 
REMARK    6  A    between atoms: C13_20  and  C14_21 
REMARK    7  A    between atoms: C14_21  and  N4_22 
REMARK    8  A    between atoms: N4_22  and  C15_23 
REMARK    9  A    between atoms: C16_26  and  C17_27 
ROOT
HETATM    1  N3  UNL     1      45.552  11.515  -3.588  1.00  0.00    -0.383 N 
ATOM      2  H3  UNL     1      44.869  12.272  -3.616  1.00  0.00     0.160 HD
ENDROOT
BRANCH   1   3
HETATM    3  C12 UNL     1      45.403  10.616  -2.701  1.00  0.00     0.042 A 
HETATM    4  C11 UNL     1      45.553   9.277  -2.976  1.00  0.00     0.047 A 
HETATM    5  C10 UNL     1      45.377   8.360  -1.961  1.00  0.00     0.090 A 
HETATM    6  N2  UNL     1      45.061   8.742  -0.703  1.00  0.00    -0.365 N 
HETATM    7  C9  UNL     1      44.917  10.056  -0.440  1.00  0.00     0.044 A 
ATOM      8  H2  UNL     1      44.935   8.049   0.035  1.00  0.00     0.165 HD
HETATM    9  C8  UNL     1      44.592  10.478   0.845  1.00  0.00     0.033 A 
HETATM   10  C28 UNL     1      45.080  11.017  -1.413  1.00  0.00     0.019 A 
HETATM   11  C7  UNL     1      44.441  11.818   1.132  1.00  0.00     0.031 A 
HETATM   12  C6  UNL     1      44.605  12.792   0.153  1.00  0.00     0.029 A 
HETATM   13  C29 UNL     1      44.925  12.372  -1.118  1.00  0.00     0.045 A 
BRANCH  12  14
HETATM   14  N1  UNL     1      44.453  14.176   0.460  1.00  0.00    -0.386 N 
ATOM     15  H1  UNL     1      44.475  14.844  -0.311  1.00  0.00     0.160 HD
BRANCH  14  16
HETATM   16  C5  UNL     1      44.271  14.681   1.781  1.00  0.00     0.158 C 
BRANCH  16  17
HETATM   17  C4  UNL     1      45.484  15.177   2.439  1.00  0.00    -0.040 A 
HETATM   18  C3  UNL     1      45.685  16.532   2.560  1.00  0.00     0.012 A 
HETATM   19  C2  UNL     1      46.832  17.009   3.172  1.00  0.00     0.043 A 
HETATM   20  C1  UNL     1      47.772  16.123   3.660  1.00  0.00     0.116 A 
HETATM   21  F1  UNL     1      48.885  16.583   4.254  1.00  0.00    -0.206 F 
HETATM   22  C31 UNL     1      47.565  14.750   3.536  1.00  0.00     0.043 A 
HETATM   23  C30 UNL     1      46.417  14.297   2.923  1.00  0.00     0.012 A 
ENDBRANCH  16  17
ENDBRANCH  14  16
ENDBRANCH  12  14
ENDBRANCH   1   3
BRANCH   1  24
HETATM   24  C13 UNL     1      46.625  11.535  -4.559  1.00  0.00     0.179 C 
BRANCH  24  25
HETATM   25  C14 UNL     1      47.550  12.678  -4.152  1.00  0.00     0.177 C 
BRANCH  25  26
HETATM   26  N4  UNL     1      47.072  13.923  -4.234  1.00  0.00    -0.401 NA
BRANCH  26  27
HETATM   27  C15 UNL     1      46.480  14.962  -4.140  1.00  0.00     0.192 A 
HETATM   28  N5  UNL     1      45.098  14.992  -4.123  1.00  0.00    -0.316 N 
HETATM   29  C16 UNL     1      44.372  16.096  -4.023  1.00  0.00     0.118 A 
ATOM     30  H5  UNL     1      44.604  14.102  -4.192  1.00  0.00     0.170 HD
HETATM   31  N7  UNL     1      45.071  17.268  -3.932  1.00  0.00    -0.341 N 
HETATM   32  C22 UNL     1      46.410  17.319  -3.941  1.00  0.00     0.048 A 
ATOM     33  H7  UNL     1      44.551  18.142  -3.853  1.00  0.00     0.167 HD
HETATM   34  C23 UNL     1      47.092  18.529  -3.847  1.00  0.00     0.030 A 
HETATM   35  C27 UNL     1      47.163  16.176  -4.045  1.00  0.00     0.049 A 
HETATM   36  C24 UNL     1      48.472  18.617  -3.855  1.00  0.00     0.002 A 
HETATM   37  C25 UNL     1      49.209  17.459  -3.959  1.00  0.00     0.001 A 
HETATM   38  C26 UNL     1      48.549  16.252  -4.053  1.00  0.00     0.018 A 
BRANCH  29  39
HETATM   39  C17 UNL     1      42.916  16.143  -4.004  1.00  0.00     0.011 A 
HETATM   40  C18 UNL     1      42.187  16.512  -5.113  1.00  0.00     0.032 A 
HETATM   41  C19 UNL     1      40.801  16.558  -5.095  1.00  0.00     0.088 A 
HETATM   42  N6  UNL     1      40.166  16.228  -3.959  1.00  0.00    -0.375 N 
HETATM   43  C20 UNL     1      40.821  15.861  -2.848  1.00  0.00     0.088 A 
ATOM     44  H6  UNL     1      39.147  16.259  -3.941  1.00  0.00     0.164 HD
HETATM   45  C21 UNL     1      42.228  15.815  -2.867  1.00  0.00     0.032 A 
ENDBRANCH  29  39
ENDBRANCH  26  27
ENDBRANCH  25  26
ENDBRANCH  24  25
ENDBRANCH   1  24
TORSDOF 9
ENDMDL
MODEL 3
REMARK VINA RESULT: -8.895609727      2.831      6.969
REMARK  9 active torsions:
REMARK  status: ('A' for Active; 'I' for Inactive)
REMARK    1  A    between atoms: C4_5  and  C5_6 
REMARK    2  A    between atoms: C5_6  and  N1_7 
REMARK    3  A    between atoms: N1_7  and  C6_9 
REMARK    4  A    between atoms: C12_17  and  N3_18 
REMARK    5  A    between atoms: N3_18  and  C13_20 
REMARK    6  A    between atoms: C13_20  and  C14_21 
REMARK    7  A    between atoms: C14_21  and  N4_22 
REMARK    8  A    between atoms: N4_22  and  C15_23 
REMARK    9  A    between atoms: C16_26  and  C17_27 
ROOT
HETATM    1  N3  UNL     1      46.120  12.172   2.021  1.00  0.00    -0.383 N 
ATOM      2  H3  UNL     1      45.259  12.172   1.475  1.00  0.00     0.160 HD
ENDROOT
BRANCH   1   3
HETATM    3  C12 UNL     1      46.426  13.237   2.645  1.00  0.00     0.042 A 
HETATM    4  C11 UNL     1      47.353  13.256   3.660  1.00  0.00     0.047 A 
HETATM    5  C10 UNL     1      47.633  14.452   4.290  1.00  0.00     0.090 A 
HETATM    6  N2  UNL     1      47.020  15.604   3.936  1.00  0.00    -0.365 N 
HETATM    7  C9  UNL     1      46.113  15.577   2.941  1.00  0.00     0.044 A 
ATOM      8  H2  UNL     1      47.240  16.478   4.414  1.00  0.00     0.165 HD
HETATM    9  C8  UNL     1      45.466  16.747   2.555  1.00  0.00     0.033 A 
HETATM   10  C28 UNL     1      45.793  14.415   2.276  1.00  0.00     0.019 A 
HETATM   11  C7  UNL     1      44.534  16.739   1.539  1.00  0.00     0.031 A 
HETATM   12  C6  UNL     1      44.209  15.567   0.864  1.00  0.00     0.029 A 
HETATM   13  C29 UNL     1      44.848  14.411   1.247  1.00  0.00     0.045 A 
BRANCH  12  14
HETATM   14  N1  UNL     1      43.249  15.569  -0.190  1.00  0.00    -0.386 N 
ATOM     15  H1  UNL     1      42.290  15.836   0.033  1.00  0.00     0.160 HD
BRANCH  14  16
HETATM   16  C5  UNL     1      43.552  15.218  -1.539  1.00  0.00     0.158 C 
BRANCH  16  17
HETATM   17  C4  UNL     1      43.607  16.337  -2.485  1.00  0.00    -0.040 A 
HETATM   18  C3  UNL     1      42.650  16.446  -3.465  1.00  0.00     0.012 A 
HETATM   19  C2  UNL     1      42.700  17.496  -4.367  1.00  0.00     0.043 A 
HETATM   20  C1  UNL     1      43.712  18.431  -4.280  1.00  0.00     0.116 A 
HETATM   21  F1  UNL     1      43.763  19.450  -5.154  1.00  0.00    -0.206 F 
HETATM   22  C31 UNL     1      44.681  18.317  -3.286  1.00  0.00     0.043 A 
HETATM   23  C30 UNL     1      44.612  17.265  -2.398  1.00  0.00     0.012 A 
ENDBRANCH  16  17
ENDBRANCH  14  16
ENDBRANCH  12  14
ENDBRANCH   1   3
BRANCH   1  24
HETATM   24  C13 UNL     1      46.913  10.961   2.035  1.00  0.00     0.179 C 
BRANCH  24  25
HETATM   25  C14 UNL     1      47.544  10.846   0.651  1.00  0.00     0.177 C 
BRANCH  25  26
HETATM   26  N4  UNL     1      46.725  10.824  -0.405  1.00  0.00    -0.401 NA
BRANCH  26  27
HETATM   27  C15 UNL     1      45.994  11.049  -1.330  1.00  0.00     0.192 A 
HETATM   28  N5  UNL     1      46.200  12.146  -2.145  1.00  0.00    -0.316 N 
HETATM   29  C16 UNL     1      45.440  12.462  -3.183  1.00  0.00     0.118 A 
ATOM     30  H5  UNL     1      46.991  12.753  -1.932  1.00  0.00     0.170 HD
HETATM   31  N7  UNL     1      44.390  11.624  -3.437  1.00  0.00    -0.341 N 
HETATM   32  C22 UNL     1      44.127  10.542  -2.691  1.00  0.00     0.048 A 
ATOM     33  H7  UNL     1      43.779  11.831  -4.227  1.00  0.00     0.167 HD
HETATM   34  C23 UNL     1      43.049   9.708  -2.975  1.00  0.00     0.030 A 
HETATM   35  C27 UNL     1      44.914  10.213  -1.615  1.00  0.00     0.049 A 
HETATM   36  C24 UNL     1      42.750   8.585  -2.226  1.00  0.00     0.002 A 
HETATM   37  C25 UNL     1      43.551   8.271  -1.151  1.00  0.00     0.001 A 
HETATM   38  C26 UNL     1      44.623   9.087  -0.857  1.00  0.00     0.018 A 
BRANCH  29  39
HETATM   39  C17 UNL     1      45.644  13.615  -4.051  1.00  0.00     0.011 A 
HETATM   40  C18 UNL     1      46.690  14.492  -3.860  1.00  0.00     0.032 A 
HETATM   41  C19 UNL     1      46.885  15.590  -4.685  1.00  0.00     0.088 A 
HETATM   42  N6  UNL     1      46.022  15.790  -5.694  1.00  0.00    -0.375 N 
HETATM   43  C20 UNL     1      44.985  14.972  -5.930  1.00  0.00     0.088 A 
ATOM     44  H6  UNL     1      46.161  16.595  -6.304  1.00  0.00     0.164 HD
HETATM   45  C21 UNL     1      44.789  13.858  -5.092  1.00  0.00     0.032 A 
ENDBRANCH  29  39
ENDBRANCH  26  27
ENDBRANCH  25  26
ENDBRANCH  24  25
ENDBRANCH   1  24
TORSDOF 9
ENDMDL
MODEL 4
REMARK VINA RESULT: -8.859422976      2.130      3.155
REMARK  9 active torsions:
REMARK  status: ('A' for Active; 'I' for Inactive)
REMARK    1  A    between atoms: C4_5  and  C5_6 
REMARK    2  A    between atoms: C5_6  and  N1_7 
REMARK    3  A    between atoms: N1_7  and  C6_9 
REMARK    4  A    between atoms: C12_17  and  N3_18 
REMARK    5  A    between atoms: N3_18  and  C13_20 
REMARK    6  A    between atoms: C13_20  and  C14_21 
REMARK    7  A    between atoms: C14_21  and  N4_22 
REMARK    8  A    between atoms: N4_22  and  C15_23 
REMARK    9  A    between atoms: C16_26  and  C17_27 
ROOT
HETATM    1  N3  UNL     1      44.676  11.193  -3.640  1.00  0.00    -0.383 N 
ATOM      2  H3  UNL     1      43.904  11.857  -3.699  1.00  0.00     0.160 HD
ENDROOT
BRANCH   1   3
HETATM    3  C12 UNL     1      44.650  10.335  -2.702  1.00  0.00     0.042 A 
HETATM    4  C11 UNL     1      44.683   8.982  -2.939  1.00  0.00     0.047 A 
HETATM    5  C10 UNL     1      44.652   8.111  -1.869  1.00  0.00     0.090 A 
HETATM    6  N2  UNL     1      44.592   8.555  -0.593  1.00  0.00    -0.365 N 
HETATM    7  C9  UNL     1      44.561   9.883  -0.367  1.00  0.00     0.044 A 
ATOM      8  H2  UNL     1      44.570   7.896   0.186  1.00  0.00     0.165 HD
HETATM    9  C8  UNL     1      44.499  10.368   0.936  1.00  0.00     0.033 A 
HETATM   10  C28 UNL     1      44.589  10.798  -1.395  1.00  0.00     0.019 A 
HETATM   11  C7  UNL     1      44.467  11.723   1.185  1.00  0.00     0.031 A 
HETATM   12  C6  UNL     1      44.496  12.651   0.150  1.00  0.00     0.029 A 
HETATM   13  C29 UNL     1      44.556  12.170  -1.138  1.00  0.00     0.045 A 
BRANCH  12  14
HETATM   14  N1  UNL     1      44.469  14.052   0.417  1.00  0.00    -0.386 N 
ATOM     15  H1  UNL     1      44.594  14.692  -0.367  1.00  0.00     0.160 HD
BRANCH  14  16
HETATM   16  C5  UNL     1      44.276  14.608   1.716  1.00  0.00     0.158 C 
BRANCH  16  17
HETATM   17  C4  UNL     1      45.487  15.111   2.372  1.00  0.00    -0.040 A 
HETATM   18  C3  UNL     1      45.662  16.465   2.531  1.00  0.00     0.012 A 
HETATM   19  C2  UNL     1      46.806  16.948   3.142  1.00  0.00     0.043 A 
HETATM   20  C1  UNL     1      47.771  16.068   3.592  1.00  0.00     0.116 A 
HETATM   21  F1  UNL     1      48.882  16.534   4.184  1.00  0.00    -0.206 F 
HETATM   22  C31 UNL     1      47.591  14.696   3.429  1.00  0.00     0.043 A 
HETATM   23  C30 UNL     1      46.445  14.237   2.818  1.00  0.00     0.012 A 
ENDBRANCH  16  17
ENDBRANCH  14  16
ENDBRANCH  12  14
ENDBRANCH   1   3
BRANCH   1  24
HETATM   24  C13 UNL     1      45.729  11.290  -4.629  1.00  0.00     0.179 C 
BRANCH  24  25
HETATM   25  C14 UNL     1      45.598  12.673  -5.259  1.00  0.00     0.177 C 
BRANCH  25  26
HETATM   26  N4  UNL     1      44.948  13.612  -4.566  1.00  0.00    -0.401 NA
BRANCH  26  27
HETATM   27  C15 UNL     1      44.243  14.492  -4.154  1.00  0.00     0.192 A 
HETATM   28  N5  UNL     1      42.912  14.258  -3.869  1.00  0.00    -0.316 N 
HETATM   29  C16 UNL     1      42.069  15.174  -3.412  1.00  0.00     0.118 A 
ATOM     30  H5  UNL     1      42.552  13.315  -4.020  1.00  0.00     0.170 HD
HETATM   31  N7  UNL     1      42.588  16.425  -3.222  1.00  0.00    -0.341 N 
HETATM   32  C22 UNL     1      43.868  16.727  -3.476  1.00  0.00     0.048 A 
ATOM     33  H7  UNL     1      41.974  17.159  -2.871  1.00  0.00     0.167 HD
HETATM   34  C23 UNL     1      44.366  18.011  -3.271  1.00  0.00     0.030 A 
HETATM   35  C27 UNL     1      44.741  15.780  -3.949  1.00  0.00     0.049 A 
HETATM   36  C24 UNL     1      45.680  18.357  -3.524  1.00  0.00     0.002 A 
HETATM   37  C25 UNL     1      46.541  17.392  -3.997  1.00  0.00     0.001 A 
HETATM   38  C26 UNL     1      46.064  16.116  -4.205  1.00  0.00     0.018 A 
BRANCH  29  39
HETATM   39  C17 UNL     1      40.664  14.942  -3.108  1.00  0.00     0.011 A 
HETATM   40  C18 UNL     1      39.929  15.827  -2.349  1.00  0.00     0.032 A 
HETATM   41  C19 UNL     1      38.591  15.606  -2.058  1.00  0.00     0.088 A 
HETATM   42  N6  UNL     1      38.009  14.495  -2.537  1.00  0.00    -0.375 N 
HETATM   43  C20 UNL     1      38.671  13.597  -3.280  1.00  0.00     0.088 A 
ATOM     44  H6  UNL     1      37.025  14.328  -2.327  1.00  0.00     0.164 HD
HETATM   45  C21 UNL     1      40.030  13.822  -3.575  1.00  0.00     0.032 A 
ENDBRANCH  29  39
ENDBRANCH  26  27
ENDBRANCH  25  26
ENDBRANCH  24  25
ENDBRANCH   1  24
TORSDOF 9
ENDMDL
MODEL 5
REMARK VINA RESULT: -8.846259512      2.689      5.199
REMARK  9 active torsions:
REMARK  status: ('A' for Active; 'I' for Inactive)
REMARK    1  A    between atoms: C4_5  and  C5_6 
REMARK    2  A    between atoms: C5_6  and  N1_7 
REMARK    3  A    between atoms: N1_7  and  C6_9 
REMARK    4  A    between atoms: C12_17  and  N3_18 
REMARK    5  A    between atoms: N3_18  and  C13_20 
REMARK    6  A    between atoms: C13_20  and  C14_21 
REMARK    7  A    between atoms: C14_21  and  N4_22 
REMARK    8  A    between atoms: N4_22  and  C15_23 
REMARK    9  A    between atoms: C16_26  and  C17_27 
ROOT
HETATM    1  N3  UNL     1      44.555  11.321  -3.646  1.00  0.00    -0.383 N 
ATOM      2  H3  UNL     1      44.965  12.235  -3.453  1.00  0.00     0.160 HD
ENDROOT
BRANCH   1   3
HETATM    3  C12 UNL     1      44.592  10.447  -2.724  1.00  0.00     0.042 A 
HETATM    4  C11 UNL     1      44.659   9.100  -2.987  1.00  0.00     0.047 A 
HETATM    5  C10 UNL     1      44.697   8.211  -1.931  1.00  0.00     0.090 A 
HETATM    6  N2  UNL     1      44.671   8.631  -0.646  1.00  0.00    -0.365 N 
HETATM    7  C9  UNL     1      44.606   9.953  -0.396  1.00  0.00     0.044 A 
ATOM      8  H2  UNL     1      44.699   7.959   0.121  1.00  0.00     0.165 HD
HETATM    9  C8  UNL     1      44.576  10.414   0.917  1.00  0.00     0.033 A 
HETATM   10  C28 UNL     1      44.565  10.886  -1.408  1.00  0.00     0.019 A 
HETATM   11  C7  UNL     1      44.510  11.763   1.192  1.00  0.00     0.031 A 
HETATM   12  C6  UNL     1      44.469  12.709   0.173  1.00  0.00     0.029 A 
HETATM   13  C29 UNL     1      44.497  12.252  -1.125  1.00  0.00     0.045 A 
BRANCH  12  14
HETATM   14  N1  UNL     1      44.407  14.103   0.466  1.00  0.00    -0.386 N 
ATOM     15  H1  UNL     1      44.474  14.761  -0.312  1.00  0.00     0.160 HD
BRANCH  14  16
HETATM   16  C5  UNL     1      44.256  14.632   1.782  1.00  0.00     0.158 C 
BRANCH  16  17
HETATM   17  C4  UNL     1      45.485  15.129   2.407  1.00  0.00    -0.040 A 
HETATM   18  C3  UNL     1      45.677  16.483   2.543  1.00  0.00     0.012 A 
HETATM   19  C2  UNL     1      46.839  16.962   3.125  1.00  0.00     0.043 A 
HETATM   20  C1  UNL     1      47.803  16.078   3.566  1.00  0.00     0.116 A 
HETATM   21  F1  UNL     1      48.931  16.539   4.130  1.00  0.00    -0.206 F 
HETATM   22  C31 UNL     1      47.605  14.706   3.426  1.00  0.00     0.043 A 
HETATM   23  C30 UNL     1      46.442  14.251   2.845  1.00  0.00     0.012 A 
ENDBRANCH  16  17
ENDBRANCH  14  16
ENDBRANCH  12  14
ENDBRANCH   1   3
BRANCH   1  24
HETATM   24  C13 UNL     1      43.969  11.106  -4.953  1.00  0.00     0.179 C 
BRANCH  24  25
HETATM   25  C14 UNL     1      42.463  11.009  -4.737  1.00  0.00     0.177 C 
BRANCH  25  26
HETATM   26  N4  UNL     1      41.814  12.122  -4.380  1.00  0.00    -0.401 NA
BRANCH  26  27
HETATM   27  C15 UNL     1      41.443  13.178  -3.948  1.00  0.00     0.192 A 
HETATM   28  N5  UNL     1      42.303  14.258  -3.882  1.00  0.00    -0.316 N 
HETATM   29  C16 UNL     1      41.971  15.455  -3.420  1.00  0.00     0.118 A 
ATOM     30  H5  UNL     1      43.259  14.124  -4.212  1.00  0.00     0.170 HD
HETATM   31  N7  UNL     1      40.681  15.595  -2.987  1.00  0.00    -0.341 N 
HETATM   32  C22 UNL     1      39.790  14.594  -3.021  1.00  0.00     0.048 A 
ATOM     33  H7  UNL     1      40.384  16.500  -2.624  1.00  0.00     0.167 HD
HETATM   34  C23 UNL     1      38.484  14.769  -2.572  1.00  0.00     0.030 A 
HETATM   35  C27 UNL     1      40.133  13.354  -3.499  1.00  0.00     0.049 A 
HETATM   36  C24 UNL     1      37.541  13.758  -2.592  1.00  0.00     0.002 A 
HETATM   37  C25 UNL     1      37.904  12.521  -3.077  1.00  0.00     0.001 A 
HETATM   38  C26 UNL     1      39.194  12.332  -3.525  1.00  0.00     0.018 A 
BRANCH  29  39
HETATM   39  C17 UNL     1      42.866  16.601  -3.343  1.00  0.00     0.011 A 
HETATM   40  C18 UNL     1      42.609  17.770  -4.026  1.00  0.00     0.032 A 
HETATM   41  C19 UNL     1      43.461  18.862  -3.955  1.00  0.00     0.088 A 
HETATM   42  N6  UNL     1      44.563  18.762  -3.194  1.00  0.00    -0.375 N 
HETATM   43  C20 UNL     1      44.867  17.652  -2.507  1.00  0.00     0.088 A 
ATOM     44  H6  UNL     1      45.193  19.562  -3.137  1.00  0.00     0.164 HD
HETATM   45  C21 UNL     1      44.001  16.544  -2.580  1.00  0.00     0.032 A 
ENDBRANCH  29  39
ENDBRANCH  26  27
ENDBRANCH  25  26
ENDBRANCH  24  25
ENDBRANCH   1  24
TORSDOF 9
ENDMDL
