MODEL 1
REMARK VINA RESULT: -6.871672292      0.000      0.000
REMARK  13 active torsions:
REMARK  status: ('A' for Active; 'I' for Inactive)
REMARK    1  A    between atoms: C4_5  and  C5_6 
REMARK    2  A    between atoms: C5_6  and  N2_7 
REMARK    3  A    between atoms: C10_14  and  C11_15 
REMARK    4  A    between atoms: C12_16  and  C13_17 
REMARK    5  A    between atoms: C14_18  and  C15_19 
REMARK    6  A    between atoms: C15_19  and  N4_20 
REMARK    7  A    between atoms: N4_20  and  C16_22 
REMARK    8  A    between atoms: N5_24  and  C18_25 
REMARK    9  A    between atoms: C18_25  and  C19_26 
REMARK   10  A    between atoms: C19_26  and  C20_27 
REMARK   11  A    between atoms: C20_27  and  C21_28 
REMARK   12  A    between atoms: C21_28  and  C22_29 
REMARK   13  A    between atoms: C22_29  and  N6_30 
ROOT
HETATM    1  C15 UNL     1      15.904  -9.058  15.762  1.00  0.00     0.216 C 
ENDROOT
BRANCH   1   2
HETATM    2  C14 UNL     1      16.294  -9.963  14.664  1.00  0.00    -0.073 C 
HETATM    3  C13 UNL     1      16.619 -10.686  13.753  1.00  0.00    -0.013 C 
BRANCH   3   4
HETATM    4  C12 UNL     1      17.004 -11.515  12.670  1.00  0.00    -0.008 C 
HETATM    5  C11 UNL     1      17.336 -12.204  11.734  1.00  0.00    -0.035 C 
BRANCH   5   6
HETATM    6  C10 UNL     1      17.738 -13.002  10.609  1.00  0.00     0.089 A 
HETATM    7  N1  UNL     1      19.036 -13.112  10.255  1.00  0.00    -0.354 N 
HETATM    8  C1  UNL     1      20.075 -12.412  11.019  1.00  0.00     0.156 C 
HETATM    9  C2  UNL     1      19.439 -13.846   9.217  1.00  0.00     0.092 A 
HETATM   10  C3  UNL     1      18.455 -14.513   8.489  1.00  0.00     0.026 A 
HETATM   11  C4  UNL     1      17.130 -14.426   8.813  1.00  0.00    -0.036 A 
HETATM   12  C9  UNL     1      16.746 -13.662   9.889  1.00  0.00     0.048 A 
BRANCH  11  13
HETATM   13  C5  UNL     1      16.100 -15.138   8.033  1.00  0.00     0.167 C 
BRANCH  13  14
HETATM   14  N2  UNL     1      16.124 -16.569   8.245  1.00  0.00    -0.347 N 
HETATM   15  C6  UNL     1      16.694 -17.198   9.285  1.00  0.00     0.109 A 
HETATM   16  C7  UNL     1      16.500 -18.552   9.120  1.00  0.00     0.106 A 
HETATM   17  N3  UNL     1      15.806 -18.714   7.967  1.00  0.00    -0.361 N 
HETATM   18  C8  UNL     1      15.581 -17.499   7.441  1.00  0.00     0.182 A 
ATOM     19  H3  UNL     1      15.506 -19.604   7.568  1.00  0.00     0.166 HD
ENDBRANCH  13  14
ENDBRANCH  11  13
ENDBRANCH   5   6
ENDBRANCH   3   4
ENDBRANCH   1   2
BRANCH   1  20
HETATM   20  N4  UNL     1      15.114  -8.008  15.201  1.00  0.00    -0.365 N 
ATOM     21  H4  UNL     1      14.106  -8.152  15.146  1.00  0.00     0.162 HD
BRANCH  20  22
HETATM   22  C16 UNL     1      15.586  -6.892  14.759  1.00  0.00     0.117 A 
HETATM   23  C17 UNL     1      16.025  -6.779  13.469  1.00  0.00     0.138 A 
HETATM   24  N5  UNL     1      16.536  -5.627  12.936  1.00  0.00    -0.362 N 
HETATM   25  C23 UNL     1      16.600  -4.568  13.743  1.00  0.00     0.107 A 
HETATM   26  C24 UNL     1      16.164  -4.650  15.060  1.00  0.00     0.107 A 
HETATM   27  N7  UNL     1      15.660  -5.813  15.557  1.00  0.00    -0.350 N 
ATOM     28  H7  UNL     1      15.341  -5.865  16.525  1.00  0.00     0.166 HD
BRANCH  24  29
HETATM   29  C18 UNL     1      16.942  -5.628  11.546  1.00  0.00     0.128 C 
BRANCH  29  30
HETATM   30  C19 UNL     1      16.782  -4.248  10.982  1.00  0.00     0.020 C 
BRANCH  30  31
HETATM   31  C20 UNL     1      17.836  -3.815  10.047  1.00  0.00     0.003 C 
BRANCH  31  32
HETATM   32  C21 UNL     1      17.416  -3.430   8.680  1.00  0.00     0.027 C 
BRANCH  32  33
HETATM   33  C22 UNL     1      18.489  -3.630   7.661  1.00  0.00     0.229 C 
BRANCH  33  34
HETATM   34  N6  UNL     1      18.248  -3.110   6.367  1.00  0.00    -0.079 N 
ATOM     35  H63 UNL     1      18.014  -3.873   5.732  1.00  0.00     0.274 HD
ATOM     36  H62 UNL     1      17.370  -2.589   6.367  1.00  0.00     0.274 HD
ATOM     37  H61 UNL     1      18.984  -2.537   5.956  1.00  0.00     0.274 HD
ENDBRANCH  33  34
ENDBRANCH  32  33
ENDBRANCH  31  32
ENDBRANCH  30  31
ENDBRANCH  29  30
ENDBRANCH  24  29
ENDBRANCH  20  22
ENDBRANCH   1  20
TORSDOF 13
ENDMDL
MODEL 2
REMARK VINA RESULT: -6.827561976      1.702      2.543
REMARK  13 active torsions:
REMARK  status: ('A' for Active; 'I' for Inactive)
REMARK    1  A    between atoms: C4_5  and  C5_6 
REMARK    2  A    between atoms: C5_6  and  N2_7 
REMARK    3  A    between atoms: C10_14  and  C11_15 
REMARK    4  A    between atoms: C12_16  and  C13_17 
REMARK    5  A    between atoms: C14_18  and  C15_19 
REMARK    6  A    between atoms: C15_19  and  N4_20 
REMARK    7  A    between atoms: N4_20  and  C16_22 
REMARK    8  A    between atoms: N5_24  and  C18_25 
REMARK    9  A    between atoms: C18_25  and  C19_26 
REMARK   10  A    between atoms: C19_26  and  C20_27 
REMARK   11  A    between atoms: C20_27  and  C21_28 
REMARK   12  A    between atoms: C21_28  and  C22_29 
REMARK   13  A    between atoms: C22_29  and  N6_30 
ROOT
HETATM    1  C15 UNL     1      15.917  -7.412  13.376  1.00  0.00     0.216 C 
ENDROOT
BRANCH   1   2
HETATM    2  C14 UNL     1      16.507  -8.573  12.680  1.00  0.00    -0.073 C 
HETATM    3  C13 UNL     1      16.991  -9.533  12.131  1.00  0.00    -0.013 C 
BRANCH   3   4
HETATM    4  C12 UNL     1      17.564 -10.670  11.507  1.00  0.00    -0.008 C 
HETATM    5  C11 UNL     1      18.049 -11.650  10.994  1.00  0.00    -0.035 C 
BRANCH   5   6
HETATM    6  C10 UNL     1      18.621 -12.829  10.405  1.00  0.00     0.089 A 
HETATM    7  N1  UNL     1      19.816 -12.791   9.777  1.00  0.00    -0.354 N 
HETATM    8  C1  UNL     1      20.563 -11.532   9.682  1.00  0.00     0.156 C 
HETATM    9  C2  UNL     1      20.372 -13.869   9.222  1.00  0.00     0.092 A 
HETATM   10  C3  UNL     1      19.664 -15.067   9.311  1.00  0.00     0.026 A 
HETATM   11  C4  UNL     1      18.452 -15.147   9.936  1.00  0.00    -0.036 A 
HETATM   12  C9  UNL     1      17.905 -14.019  10.499  1.00  0.00     0.048 A 
BRANCH  11  13
HETATM   13  C5  UNL     1      17.716 -16.423  10.022  1.00  0.00     0.167 C 
BRANCH  13  14
HETATM   14  N2  UNL     1      16.775 -16.604   8.938  1.00  0.00    -0.347 N 
HETATM   15  C6  UNL     1      16.323 -17.782   8.481  1.00  0.00     0.109 A 
HETATM   16  C7  UNL     1      15.447 -17.528   7.448  1.00  0.00     0.106 A 
HETATM   17  N3  UNL     1      15.388 -16.182   7.302  1.00  0.00    -0.361 N 
HETATM   18  C8  UNL     1      16.201 -15.627   8.216  1.00  0.00     0.182 A 
ATOM     19  H3  UNL     1      14.824 -15.678   6.617  1.00  0.00     0.166 HD
ENDBRANCH  13  14
ENDBRANCH  11  13
ENDBRANCH   5   6
ENDBRANCH   3   4
ENDBRANCH   1   2
BRANCH   1  20
HETATM   20  N4  UNL     1      16.811  -6.310  13.216  1.00  0.00    -0.365 N 
ATOM     21  H4  UNL     1      17.486  -6.135  13.960  1.00  0.00     0.162 HD
BRANCH  20  22
HETATM   22  C16 UNL     1      16.826  -5.521  12.195  1.00  0.00     0.117 A 
HETATM   23  C17 UNL     1      17.902  -5.485  11.353  1.00  0.00     0.138 A 
HETATM   24  N5  UNL     1      17.983  -4.672  10.254  1.00  0.00    -0.362 N 
HETATM   25  C23 UNL     1      16.939  -3.880  10.014  1.00  0.00     0.107 A 
HETATM   26  C24 UNL     1      15.830  -3.892  10.852  1.00  0.00     0.107 A 
HETATM   27  N7  UNL     1      15.782  -4.714  11.936  1.00  0.00    -0.350 N 
ATOM     28  H7  UNL     1      14.965  -4.717  12.546  1.00  0.00     0.166 HD
BRANCH  24  29
HETATM   29  C18 UNL     1      19.168  -4.746   9.425  1.00  0.00     0.128 C 
BRANCH  29  30
HETATM   30  C19 UNL     1      19.171  -3.596   8.462  1.00  0.00     0.020 C 
BRANCH  30  31
HETATM   31  C20 UNL     1      19.266  -3.959   7.037  1.00  0.00     0.003 C 
BRANCH  31  32
HETATM   32  C21 UNL     1      18.164  -3.521   6.150  1.00  0.00     0.027 C 
BRANCH  32  33
HETATM   33  C22 UNL     1      16.828  -3.555   6.816  1.00  0.00     0.229 C 
BRANCH  33  34
HETATM   34  N6  UNL     1      15.719  -3.906   6.009  1.00  0.00    -0.079 N 
ATOM     35  H63 UNL     1      14.881  -3.447   6.364  1.00  0.00     0.274 HD
ATOM     36  H62 UNL     1      15.807  -3.459   5.096  1.00  0.00     0.274 HD
ATOM     37  H61 UNL     1      15.537  -4.902   5.884  1.00  0.00     0.274 HD
ENDBRANCH  33  34
ENDBRANCH  32  33
ENDBRANCH  31  32
ENDBRANCH  30  31
ENDBRANCH  29  30
ENDBRANCH  24  29
ENDBRANCH  20  22
ENDBRANCH   1  20
TORSDOF 13
ENDMDL
MODEL 3
REMARK VINA RESULT: -6.757615231      2.150     10.634
REMARK  13 active torsions:
REMARK  status: ('A' for Active; 'I' for Inactive)
REMARK    1  A    between atoms: C4_5  and  C5_6 
REMARK    2  A    between atoms: C5_6  and  N2_7 
REMARK    3  A    between atoms: C10_14  and  C11_15 
REMARK    4  A    between atoms: C12_16  and  C13_17 
REMARK    5  A    between atoms: C14_18  and  C15_19 
REMARK    6  A    between atoms: C15_19  and  N4_20 
REMARK    7  A    between atoms: N4_20  and  C16_22 
REMARK    8  A    between atoms: N5_24  and  C18_25 
REMARK    9  A    between atoms: C18_25  and  C19_26 
REMARK   10  A    between atoms: C19_26  and  C20_27 
REMARK   11  A    between atoms: C20_27  and  C21_28 
REMARK   12  A    between atoms: C21_28  and  C22_29 
REMARK   13  A    between atoms: C22_29  and  N6_30 
ROOT
HETATM    1  C15 UNL     1      19.807 -13.329  10.542  1.00  0.00     0.216 C 
ENDROOT
BRANCH   1   2
HETATM    2  C14 UNL     1      19.336 -11.956  10.809  1.00  0.00    -0.073 C 
HETATM    3  C13 UNL     1      18.946 -10.830  11.006  1.00  0.00    -0.013 C 
BRANCH   3   4
HETATM    4  C12 UNL     1      18.485  -9.506  11.213  1.00  0.00    -0.008 C 
HETATM    5  C11 UNL     1      18.088  -8.375  11.368  1.00  0.00    -0.035 C 
BRANCH   5   6
HETATM    6  C10 UNL     1      17.611  -7.029  11.528  1.00  0.00     0.089 A 
HETATM    7  N1  UNL     1      16.584  -6.742  12.356  1.00  0.00    -0.354 N 
HETATM    8  C1  UNL     1      15.927  -7.809  13.119  1.00  0.00     0.156 C 
HETATM    9  C2  UNL     1      16.120  -5.503  12.525  1.00  0.00     0.092 A 
HETATM   10  C3  UNL     1      16.743  -4.487  11.801  1.00  0.00     0.026 A 
HETATM   11  C4  UNL     1      17.784  -4.736  10.952  1.00  0.00    -0.036 A 
HETATM   12  C9  UNL     1      18.240  -6.023  10.799  1.00  0.00     0.048 A 
BRANCH  11  13
HETATM   13  C5  UNL     1      18.432  -3.649  10.193  1.00  0.00     0.167 C 
BRANCH  13  14
HETATM   14  N2  UNL     1      18.069  -3.646   8.793  1.00  0.00    -0.347 N 
HETATM   15  C6  UNL     1      18.928  -3.670   7.761  1.00  0.00     0.109 A 
HETATM   16  C7  UNL     1      18.192  -3.658   6.596  1.00  0.00     0.106 A 
HETATM   17  N3  UNL     1      16.885  -3.626   6.955  1.00  0.00    -0.361 N 
HETATM   18  C8  UNL     1      16.821  -3.619   8.297  1.00  0.00     0.182 A 
ATOM     19  H3  UNL     1      16.089  -3.610   6.318  1.00  0.00     0.166 HD
ENDBRANCH  13  14
ENDBRANCH  11  13
ENDBRANCH   5   6
ENDBRANCH   3   4
ENDBRANCH   1   2
BRANCH   1  20
HETATM   20  N4  UNL     1      19.874 -14.016  11.793  1.00  0.00    -0.365 N 
ATOM     21  H4  UNL     1      20.414 -13.585  12.542  1.00  0.00     0.162 HD
BRANCH  20  22
HETATM   22  C16 UNL     1      19.299 -15.144  12.040  1.00  0.00     0.117 A 
HETATM   23  C17 UNL     1      18.839 -15.933  11.023  1.00  0.00     0.138 A 
HETATM   24  N5  UNL     1      18.221 -17.139  11.214  1.00  0.00    -0.362 N 
HETATM   25  C23 UNL     1      18.069 -17.544  12.475  1.00  0.00     0.107 A 
HETATM   26  C24 UNL     1      18.524 -16.764  13.531  1.00  0.00     0.107 A 
HETATM   27  N7  UNL     1      19.136 -15.569  13.305  1.00  0.00    -0.350 N 
ATOM     28  H7  UNL     1      19.468 -15.003  14.086  1.00  0.00     0.166 HD
BRANCH  24  29
HETATM   29  C18 UNL     1      17.802 -17.895  10.051  1.00  0.00     0.128 C 
BRANCH  29  30
HETATM   30  C19 UNL     1      17.745 -16.983   8.863  1.00  0.00     0.020 C 
BRANCH  30  31
HETATM   31  C20 UNL     1      16.392 -16.608   8.412  1.00  0.00     0.003 C 
BRANCH  31  32
HETATM   32  C21 UNL     1      16.212 -15.245   7.863  1.00  0.00     0.027 C 
BRANCH  32  33
HETATM   33  C22 UNL     1      16.528 -14.170   8.850  1.00  0.00     0.229 C 
BRANCH  33  34
HETATM   34  N6  UNL     1      15.780 -14.164  10.051  1.00  0.00    -0.079 N 
ATOM     35  H63 UNL     1      15.695 -15.118  10.404  1.00  0.00     0.274 HD
ATOM     36  H62 UNL     1      16.333 -13.737  10.795  1.00  0.00     0.274 HD
ATOM     37  H61 UNL     1      14.858 -13.729  10.018  1.00  0.00     0.274 HD
ENDBRANCH  33  34
ENDBRANCH  32  33
ENDBRANCH  31  32
ENDBRANCH  30  31
ENDBRANCH  29  30
ENDBRANCH  24  29
ENDBRANCH  20  22
ENDBRANCH   1  20
TORSDOF 13
ENDMDL
MODEL 4
REMARK VINA RESULT: -6.684173226      2.874      3.954
REMARK  13 active torsions:
REMARK  status: ('A' for Active; 'I' for Inactive)
REMARK    1  A    between atoms: C4_5  and  C5_6 
REMARK    2  A    between atoms: C5_6  and  N2_7 
REMARK    3  A    between atoms: C10_14  and  C11_15 
REMARK    4  A    between atoms: C12_16  and  C13_17 
REMARK    5  A    between atoms: C14_18  and  C15_19 
REMARK    6  A    between atoms: C15_19  and  N4_20 
REMARK    7  A    between atoms: N4_20  and  C16_22 
REMARK    8  A    between atoms: N5_24  and  C18_25 
REMARK    9  A    between atoms: C18_25  and  C19_26 
REMARK   10  A    between atoms: C19_26  and  C20_27 
REMARK   11  A    between atoms: C20_27  and  C21_28 
REMARK   12  A    between atoms: C21_28  and  C22_29 
REMARK   13  A    between atoms: C22_29  and  N6_30 
ROOT
HETATM    1  C15 UNL     1      19.302  -9.072  11.942  1.00  0.00     0.216 C 
ENDROOT
BRANCH   1   2
HETATM    2  C14 UNL     1      19.109 -10.404  11.338  1.00  0.00    -0.073 C 
HETATM    3  C13 UNL     1      18.949 -11.503  10.863  1.00  0.00    -0.013 C 
BRANCH   3   4
HETATM    4  C12 UNL     1      18.760 -12.802  10.328  1.00  0.00    -0.008 C 
HETATM    5  C11 UNL     1      18.593 -13.916   9.892  1.00  0.00    -0.035 C 
BRANCH   5   6
HETATM    6  C10 UNL     1      18.385 -15.249   9.396  1.00  0.00     0.089 A 
HETATM    7  N1  UNL     1      17.229 -15.601   8.794  1.00  0.00    -0.354 N 
HETATM    8  C1  UNL     1      16.150 -14.621   8.632  1.00  0.00     0.156 C 
HETATM    9  C2  UNL     1      17.008 -16.829   8.324  1.00  0.00     0.092 A 
HETATM   10  C3  UNL     1      18.032 -17.763   8.477  1.00  0.00     0.026 A 
HETATM   11  C4  UNL     1      19.216 -17.447   9.081  1.00  0.00    -0.036 A 
HETATM   12  C9  UNL     1      19.414 -16.173   9.555  1.00  0.00     0.048 A 
BRANCH  11  13
HETATM   13  C5  UNL     1      20.290 -18.447   9.234  1.00  0.00     0.167 C 
BRANCH  13  14
HETATM   14  N2  UNL     1      21.141 -18.541   8.068  1.00  0.00    -0.347 N 
HETATM   15  C6  UNL     1      20.970 -19.386   7.040  1.00  0.00     0.109 A 
HETATM   16  C7  UNL     1      21.986 -19.165   6.135  1.00  0.00     0.106 A 
HETATM   17  N3  UNL     1      22.761 -18.176   6.646  1.00  0.00    -0.361 N 
HETATM   18  C8  UNL     1      22.236 -17.802   7.825  1.00  0.00     0.182 A 
ATOM     19  H3  UNL     1      23.596 -17.784   6.211  1.00  0.00     0.166 HD
ENDBRANCH  13  14
ENDBRANCH  11  13
ENDBRANCH   5   6
ENDBRANCH   3   4
ENDBRANCH   1   2
BRANCH   1  20
HETATM   20  N4  UNL     1      18.507  -8.141  11.206  1.00  0.00    -0.365 N 
ATOM     21  H4  UNL     1      18.563  -8.171  10.188  1.00  0.00     0.162 HD
BRANCH  20  22
HETATM   22  C16 UNL     1      17.723  -7.266  11.738  1.00  0.00     0.117 A 
HETATM   23  C17 UNL     1      17.668  -5.988  11.254  1.00  0.00     0.138 A 
HETATM   24  N5  UNL     1      16.860  -5.012  11.770  1.00  0.00    -0.362 N 
HETATM   25  C23 UNL     1      16.092  -5.351  12.805  1.00  0.00     0.107 A 
HETATM   26  C24 UNL     1      16.125  -6.641  13.321  1.00  0.00     0.107 A 
HETATM   27  N7  UNL     1      16.941  -7.589  12.783  1.00  0.00    -0.350 N 
ATOM     28  H7  UNL     1      16.958  -8.533  13.167  1.00  0.00     0.166 HD
BRANCH  24  29
HETATM   29  C18 UNL     1      16.874  -3.703  11.150  1.00  0.00     0.128 C 
BRANCH  29  30
HETATM   30  C19 UNL     1      16.100  -3.753   9.867  1.00  0.00     0.020 C 
BRANCH  30  31
HETATM   31  C20 UNL     1      16.846  -3.366   8.657  1.00  0.00     0.003 C 
BRANCH  31  32
HETATM   32  C21 UNL     1      18.296  -3.668   8.627  1.00  0.00     0.027 C 
BRANCH  32  33
HETATM   33  C22 UNL     1      18.852  -3.727   7.242  1.00  0.00     0.229 C 
BRANCH  33  34
HETATM   34  N6  UNL     1      20.221  -3.400   7.088  1.00  0.00    -0.079 N 
ATOM     35  H63 UNL     1      20.406  -2.496   7.523  1.00  0.00     0.274 HD
ATOM     36  H62 UNL     1      20.786  -4.012   7.677  1.00  0.00     0.274 HD
ATOM     37  H61 UNL     1      20.591  -3.405   6.138  1.00  0.00     0.274 HD
ENDBRANCH  33  34
ENDBRANCH  32  33
ENDBRANCH  31  32
ENDBRANCH  30  31
ENDBRANCH  29  30
ENDBRANCH  24  29
ENDBRANCH  20  22
ENDBRANCH   1  20
TORSDOF 13
ENDMDL
MODEL 5
REMARK VINA RESULT: -6.601209606      1.858      2.222
REMARK  13 active torsions:
REMARK  status: ('A' for Active; 'I' for Inactive)
REMARK    1  A    between atoms: C4_5  and  C5_6 
REMARK    2  A    between atoms: C5_6  and  N2_7 
REMARK    3  A    between atoms: C10_14  and  C11_15 
REMARK    4  A    between atoms: C12_16  and  C13_17 
REMARK    5  A    between atoms: C14_18  and  C15_19 
REMARK    6  A    between atoms: C15_19  and  N4_20 
REMARK    7  A    between atoms: N4_20  and  C16_22 
REMARK    8  A    between atoms: N5_24  and  C18_25 
REMARK    9  A    between atoms: C18_25  and  C19_26 
REMARK   10  A    between atoms: C19_26  and  C20_27 
REMARK   11  A    between atoms: C20_27  and  C21_28 
REMARK   12  A    between atoms: C21_28  and  C22_29 
REMARK   13  A    between atoms: C22_29  and  N6_30 
ROOT
HETATM    1  C15 UNL     1      15.280  -8.771  14.628  1.00  0.00     0.216 C 
ENDROOT
BRANCH   1   2
HETATM    2  C14 UNL     1      15.826 -10.073  14.197  1.00  0.00    -0.073 C 
HETATM    3  C13 UNL     1      16.270 -11.132  13.824  1.00  0.00    -0.013 C 
BRANCH   3   4
HETATM    4  C12 UNL     1      16.787 -12.369  13.363  1.00  0.00    -0.008 C 
HETATM    5  C11 UNL     1      17.240 -13.412  12.957  1.00  0.00    -0.035 C 
BRANCH   5   6
HETATM    6  C10 UNL     1      17.797 -14.640  12.459  1.00  0.00     0.089 A 
HETATM    7  N1  UNL     1      18.186 -15.625  13.297  1.00  0.00    -0.354 N 
HETATM    8  C1  UNL     1      18.047 -15.461  14.749  1.00  0.00     0.156 C 
HETATM    9  C2  UNL     1      18.705 -16.775  12.865  1.00  0.00     0.092 A 
HETATM   10  C3  UNL     1      18.838 -16.934  11.486  1.00  0.00     0.026 A 
HETATM   11  C4  UNL     1      18.459 -15.961  10.604  1.00  0.00    -0.036 A 
HETATM   12  C9  UNL     1      17.927 -14.787  11.081  1.00  0.00     0.048 A 
BRANCH  11  13
HETATM   13  C5  UNL     1      18.606 -16.145   9.148  1.00  0.00     0.167 C 
BRANCH  13  14
HETATM   14  N2  UNL     1      17.338 -16.316   8.472  1.00  0.00    -0.347 N 
HETATM   15  C6  UNL     1      16.692 -17.480   8.302  1.00  0.00     0.109 A 
HETATM   16  C7  UNL     1      15.527 -17.222   7.612  1.00  0.00     0.106 A 
HETATM   17  N3  UNL     1      15.495 -15.887   7.378  1.00  0.00    -0.361 N 
HETATM   18  C8  UNL     1      16.604 -15.344   7.906  1.00  0.00     0.182 A 
ATOM     19  H3  UNL     1      14.757 -15.382   6.886  1.00  0.00     0.166 HD
ENDBRANCH  13  14
ENDBRANCH  11  13
ENDBRANCH   5   6
ENDBRANCH   3   4
ENDBRANCH   1   2
BRANCH   1  20
HETATM   20  N4  UNL     1      15.489  -7.840  13.565  1.00  0.00    -0.365 N 
ATOM     21  H4  UNL     1      15.371  -8.176  12.610  1.00  0.00     0.162 HD
BRANCH  20  22
HETATM   22  C16 UNL     1      15.816  -6.603  13.730  1.00  0.00     0.117 A 
HETATM   23  C17 UNL     1      16.206  -5.834  12.668  1.00  0.00     0.138 A 
HETATM   24  N5  UNL     1      16.565  -4.518  12.771  1.00  0.00    -0.362 N 
HETATM   25  C23 UNL     1      16.525  -3.977  13.988  1.00  0.00     0.107 A 
HETATM   26  C24 UNL     1      16.134  -4.731  15.088  1.00  0.00     0.107 A 
HETATM   27  N7  UNL     1      15.782  -6.039  14.950  1.00  0.00    -0.350 N 
ATOM     28  H7  UNL     1      15.496  -6.586  15.762  1.00  0.00     0.166 HD
BRANCH  24  29
HETATM   29  C18 UNL     1      16.935  -3.805  11.566  1.00  0.00     0.128 C 
BRANCH  29  30
HETATM   30  C19 UNL     1      17.371  -4.788  10.522  1.00  0.00     0.020 C 
BRANCH  30  31
HETATM   31  C20 UNL     1      18.395  -4.304   9.579  1.00  0.00     0.003 C 
BRANCH  31  32
HETATM   32  C21 UNL     1      17.938  -3.454   8.456  1.00  0.00     0.027 C 
BRANCH  32  33
HETATM   33  C22 UNL     1      18.701  -3.691   7.195  1.00  0.00     0.229 C 
BRANCH  33  34
HETATM   34  N6  UNL     1      20.063  -3.307   7.189  1.00  0.00    -0.079 N 
ATOM     35  H63 UNL     1      20.153  -2.365   7.572  1.00  0.00     0.274 HD
ATOM     36  H62 UNL     1      20.572  -3.844   7.891  1.00  0.00     0.274 HD
ATOM     37  H61 UNL     1      20.553  -3.361   6.296  1.00  0.00     0.274 HD
ENDBRANCH  33  34
ENDBRANCH  32  33
ENDBRANCH  31  32
ENDBRANCH  30  31
ENDBRANCH  29  30
ENDBRANCH  24  29
ENDBRANCH  20  22
ENDBRANCH   1  20
TORSDOF 13
ENDMDL
