MODEL 1
REMARK VINA RESULT: -8.797851489      0.000      0.000
REMARK  13 active torsions:
REMARK  status: ('A' for Active; 'I' for Inactive)
REMARK    1  A    between atoms: C3_4  and  O2_5 
REMARK    2  A    between atoms: O2_5  and  C4_6 
REMARK    3  A    between atoms: C9_11  and  C10_12 
REMARK    4  A    between atoms: C10_12  and  S1_13 
REMARK    5  A    between atoms: S1_13  and  C11_14 
REMARK    6  A    between atoms: C11_14  and  C12_15 
REMARK    7  A    between atoms: C14_17  and  O3_18 
REMARK    8  A    between atoms: C15_20  and  O4_21 
REMARK    9  A    between atoms: C16_23  and  C17_24 
REMARK   10  A    between atoms: C17_24  and  O5_25 
REMARK   11  A    between atoms: C18_28  and  O7_29 
REMARK   12  A    between atoms: C19_31  and  O8_32 
REMARK   13  A    between atoms: C20_34  and  O9_35 
ROOT
HETATM    1  C4  UNL     1      60.474  19.893  15.200  1.00  0.00     0.129 C 
HETATM    2  C5  UNL     1      61.017  20.509  13.975  1.00  0.00     0.032 C 
HETATM    3  C6  UNL     1      60.412  21.833  13.595  1.00  0.00     0.002 C 
HETATM    4  C7  UNL     1      60.656  22.755  14.772  1.00  0.00     0.001 C 
HETATM    5  C8  UNL     1      59.810  22.214  15.905  1.00  0.00     0.008 C 
HETATM    6  C9  UNL     1      60.185  20.839  16.346  1.00  0.00     0.024 C 
ENDROOT
BRANCH   6   7
HETATM    7  C10 UNL     1      61.354  20.881  17.295  1.00  0.00     0.081 C 
BRANCH   7   8
HETATM    8  S1  UNL     1      61.621  22.377  18.184  1.00  0.00    -0.166 SA
BRANCH   8   9
HETATM    9  C11 UNL     1      62.922  23.459  17.669  1.00  0.00     0.105 C 
BRANCH   9  10
HETATM   10  C12 UNL     1      63.032  24.766  18.391  1.00  0.00     0.134 C 
HETATM   11  C13 UNL     1      64.388  25.398  18.092  1.00  0.00     0.067 C 
HETATM   12  C14 UNL     1      64.333  26.519  17.116  1.00  0.00     0.152 C 
HETATM   13  C15 UNL     1      63.137  26.566  16.231  1.00  0.00     0.178 C 
HETATM   14  C16 UNL     1      61.891  25.968  16.788  1.00  0.00     0.176 C 
HETATM   15  O6  UNL     1      61.998  25.638  18.136  1.00  0.00    -0.375 OA
BRANCH  12  16
HETATM   16  O3  UNL     1      64.562  27.768  17.731  1.00  0.00    -0.393 OA
ATOM     17  H3  UNL     1      65.297  28.227  17.342  1.00  0.00     0.210 HD
ENDBRANCH  12  16
BRANCH  13  18
HETATM   18  O4  UNL     1      63.402  26.034  14.947  1.00  0.00    -0.390 OA
ATOM     19  H4  UNL     1      63.339  26.694  14.266  1.00  0.00     0.210 HD
ENDBRANCH  13  18
BRANCH  14  20
HETATM   20  C17 UNL     1      60.713  26.909  16.644  1.00  0.00     0.198 C 
BRANCH  20  21
HETATM   21  O5  UNL     1      59.525  26.257  16.958  1.00  0.00    -0.398 OA
ATOM     22  H5  UNL     1      59.517  25.382  16.588  1.00  0.00     0.209 HD
ENDBRANCH  20  21
ENDBRANCH  14  20
ENDBRANCH   9  10
ENDBRANCH   8   9
ENDBRANCH   7   8
ENDBRANCH   6   7
BRANCH   1  23
HETATM   23  O2  UNL     1      59.371  19.070  14.929  1.00  0.00    -0.353 OA
BRANCH  23  24
HETATM   24  C3  UNL     1      59.119  18.136  15.897  1.00  0.00     0.291 C 
HETATM   25  O1  UNL     1      57.985  18.414  16.652  1.00  0.00    -0.351 OA
HETATM   26  C2  UNL     1      56.797  18.042  16.095  1.00  0.00     0.152 C 
HETATM   27  C1  UNL     1      56.160  16.999  17.025  1.00  0.00     0.042 C 
HETATM   28  C20 UNL     1      56.841  17.458  14.727  1.00  0.00     0.178 C 
HETATM   29  C19 UNL     1      57.897  16.425  14.535  1.00  0.00     0.183 C 
HETATM   30  C18 UNL     1      59.041  16.720  15.451  1.00  0.00     0.204 C 
BRANCH  28  31
HETATM   31  O9  UNL     1      55.600  16.817  14.500  1.00  0.00    -0.390 OA
ATOM     32  H9  UNL     1      55.485  16.168  15.185  1.00  0.00     0.210 HD
ENDBRANCH  28  31
BRANCH  29  33
HETATM   33  O8  UNL     1      57.395  15.115  14.695  1.00  0.00    -0.390 OA
ATOM     34  H8  UNL     1      56.726  14.899  14.057  1.00  0.00     0.210 HD
ENDBRANCH  29  33
BRANCH  30  35
HETATM   35  O7  UNL     1      60.204  16.209  14.906  1.00  0.00    -0.388 OA
ATOM     36  H7  UNL     1      60.087  15.672  14.131  1.00  0.00     0.210 HD
ENDBRANCH  30  35
ENDBRANCH  23  24
ENDBRANCH   1  23
TORSDOF 13
ENDMDL
MODEL 2
REMARK VINA RESULT: -8.710053616      0.981      1.785
REMARK  13 active torsions:
REMARK  status: ('A' for Active; 'I' for Inactive)
REMARK    1  A    between atoms: C3_4  and  O2_5 
REMARK    2  A    between atoms: O2_5  and  C4_6 
REMARK    3  A    between atoms: C9_11  and  C10_12 
REMARK    4  A    between atoms: C10_12  and  S1_13 
REMARK    5  A    between atoms: S1_13  and  C11_14 
REMARK    6  A    between atoms: C11_14  and  C12_15 
REMARK    7  A    between atoms: C14_17  and  O3_18 
REMARK    8  A    between atoms: C15_20  and  O4_21 
REMARK    9  A    between atoms: C16_23  and  C17_24 
REMARK   10  A    between atoms: C17_24  and  O5_25 
REMARK   11  A    between atoms: C18_28  and  O7_29 
REMARK   12  A    between atoms: C19_31  and  O8_32 
REMARK   13  A    between atoms: C20_34  and  O9_35 
ROOT
HETATM    1  C4  UNL     1      60.292  19.850  14.820  1.00  0.00     0.129 C 
HETATM    2  C5  UNL     1      61.031  20.324  13.635  1.00  0.00     0.032 C 
HETATM    3  C6  UNL     1      60.648  21.692  13.139  1.00  0.00     0.002 C 
HETATM    4  C7  UNL     1      60.893  22.638  14.296  1.00  0.00     0.001 C 
HETATM    5  C8  UNL     1      59.874  22.271  15.355  1.00  0.00     0.008 C 
HETATM    6  C9  UNL     1      60.019  20.886  15.889  1.00  0.00     0.024 C 
ENDROOT
BRANCH   6   7
HETATM    7  C10 UNL     1      61.083  20.830  16.954  1.00  0.00     0.081 C 
BRANCH   7   8
HETATM    8  S1  UNL     1      61.379  22.299  17.880  1.00  0.00    -0.166 SA
BRANCH   8   9
HETATM    9  C11 UNL     1      62.783  23.297  17.479  1.00  0.00     0.105 C 
BRANCH   9  10
HETATM   10  C12 UNL     1      62.946  24.568  18.253  1.00  0.00     0.134 C 
HETATM   11  C13 UNL     1      64.253  25.242  17.851  1.00  0.00     0.067 C 
HETATM   12  C14 UNL     1      64.080  26.410  16.945  1.00  0.00     0.152 C 
HETATM   13  C15 UNL     1      62.799  26.475  16.190  1.00  0.00     0.178 C 
HETATM   14  C16 UNL     1      61.627  25.824  16.840  1.00  0.00     0.176 C 
HETATM   15  O6  UNL     1      61.877  25.429  18.150  1.00  0.00    -0.375 OA
BRANCH  12  16
HETATM   16  O3  UNL     1      64.351  27.631  17.599  1.00  0.00    -0.393 OA
ATOM     17  H3  UNL     1      63.555  28.095  17.831  1.00  0.00     0.210 HD
ENDBRANCH  12  16
BRANCH  13  18
HETATM   18  O4  UNL     1      62.940  26.015  14.860  1.00  0.00    -0.390 OA
ATOM     19  H4  UNL     1      62.204  26.269  14.314  1.00  0.00     0.210 HD
ENDBRANCH  13  18
BRANCH  14  20
HETATM   20  C17 UNL     1      60.425  26.745  16.866  1.00  0.00     0.198 C 
BRANCH  20  21
HETATM   21  O5  UNL     1      59.244  26.010  16.859  1.00  0.00    -0.398 OA
ATOM     22  H5  UNL     1      58.497  26.577  17.011  1.00  0.00     0.209 HD
ENDBRANCH  20  21
ENDBRANCH  14  20
ENDBRANCH   9  10
ENDBRANCH   8   9
ENDBRANCH   7   8
ENDBRANCH   6   7
BRANCH   1  23
HETATM   23  O2  UNL     1      59.123  19.161  14.468  1.00  0.00    -0.353 OA
BRANCH  23  24
HETATM   24  C3  UNL     1      59.261  17.799  14.449  1.00  0.00     0.291 C 
HETATM   25  O1  UNL     1      60.292  17.336  15.258  1.00  0.00    -0.351 OA
HETATM   26  C2  UNL     1      59.995  17.209  16.583  1.00  0.00     0.152 C 
HETATM   27  C1  UNL     1      60.143  15.725  16.946  1.00  0.00     0.042 C 
HETATM   28  C20 UNL     1      58.641  17.646  17.020  1.00  0.00     0.178 C 
HETATM   29  C19 UNL     1      57.531  17.170  16.148  1.00  0.00     0.183 C 
HETATM   30  C18 UNL     1      58.042  17.003  14.754  1.00  0.00     0.204 C 
BRANCH  28  31
HETATM   31  O9  UNL     1      58.414  17.098  18.305  1.00  0.00    -0.390 OA
ATOM     32  H9  UNL     1      59.234  17.143  18.782  1.00  0.00     0.210 HD
ENDBRANCH  28  31
BRANCH  29  33
HETATM   33  O8  UNL     1      56.927  15.997  16.650  1.00  0.00    -0.390 OA
ATOM     34  H8  UNL     1      57.444  15.581  17.330  1.00  0.00     0.210 HD
ENDBRANCH  29  33
BRANCH  30  35
HETATM   35  O7  UNL     1      56.997  17.162  13.863  1.00  0.00    -0.388 OA
ATOM     36  H7  UNL     1      57.228  17.071  12.946  1.00  0.00     0.210 HD
ENDBRANCH  30  35
ENDBRANCH  23  24
ENDBRANCH   1  23
TORSDOF 13
ENDMDL
MODEL 3
REMARK VINA RESULT: -8.597328050      0.821      1.130
REMARK  13 active torsions:
REMARK  status: ('A' for Active; 'I' for Inactive)
REMARK    1  A    between atoms: C3_4  and  O2_5 
REMARK    2  A    between atoms: O2_5  and  C4_6 
REMARK    3  A    between atoms: C9_11  and  C10_12 
REMARK    4  A    between atoms: C10_12  and  S1_13 
REMARK    5  A    between atoms: S1_13  and  C11_14 
REMARK    6  A    between atoms: C11_14  and  C12_15 
REMARK    7  A    between atoms: C14_17  and  O3_18 
REMARK    8  A    between atoms: C15_20  and  O4_21 
REMARK    9  A    between atoms: C16_23  and  C17_24 
REMARK   10  A    between atoms: C17_24  and  O5_25 
REMARK   11  A    between atoms: C18_28  and  O7_29 
REMARK   12  A    between atoms: C19_31  and  O8_32 
REMARK   13  A    between atoms: C20_34  and  O9_35 
ROOT
HETATM    1  C4  UNL     1      60.318  19.776  15.253  1.00  0.00     0.129 C 
HETATM    2  C5  UNL     1      60.967  20.147  13.981  1.00  0.00     0.032 C 
HETATM    3  C6  UNL     1      60.545  21.470  13.403  1.00  0.00     0.002 C 
HETATM    4  C7  UNL     1      60.872  22.509  14.456  1.00  0.00     0.001 C 
HETATM    5  C8  UNL     1      59.935  22.235  15.614  1.00  0.00     0.008 C 
HETATM    6  C9  UNL     1      60.122  20.898  16.249  1.00  0.00     0.024 C 
ENDROOT
BRANCH   6   7
HETATM    7  C10 UNL     1      61.261  20.927  17.234  1.00  0.00     0.081 C 
BRANCH   7   8
HETATM    8  S1  UNL     1      61.529  22.426  18.119  1.00  0.00    -0.166 SA
BRANCH   8   9
HETATM    9  C11 UNL     1      62.887  23.461  17.661  1.00  0.00     0.105 C 
BRANCH   9  10
HETATM   10  C12 UNL     1      63.009  24.767  18.383  1.00  0.00     0.134 C 
HETATM   11  C13 UNL     1      64.371  25.385  18.088  1.00  0.00     0.067 C 
HETATM   12  C14 UNL     1      64.330  26.508  17.112  1.00  0.00     0.152 C 
HETATM   13  C15 UNL     1      63.136  26.566  16.225  1.00  0.00     0.178 C 
HETATM   14  C16 UNL     1      61.883  25.981  16.780  1.00  0.00     0.176 C 
HETATM   15  O6  UNL     1      61.984  25.649  18.127  1.00  0.00    -0.375 OA
BRANCH  12  16
HETATM   16  O3  UNL     1      64.569  27.754  17.728  1.00  0.00    -0.393 OA
ATOM     17  H3  UNL     1      63.765  28.172  18.012  1.00  0.00     0.210 HD
ENDBRANCH  12  16
BRANCH  13  18
HETATM   18  O4  UNL     1      63.398  26.033  14.941  1.00  0.00    -0.390 OA
ATOM     19  H4  UNL     1      63.116  26.617  14.246  1.00  0.00     0.210 HD
ENDBRANCH  13  18
BRANCH  14  20
HETATM   20  C17 UNL     1      60.714  26.933  16.634  1.00  0.00     0.198 C 
BRANCH  20  21
HETATM   21  O5  UNL     1      59.520  26.294  16.948  1.00  0.00    -0.398 OA
ATOM     22  H5  UNL     1      59.096  26.720  17.684  1.00  0.00     0.209 HD
ENDBRANCH  20  21
ENDBRANCH  14  20
ENDBRANCH   9  10
ENDBRANCH   8   9
ENDBRANCH   7   8
ENDBRANCH   6   7
BRANCH   1  23
HETATM   23  O2  UNL     1      59.128  19.064  15.046  1.00  0.00    -0.353 OA
BRANCH  23  24
HETATM   24  C3  UNL     1      58.547  18.600  16.195  1.00  0.00     0.291 C 
HETATM   25  O1  UNL     1      57.201  18.286  16.048  1.00  0.00    -0.351 OA
HETATM   26  C2  UNL     1      56.933  17.061  15.511  1.00  0.00     0.152 C 
HETATM   27  C1  UNL     1      56.164  16.256  16.568  1.00  0.00     0.042 C 
HETATM   28  C20 UNL     1      58.097  16.240  15.080  1.00  0.00     0.178 C 
HETATM   29  C19 UNL     1      59.212  16.188  16.067  1.00  0.00     0.183 C 
HETATM   30  C18 UNL     1      59.218  17.454  16.863  1.00  0.00     0.204 C 
BRANCH  28  31
HETATM   31  O9  UNL     1      57.639  14.911  14.914  1.00  0.00    -0.390 OA
ATOM     32  H9  UNL     1      58.291  14.336  15.297  1.00  0.00     0.210 HD
ENDBRANCH  28  31
BRANCH  29  33
HETATM   33  O8  UNL     1      59.149  15.035  16.879  1.00  0.00    -0.390 OA
ATOM     34  H8  UNL     1      59.170  14.231  16.375  1.00  0.00     0.210 HD
ENDBRANCH  29  33
BRANCH  30  35
HETATM   35  O7  UNL     1      60.501  17.702  17.313  1.00  0.00    -0.388 OA
ATOM     36  H7  UNL     1      61.118  16.990  17.191  1.00  0.00     0.210 HD
ENDBRANCH  30  35
ENDBRANCH  23  24
ENDBRANCH   1  23
TORSDOF 13
ENDMDL
MODEL 4
REMARK VINA RESULT: -8.569424357      1.754      3.461
REMARK  13 active torsions:
REMARK  status: ('A' for Active; 'I' for Inactive)
REMARK    1  A    between atoms: C3_4  and  O2_5 
REMARK    2  A    between atoms: O2_5  and  C4_6 
REMARK    3  A    between atoms: C9_11  and  C10_12 
REMARK    4  A    between atoms: C10_12  and  S1_13 
REMARK    5  A    between atoms: S1_13  and  C11_14 
REMARK    6  A    between atoms: C11_14  and  C12_15 
REMARK    7  A    between atoms: C14_17  and  O3_18 
REMARK    8  A    between atoms: C15_20  and  O4_21 
REMARK    9  A    between atoms: C16_23  and  C17_24 
REMARK   10  A    between atoms: C17_24  and  O5_25 
REMARK   11  A    between atoms: C18_28  and  O7_29 
REMARK   12  A    between atoms: C19_31  and  O8_32 
REMARK   13  A    between atoms: C20_34  and  O9_35 
ROOT
HETATM    1  C4  UNL     1      59.358  17.493  16.215  1.00  0.00     0.129 C 
HETATM    2  C5  UNL     1      60.190  17.051  15.080  1.00  0.00     0.032 C 
HETATM    3  C6  UNL     1      59.971  17.795  13.791  1.00  0.00     0.002 C 
HETATM    4  C7  UNL     1      60.266  19.250  14.094  1.00  0.00     0.001 C 
HETATM    5  C8  UNL     1      59.172  19.707  15.037  1.00  0.00     0.008 C 
HETATM    6  C9  UNL     1      59.151  18.986  16.343  1.00  0.00     0.024 C 
ENDROOT
BRANCH   6   7
HETATM    7  C10 UNL     1      60.159  19.574  17.296  1.00  0.00     0.081 C 
BRANCH   7   8
HETATM    8  S1  UNL     1      60.211  21.328  17.439  1.00  0.00    -0.166 SA
BRANCH   8   9
HETATM    9  C11 UNL     1      61.255  22.247  16.348  1.00  0.00     0.105 C 
BRANCH   9  10
HETATM   10  C12 UNL     1      60.662  23.471  15.723  1.00  0.00     0.134 C 
HETATM   11  C13 UNL     1      59.536  23.997  16.606  1.00  0.00     0.067 C 
HETATM   12  C14 UNL     1      59.901  25.198  17.404  1.00  0.00     0.152 C 
HETATM   13  C15 UNL     1      61.355  25.431  17.617  1.00  0.00     0.178 C 
HETATM   14  C16 UNL     1      62.261  24.907  16.557  1.00  0.00     0.176 C 
HETATM   15  O6  UNL     1      61.580  24.454  15.431  1.00  0.00    -0.375 OA
BRANCH  12  16
HETATM   16  O3  UNL     1      59.261  26.363  16.931  1.00  0.00    -0.393 OA
ATOM     17  H3  UNL     1      59.644  27.153  17.294  1.00  0.00     0.210 HD
ENDBRANCH  12  16
BRANCH  13  18
HETATM   18  O4  UNL     1      61.786  24.990  18.890  1.00  0.00    -0.390 OA
ATOM     19  H4  UNL     1      61.467  25.549  19.590  1.00  0.00     0.210 HD
ENDBRANCH  13  18
BRANCH  14  20
HETATM   20  C17 UNL     1      63.246  25.962  16.097  1.00  0.00     0.198 C 
BRANCH  20  21
HETATM   21  O5  UNL     1      62.668  27.226  16.147  1.00  0.00    -0.398 OA
ATOM     22  H5  UNL     1      62.640  27.545  17.042  1.00  0.00     0.209 HD
ENDBRANCH  20  21
ENDBRANCH  14  20
ENDBRANCH   9  10
ENDBRANCH   8   9
ENDBRANCH   7   8
ENDBRANCH   6   7
BRANCH   1  23
HETATM   23  O2  UNL     1      58.139  16.802  16.271  1.00  0.00    -0.353 OA
BRANCH  23  24
HETATM   24  C3  UNL     1      57.747  16.261  15.077  1.00  0.00     0.291 C 
HETATM   25  O1  UNL     1      57.895  14.880  15.020  1.00  0.00    -0.351 OA
HETATM   26  C2  UNL     1      56.892  14.153  15.588  1.00  0.00     0.152 C 
HETATM   27  C1  UNL     1      56.250  13.309  14.477  1.00  0.00     0.042 C 
HETATM   28  C20 UNL     1      55.803  14.910  16.263  1.00  0.00     0.178 C 
HETATM   29  C19 UNL     1      55.283  16.066  15.482  1.00  0.00     0.183 C 
HETATM   30  C18 UNL     1      56.376  16.598  14.612  1.00  0.00     0.204 C 
BRANCH  28  31
HETATM   31  O9  UNL     1      54.717  14.019  16.443  1.00  0.00    -0.390 OA
ATOM     32  H9  UNL     1      55.064  13.221  16.823  1.00  0.00     0.210 HD
ENDBRANCH  28  31
BRANCH  29  33
HETATM   33  O8  UNL     1      54.120  15.736  14.753  1.00  0.00    -0.390 OA
ATOM     34  H8  UNL     1      53.629  15.026  15.150  1.00  0.00     0.210 HD
ENDBRANCH  29  33
BRANCH  30  35
HETATM   35  O7  UNL     1      56.150  17.940  14.366  1.00  0.00    -0.388 OA
ATOM     36  H7  UNL     1      56.126  18.185  13.448  1.00  0.00     0.210 HD
ENDBRANCH  30  35
ENDBRANCH  23  24
ENDBRANCH   1  23
TORSDOF 13
ENDMDL
MODEL 5
REMARK VINA RESULT: -8.342964473      1.695      3.364
REMARK  13 active torsions:
REMARK  status: ('A' for Active; 'I' for Inactive)
REMARK    1  A    between atoms: C3_4  and  O2_5 
REMARK    2  A    between atoms: O2_5  and  C4_6 
REMARK    3  A    between atoms: C9_11  and  C10_12 
REMARK    4  A    between atoms: C10_12  and  S1_13 
REMARK    5  A    between atoms: S1_13  and  C11_14 
REMARK    6  A    between atoms: C11_14  and  C12_15 
REMARK    7  A    between atoms: C14_17  and  O3_18 
REMARK    8  A    between atoms: C15_20  and  O4_21 
REMARK    9  A    between atoms: C16_23  and  C17_24 
REMARK   10  A    between atoms: C17_24  and  O5_25 
REMARK   11  A    between atoms: C18_28  and  O7_29 
REMARK   12  A    between atoms: C19_31  and  O8_32 
REMARK   13  A    between atoms: C20_34  and  O9_35 
ROOT
HETATM    1  C4  UNL     1      60.279  19.141  13.359  1.00  0.00     0.129 C 
HETATM    2  C5  UNL     1      60.685  18.635  12.034  1.00  0.00     0.032 C 
HETATM    3  C6  UNL     1      60.273  19.486  10.864  1.00  0.00     0.002 C 
HETATM    4  C7  UNL     1      60.899  20.845  11.096  1.00  0.00     0.001 C 
HETATM    5  C8  UNL     1      60.197  21.424  12.307  1.00  0.00     0.008 C 
HETATM    6  C9  UNL     1      60.390  20.637  13.560  1.00  0.00     0.024 C 
ENDROOT
BRANCH   6   7
HETATM    7  C10 UNL     1      61.705  20.980  14.211  1.00  0.00     0.081 C 
BRANCH   7   8
HETATM    8  S1  UNL     1      61.773  20.934  15.970  1.00  0.00    -0.166 SA
BRANCH   8   9
HETATM    9  C11 UNL     1      61.219  22.341  16.886  1.00  0.00     0.105 C 
BRANCH   9  10
HETATM   10  C12 UNL     1      60.640  23.472  16.095  1.00  0.00     0.134 C 
HETATM   11  C13 UNL     1      59.530  24.139  16.901  1.00  0.00     0.067 C 
HETATM   12  C14 UNL     1      59.922  25.437  17.514  1.00  0.00     0.152 C 
HETATM   13  C15 UNL     1      61.382  25.673  17.682  1.00  0.00     0.178 C 
HETATM   14  C16 UNL     1      62.269  24.986  16.702  1.00  0.00     0.176 C 
HETATM   15  O6  UNL     1      61.571  24.386  15.658  1.00  0.00    -0.375 OA
BRANCH  12  16
HETATM   16  O3  UNL     1      59.296  26.532  16.882  1.00  0.00    -0.393 OA
ATOM     17  H3  UNL     1      59.696  27.359  17.123  1.00  0.00     0.210 HD
ENDBRANCH  12  16
BRANCH  13  18
HETATM   18  O4  UNL     1      61.817  25.413  19.002  1.00  0.00    -0.390 OA
ATOM     19  H4  UNL     1      62.736  25.622  19.125  1.00  0.00     0.210 HD
ENDBRANCH  13  18
BRANCH  14  20
HETATM   20  C17 UNL     1      63.266  25.946  16.088  1.00  0.00     0.198 C 
BRANCH  20  21
HETATM   21  O5  UNL     1      62.765  27.243  16.094  1.00  0.00    -0.398 OA
ATOM     22  H5  UNL     1      62.293  27.422  15.289  1.00  0.00     0.209 HD
ENDBRANCH  20  21
ENDBRANCH  14  20
ENDBRANCH   9  10
ENDBRANCH   8   9
ENDBRANCH   7   8
ENDBRANCH   6   7
BRANCH   1  23
HETATM   23  O2  UNL     1      59.013  18.669  13.735  1.00  0.00    -0.353 OA
BRANCH  23  24
HETATM   24  C3  UNL     1      59.013  17.384  14.205  1.00  0.00     0.291 C 
HETATM   25  O1  UNL     1      60.158  17.055  14.920  1.00  0.00    -0.351 OA
HETATM   26  C2  UNL     1      60.175  17.448  16.225  1.00  0.00     0.152 C 
HETATM   27  C1  UNL     1      60.264  16.180  17.086  1.00  0.00     0.042 C 
HETATM   28  C20 UNL     1      59.013  18.241  16.711  1.00  0.00     0.178 C 
HETATM   29  C19 UNL     1      57.687  17.696  16.307  1.00  0.00     0.183 C 
HETATM   30  C18 UNL     1      57.833  16.970  15.008  1.00  0.00     0.204 C 
BRANCH  28  31
HETATM   31  O9  UNL     1      59.048  18.219  18.126  1.00  0.00    -0.390 OA
ATOM     32  H9  UNL     1      58.778  19.078  18.430  1.00  0.00     0.210 HD
ENDBRANCH  28  31
BRANCH  29  33
HETATM   33  O8  UNL     1      57.112  16.894  17.317  1.00  0.00    -0.390 OA
ATOM     34  H8  UNL     1      57.535  17.008  18.160  1.00  0.00     0.210 HD
ENDBRANCH  29  33
BRANCH  30  35
HETATM   35  O7  UNL     1      56.625  16.992  14.337  1.00  0.00    -0.388 OA
ATOM     36  H7  UNL     1      55.974  16.375  14.652  1.00  0.00     0.210 HD
ENDBRANCH  30  35
ENDBRANCH  23  24
ENDBRANCH   1  23
TORSDOF 13
ENDMDL
