MODEL 1
REMARK VINA RESULT: -7.258461701      0.000      0.000
REMARK  11 active torsions:
REMARK  status: ('A' for Active; 'I' for Inactive)
REMARK    1  A    between atoms: C2_2  and  N1_3 
REMARK    2  A    between atoms: N1_3  and  C3_4 
REMARK       I    between atoms: N1_3  and  C5_6 
REMARK       I    between atoms: C5_6  and  N2_8 
REMARK    3  A    between atoms: N2_8  and  C6_10 
REMARK    4  A    between atoms: C7_11  and  O2_12 
REMARK    5  A    between atoms: C9_16  and  O3_17 
REMARK    6  A    between atoms: C11_19  and  N3_20 
REMARK    7  A    between atoms: C12_24  and  O4_25 
REMARK    8  A    between atoms: O4_25  and  C13_26 
REMARK    9  A    between atoms: C15_29  and  O5_30 
REMARK   10  A    between atoms: C16_32  and  O6_33 
REMARK   11  A    between atoms: C17_35  and  O7_36 
ROOT
HETATM    1  C6  UNL     1      60.117  17.916  16.130  1.00  0.00     0.147 C 
HETATM    2  C7  UNL     1      59.328  17.216  17.182  1.00  0.00     0.160 C 
HETATM    3  C8  UNL     1      58.273  16.270  16.742  1.00  0.00     0.120 C 
HETATM    4  S1  UNL     1      56.657  17.062  16.797  1.00  0.00    -0.087 SA
HETATM    5  C9  UNL     1      58.631  15.748  15.372  1.00  0.00     0.171 C 
HETATM    6  C11 UNL     1      58.593  16.891  14.362  1.00  0.00     0.244 C 
HETATM    7  C12 UNL     1      59.436  18.060  14.816  1.00  0.00     0.181 C 
ENDROOT
BRANCH   7   8
HETATM    8  O4  UNL     1      60.440  18.289  13.814  1.00  0.00    -0.363 OA
BRANCH   8   9
HETATM    9  C13 UNL     1      60.119  19.307  12.968  1.00  0.00     0.214 C 
HETATM   10  S2  UNL     1      60.797  20.910  13.527  1.00  0.00    -0.132 SA
HETATM   11  C14 UNL     1      61.669  21.608  12.085  1.00  0.00     0.111 C 
HETATM   12  C15 UNL     1      60.850  21.460  10.828  1.00  0.00     0.159 C 
HETATM   13  C16 UNL     1      60.210  20.123  10.673  1.00  0.00     0.179 C 
HETATM   14  C17 UNL     1      60.767  19.064  11.621  1.00  0.00     0.188 C 
BRANCH  12  15
HETATM   15  O5  UNL     1      59.849  22.442  10.764  1.00  0.00    -0.392 OA
ATOM     16  H5  UNL     1      58.990  22.061  10.906  1.00  0.00     0.210 HD
ENDBRANCH  12  15
BRANCH  13  17
HETATM   17  O6  UNL     1      60.404  19.662   9.360  1.00  0.00    -0.390 OA
ATOM     18  H6  UNL     1      59.690  19.084   9.120  1.00  0.00     0.210 HD
ENDBRANCH  13  17
BRANCH  14  19
HETATM   19  O7  UNL     1      60.473  17.809  11.133  1.00  0.00    -0.389 OA
ATOM     20  H7  UNL     1      60.895  17.126  11.641  1.00  0.00     0.210 HD
ENDBRANCH  14  19
ENDBRANCH   8   9
ENDBRANCH   7   8
BRANCH   1  21
HETATM   21  N2  UNL     1      60.558  19.198  16.616  1.00  0.00    -0.333 N 
HETATM   22  C5  UNL     1      59.899  20.416  16.678  1.00  0.00     0.318 C 
HETATM   23  N1  UNL     1      60.479  21.608  17.185  1.00  0.00    -0.335 N 
HETATM   24  O1  UNL     1      58.706  20.532  16.272  1.00  0.00    -0.247 OA
ATOM     25  H2  UNL     1      61.514  19.212  16.972  1.00  0.00     0.164 HD
BRANCH  23  26
HETATM   26  C2  UNL     1      61.835  21.606  17.645  1.00  0.00     0.123 C 
HETATM   27  C1  UNL     1      62.042  22.557  18.821  1.00  0.00     0.026 C 
ENDBRANCH  23  26
BRANCH  23  28
HETATM   28  C3  UNL     1      59.673  22.840  17.237  1.00  0.00     0.123 C 
HETATM   29  C4  UNL     1      59.972  23.769  16.098  1.00  0.00     0.026 C 
ENDBRANCH  23  28
ENDBRANCH   1  21
BRANCH   6  30
HETATM   30  N3  UNL     1      57.244  17.376  14.161  1.00  0.00    -0.070 N 
ATOM     31  H33 UNL     1      57.025  17.471  13.169  1.00  0.00     0.274 HD
ATOM     32  H32 UNL     1      56.552  16.668  14.408  1.00  0.00     0.274 HD
ATOM     33  H31 UNL     1      57.082  18.248  14.665  1.00  0.00     0.274 HD
ENDBRANCH   6  30
BRANCH   2  34
HETATM   34  O2  UNL     1      58.873  18.162  18.099  1.00  0.00    -0.392 OA
ATOM     35  H2  UNL     1      57.967  17.967  18.311  1.00  0.00     0.210 HD
ENDBRANCH   2  34
BRANCH   5  36
HETATM   36  O3  UNL     1      58.016  14.628  14.975  1.00  0.00    -0.387 OA
HETATM   37  C10 UNL     1      57.024  14.098  15.752  1.00  0.00     0.202 C 
ENDBRANCH   5  36
TORSDOF 11
ENDMDL
MODEL 2
REMARK VINA RESULT: -7.189292323      1.225      1.710
REMARK  11 active torsions:
REMARK  status: ('A' for Active; 'I' for Inactive)
REMARK    1  A    between atoms: C2_2  and  N1_3 
REMARK    2  A    between atoms: N1_3  and  C3_4 
REMARK       I    between atoms: N1_3  and  C5_6 
REMARK       I    between atoms: C5_6  and  N2_8 
REMARK    3  A    between atoms: N2_8  and  C6_10 
REMARK    4  A    between atoms: C7_11  and  O2_12 
REMARK    5  A    between atoms: C9_16  and  O3_17 
REMARK    6  A    between atoms: C11_19  and  N3_20 
REMARK    7  A    between atoms: C12_24  and  O4_25 
REMARK    8  A    between atoms: O4_25  and  C13_26 
REMARK    9  A    between atoms: C15_29  and  O5_30 
REMARK   10  A    between atoms: C16_32  and  O6_33 
REMARK   11  A    between atoms: C17_35  and  O7_36 
ROOT
HETATM    1  C6  UNL     1      60.424  18.987  16.229  1.00  0.00     0.147 C 
HETATM    2  C7  UNL     1      59.762  18.197  17.305  1.00  0.00     0.160 C 
HETATM    3  C8  UNL     1      59.153  16.896  16.935  1.00  0.00     0.120 C 
HETATM    4  S1  UNL     1      57.377  17.078  16.700  1.00  0.00    -0.087 SA
HETATM    5  C9  UNL     1      59.860  16.361  15.714  1.00  0.00     0.171 C 
HETATM    6  C11 UNL     1      59.598  17.279  14.524  1.00  0.00     0.244 C 
HETATM    7  C12 UNL     1      59.934  18.717  14.851  1.00  0.00     0.181 C 
ENDROOT
BRANCH   7   8
HETATM    8  O4  UNL     1      60.943  19.150  13.924  1.00  0.00    -0.363 OA
BRANCH   8   9
HETATM    9  C13 UNL     1      60.483  20.073  13.035  1.00  0.00     0.214 C 
HETATM   10  S2  UNL     1      61.137  21.746  13.374  1.00  0.00    -0.132 SA
HETATM   11  C14 UNL     1      61.812  22.343  11.789  1.00  0.00     0.111 C 
HETATM   12  C15 UNL     1      60.870  22.049  10.649  1.00  0.00     0.159 C 
HETATM   13  C16 UNL     1      60.283  20.680  10.683  1.00  0.00     0.179 C 
HETATM   14  C17 UNL     1      60.991  19.734  11.650  1.00  0.00     0.188 C 
BRANCH  12  15
HETATM   15  O5  UNL     1      59.821  22.982  10.614  1.00  0.00    -0.392 OA
ATOM     16  H5  UNL     1      59.303  22.879   9.824  1.00  0.00     0.210 HD
ENDBRANCH  12  15
BRANCH  13  17
HETATM   17  O6  UNL     1      60.356  20.110   9.401  1.00  0.00    -0.390 OA
ATOM     18  H6  UNL     1      59.678  20.483   8.851  1.00  0.00     0.210 HD
ENDBRANCH  13  17
BRANCH  14  19
HETATM   19  O7  UNL     1      60.708  18.429  11.308  1.00  0.00    -0.389 OA
ATOM     20  H7  UNL     1      60.288  18.372  10.458  1.00  0.00     0.210 HD
ENDBRANCH  14  19
ENDBRANCH   8   9
ENDBRANCH   7   8
BRANCH   1  21
HETATM   21  N2  UNL     1      60.343  20.394  16.528  1.00  0.00    -0.333 N 
HETATM   22  C5  UNL     1      61.318  21.286  16.947  1.00  0.00     0.318 C 
HETATM   23  N1  UNL     1      61.077  22.660  17.209  1.00  0.00    -0.335 N 
HETATM   24  O1  UNL     1      62.513  20.910  17.122  1.00  0.00    -0.247 OA
ATOM     25  H2  UNL     1      59.414  20.800  16.414  1.00  0.00     0.164 HD
BRANCH  23  26
HETATM   26  C2  UNL     1      59.755  23.194  17.076  1.00  0.00     0.123 C 
HETATM   27  C1  UNL     1      59.761  24.718  16.987  1.00  0.00     0.026 C 
ENDBRANCH  23  26
BRANCH  23  28
HETATM   28  C3  UNL     1      62.197  23.526  17.616  1.00  0.00     0.123 C 
HETATM   29  C4  UNL     1      62.469  23.460  19.089  1.00  0.00     0.026 C 
ENDBRANCH  23  28
ENDBRANCH   1  21
BRANCH   6  30
HETATM   30  N3  UNL     1      58.210  17.237  14.117  1.00  0.00    -0.070 N 
ATOM     31  H33 UNL     1      58.119  17.051  13.118  1.00  0.00     0.274 HD
ATOM     32  H32 UNL     1      57.741  16.404  14.475  1.00  0.00     0.274 HD
ATOM     33  H31 UNL     1      57.715  18.087  14.384  1.00  0.00     0.274 HD
ENDBRANCH   6  30
BRANCH   2  34
HETATM   34  O2  UNL     1      58.891  19.035  18.000  1.00  0.00    -0.392 OA
ATOM     35  H2  UNL     1      58.037  18.996  17.585  1.00  0.00     0.210 HD
ENDBRANCH   2  34
BRANCH   5  36
HETATM   36  O3  UNL     1      59.712  15.055  15.456  1.00  0.00    -0.387 OA
HETATM   37  C10 UNL     1      58.566  14.422  15.849  1.00  0.00     0.202 C 
ENDBRANCH   5  36
TORSDOF 11
ENDMDL
MODEL 3
REMARK VINA RESULT: -6.968745342      2.277      6.693
REMARK  11 active torsions:
REMARK  status: ('A' for Active; 'I' for Inactive)
REMARK    1  A    between atoms: C2_2  and  N1_3 
REMARK    2  A    between atoms: N1_3  and  C3_4 
REMARK       I    between atoms: N1_3  and  C5_6 
REMARK       I    between atoms: C5_6  and  N2_8 
REMARK    3  A    between atoms: N2_8  and  C6_10 
REMARK    4  A    between atoms: C7_11  and  O2_12 
REMARK    5  A    between atoms: C9_16  and  O3_17 
REMARK    6  A    between atoms: C11_19  and  N3_20 
REMARK    7  A    between atoms: C12_24  and  O4_25 
REMARK    8  A    between atoms: O4_25  and  C13_26 
REMARK    9  A    between atoms: C15_29  and  O5_30 
REMARK   10  A    between atoms: C16_32  and  O6_33 
REMARK   11  A    between atoms: C17_35  and  O7_36 
ROOT
HETATM    1  C6  UNL     1      61.149  20.826  14.680  1.00  0.00     0.147 C 
HETATM    2  C7  UNL     1      61.418  22.264  14.964  1.00  0.00     0.160 C 
HETATM    3  C8  UNL     1      61.127  22.767  16.329  1.00  0.00     0.120 C 
HETATM    4  S1  UNL     1      59.531  23.600  16.365  1.00  0.00    -0.087 SA
HETATM    5  C9  UNL     1      61.215  21.614  17.298  1.00  0.00     0.171 C 
HETATM    6  C11 UNL     1      60.111  20.605  16.999  1.00  0.00     0.244 C 
HETATM    7  C12 UNL     1      60.120  20.190  15.545  1.00  0.00     0.181 C 
ENDROOT
BRANCH   7   8
HETATM    8  O4  UNL     1      60.312  18.767  15.499  1.00  0.00    -0.363 OA
BRANCH   8   9
HETATM    9  C13 UNL     1      59.269  18.075  16.034  1.00  0.00     0.214 C 
HETATM   10  S2  UNL     1      57.709  18.366  15.127  1.00  0.00    -0.132 SA
HETATM   11  C14 UNL     1      57.036  16.712  14.758  1.00  0.00     0.111 C 
HETATM   12  C15 UNL     1      57.127  15.805  15.959  1.00  0.00     0.159 C 
HETATM   13  C16 UNL     1      58.428  15.881  16.681  1.00  0.00     0.179 C 
HETATM   14  C17 UNL     1      59.526  16.590  15.891  1.00  0.00     0.188 C 
BRANCH  12  15
HETATM   15  O5  UNL     1      56.095  16.079  16.871  1.00  0.00    -0.392 OA
ATOM     16  H5  UNL     1      55.878  17.004  16.869  1.00  0.00     0.210 HD
ENDBRANCH  12  15
BRANCH  13  17
HETATM   17  O6  UNL     1      58.880  14.582  16.964  1.00  0.00    -0.390 OA
ATOM     18  H6  UNL     1      58.138  14.030  17.180  1.00  0.00     0.210 HD
ENDBRANCH  13  17
BRANCH  14  19
HETATM   19  O7  UNL     1      60.758  16.235  16.397  1.00  0.00    -0.389 OA
ATOM     20  H7  UNL     1      61.466  16.516  15.828  1.00  0.00     0.210 HD
ENDBRANCH  14  19
ENDBRANCH   8   9
ENDBRANCH   7   8
BRANCH   1  21
HETATM   21  N2  UNL     1      60.820  20.651  13.289  1.00  0.00    -0.333 N 
HETATM   22  C5  UNL     1      60.688  19.498  12.530  1.00  0.00     0.318 C 
HETATM   23  N1  UNL     1      60.360  19.489  11.149  1.00  0.00    -0.335 N 
HETATM   24  O1  UNL     1      60.860  18.355  13.046  1.00  0.00    -0.247 OA
ATOM     25  H2  UNL     1      60.656  21.518  12.777  1.00  0.00     0.164 HD
BRANCH  23  26
HETATM   26  C2  UNL     1      60.173  20.724  10.449  1.00  0.00     0.123 C 
HETATM   27  C1  UNL     1      61.488  21.473  10.247  1.00  0.00     0.026 C 
ENDBRANCH  23  26
BRANCH  23  28
HETATM   28  C3  UNL     1      60.212  18.202  10.448  1.00  0.00     0.123 C 
HETATM   29  C4  UNL     1      58.879  18.065   9.776  1.00  0.00     0.026 C 
ENDBRANCH  23  28
ENDBRANCH   1  21
BRANCH   6  30
HETATM   30  N3  UNL     1      58.802  21.150  17.290  1.00  0.00    -0.070 N 
ATOM     31  H33 UNL     1      58.869  22.062  17.744  1.00  0.00     0.274 HD
ATOM     32  H32 UNL     1      58.317  21.434  16.438  1.00  0.00     0.274 HD
ATOM     33  H31 UNL     1      58.240  20.501  17.839  1.00  0.00     0.274 HD
ENDBRANCH   6  30
BRANCH   2  34
HETATM   34  O2  UNL     1      60.834  23.032  13.957  1.00  0.00    -0.392 OA
ATOM     35  H2  UNL     1      60.578  23.870  14.326  1.00  0.00     0.210 HD
ENDBRANCH   2  34
BRANCH   5  36
HETATM   36  O3  UNL     1      61.353  21.926  18.593  1.00  0.00    -0.387 OA
HETATM   37  C10 UNL     1      62.237  22.903  18.955  1.00  0.00     0.202 C 
ENDBRANCH   5  36
TORSDOF 11
ENDMDL
MODEL 4
REMARK VINA RESULT: -6.801047584      2.232      5.758
REMARK  11 active torsions:
REMARK  status: ('A' for Active; 'I' for Inactive)
REMARK    1  A    between atoms: C2_2  and  N1_3 
REMARK    2  A    between atoms: N1_3  and  C3_4 
REMARK       I    between atoms: N1_3  and  C5_6 
REMARK       I    between atoms: C5_6  and  N2_8 
REMARK    3  A    between atoms: N2_8  and  C6_10 
REMARK    4  A    between atoms: C7_11  and  O2_12 
REMARK    5  A    between atoms: C9_16  and  O3_17 
REMARK    6  A    between atoms: C11_19  and  N3_20 
REMARK    7  A    between atoms: C12_24  and  O4_25 
REMARK    8  A    between atoms: O4_25  and  C13_26 
REMARK    9  A    between atoms: C15_29  and  O5_30 
REMARK   10  A    between atoms: C16_32  and  O6_33 
REMARK   11  A    between atoms: C17_35  and  O7_36 
ROOT
HETATM    1  C6  UNL     1      59.650  21.493  16.236  1.00  0.00     0.147 C 
HETATM    2  C7  UNL     1      59.909  22.136  17.554  1.00  0.00     0.160 C 
HETATM    3  C8  UNL     1      60.529  23.484  17.558  1.00  0.00     0.120 C 
HETATM    4  S1  UNL     1      62.299  23.361  17.860  1.00  0.00    -0.087 SA
HETATM    5  C9  UNL     1      60.196  24.173  16.257  1.00  0.00     0.171 C 
HETATM    6  C11 UNL     1      60.857  23.431  15.100  1.00  0.00     0.244 C 
HETATM    7  C12 UNL     1      60.518  21.957  15.121  1.00  0.00     0.181 C 
ENDROOT
BRANCH   7   8
HETATM    8  O4  UNL     1      59.864  21.642  13.881  1.00  0.00    -0.363 OA
BRANCH   8   9
HETATM    9  C13 UNL     1      60.698  21.060  12.977  1.00  0.00     0.214 C 
HETATM   10  S2  UNL     1      60.291  19.300  12.695  1.00  0.00    -0.132 SA
HETATM   11  C14 UNL     1      60.169  19.105  10.885  1.00  0.00     0.111 C 
HETATM   12  C15 UNL     1      61.306  19.805  10.183  1.00  0.00     0.159 C 
HETATM   13  C16 UNL     1      61.607  21.163  10.718  1.00  0.00     0.179 C 
HETATM   14  C17 UNL     1      60.513  21.719  11.626  1.00  0.00     0.188 C 
BRANCH  12  15
HETATM   15  O5  UNL     1      62.479  19.035  10.240  1.00  0.00    -0.392 OA
ATOM     16  H5  UNL     1      62.855  18.926   9.374  1.00  0.00     0.210 HD
ENDBRANCH  12  15
BRANCH  13  17
HETATM   17  O6  UNL     1      61.767  22.060   9.648  1.00  0.00    -0.390 OA
ATOM     18  H6  UNL     1      60.934  22.173   9.205  1.00  0.00     0.210 HD
ENDBRANCH  13  17
BRANCH  14  19
HETATM   19  O7  UNL     1      60.635  23.090  11.707  1.00  0.00    -0.389 OA
ATOM     20  H7  UNL     1      60.438  23.510  10.878  1.00  0.00     0.210 HD
ENDBRANCH  14  19
ENDBRANCH   8   9
ENDBRANCH   7   8
BRANCH   1  21
HETATM   21  N2  UNL     1      59.715  20.059  16.364  1.00  0.00    -0.333 N 
HETATM   22  C5  UNL     1      58.709  19.105  16.353  1.00  0.00     0.318 C 
HETATM   23  N1  UNL     1      58.935  17.712  16.500  1.00  0.00    -0.335 N 
HETATM   24  O1  UNL     1      57.496  19.438  16.208  1.00  0.00    -0.247 OA
ATOM     25  H2  UNL     1      60.656  19.685  16.482  1.00  0.00     0.164 HD
BRANCH  23  26
HETATM   26  C2  UNL     1      60.264  17.218  16.701  1.00  0.00     0.123 C 
HETATM   27  C1  UNL     1      60.456  16.649  18.105  1.00  0.00     0.026 C 
ENDBRANCH  23  26
BRANCH  23  28
HETATM   28  C3  UNL     1      57.793  16.783  16.438  1.00  0.00     0.123 C 
HETATM   29  C4  UNL     1      58.046  15.623  15.522  1.00  0.00     0.026 C 
ENDBRANCH  23  28
ENDBRANCH   1  21
BRANCH   6  30
HETATM   30  N3  UNL     1      62.299  23.549  15.148  1.00  0.00    -0.070 N 
ATOM     31  H33 UNL     1      62.591  24.287  15.789  1.00  0.00     0.274 HD
ATOM     32  H32 UNL     1      62.723  22.751  15.623  1.00  0.00     0.274 HD
ATOM     33  H31 UNL     1      62.694  23.684  14.218  1.00  0.00     0.274 HD
ENDBRANCH   6  30
BRANCH   2  34
HETATM   34  O2  UNL     1      60.573  21.222  18.372  1.00  0.00    -0.392 OA
ATOM     35  H2  UNL     1      59.927  20.670  18.797  1.00  0.00     0.210 HD
ENDBRANCH   2  34
BRANCH   5  36
HETATM   36  O3  UNL     1      60.342  25.503  16.226  1.00  0.00    -0.387 OA
HETATM   37  C10 UNL     1      59.839  26.255  17.251  1.00  0.00     0.202 C 
ENDBRANCH   5  36
TORSDOF 11
ENDMDL
MODEL 5
REMARK VINA RESULT: -6.149002636      1.487      1.953
REMARK  11 active torsions:
REMARK  status: ('A' for Active; 'I' for Inactive)
REMARK    1  A    between atoms: C2_2  and  N1_3 
REMARK    2  A    between atoms: N1_3  and  C3_4 
REMARK       I    between atoms: N1_3  and  C5_6 
REMARK       I    between atoms: C5_6  and  N2_8 
REMARK    3  A    between atoms: N2_8  and  C6_10 
REMARK    4  A    between atoms: C7_11  and  O2_12 
REMARK    5  A    between atoms: C9_16  and  O3_17 
REMARK    6  A    between atoms: C11_19  and  N3_20 
REMARK    7  A    between atoms: C12_24  and  O4_25 
REMARK    8  A    between atoms: O4_25  and  C13_26 
REMARK    9  A    between atoms: C15_29  and  O5_30 
REMARK   10  A    between atoms: C16_32  and  O6_33 
REMARK   11  A    between atoms: C17_35  and  O7_36 
ROOT
HETATM    1  C6  UNL     1      60.541  19.270  15.913  1.00  0.00     0.147 C 
HETATM    2  C7  UNL     1      59.964  18.564  17.091  1.00  0.00     0.160 C 
HETATM    3  C8  UNL     1      59.294  17.261  16.859  1.00  0.00     0.120 C 
HETATM    4  S1  UNL     1      57.508  17.479  16.775  1.00  0.00    -0.087 SA
HETATM    5  C9  UNL     1      59.873  16.634  15.614  1.00  0.00     0.171 C 
HETATM    6  C11 UNL     1      59.523  17.488  14.399  1.00  0.00     0.244 C 
HETATM    7  C12 UNL     1      59.921  18.932  14.604  1.00  0.00     0.181 C 
ENDROOT
BRANCH   7   8
HETATM    8  O4  UNL     1      60.849  19.281  13.564  1.00  0.00    -0.363 OA
BRANCH   8   9
HETATM    9  C13 UNL     1      60.234  19.694  12.423  1.00  0.00     0.214 C 
HETATM   10  S2  UNL     1      60.938  21.255  11.784  1.00  0.00    -0.132 SA
HETATM   11  C14 UNL     1      61.311  20.945  10.025  1.00  0.00     0.111 C 
HETATM   12  C15 UNL     1      60.176  20.222   9.346  1.00  0.00     0.159 C 
HETATM   13  C16 UNL     1      59.606  19.100  10.144  1.00  0.00     0.179 C 
HETATM   14  C17 UNL     1      60.480  18.682  11.324  1.00  0.00     0.188 C 
BRANCH  12  15
HETATM   15  O5  UNL     1      59.139  21.111   9.024  1.00  0.00    -0.392 OA
ATOM     16  H5  UNL     1      58.386  20.642   8.680  1.00  0.00     0.210 HD
ENDBRANCH  12  15
BRANCH  13  17
HETATM   17  O6  UNL     1      59.444  17.976   9.317  1.00  0.00    -0.390 OA
ATOM     18  H6  UNL     1      58.892  17.339   9.756  1.00  0.00     0.210 HD
ENDBRANCH  13  17
BRANCH  14  19
HETATM   19  O7  UNL     1      60.139  17.407  11.720  1.00  0.00    -0.389 OA
ATOM     20  H7  UNL     1      60.188  16.790  10.999  1.00  0.00     0.210 HD
ENDBRANCH  14  19
ENDBRANCH   8   9
ENDBRANCH   7   8
BRANCH   1  21
HETATM   21  N2  UNL     1      60.520  20.693  16.131  1.00  0.00    -0.333 N 
HETATM   22  C5  UNL     1      61.251  21.484  17.004  1.00  0.00     0.318 C 
HETATM   23  N1  UNL     1      61.110  22.893  17.107  1.00  0.00    -0.335 N 
HETATM   24  O1  UNL     1      62.110  20.975  17.781  1.00  0.00    -0.247 OA
ATOM     25  H2  UNL     1      59.858  21.204  15.546  1.00  0.00     0.164 HD
BRANCH  23  26
HETATM   26  C2  UNL     1      60.146  23.577  16.299  1.00  0.00     0.123 C 
HETATM   27  C1  UNL     1      59.559  24.792  17.014  1.00  0.00     0.026 C 
ENDBRANCH  23  26
BRANCH  23  28
HETATM   28  C3  UNL     1      61.964  23.639  18.046  1.00  0.00     0.123 C 
HETATM   29  C4  UNL     1      62.979  24.493  17.345  1.00  0.00     0.026 C 
ENDBRANCH  23  28
ENDBRANCH   1  21
BRANCH   6  30
HETATM   30  N3  UNL     1      58.103  17.460  14.123  1.00  0.00    -0.070 N 
ATOM     31  H33 UNL     1      57.748  16.504  14.087  1.00  0.00     0.274 HD
ATOM     32  H32 UNL     1      57.561  17.800  14.918  1.00  0.00     0.274 HD
ATOM     33  H31 UNL     1      57.878  17.974  13.271  1.00  0.00     0.274 HD
ENDBRANCH   6  30
BRANCH   2  34
HETATM   34  O2  UNL     1      59.180  19.466  17.809  1.00  0.00    -0.392 OA
ATOM     35  H2  UNL     1      59.750  20.118  18.201  1.00  0.00     0.210 HD
ENDBRANCH   2  34
BRANCH   5  36
HETATM   36  O3  UNL     1      59.672  15.321  15.452  1.00  0.00    -0.387 OA
HETATM   37  C10 UNL     1      59.033  14.616  16.434  1.00  0.00     0.202 C 
ENDBRANCH   5  36
TORSDOF 11
ENDMDL
