MODEL 1
REMARK VINA RESULT: -6.246305595      0.000      0.000
REMARK  2 active torsions:
REMARK  status: ('A' for Active; 'I' for Inactive)
REMARK    1  A    between atoms: N2_4  and  N3_6 
REMARK    2  A    between atoms: C2_11  and  C3_12 
ROOT
HETATM    1  N3  UNL     1      -1.104  26.422  27.006  1.00  0.00    -0.268 N 
ATOM      2  H3  UNL     1      -0.444  25.932  27.610  1.00  0.00     0.190 HD
HETATM    3  C1  UNL     1      -2.346  26.604  27.359  1.00  0.00     0.167 A 
HETATM    4  N4  UNL     1      -3.388  27.257  26.646  1.00  0.00    -0.320 N 
ATOM      5  H4  UNL     1      -3.298  27.688  25.727  1.00  0.00     0.169 HD
HETATM    6  C2  UNL     1      -4.575  27.211  27.423  1.00  0.00     0.175 A 
HETATM    7  N6  UNL     1      -4.326  26.601  28.504  1.00  0.00    -0.322 N 
ATOM      8  H6  UNL     1      -5.024  26.440  29.230  1.00  0.00     0.169 HD
HETATM    9  C4  UNL     1      -2.980  26.164  28.607  1.00  0.00     0.147 A 
HETATM   10  N7  UNL     1      -2.379  25.523  29.546  1.00  0.00    -0.382 N 
ATOM     11  H71 UNL     1      -2.820  25.218  30.414  1.00  0.00     0.157 HD
ATOM     12  H72 UNL     1      -1.411  25.209  29.620  1.00  0.00     0.157 HD
ENDROOT
BRANCH   1  13
HETATM   13  N2  UNL     1      -0.718  26.931  25.762  1.00  0.00    -0.248 N 
HETATM   14  N1  UNL     1       0.446  27.466  25.710  1.00  0.00    -0.331 N 
ATOM     15  H12 UNL     1       1.043  27.509  26.536  1.00  0.00     0.178 HD
ATOM     16  H11 UNL     1       0.728  27.837  24.803  1.00  0.00     0.178 HD
ATOM     17  H2  UNL     1      -1.326  26.880  24.944  1.00  0.00     0.207 HD
ENDBRANCH   1  13
BRANCH   6  18
HETATM   18  C3  UNL     1      -5.878  27.782  27.029  1.00  0.00     0.298 C 
HETATM   19  N5  UNL     1      -6.869  28.064  27.981  1.00  0.00    -0.054 NA
HETATM   20  O1  UNL     1      -6.130  28.031  25.823  1.00  0.00    -0.268 OA
ENDBRANCH   6  18
TORSDOF 2
ENDMDL
MODEL 2
REMARK VINA RESULT: -6.088892155      2.638      4.053
REMARK  2 active torsions:
REMARK  status: ('A' for Active; 'I' for Inactive)
REMARK    1  A    between atoms: N2_4  and  N3_6 
REMARK    2  A    between atoms: C2_11  and  C3_12 
ROOT
HETATM    1  N3  UNL     1       0.760  27.584  24.314  1.00  0.00    -0.268 N 
ATOM      2  H3  UNL     1       0.717  27.835  23.326  1.00  0.00     0.190 HD
HETATM    3  C1  UNL     1      -0.306  27.223  24.971  1.00  0.00     0.167 A 
HETATM    4  N4  UNL     1      -0.425  26.845  26.336  1.00  0.00    -0.320 N 
ATOM      5  H4  UNL     1       0.339  26.805  27.010  1.00  0.00     0.169 HD
HETATM    6  C2  UNL     1      -1.783  26.533  26.610  1.00  0.00     0.175 A 
HETATM    7  N6  UNL     1      -2.455  26.692  25.549  1.00  0.00    -0.322 N 
ATOM      8  H6  UNL     1      -3.460  26.529  25.493  1.00  0.00     0.169 HD
HETATM    9  C4  UNL     1      -1.673  27.119  24.446  1.00  0.00     0.147 A 
HETATM   10  N7  UNL     1      -2.010  27.378  23.232  1.00  0.00    -0.382 N 
ATOM     11  H71 UNL     1      -2.960  27.305  22.866  1.00  0.00     0.157 HD
ATOM     12  H72 UNL     1      -1.448  27.685  22.438  1.00  0.00     0.157 HD
ENDROOT
BRANCH   1  13
HETATM   13  N2  UNL     1       1.964  27.611  25.024  1.00  0.00    -0.248 N 
HETATM   14  N1  UNL     1       2.212  28.690  25.670  1.00  0.00    -0.331 N 
ATOM     15  H12 UNL     1       1.559  29.473  25.657  1.00  0.00     0.178 HD
ATOM     16  H11 UNL     1       3.090  28.709  26.188  1.00  0.00     0.178 HD
ATOM     17  H2  UNL     1       2.607  26.818  25.028  1.00  0.00     0.207 HD
ENDBRANCH   1  13
BRANCH   6  18
HETATM   18  C3  UNL     1      -2.314  26.097  27.916  1.00  0.00     0.298 C 
HETATM   19  N5  UNL     1      -1.524  25.370  28.820  1.00  0.00    -0.054 NA
HETATM   20  O1  UNL     1      -3.495  26.369  28.252  1.00  0.00    -0.268 OA
ENDBRANCH   6  18
TORSDOF 2
ENDMDL
MODEL 3
REMARK VINA RESULT: -6.000958802      1.125      1.207
REMARK  2 active torsions:
REMARK  status: ('A' for Active; 'I' for Inactive)
REMARK    1  A    between atoms: N2_4  and  N3_6 
REMARK    2  A    between atoms: C2_11  and  C3_12 
ROOT
HETATM    1  N3  UNL     1      -1.313  26.402  25.657  1.00  0.00    -0.268 N 
ATOM      2  H3  UNL     1      -0.489  26.155  26.205  1.00  0.00     0.190 HD
HETATM    3  C1  UNL     1      -2.459  26.654  26.226  1.00  0.00     0.167 A 
HETATM    4  N4  UNL     1      -3.695  27.008  25.620  1.00  0.00    -0.320 N 
ATOM      5  H4  UNL     1      -3.855  27.117  24.619  1.00  0.00     0.169 HD
HETATM    6  C2  UNL     1      -4.670  27.187  26.637  1.00  0.00     0.175 A 
HETATM    7  N6  UNL     1      -4.126  26.972  27.759  1.00  0.00    -0.322 N 
ATOM      8  H6  UNL     1      -4.626  27.039  28.646  1.00  0.00     0.169 HD
HETATM    9  C4  UNL     1      -2.752  26.630  27.664  1.00  0.00     0.147 A 
HETATM   10  N7  UNL     1      -1.895  26.350  28.580  1.00  0.00    -0.382 N 
ATOM     11  H71 UNL     1      -2.098  26.334  29.579  1.00  0.00     0.157 HD
ATOM     12  H72 UNL     1      -0.907  26.104  28.511  1.00  0.00     0.157 HD
ENDROOT
BRANCH   1  13
HETATM   13  N2  UNL     1      -1.266  26.485  24.262  1.00  0.00    -0.248 N 
HETATM   14  N1  UNL     1      -0.163  26.901  23.760  1.00  0.00    -0.331 N 
ATOM     15  H12 UNL     1       0.626  27.152  24.357  1.00  0.00     0.178 HD
ATOM     16  H11 UNL     1      -0.128  26.962  22.742  1.00  0.00     0.178 HD
ATOM     17  H2  UNL     1      -2.063  26.230  23.678  1.00  0.00     0.207 HD
ENDBRANCH   1  13
BRANCH   6  18
HETATM   18  C3  UNL     1      -6.080  27.560  26.413  1.00  0.00     0.298 C 
HETATM   19  N5  UNL     1      -7.018  27.528  27.456  1.00  0.00    -0.054 NA
HETATM   20  O1  UNL     1      -6.475  27.920  25.275  1.00  0.00    -0.268 OA
ENDBRANCH   6  18
TORSDOF 2
ENDMDL
MODEL 4
REMARK VINA RESULT: -5.928704570      2.844      4.851
REMARK  2 active torsions:
REMARK  status: ('A' for Active; 'I' for Inactive)
REMARK    1  A    between atoms: N2_4  and  N3_6 
REMARK    2  A    between atoms: C2_11  and  C3_12 
ROOT
HETATM    1  N3  UNL     1      -2.507  26.299  28.102  1.00  0.00    -0.268 N 
ATOM      2  H3  UNL     1      -3.483  26.189  28.379  1.00  0.00     0.190 HD
HETATM    3  C1  UNL     1      -2.177  26.632  26.886  1.00  0.00     0.167 A 
HETATM    4  N4  UNL     1      -0.881  26.825  26.337  1.00  0.00    -0.320 N 
ATOM      5  H4  UNL     1      -0.001  26.726  26.842  1.00  0.00     0.169 HD
HETATM    6  C2  UNL     1      -1.011  27.180  24.968  1.00  0.00     0.175 A 
HETATM    7  N6  UNL     1      -2.241  27.210  24.674  1.00  0.00    -0.322 N 
ATOM      8  H6  UNL     1      -2.589  27.441  23.743  1.00  0.00     0.169 HD
HETATM    9  C4  UNL     1      -3.089  26.891  25.765  1.00  0.00     0.147 A 
HETATM   10  N7  UNL     1      -4.371  26.822  25.836  1.00  0.00    -0.382 N 
ATOM     11  H71 UNL     1      -5.005  27.002  25.058  1.00  0.00     0.157 HD
ATOM     12  H72 UNL     1      -4.981  26.593  26.621  1.00  0.00     0.157 HD
ENDROOT
BRANCH   1  13
HETATM   13  N2  UNL     1      -1.463  26.101  29.011  1.00  0.00    -0.248 N 
HETATM   14  N1  UNL     1      -1.483  26.837  30.061  1.00  0.00    -0.331 N 
ATOM     15  H12 UNL     1      -2.225  27.521  30.210  1.00  0.00     0.178 HD
ATOM     16  H11 UNL     1      -0.721  26.693  30.723  1.00  0.00     0.178 HD
ATOM     17  H2  UNL     1      -0.728  25.412  28.848  1.00  0.00     0.207 HD
ENDBRANCH   1  13
BRANCH   6  18
HETATM   18  C3  UNL     1       0.108  27.465  24.048  1.00  0.00     0.298 C 
HETATM   19  N5  UNL     1       0.904  28.610  24.199  1.00  0.00    -0.054 NA
HETATM   20  O1  UNL     1       0.377  26.681  23.103  1.00  0.00    -0.268 OA
ENDBRANCH   6  18
TORSDOF 2
ENDMDL
MODEL 5
REMARK VINA RESULT: -5.853270164      2.238      4.501
REMARK  2 active torsions:
REMARK  status: ('A' for Active; 'I' for Inactive)
REMARK    1  A    between atoms: N2_4  and  N3_6 
REMARK    2  A    between atoms: C2_11  and  C3_12 
ROOT
HETATM    1  N3  UNL     1      -4.423  26.957  27.853  1.00  0.00    -0.268 N 
ATOM      2  H3  UNL     1      -4.335  26.779  28.854  1.00  0.00     0.190 HD
HETATM    3  C1  UNL     1      -3.404  26.844  27.048  1.00  0.00     0.167 A 
HETATM    4  N4  UNL     1      -3.351  27.054  25.644  1.00  0.00    -0.320 N 
ATOM      5  H4  UNL     1      -4.136  27.331  25.055  1.00  0.00     0.169 HD
HETATM    6  C2  UNL     1      -2.026  26.814  25.193  1.00  0.00     0.175 A 
HETATM    7  N6  UNL     1      -1.314  26.490  26.188  1.00  0.00    -0.322 N 
ATOM      8  H6  UNL     1      -0.321  26.267  26.118  1.00  0.00     0.169 HD
HETATM    9  C4  UNL     1      -2.033  26.465  27.411  1.00  0.00     0.147 A 
HETATM   10  N7  UNL     1      -1.644  26.186  28.604  1.00  0.00    -0.382 N 
ATOM     11  H71 UNL     1      -0.691  25.922  28.857  1.00  0.00     0.157 HD
ATOM     12  H72 UNL     1      -2.161  26.168  29.484  1.00  0.00     0.157 HD
ENDROOT
BRANCH   1  13
HETATM   13  N2  UNL     1      -5.643  27.333  27.282  1.00  0.00    -0.248 N 
HETATM   14  N1  UNL     1      -6.542  26.421  27.224  1.00  0.00    -0.331 N 
ATOM     15  H12 UNL     1      -6.362  25.481  27.578  1.00  0.00     0.178 HD
ATOM     16  H11 UNL     1      -7.431  26.695  26.807  1.00  0.00     0.178 HD
ATOM     17  H2  UNL     1      -5.808  28.277  26.932  1.00  0.00     0.207 HD
ENDBRANCH   1  13
BRANCH   6  18
HETATM   18  C3  UNL     1      -1.564  26.925  23.796  1.00  0.00     0.298 C 
HETATM   19  N5  UNL     1      -0.240  27.273  23.490  1.00  0.00    -0.054 NA
HETATM   20  O1  UNL     1      -2.353  26.709  22.841  1.00  0.00    -0.268 OA
ENDBRANCH   6  18
TORSDOF 2
ENDMDL
