MODEL 1
REMARK VINA RESULT: -6.869011590      0.000      0.000
REMARK  3 active torsions:
REMARK  status: ('A' for Active; 'I' for Inactive)
REMARK    1  A    between atoms: O1_1  and  N1_3 
REMARK    2  A    between atoms: N1_3  and  N2_5 
REMARK       I    between atoms: N2_5  and  C1_7 
REMARK       I    between atoms: C1_7  and  N3_9 
REMARK    3  A    between atoms: N3_9  and  C2_11 
ROOT
HETATM    1  N2  UNL     1      -0.465  27.377  25.198  1.00  0.00    -0.231 N 
ATOM      2  H2  UNL     1       0.001  27.679  26.054  1.00  0.00     0.193 HD
HETATM    3  C1  UNL     1      -1.762  26.809  25.250  1.00  0.00     0.354 C 
HETATM    4  O2  UNL     1      -2.367  26.426  24.214  1.00  0.00    -0.245 OA
HETATM    5  N3  UNL     1      -2.401  26.666  26.502  1.00  0.00    -0.138 N 
ATOM      6  H3  UNL     1      -1.942  26.132  27.241  1.00  0.00     0.189 HD
ENDROOT
BRANCH   5   7
HETATM    7  C2  UNL     1      -3.538  27.190  26.724  1.00  0.00     0.705 A 
HETATM    8  N4  UNL     1      -3.794  28.088  27.688  1.00  0.00    -0.128 N 
HETATM    9  N5  UNL     1      -5.098  28.393  27.595  1.00  0.00    -0.237 N 
ATOM     10  H4  UNL     1      -3.126  28.466  28.361  1.00  0.00     0.205 HD
HETATM   11  C3  UNL     1      -5.615  27.672  26.573  1.00  0.00     0.353 A 
ATOM     12  H5  UNL     1      -5.607  29.049  28.188  1.00  0.00     0.192 HD
HETATM   13  O3  UNL     1      -6.813  27.686  26.177  1.00  0.00    -0.245 OA
HETATM   14  N6  UNL     1      -4.651  26.917  26.022  1.00  0.00    -0.138 N 
ATOM     15  H6  UNL     1      -4.743  26.274  25.236  1.00  0.00     0.189 HD
ENDBRANCH   5   7
BRANCH   1  16
HETATM   16  N1  UNL     1       0.163  27.518  23.970  1.00  0.00    -0.206 N 
ATOM     17  H1  UNL     1       0.417  28.442  23.619  1.00  0.00     0.215 HD
BRANCH  16  18
HETATM   18  O1  UNL     1       0.407  26.500  23.308  1.00  0.00    -0.274 OA
ATOM     19  H1  UNL     1       0.606  26.595  22.384  1.00  0.00     0.246 HD
ENDBRANCH  16  18
ENDBRANCH   1  16
TORSDOF 3
ENDMDL
MODEL 2
REMARK VINA RESULT: -6.337899196      3.063      4.752
REMARK  3 active torsions:
REMARK  status: ('A' for Active; 'I' for Inactive)
REMARK    1  A    between atoms: O1_1  and  N1_3 
REMARK    2  A    between atoms: N1_3  and  N2_5 
REMARK       I    between atoms: N2_5  and  C1_7 
REMARK       I    between atoms: C1_7  and  N3_9 
REMARK    3  A    between atoms: N3_9  and  C2_11 
ROOT
HETATM    1  N2  UNL     1      -2.365  27.514  29.785  1.00  0.00    -0.231 N 
ATOM      2  H2  UNL     1      -3.039  28.265  29.640  1.00  0.00     0.193 HD
HETATM    3  C1  UNL     1      -2.154  26.535  28.782  1.00  0.00     0.354 C 
HETATM    4  O2  UNL     1      -1.329  25.595  28.926  1.00  0.00    -0.245 OA
HETATM    5  N3  UNL     1      -2.890  26.614  27.578  1.00  0.00    -0.138 N 
ATOM      6  H3  UNL     1      -3.910  26.618  27.614  1.00  0.00     0.189 HD
ENDROOT
BRANCH   5   7
HETATM    7  C2  UNL     1      -2.304  26.681  26.452  1.00  0.00     0.705 A 
HETATM    8  N4  UNL     1      -0.977  26.800  26.283  1.00  0.00    -0.128 N 
HETATM    9  N5  UNL     1      -0.759  26.836  24.959  1.00  0.00    -0.237 N 
ATOM     10  H4  UNL     1      -0.272  26.851  27.019  1.00  0.00     0.205 HD
HETATM   11  C3  UNL     1      -1.959  26.740  24.343  1.00  0.00     0.353 A 
ATOM     12  H5  UNL     1       0.149  26.922  24.501  1.00  0.00     0.192 HD
HETATM   13  O3  UNL     1      -2.166  26.739  23.099  1.00  0.00    -0.245 OA
HETATM   14  N6  UNL     1      -2.932  26.642  25.265  1.00  0.00    -0.138 N 
ATOM     15  H6  UNL     1      -3.934  26.556  25.099  1.00  0.00     0.189 HD
ENDBRANCH   5   7
BRANCH   1  16
HETATM   16  N1  UNL     1      -1.642  27.437  30.966  1.00  0.00    -0.206 N 
ATOM     17  H1  UNL     1      -2.116  27.288  31.857  1.00  0.00     0.215 HD
BRANCH  16  18
HETATM   18  O1  UNL     1      -0.410  27.554  30.917  1.00  0.00    -0.274 OA
ATOM     19  H1  UNL     1       0.105  26.825  30.593  1.00  0.00     0.246 HD
ENDBRANCH  16  18
ENDBRANCH   1  16
TORSDOF 3
ENDMDL
MODEL 3
REMARK VINA RESULT: -6.329362090      1.648      5.200
REMARK  3 active torsions:
REMARK  status: ('A' for Active; 'I' for Inactive)
REMARK    1  A    between atoms: O1_1  and  N1_3 
REMARK    2  A    between atoms: N1_3  and  N2_5 
REMARK       I    between atoms: N2_5  and  C1_7 
REMARK       I    between atoms: C1_7  and  N3_9 
REMARK    3  A    between atoms: N3_9  and  C2_11 
ROOT
HETATM    1  N2  UNL     1      -5.173  27.442  26.139  1.00  0.00    -0.231 N 
ATOM      2  H2  UNL     1      -5.500  27.384  25.174  1.00  0.00     0.193 HD
HETATM    3  C1  UNL     1      -3.879  26.981  26.487  1.00  0.00     0.354 C 
HETATM    4  O2  UNL     1      -3.443  27.038  27.667  1.00  0.00    -0.245 OA
HETATM    5  N3  UNL     1      -3.048  26.438  25.481  1.00  0.00    -0.138 N 
ATOM      6  H3  UNL     1      -3.380  25.645  24.931  1.00  0.00     0.189 HD
ENDROOT
BRANCH   5   7
HETATM    7  C2  UNL     1      -1.895  26.921  25.250  1.00  0.00     0.705 A 
HETATM    8  N4  UNL     1      -0.857  26.870  26.100  1.00  0.00    -0.128 N 
HETATM    9  N5  UNL     1       0.170  27.484  25.492  1.00  0.00    -0.237 N 
ATOM     10  H4  UNL     1      -0.851  26.446  27.028  1.00  0.00     0.205 HD
HETATM   11  C3  UNL     1      -0.261  27.900  24.279  1.00  0.00     0.353 A 
ATOM     12  H5  UNL     1       1.107  27.613  25.875  1.00  0.00     0.192 HD
HETATM   13  O3  UNL     1       0.417  28.519  23.414  1.00  0.00    -0.245 OA
HETATM   14  N6  UNL     1      -1.549  27.554  24.117  1.00  0.00    -0.138 N 
ATOM     15  H6  UNL     1      -2.140  27.734  23.305  1.00  0.00     0.189 HD
ENDBRANCH   5   7
BRANCH   1  16
HETATM   16  N1  UNL     1      -5.988  27.975  27.125  1.00  0.00    -0.206 N 
ATOM     17  H1  UNL     1      -5.632  28.681  27.769  1.00  0.00     0.215 HD
BRANCH  16  18
HETATM   18  O1  UNL     1      -7.158  27.575  27.209  1.00  0.00    -0.274 OA
ATOM     19  H1  UNL     1      -7.339  26.801  27.727  1.00  0.00     0.246 HD
ENDBRANCH  16  18
ENDBRANCH   1  16
TORSDOF 3
ENDMDL
MODEL 4
REMARK VINA RESULT: -6.303367980      2.504      5.128
REMARK  3 active torsions:
REMARK  status: ('A' for Active; 'I' for Inactive)
REMARK    1  A    between atoms: O1_1  and  N1_3 
REMARK    2  A    between atoms: N1_3  and  N2_5 
REMARK       I    between atoms: N2_5  and  C1_7 
REMARK       I    between atoms: C1_7  and  N3_9 
REMARK    3  A    between atoms: N3_9  and  C2_11 
ROOT
HETATM    1  N2  UNL     1      -3.426  27.055  27.658  1.00  0.00    -0.231 N 
ATOM      2  H2  UNL     1      -4.275  27.415  27.222  1.00  0.00     0.193 HD
HETATM    3  C1  UNL     1      -2.366  26.557  26.860  1.00  0.00     0.354 C 
HETATM    4  O2  UNL     1      -1.305  26.105  27.363  1.00  0.00    -0.245 OA
HETATM    5  N3  UNL     1      -2.501  26.566  25.453  1.00  0.00    -0.138 N 
ATOM      6  H3  UNL     1      -3.292  26.086  25.022  1.00  0.00     0.189 HD
ENDROOT
BRANCH   5   7
HETATM    7  C2  UNL     1      -1.654  27.163  24.716  1.00  0.00     0.705 A 
HETATM    8  N4  UNL     1      -1.854  27.491  23.429  1.00  0.00    -0.128 N 
HETATM    9  N5  UNL     1      -0.735  28.102  23.008  1.00  0.00    -0.237 N 
ATOM     10  H4  UNL     1      -2.694  27.310  22.878  1.00  0.00     0.205 HD
HETATM   11  C3  UNL     1       0.129  28.136  24.049  1.00  0.00     0.353 A 
ATOM     12  H5  UNL     1      -0.567  28.474  22.074  1.00  0.00     0.192 HD
HETATM   13  O3  UNL     1       1.289  28.631  24.045  1.00  0.00    -0.245 OA
HETATM   14  N6  UNL     1      -0.434  27.553  25.120  1.00  0.00    -0.138 N 
ATOM     15  H6  UNL     1      -0.023  27.431  26.046  1.00  0.00     0.189 HD
ENDBRANCH   5   7
BRANCH   1  16
HETATM   16  N1  UNL     1      -3.295  27.046  29.038  1.00  0.00    -0.206 N 
ATOM     17  H1  UNL     1      -3.967  26.548  29.621  1.00  0.00     0.215 HD
BRANCH  16  18
HETATM   18  O1  UNL     1      -2.344  27.654  29.548  1.00  0.00    -0.274 OA
ATOM     19  H1  UNL     1      -2.302  27.724  30.494  1.00  0.00     0.246 HD
ENDBRANCH  16  18
ENDBRANCH   1  16
TORSDOF 3
ENDMDL
MODEL 5
REMARK VINA RESULT: -6.233372466      1.912      2.274
REMARK  3 active torsions:
REMARK  status: ('A' for Active; 'I' for Inactive)
REMARK    1  A    between atoms: O1_1  and  N1_3 
REMARK    2  A    between atoms: N1_3  and  N2_5 
REMARK       I    between atoms: N2_5  and  C1_7 
REMARK       I    between atoms: C1_7  and  N3_9 
REMARK    3  A    between atoms: N3_9  and  C2_11 
ROOT
HETATM    1  N2  UNL     1      -0.635  27.966  24.840  1.00  0.00    -0.231 N 
ATOM      2  H2  UNL     1       0.070  28.446  25.399  1.00  0.00     0.193 HD
HETATM    3  C1  UNL     1      -1.337  26.856  25.372  1.00  0.00     0.354 C 
HETATM    4  O2  UNL     1      -2.214  26.240  24.712  1.00  0.00    -0.245 OA
HETATM    5  N3  UNL     1      -1.047  26.423  26.686  1.00  0.00    -0.138 N 
ATOM      6  H3  UNL     1      -0.091  26.164  26.928  1.00  0.00     0.189 HD
ENDROOT
BRANCH   5   7
HETATM    7  C2  UNL     1      -1.958  26.352  27.571  1.00  0.00     0.705 A 
HETATM    8  N4  UNL     1      -1.922  25.548  28.645  1.00  0.00    -0.128 N 
HETATM    9  N5  UNL     1      -3.057  25.766  29.328  1.00  0.00    -0.237 N 
ATOM     10  H4  UNL     1      -1.177  24.897  28.894  1.00  0.00     0.205 HD
HETATM   11  C3  UNL     1      -3.767  26.701  28.655  1.00  0.00     0.353 A 
ATOM     12  H5  UNL     1      -3.335  25.309  30.197  1.00  0.00     0.192 HD
HETATM   13  O3  UNL     1      -4.891  27.170  28.983  1.00  0.00    -0.245 OA
HETATM   14  N6  UNL     1      -3.090  27.075  27.556  1.00  0.00    -0.138 N 
ATOM     15  H6  UNL     1      -3.375  27.762  26.859  1.00  0.00     0.189 HD
ENDBRANCH   5   7
BRANCH   1  16
HETATM   16  N1  UNL     1      -0.919  28.391  23.552  1.00  0.00    -0.206 N 
ATOM     17  H1  UNL     1      -1.414  29.268  23.391  1.00  0.00     0.215 HD
BRANCH  16  18
HETATM   18  O1  UNL     1      -0.560  27.683  22.600  1.00  0.00    -0.274 OA
ATOM     19  H1  UNL     1      -0.943  27.841  21.745  1.00  0.00     0.246 HD
ENDBRANCH  16  18
ENDBRANCH   1  16
TORSDOF 3
ENDMDL
