MODEL 1
REMARK VINA RESULT: -7.051385954      0.000      0.000
REMARK  6 active torsions:
REMARK  status: ('A' for Active; 'I' for Inactive)
REMARK       I    between atoms: N1_3  and  C3_5 
REMARK       I    between atoms: C3_5  and  N2_7 
REMARK    1  A    between atoms: N2_7  and  C4_9 
REMARK    2  A    between atoms: C4_9  and  C5_10 
REMARK    3  A    between atoms: C5_10  and  N3_11 
REMARK    4  A    between atoms: N3_11  and  C6_13 
REMARK    5  A    between atoms: C6_13  and  N4_15 
REMARK    6  A    between atoms: N4_15  and  N5_17 
REMARK       I    between atoms: N5_17  and  C7_19 
REMARK       I    between atoms: C7_19  and  N8_24 
ROOT
HETATM    1  C1  UNL     1       1.587  28.505  24.884  1.00  0.00     0.123 C 
HETATM    2  C2  UNL     1       0.420  28.224  24.664  1.00  0.00    -0.071 C 
HETATM    3  N1  UNL     1      -0.906  27.879  24.402  1.00  0.00    -0.278 N 
ATOM      4  H1  UNL     1      -1.347  28.196  23.538  1.00  0.00     0.180 HD
HETATM    5  C3  UNL     1      -1.651  27.094  25.324  1.00  0.00     0.327 C 
HETATM    6  O1  UNL     1      -1.119  26.710  26.382  1.00  0.00    -0.246 OA
HETATM    7  N2  UNL     1      -3.006  26.762  25.004  1.00  0.00    -0.338 N 
ATOM      8  H2  UNL     1      -3.425  27.087  24.132  1.00  0.00     0.164 HD
ENDROOT
BRANCH   7   9
HETATM    9  C4  UNL     1      -3.789  25.947  25.946  1.00  0.00     0.169 C 
BRANCH   9  10
HETATM   10  C5  UNL     1      -4.969  26.800  26.405  1.00  0.00     0.083 C 
BRANCH  10  11
HETATM   11  N3  UNL     1      -4.640  27.763  27.379  1.00  0.00    -0.344 N 
ATOM     12  H3  UNL     1      -4.901  28.722  27.151  1.00  0.00     0.167 HD
BRANCH  11  13
HETATM   13  C6  UNL     1      -4.014  27.592  28.601  1.00  0.00     0.190 C 
HETATM   14  S1  UNL     1      -5.005  27.395  29.969  1.00  0.00    -0.039 SA
BRANCH  13  15
HETATM   15  N4  UNL     1      -2.655  27.556  28.901  1.00  0.00    -0.262 N 
ATOM     16  H4  UNL     1      -2.166  28.443  28.780  1.00  0.00     0.190 HD
BRANCH  15  17
HETATM   17  N5  UNL     1      -1.864  26.508  29.338  1.00  0.00    -0.129 N 
HETATM   18  C7  UNL     1      -1.242  26.464  30.648  1.00  0.00     0.704 C 
HETATM   19  N6  UNL     1      -1.042  27.602  31.207  1.00  0.00    -0.125 N 
HETATM   20  N8  UNL     1      -0.901  25.228  31.230  1.00  0.00    -0.216 N 
HETATM   21  C8  UNL     1      -0.459  27.789  32.463  1.00  0.00     0.196 C 
ATOM     22  H6  UNL     1      -1.332  28.435  30.696  1.00  0.00     0.197 HD
HETATM   23  N7  UNL     1       0.034  27.922  33.491  1.00  0.00    -0.171 NA
HETATM   24  C9  UNL     1      -1.079  24.855  32.602  1.00  0.00     0.141 C 
HETATM   25  C12 UNL     1      -0.320  24.095  30.554  1.00  0.00     0.141 C 
HETATM   26  C10 UNL     1      -1.665  23.446  32.471  1.00  0.00     0.022 C 
HETATM   27  C11 UNL     1      -0.856  22.881  31.329  1.00  0.00     0.022 C 
ATOM     28  H5  UNL     1      -1.710  25.723  28.704  1.00  0.00     0.205 HD
ENDBRANCH  15  17
ENDBRANCH  13  15
ENDBRANCH  11  13
ENDBRANCH  10  11
ENDBRANCH   9  10
ENDBRANCH   7   9
TORSDOF 6
ENDMDL
MODEL 2
REMARK VINA RESULT: -6.539287983      2.259      3.435
REMARK  6 active torsions:
REMARK  status: ('A' for Active; 'I' for Inactive)
REMARK       I    between atoms: N1_3  and  C3_5 
REMARK       I    between atoms: C3_5  and  N2_7 
REMARK    1  A    between atoms: N2_7  and  C4_9 
REMARK    2  A    between atoms: C4_9  and  C5_10 
REMARK    3  A    between atoms: C5_10  and  N3_11 
REMARK    4  A    between atoms: N3_11  and  C6_13 
REMARK    5  A    between atoms: C6_13  and  N4_15 
REMARK    6  A    between atoms: N4_15  and  N5_17 
REMARK       I    between atoms: N5_17  and  C7_19 
REMARK       I    between atoms: C7_19  and  N8_24 
ROOT
HETATM    1  C1  UNL     1      -0.525  28.268  22.979  1.00  0.00     0.123 C 
HETATM    2  C2  UNL     1      -0.508  27.882  24.137  1.00  0.00    -0.071 C 
HETATM    3  N1  UNL     1      -0.499  27.464  25.468  1.00  0.00    -0.278 N 
ATOM      4  H1  UNL     1       0.328  27.631  26.042  1.00  0.00     0.180 HD
HETATM    5  C3  UNL     1      -1.626  26.808  26.033  1.00  0.00     0.327 C 
HETATM    6  O1  UNL     1      -2.635  26.597  25.334  1.00  0.00    -0.246 OA
HETATM    7  N2  UNL     1      -1.569  26.405  27.406  1.00  0.00    -0.338 N 
ATOM      8  H2  UNL     1      -0.733  26.586  27.962  1.00  0.00     0.164 HD
ENDROOT
BRANCH   7   9
HETATM    9  C4  UNL     1      -2.729  25.728  28.006  1.00  0.00     0.169 C 
BRANCH   9  10
HETATM   10  C5  UNL     1      -3.481  26.771  28.828  1.00  0.00     0.083 C 
BRANCH  10  11
HETATM   11  N3  UNL     1      -2.649  27.641  29.559  1.00  0.00    -0.344 N 
ATOM     12  H3  UNL     1      -2.341  28.475  29.058  1.00  0.00     0.167 HD
BRANCH  11  13
HETATM   13  C6  UNL     1      -2.188  27.525  30.859  1.00  0.00     0.190 C 
HETATM   14  S1  UNL     1      -3.221  28.048  32.106  1.00  0.00    -0.039 SA
BRANCH  13  15
HETATM   15  N4  UNL     1      -0.973  27.034  31.326  1.00  0.00    -0.262 N 
ATOM     16  H4  UNL     1      -0.170  27.237  30.730  1.00  0.00     0.190 HD
BRANCH  15  17
HETATM   17  N5  UNL     1      -0.681  26.313  32.471  1.00  0.00    -0.129 N 
HETATM   18  C7  UNL     1      -0.105  24.982  32.456  1.00  0.00     0.704 C 
HETATM   19  N6  UNL     1      -0.309  24.299  31.387  1.00  0.00    -0.125 N 
HETATM   20  N8  UNL     1       0.628  24.513  33.563  1.00  0.00    -0.216 N 
HETATM   21  C8  UNL     1       0.154  23.000  31.163  1.00  0.00     0.196 C 
ATOM     22  H6  UNL     1      -0.852  24.739  30.645  1.00  0.00     0.197 HD
HETATM   23  N7  UNL     1       0.532  21.928  31.003  1.00  0.00    -0.171 NA
HETATM   24  C9  UNL     1       1.848  23.763  33.522  1.00  0.00     0.141 C 
HETATM   25  C12 UNL     1       0.299  24.711  34.953  1.00  0.00     0.141 C 
HETATM   26  C10 UNL     1       2.689  24.471  34.587  1.00  0.00     0.022 C 
HETATM   27  C11 UNL     1       1.663  24.741  35.661  1.00  0.00     0.022 C 
ATOM     28  H5  UNL     1      -0.882  26.742  33.375  1.00  0.00     0.205 HD
ENDBRANCH  15  17
ENDBRANCH  13  15
ENDBRANCH  11  13
ENDBRANCH  10  11
ENDBRANCH   9  10
ENDBRANCH   7   9
TORSDOF 6
ENDMDL
MODEL 3
REMARK VINA RESULT: -6.487596980      2.266      2.905
REMARK  6 active torsions:
REMARK  status: ('A' for Active; 'I' for Inactive)
REMARK       I    between atoms: N1_3  and  C3_5 
REMARK       I    between atoms: C3_5  and  N2_7 
REMARK    1  A    between atoms: N2_7  and  C4_9 
REMARK    2  A    between atoms: C4_9  and  C5_10 
REMARK    3  A    between atoms: C5_10  and  N3_11 
REMARK    4  A    between atoms: N3_11  and  C6_13 
REMARK    5  A    between atoms: C6_13  and  N4_15 
REMARK    6  A    between atoms: N4_15  and  N5_17 
REMARK       I    between atoms: N5_17  and  C7_19 
REMARK       I    between atoms: C7_19  and  N8_24 
ROOT
HETATM    1  C1  UNL     1      -0.895  27.900  23.115  1.00  0.00     0.123 C 
HETATM    2  C2  UNL     1      -0.805  27.597  24.293  1.00  0.00    -0.071 C 
HETATM    3  N1  UNL     1      -0.712  27.275  25.648  1.00  0.00    -0.278 N 
ATOM      4  H1  UNL     1       0.155  27.465  26.152  1.00  0.00     0.180 HD
HETATM    5  C3  UNL     1      -1.808  26.685  26.333  1.00  0.00     0.327 C 
HETATM    6  O1  UNL     1      -2.865  26.446  25.721  1.00  0.00    -0.246 OA
HETATM    7  N2  UNL     1      -1.664  26.380  27.725  1.00  0.00    -0.338 N 
ATOM      8  H2  UNL     1      -0.789  26.582  28.209  1.00  0.00     0.164 HD
ENDROOT
BRANCH   7   9
HETATM    9  C4  UNL     1      -2.791  25.772  28.449  1.00  0.00     0.169 C 
BRANCH   9  10
HETATM   10  C5  UNL     1      -3.595  26.914  29.067  1.00  0.00     0.083 C 
BRANCH  10  11
HETATM   11  N3  UNL     1      -3.669  26.873  30.473  1.00  0.00    -0.344 N 
ATOM     12  H3  UNL     1      -4.612  26.858  30.861  1.00  0.00     0.167 HD
BRANCH  11  13
HETATM   13  C6  UNL     1      -2.643  26.850  31.402  1.00  0.00     0.190 C 
HETATM   14  S1  UNL     1      -1.760  28.285  31.631  1.00  0.00    -0.039 SA
BRANCH  13  15
HETATM   15  N4  UNL     1      -2.201  25.803  32.205  1.00  0.00    -0.262 N 
ATOM     16  H4  UNL     1      -2.579  25.800  33.153  1.00  0.00     0.190 HD
BRANCH  15  17
HETATM   17  N5  UNL     1      -1.331  24.764  31.922  1.00  0.00    -0.129 N 
HETATM   18  C7  UNL     1      -0.012  24.640  32.514  1.00  0.00     0.704 C 
HETATM   19  N6  UNL     1       0.518  25.733  32.928  1.00  0.00    -0.125 N 
HETATM   20  N8  UNL     1       0.605  23.377  32.611  1.00  0.00    -0.216 N 
HETATM   21  C8  UNL     1       1.776  25.840  33.527  1.00  0.00     0.196 C 
ATOM     22  H6  UNL     1      -0.021  26.591  32.810  1.00  0.00     0.197 HD
HETATM   23  N7  UNL     1       2.817  25.909  34.005  1.00  0.00    -0.171 NA
HETATM   24  C9  UNL     1       1.346  22.876  33.730  1.00  0.00     0.141 C 
HETATM   25  C12 UNL     1       0.597  22.341  31.608  1.00  0.00     0.141 C 
HETATM   26  C10 UNL     1       0.793  21.455  33.862  1.00  0.00     0.022 C 
HETATM   27  C11 UNL     1       0.668  21.037  32.417  1.00  0.00     0.022 C 
ATOM     28  H5  UNL     1      -1.633  24.048  31.261  1.00  0.00     0.205 HD
ENDBRANCH  15  17
ENDBRANCH  13  15
ENDBRANCH  11  13
ENDBRANCH  10  11
ENDBRANCH   9  10
ENDBRANCH   7   9
TORSDOF 6
ENDMDL
MODEL 4
REMARK VINA RESULT: -6.391183191      3.038      7.801
REMARK  6 active torsions:
REMARK  status: ('A' for Active; 'I' for Inactive)
REMARK       I    between atoms: N1_3  and  C3_5 
REMARK       I    between atoms: C3_5  and  N2_7 
REMARK    1  A    between atoms: N2_7  and  C4_9 
REMARK    2  A    between atoms: C4_9  and  C5_10 
REMARK    3  A    between atoms: C5_10  and  N3_11 
REMARK    4  A    between atoms: N3_11  and  C6_13 
REMARK    5  A    between atoms: C6_13  and  N4_15 
REMARK    6  A    between atoms: N4_15  and  N5_17 
REMARK       I    between atoms: N5_17  and  C7_19 
REMARK       I    between atoms: C7_19  and  N8_24 
ROOT
HETATM    1  C1  UNL     1       0.999  19.243  33.655  1.00  0.00     0.123 C 
HETATM    2  C2  UNL     1       0.966  20.336  33.114  1.00  0.00    -0.071 C 
HETATM    3  N1  UNL     1       0.903  21.587  32.500  1.00  0.00    -0.278 N 
ATOM      4  H1  UNL     1       0.744  21.647  31.494  1.00  0.00     0.180 HD
HETATM    5  C3  UNL     1       1.057  22.779  33.259  1.00  0.00     0.327 C 
HETATM    6  O1  UNL     1       1.256  22.712  34.485  1.00  0.00    -0.246 OA
HETATM    7  N2  UNL     1       0.976  24.039  32.582  1.00  0.00    -0.338 N 
ATOM      8  H2  UNL     1       0.813  24.074  31.576  1.00  0.00     0.164 HD
ENDROOT
BRANCH   7   9
HETATM    9  C4  UNL     1       1.130  25.281  33.353  1.00  0.00     0.169 C 
BRANCH   9  10
HETATM   10  C5  UNL     1      -0.075  26.162  33.032  1.00  0.00     0.083 C 
BRANCH  10  11
HETATM   11  N3  UNL     1      -0.510  26.079  31.694  1.00  0.00    -0.344 N 
ATOM     12  H3  UNL     1      -0.195  25.255  31.182  1.00  0.00     0.167 HD
BRANCH  11  13
HETATM   13  C6  UNL     1      -1.303  26.958  30.977  1.00  0.00     0.190 C 
HETATM   14  S1  UNL     1      -1.728  28.423  31.729  1.00  0.00    -0.039 SA
BRANCH  13  15
HETATM   15  N4  UNL     1      -1.830  26.829  29.695  1.00  0.00    -0.262 N 
ATOM     16  H4  UNL     1      -1.289  26.234  29.067  1.00  0.00     0.190 HD
BRANCH  15  17
HETATM   17  N5  UNL     1      -2.970  27.381  29.138  1.00  0.00    -0.129 N 
HETATM   18  C7  UNL     1      -3.388  27.145  27.769  1.00  0.00     0.704 C 
HETATM   19  N6  UNL     1      -2.455  26.814  26.951  1.00  0.00    -0.125 N 
HETATM   20  N8  UNL     1      -4.743  27.279  27.408  1.00  0.00    -0.216 N 
HETATM   21  C8  UNL     1      -2.637  26.542  25.593  1.00  0.00     0.196 C 
ATOM     22  H6  UNL     1      -1.508  26.743  27.322  1.00  0.00     0.197 HD
HETATM   23  N7  UNL     1      -2.804  26.336  24.476  1.00  0.00    -0.171 NA
HETATM   24  C9  UNL     1      -5.483  26.411  26.540  1.00  0.00     0.141 C 
HETATM   25  C12 UNL     1      -5.650  28.306  27.855  1.00  0.00     0.141 C 
HETATM   26  C10 UNL     1      -6.789  26.228  27.317  1.00  0.00     0.022 C 
HETATM   27  C11 UNL     1      -7.024  27.618  27.856  1.00  0.00     0.022 C 
ATOM     28  H5  UNL     1      -3.548  27.986  29.722  1.00  0.00     0.205 HD
ENDBRANCH  15  17
ENDBRANCH  13  15
ENDBRANCH  11  13
ENDBRANCH  10  11
ENDBRANCH   9  10
ENDBRANCH   7   9
TORSDOF 6
ENDMDL
MODEL 5
REMARK VINA RESULT: -6.334318184      3.261      7.989
REMARK  6 active torsions:
REMARK  status: ('A' for Active; 'I' for Inactive)
REMARK       I    between atoms: N1_3  and  C3_5 
REMARK       I    between atoms: C3_5  and  N2_7 
REMARK    1  A    between atoms: N2_7  and  C4_9 
REMARK    2  A    between atoms: C4_9  and  C5_10 
REMARK    3  A    between atoms: C5_10  and  N3_11 
REMARK    4  A    between atoms: N3_11  and  C6_13 
REMARK    5  A    between atoms: C6_13  and  N4_15 
REMARK    6  A    between atoms: N4_15  and  N5_17 
REMARK       I    between atoms: N5_17  and  C7_19 
REMARK       I    between atoms: C7_19  and  N8_24 
ROOT
HETATM    1  C1  UNL     1       2.484  21.901  36.904  1.00  0.00     0.123 C 
HETATM    2  C2  UNL     1       2.107  22.524  35.925  1.00  0.00    -0.071 C 
HETATM    3  N1  UNL     1       1.700  23.235  34.795  1.00  0.00    -0.278 N 
ATOM      4  H1  UNL     1       1.732  24.255  34.803  1.00  0.00     0.180 HD
HETATM    5  C3  UNL     1       1.239  22.556  33.634  1.00  0.00     0.327 C 
HETATM    6  O1  UNL     1       1.192  21.312  33.621  1.00  0.00    -0.246 OA
HETATM    7  N2  UNL     1       0.840  23.332  32.499  1.00  0.00    -0.338 N 
ATOM      8  H2  UNL     1       0.885  24.350  32.529  1.00  0.00     0.164 HD
ENDROOT
BRANCH   7   9
HETATM    9  C4  UNL     1       0.365  22.644  31.288  1.00  0.00     0.169 C 
BRANCH   9  10
HETATM   10  C5  UNL     1      -0.423  23.666  30.471  1.00  0.00     0.083 C 
BRANCH  10  11
HETATM   11  N3  UNL     1      -0.627  24.895  31.127  1.00  0.00    -0.344 N 
ATOM     12  H3  UNL     1      -0.384  24.909  32.118  1.00  0.00     0.167 HD
BRANCH  11  13
HETATM   13  C6  UNL     1      -1.111  26.088  30.618  1.00  0.00     0.190 C 
HETATM   14  S1  UNL     1      -1.236  27.404  31.689  1.00  0.00    -0.039 SA
BRANCH  13  15
HETATM   15  N4  UNL     1      -1.530  26.393  29.327  1.00  0.00    -0.262 N 
ATOM     16  H4  UNL     1      -0.949  26.003  28.584  1.00  0.00     0.190 HD
BRANCH  15  17
HETATM   17  N5  UNL     1      -2.609  27.142  28.890  1.00  0.00    -0.129 N 
HETATM   18  C7  UNL     1      -3.116  27.102  27.531  1.00  0.00     0.704 C 
HETATM   19  N6  UNL     1      -2.273  26.737  26.634  1.00  0.00    -0.125 N 
HETATM   20  N8  UNL     1      -4.455  27.447  27.263  1.00  0.00    -0.216 N 
HETATM   21  C8  UNL     1      -2.549  26.631  25.268  1.00  0.00     0.196 C 
ATOM     22  H6  UNL     1      -1.328  26.507  26.941  1.00  0.00     0.197 HD
HETATM   23  N7  UNL     1      -2.792  26.563  24.149  1.00  0.00    -0.171 NA
HETATM   24  C9  UNL     1      -5.342  26.775  26.360  1.00  0.00     0.141 C 
HETATM   25  C12 UNL     1      -5.194  28.533  27.857  1.00  0.00     0.141 C 
HETATM   26  C10 UNL     1      -6.625  26.686  27.190  1.00  0.00     0.022 C 
HETATM   27  C11 UNL     1      -6.647  28.033  27.871  1.00  0.00     0.022 C 
ATOM     28  H5  UNL     1      -3.074  27.755  29.561  1.00  0.00     0.205 HD
ENDBRANCH  15  17
ENDBRANCH  13  15
ENDBRANCH  11  13
ENDBRANCH  10  11
ENDBRANCH   9  10
ENDBRANCH   7   9
TORSDOF 6
ENDMDL
