MODEL 1
REMARK VINA RESULT: -6.619682062      0.000      0.000
REMARK  13 active torsions:
REMARK  status: ('A' for Active; 'I' for Inactive)
REMARK    1  A    between atoms: C2_2  and  N1_3 
REMARK    2  A    between atoms: N1_3  and  C3_6 
REMARK    3  A    between atoms: C3_6  and  C4_7 
REMARK    4  A    between atoms: C4_7  and  N2_8 
REMARK       I    between atoms: N2_8  and  C5_10 
REMARK    5  A    between atoms: C5_10  and  C6_12 
REMARK    6  A    between atoms: C6_12  and  N3_13 
REMARK       I    between atoms: N3_13  and  C7_15 
REMARK    7  A    between atoms: C7_15  and  C8_17 
REMARK    8  A    between atoms: N4_37  and  C26_38 
REMARK    9  A    between atoms: C26_38  and  O5_39 
REMARK   10  A    between atoms: C26_38  and  N5_41 
REMARK   11  A    between atoms: N5_41  and  C27_43 
REMARK   12  A    between atoms: C27_43  and  C28_44 
REMARK   13  A    between atoms: C28_44  and  O6_45 
ROOT
HETATM    1  C8  UNL     1      21.730  24.437  20.500  1.00  0.00     0.117 C 
HETATM    2  C9  UNL     1      21.452  25.218  21.713  1.00  0.00     0.184 C 
HETATM    3  C10 UNL     1      22.081  26.533  21.924  1.00  0.00     0.047 C 
HETATM    4  O3  UNL     1      20.017  25.299  21.822  1.00  0.00    -0.306 OA
HETATM    5  C11 UNL     1      19.039  24.730  21.102  1.00  0.00     0.295 C 
HETATM    6  O4  UNL     1      18.038  24.357  21.820  1.00  0.00    -0.259 OA
HETATM    7  C12 UNL     1      18.856  24.442  19.679  1.00  0.00     0.059 C 
HETATM    8  C13 UNL     1      18.262  23.112  19.489  1.00  0.00    -0.007 C 
HETATM    9  C14 UNL     1      19.031  21.871  19.433  1.00  0.00     0.028 C 
HETATM   10  C15 UNL     1      18.409  20.774  18.639  1.00  0.00     0.004 C 
HETATM   11  C16 UNL     1      16.935  20.685  18.618  1.00  0.00     0.000 C 
HETATM   12  C17 UNL     1      16.360  20.567  17.208  1.00  0.00     0.000 C 
HETATM   13  C18 UNL     1      15.334  21.605  16.911  1.00  0.00     0.000 C 
HETATM   14  C19 UNL     1      15.497  22.297  15.574  1.00  0.00     0.000 C 
HETATM   15  C20 UNL     1      16.921  22.665  15.322  1.00  0.00     0.000 C 
HETATM   16  C21 UNL     1      17.143  24.128  14.966  1.00  0.00     0.000 C 
HETATM   17  C22 UNL     1      17.466  24.952  16.224  1.00  0.00     0.000 C 
HETATM   18  C23 UNL     1      18.871  25.288  16.413  1.00  0.00     0.006 C 
HETATM   19  C24 UNL     1      19.749  24.478  17.335  1.00  0.00     0.059 C 
HETATM   20  C25 UNL     1      19.873  24.982  18.726  1.00  0.00     0.036 C 
HETATM   21  N4  UNL     1      21.217  25.073  19.282  1.00  0.00    -0.277 N 
ENDROOT
BRANCH   1  22
HETATM   22  C7  UNL     1      22.993  23.710  20.380  1.00  0.00     0.267 C 
HETATM   23  N3  UNL     1      24.173  24.120  21.050  1.00  0.00    -0.347 N 
ATOM     24  H3  UNL     1      24.123  24.962  21.625  1.00  0.00     0.163 HD
HETATM   25  O2  UNL     1      23.134  22.660  19.671  1.00  0.00    -0.266 OA
BRANCH  23  26
HETATM   26  C6  UNL     1      25.432  23.438  20.977  1.00  0.00     0.225 C 
BRANCH  26  27
HETATM   27  C5  UNL     1      26.336  24.061  19.967  1.00  0.00     0.235 C 
HETATM   28  N2  UNL     1      25.963  24.001  18.601  1.00  0.00    -0.358 N 
ATOM     29  H2  UNL     1      25.090  23.535  18.356  1.00  0.00     0.162 HD
HETATM   30  O1  UNL     1      27.393  24.612  20.369  1.00  0.00    -0.272 OA
BRANCH  28  31
HETATM   31  C4  UNL     1      26.762  24.568  17.542  1.00  0.00     0.150 C 
BRANCH  31  32
HETATM   32  C3  UNL     1      26.113  25.715  16.826  1.00  0.00     0.251 C 
BRANCH  32  33
HETATM   33  N1  UNL     1      26.093  26.921  17.633  1.00  0.00    -0.074 N 
ATOM     34  H12 UNL     1      26.757  26.867  18.405  1.00  0.00     0.277 HD
ATOM     35  H11 UNL     1      25.231  26.995  18.174  1.00  0.00     0.277 HD
BRANCH  33  36
HETATM   36  C2  UNL     1      26.313  28.097  16.826  1.00  0.00     0.228 C 
HETATM   37  C1  UNL     1      26.088  27.879  15.369  1.00  0.00     0.034 C 
ENDBRANCH  33  36
ENDBRANCH  32  33
ENDBRANCH  31  32
ENDBRANCH  28  31
ENDBRANCH  26  27
ENDBRANCH  23  26
ENDBRANCH   1  22
BRANCH  21  38
HETATM   38  C26 UNL     1      22.225  25.879  18.717  1.00  0.00     0.224 C 
BRANCH  38  39
HETATM   39  O5  UNL     1      23.415  25.391  18.521  1.00  0.00    -0.332 OA
ATOM     40  H5  UNL     1      24.159  25.748  18.993  1.00  0.00     0.221 HD
ENDBRANCH  38  39
BRANCH  38  41
HETATM   41  N5  UNL     1      22.092  27.226  18.322  1.00  0.00    -0.354 N 
ATOM     42  H5  UNL     1      21.575  27.886  18.903  1.00  0.00     0.163 HD
BRANCH  41  43
HETATM   43  C27 UNL     1      22.706  27.665  17.068  1.00  0.00     0.149 C 
BRANCH  43  44
HETATM   44  C28 UNL     1      21.918  27.203  15.866  1.00  0.00     0.186 C 
BRANCH  44  45
HETATM   45  O6  UNL     1      20.991  28.104  15.425  1.00  0.00    -0.394 OA
HETATM   46  C29 UNL     1      20.332  27.743  14.272  1.00  0.00     0.201 C 
ENDBRANCH  44  45
ENDBRANCH  43  44
ENDBRANCH  41  43
ENDBRANCH  38  41
ENDBRANCH  21  38
TORSDOF 13
ENDMDL
MODEL 2
REMARK VINA RESULT: -6.412919519      7.045     12.504
REMARK  13 active torsions:
REMARK  status: ('A' for Active; 'I' for Inactive)
REMARK    1  A    between atoms: C2_2  and  N1_3 
REMARK    2  A    between atoms: N1_3  and  C3_6 
REMARK    3  A    between atoms: C3_6  and  C4_7 
REMARK    4  A    between atoms: C4_7  and  N2_8 
REMARK       I    between atoms: N2_8  and  C5_10 
REMARK    5  A    between atoms: C5_10  and  C6_12 
REMARK    6  A    between atoms: C6_12  and  N3_13 
REMARK       I    between atoms: N3_13  and  C7_15 
REMARK    7  A    between atoms: C7_15  and  C8_17 
REMARK    8  A    between atoms: N4_37  and  C26_38 
REMARK    9  A    between atoms: C26_38  and  O5_39 
REMARK   10  A    between atoms: C26_38  and  N5_41 
REMARK   11  A    between atoms: N5_41  and  C27_43 
REMARK   12  A    between atoms: C27_43  and  C28_44 
REMARK   13  A    between atoms: C28_44  and  O6_45 
ROOT
HETATM    1  C8  UNL     1      13.068  20.424  14.958  1.00  0.00     0.117 C 
HETATM    2  C9  UNL     1      11.799  21.157  14.846  1.00  0.00     0.184 C 
HETATM    3  C10 UNL     1      10.548  20.583  15.370  1.00  0.00     0.047 C 
HETATM    4  O3  UNL     1      12.042  22.471  15.387  1.00  0.00    -0.306 OA
HETATM    5  C11 UNL     1      13.166  23.057  15.822  1.00  0.00     0.295 C 
HETATM    6  O4  UNL     1      13.238  24.303  15.507  1.00  0.00    -0.259 OA
HETATM    7  C12 UNL     1      14.331  22.595  16.578  1.00  0.00     0.059 C 
HETATM    8  C13 UNL     1      15.569  23.149  16.016  1.00  0.00    -0.007 C 
HETATM    9  C14 UNL     1      16.307  22.548  14.907  1.00  0.00     0.028 C 
HETATM   10  C15 UNL     1      17.770  22.831  14.890  1.00  0.00     0.004 C 
HETATM   11  C16 UNL     1      18.229  24.135  15.411  1.00  0.00     0.000 C 
HETATM   12  C17 UNL     1      19.362  24.011  16.426  1.00  0.00     0.000 C 
HETATM   13  C18 UNL     1      19.064  24.695  17.715  1.00  0.00     0.000 C 
HETATM   14  C19 UNL     1      19.374  23.883  18.954  1.00  0.00     0.000 C 
HETATM   15  C20 UNL     1      18.899  22.475  18.814  1.00  0.00     0.000 C 
HETATM   16  C21 UNL     1      18.008  21.991  19.947  1.00  0.00     0.000 C 
HETATM   17  C22 UNL     1      16.525  22.208  19.606  1.00  0.00     0.000 C 
HETATM   18  C23 UNL     1      15.797  21.020  19.177  1.00  0.00     0.006 C 
HETATM   19  C24 UNL     1      15.569  20.732  17.713  1.00  0.00     0.059 C 
HETATM   20  C25 UNL     1      14.284  21.214  17.146  1.00  0.00     0.036 C 
HETATM   21  N4  UNL     1      13.515  20.269  16.346  1.00  0.00    -0.277 N 
ENDROOT
BRANCH   1  22
HETATM   22  C7  UNL     1      13.345  19.312  14.049  1.00  0.00     0.267 C 
HETATM   23  N3  UNL     1      12.345  18.394  13.645  1.00  0.00    -0.347 N 
ATOM     24  H3  UNL     1      11.404  18.522  14.019  1.00  0.00     0.163 HD
HETATM   25  O2  UNL     1      14.497  19.082  13.553  1.00  0.00    -0.266 OA
BRANCH  23  26
HETATM   26  C6  UNL     1      12.560  17.296  12.748  1.00  0.00     0.225 C 
BRANCH  26  27
HETATM   27  C5  UNL     1      12.003  16.024  13.293  1.00  0.00     0.235 C 
HETATM   28  N2  UNL     1      11.453  16.035  14.598  1.00  0.00    -0.358 N 
ATOM     29  H2  UNL     1      11.455  16.912  15.119  1.00  0.00     0.162 HD
HETATM   30  O1  UNL     1      12.048  14.994  12.572  1.00  0.00    -0.272 OA
BRANCH  28  31
HETATM   31  C4  UNL     1      10.889  14.864  15.224  1.00  0.00     0.150 C 
BRANCH  31  32
HETATM   32  C3  UNL     1      10.792  14.948  16.719  1.00  0.00     0.251 C 
BRANCH  32  33
HETATM   33  N1  UNL     1      10.050  16.118  17.152  1.00  0.00    -0.074 N 
ATOM     34  H12 UNL     1       9.259  16.309  16.538  1.00  0.00     0.277 HD
ATOM     35  H11 UNL     1      10.580  16.976  16.996  1.00  0.00     0.277 HD
BRANCH  33  36
HETATM   36  C2  UNL     1       9.634  15.996  18.529  1.00  0.00     0.228 C 
HETATM   37  C1  UNL     1       9.205  14.620  18.909  1.00  0.00     0.034 C 
ENDBRANCH  33  36
ENDBRANCH  32  33
ENDBRANCH  31  32
ENDBRANCH  28  31
ENDBRANCH  26  27
ENDBRANCH  23  26
ENDBRANCH   1  22
BRANCH  21  38
HETATM   38  C26 UNL     1      13.031  19.049  16.858  1.00  0.00     0.224 C 
BRANCH  38  39
HETATM   39  O5  UNL     1      11.930  18.538  16.392  1.00  0.00    -0.332 OA
ATOM     40  H5  UNL     1      11.274  18.196  16.988  1.00  0.00     0.221 HD
ENDBRANCH  38  39
BRANCH  38  41
HETATM   41  N5  UNL     1      13.628  18.277  17.876  1.00  0.00    -0.354 N 
ATOM     42  H5  UNL     1      14.637  18.136  17.893  1.00  0.00     0.163 HD
BRANCH  41  43
HETATM   43  C27 UNL     1      12.779  17.682  18.909  1.00  0.00     0.149 C 
BRANCH  43  44
HETATM   44  C28 UNL     1      12.385  18.691  19.962  1.00  0.00     0.186 C 
BRANCH  44  45
HETATM   45  O6  UNL     1      11.598  18.183  20.956  1.00  0.00    -0.394 OA
HETATM   46  C29 UNL     1      11.986  16.952  21.432  1.00  0.00     0.201 C 
ENDBRANCH  44  45
ENDBRANCH  43  44
ENDBRANCH  41  43
ENDBRANCH  38  41
ENDBRANCH  21  38
TORSDOF 13
ENDMDL
MODEL 3
REMARK VINA RESULT: -6.395389996      1.892      3.458
REMARK  13 active torsions:
REMARK  status: ('A' for Active; 'I' for Inactive)
REMARK    1  A    between atoms: C2_2  and  N1_3 
REMARK    2  A    between atoms: N1_3  and  C3_6 
REMARK    3  A    between atoms: C3_6  and  C4_7 
REMARK    4  A    between atoms: C4_7  and  N2_8 
REMARK       I    between atoms: N2_8  and  C5_10 
REMARK    5  A    between atoms: C5_10  and  C6_12 
REMARK    6  A    between atoms: C6_12  and  N3_13 
REMARK       I    between atoms: N3_13  and  C7_15 
REMARK    7  A    between atoms: C7_15  and  C8_17 
REMARK    8  A    between atoms: N4_37  and  C26_38 
REMARK    9  A    between atoms: C26_38  and  O5_39 
REMARK   10  A    between atoms: C26_38  and  N5_41 
REMARK   11  A    between atoms: N5_41  and  C27_43 
REMARK   12  A    between atoms: C27_43  and  C28_44 
REMARK   13  A    between atoms: C28_44  and  O6_45 
ROOT
HETATM    1  C8  UNL     1      22.046  24.494  20.597  1.00  0.00     0.117 C 
HETATM    2  C9  UNL     1      21.782  25.335  21.772  1.00  0.00     0.184 C 
HETATM    3  C10 UNL     1      22.451  26.637  21.934  1.00  0.00     0.047 C 
HETATM    4  O3  UNL     1      20.349  25.467  21.861  1.00  0.00    -0.306 OA
HETATM    5  C11 UNL     1      19.360  24.899  21.154  1.00  0.00     0.295 C 
HETATM    6  O4  UNL     1      18.340  24.590  21.876  1.00  0.00    -0.259 OA
HETATM    7  C12 UNL     1      19.183  24.555  19.744  1.00  0.00     0.059 C 
HETATM    8  C13 UNL     1      18.548  23.238  19.604  1.00  0.00    -0.007 C 
HETATM    9  C14 UNL     1      19.277  21.971  19.611  1.00  0.00     0.028 C 
HETATM   10  C15 UNL     1      18.627  20.862  18.858  1.00  0.00     0.004 C 
HETATM   11  C16 UNL     1      17.151  20.820  18.823  1.00  0.00     0.000 C 
HETATM   12  C17 UNL     1      16.587  20.659  17.413  1.00  0.00     0.000 C 
HETATM   13  C18 UNL     1      15.599  21.716  17.059  1.00  0.00     0.000 C 
HETATM   14  C19 UNL     1      15.798  22.343  15.695  1.00  0.00     0.000 C 
HETATM   15  C20 UNL     1      17.236  22.654  15.445  1.00  0.00     0.000 C 
HETATM   16  C21 UNL     1      17.509  24.092  15.029  1.00  0.00     0.000 C 
HETATM   17  C22 UNL     1      17.845  24.959  16.254  1.00  0.00     0.000 C 
HETATM   18  C23 UNL     1      19.259  25.258  16.444  1.00  0.00     0.006 C 
HETATM   19  C24 UNL     1      20.100  24.461  17.411  1.00  0.00     0.059 C 
HETATM   20  C25 UNL     1      20.226  25.021  18.780  1.00  0.00     0.036 C 
HETATM   21  N4  UNL     1      21.567  25.093  19.348  1.00  0.00    -0.277 N 
ENDROOT
BRANCH   1  22
HETATM   22  C7  UNL     1      23.287  23.722  20.523  1.00  0.00     0.267 C 
HETATM   23  N3  UNL     1      24.438  24.059  21.278  1.00  0.00    -0.347 N 
ATOM     24  H3  UNL     1      24.384  24.879  21.884  1.00  0.00     0.163 HD
HETATM   25  O2  UNL     1      23.431  22.695  19.782  1.00  0.00    -0.266 OA
BRANCH  23  26
HETATM   26  C6  UNL     1      25.672  23.331  21.253  1.00  0.00     0.225 C 
BRANCH  26  27
HETATM   27  C5  UNL     1      26.231  23.149  22.624  1.00  0.00     0.235 C 
HETATM   28  N2  UNL     1      25.936  24.126  23.606  1.00  0.00    -0.358 N 
ATOM     29  H2  UNL     1      25.350  24.918  23.343  1.00  0.00     0.162 HD
HETATM   30  O1  UNL     1      26.944  22.138  22.850  1.00  0.00    -0.272 OA
BRANCH  28  31
HETATM   31  C4  UNL     1      26.424  24.052  24.961  1.00  0.00     0.150 C 
BRANCH  31  32
HETATM   32  C3  UNL     1      25.538  24.715  25.974  1.00  0.00     0.251 C 
BRANCH  32  33
HETATM   33  N1  UNL     1      24.924  25.923  25.455  1.00  0.00    -0.074 N 
ATOM     34  H12 UNL     1      24.217  25.711  24.751  1.00  0.00     0.277 HD
ATOM     35  H11 UNL     1      25.572  26.452  24.872  1.00  0.00     0.277 HD
BRANCH  33  36
HETATM   36  C2  UNL     1      24.384  26.736  26.518  1.00  0.00     0.228 C 
HETATM   37  C1  UNL     1      23.138  27.465  26.145  1.00  0.00     0.034 C 
ENDBRANCH  33  36
ENDBRANCH  32  33
ENDBRANCH  31  32
ENDBRANCH  28  31
ENDBRANCH  26  27
ENDBRANCH  23  26
ENDBRANCH   1  22
BRANCH  21  38
HETATM   38  C26 UNL     1      22.606  25.840  18.760  1.00  0.00     0.224 C 
BRANCH  38  39
HETATM   39  O5  UNL     1      23.743  25.271  18.484  1.00  0.00    -0.332 OA
ATOM     40  H5  UNL     1      24.108  25.335  17.610  1.00  0.00     0.221 HD
ENDBRANCH  38  39
BRANCH  38  41
HETATM   41  N5  UNL     1      22.562  27.208  18.422  1.00  0.00    -0.354 N 
ATOM     42  H5  UNL     1      22.130  27.882  19.054  1.00  0.00     0.163 HD
BRANCH  41  43
HETATM   43  C27 UNL     1      23.142  27.648  17.153  1.00  0.00     0.149 C 
BRANCH  43  44
HETATM   44  C28 UNL     1      22.277  27.264  15.976  1.00  0.00     0.186 C 
BRANCH  44  45
HETATM   45  O6  UNL     1      21.337  28.198  15.645  1.00  0.00    -0.394 OA
HETATM   46  C29 UNL     1      20.574  27.889  14.542  1.00  0.00     0.201 C 
ENDBRANCH  44  45
ENDBRANCH  43  44
ENDBRANCH  41  43
ENDBRANCH  38  41
ENDBRANCH  21  38
TORSDOF 13
ENDMDL
MODEL 4
REMARK VINA RESULT: -6.126593258      2.101      3.339
REMARK  13 active torsions:
REMARK  status: ('A' for Active; 'I' for Inactive)
REMARK    1  A    between atoms: C2_2  and  N1_3 
REMARK    2  A    between atoms: N1_3  and  C3_6 
REMARK    3  A    between atoms: C3_6  and  C4_7 
REMARK    4  A    between atoms: C4_7  and  N2_8 
REMARK       I    between atoms: N2_8  and  C5_10 
REMARK    5  A    between atoms: C5_10  and  C6_12 
REMARK    6  A    between atoms: C6_12  and  N3_13 
REMARK       I    between atoms: N3_13  and  C7_15 
REMARK    7  A    between atoms: C7_15  and  C8_17 
REMARK    8  A    between atoms: N4_37  and  C26_38 
REMARK    9  A    between atoms: C26_38  and  O5_39 
REMARK   10  A    between atoms: C26_38  and  N5_41 
REMARK   11  A    between atoms: N5_41  and  C27_43 
REMARK   12  A    between atoms: C27_43  and  C28_44 
REMARK   13  A    between atoms: C28_44  and  O6_45 
ROOT
HETATM    1  C8  UNL     1      22.263  24.480  20.562  1.00  0.00     0.117 C 
HETATM    2  C9  UNL     1      22.060  25.310  21.757  1.00  0.00     0.184 C 
HETATM    3  C10 UNL     1      22.759  26.598  21.908  1.00  0.00     0.047 C 
HETATM    4  O3  UNL     1      20.634  25.466  21.904  1.00  0.00    -0.306 OA
HETATM    5  C11 UNL     1      19.609  24.925  21.230  1.00  0.00     0.295 C 
HETATM    6  O4  UNL     1      18.613  24.624  21.988  1.00  0.00    -0.259 OA
HETATM    7  C12 UNL     1      19.369  24.602  19.824  1.00  0.00     0.059 C 
HETATM    8  C13 UNL     1      18.706  23.298  19.694  1.00  0.00    -0.007 C 
HETATM    9  C14 UNL     1      19.412  22.019  19.656  1.00  0.00     0.028 C 
HETATM   10  C15 UNL     1      18.714  20.930  18.916  1.00  0.00     0.004 C 
HETATM   11  C16 UNL     1      17.237  20.914  18.939  1.00  0.00     0.000 C 
HETATM   12  C17 UNL     1      16.615  20.781  17.551  1.00  0.00     0.000 C 
HETATM   13  C18 UNL     1      15.633  21.859  17.249  1.00  0.00     0.000 C 
HETATM   14  C19 UNL     1      15.788  22.500  15.887  1.00  0.00     0.000 C 
HETATM   15  C20 UNL     1      17.221  22.790  15.583  1.00  0.00     0.000 C 
HETATM   16  C21 UNL     1      17.503  24.228  15.174  1.00  0.00     0.000 C 
HETATM   17  C22 UNL     1      17.903  25.073  16.395  1.00  0.00     0.000 C 
HETATM   18  C23 UNL     1      19.328  25.345  16.533  1.00  0.00     0.006 C 
HETATM   19  C24 UNL     1      20.192  24.522  17.455  1.00  0.00     0.059 C 
HETATM   20  C25 UNL     1      20.382  25.061  18.826  1.00  0.00     0.036 C 
HETATM   21  N4  UNL     1      21.746  25.103  19.340  1.00  0.00    -0.277 N 
ENDROOT
BRANCH   1  22
HETATM   22  C7  UNL     1      23.485  23.688  20.430  1.00  0.00     0.267 C 
HETATM   23  N3  UNL     1      24.741  24.143  20.903  1.00  0.00    -0.347 N 
ATOM     24  H3  UNL     1      24.777  25.064  21.341  1.00  0.00     0.163 HD
HETATM   25  O2  UNL     1      23.520  22.536  19.884  1.00  0.00    -0.266 OA
BRANCH  23  26
HETATM   26  C6  UNL     1      25.965  23.403  20.810  1.00  0.00     0.225 C 
BRANCH  26  27
HETATM   27  C5  UNL     1      26.016  22.579  19.567  1.00  0.00     0.235 C 
HETATM   28  N2  UNL     1      25.915  21.171  19.689  1.00  0.00    -0.358 N 
ATOM     29  H2  UNL     1      25.811  20.770  20.621  1.00  0.00     0.162 HD
HETATM   30  O1  UNL     1      26.148  23.168  18.464  1.00  0.00    -0.272 OA
BRANCH  28  31
HETATM   31  C4  UNL     1      25.954  20.279  18.556  1.00  0.00     0.150 C 
BRANCH  31  32
HETATM   32  C3  UNL     1      26.358  18.874  18.890  1.00  0.00     0.251 C 
BRANCH  32  33
HETATM   33  N1  UNL     1      25.216  18.041  19.219  1.00  0.00    -0.074 N 
ATOM     34  H12 UNL     1      25.036  17.348  18.493  1.00  0.00     0.277 HD
ATOM     35  H11 UNL     1      24.341  18.562  19.157  1.00  0.00     0.277 HD
BRANCH  33  36
HETATM   36  C2  UNL     1      25.372  17.423  20.514  1.00  0.00     0.228 C 
HETATM   37  C1  UNL     1      26.646  17.778  21.202  1.00  0.00     0.034 C 
ENDBRANCH  33  36
ENDBRANCH  32  33
ENDBRANCH  31  32
ENDBRANCH  28  31
ENDBRANCH  26  27
ENDBRANCH  23  26
ENDBRANCH   1  22
BRANCH  21  38
HETATM   38  C26 UNL     1      22.774  25.840  18.721  1.00  0.00     0.224 C 
BRANCH  38  39
HETATM   39  O5  UNL     1      23.903  25.263  18.428  1.00  0.00    -0.332 OA
ATOM     40  H5  UNL     1      24.443  25.604  17.724  1.00  0.00     0.221 HD
ENDBRANCH  38  39
BRANCH  38  41
HETATM   41  N5  UNL     1      22.726  27.204  18.366  1.00  0.00    -0.354 N 
ATOM     42  H5  UNL     1      22.306  27.887  18.997  1.00  0.00     0.163 HD
BRANCH  41  43
HETATM   43  C27 UNL     1      23.285  27.626  17.082  1.00  0.00     0.149 C 
BRANCH  43  44
HETATM   44  C28 UNL     1      22.376  27.270  15.929  1.00  0.00     0.186 C 
BRANCH  44  45
HETATM   45  O6  UNL     1      21.383  28.180  15.699  1.00  0.00    -0.394 OA
HETATM   46  C29 UNL     1      20.634  27.947  14.568  1.00  0.00     0.201 C 
ENDBRANCH  44  45
ENDBRANCH  43  44
ENDBRANCH  41  43
ENDBRANCH  38  41
ENDBRANCH  21  38
TORSDOF 13
ENDMDL
MODEL 5
REMARK VINA RESULT: -6.043576674      7.348     12.738
REMARK  13 active torsions:
REMARK  status: ('A' for Active; 'I' for Inactive)
REMARK    1  A    between atoms: C2_2  and  N1_3 
REMARK    2  A    between atoms: N1_3  and  C3_6 
REMARK    3  A    between atoms: C3_6  and  C4_7 
REMARK    4  A    between atoms: C4_7  and  N2_8 
REMARK       I    between atoms: N2_8  and  C5_10 
REMARK    5  A    between atoms: C5_10  and  C6_12 
REMARK    6  A    between atoms: C6_12  and  N3_13 
REMARK       I    between atoms: N3_13  and  C7_15 
REMARK    7  A    between atoms: C7_15  and  C8_17 
REMARK    8  A    between atoms: N4_37  and  C26_38 
REMARK    9  A    between atoms: C26_38  and  O5_39 
REMARK   10  A    between atoms: C26_38  and  N5_41 
REMARK   11  A    between atoms: N5_41  and  C27_43 
REMARK   12  A    between atoms: C27_43  and  C28_44 
REMARK   13  A    between atoms: C28_44  and  O6_45 
ROOT
HETATM    1  C8  UNL     1      13.075  20.482  14.941  1.00  0.00     0.117 C 
HETATM    2  C9  UNL     1      11.815  21.227  14.816  1.00  0.00     0.184 C 
HETATM    3  C10 UNL     1      10.553  20.667  15.330  1.00  0.00     0.047 C 
HETATM    4  O3  UNL     1      12.066  22.540  15.356  1.00  0.00    -0.306 OA
HETATM    5  C11 UNL     1      13.192  23.116  15.800  1.00  0.00     0.295 C 
HETATM    6  O4  UNL     1      13.279  24.361  15.483  1.00  0.00    -0.259 OA
HETATM    7  C12 UNL     1      14.345  22.644  16.567  1.00  0.00     0.059 C 
HETATM    8  C13 UNL     1      15.594  23.184  16.015  1.00  0.00    -0.007 C 
HETATM    9  C14 UNL     1      16.336  22.574  14.913  1.00  0.00     0.028 C 
HETATM   10  C15 UNL     1      17.801  22.842  14.909  1.00  0.00     0.004 C 
HETATM   11  C16 UNL     1      18.269  24.143  15.431  1.00  0.00     0.000 C 
HETATM   12  C17 UNL     1      19.392  24.010  16.456  1.00  0.00     0.000 C 
HETATM   13  C18 UNL     1      19.090  24.700  17.741  1.00  0.00     0.000 C 
HETATM   14  C19 UNL     1      19.380  23.887  18.985  1.00  0.00     0.000 C 
HETATM   15  C20 UNL     1      18.893  22.483  18.843  1.00  0.00     0.000 C 
HETATM   16  C21 UNL     1      17.987  22.011  19.970  1.00  0.00     0.000 C 
HETATM   17  C22 UNL     1      16.509  22.242  19.615  1.00  0.00     0.000 C 
HETATM   18  C23 UNL     1      15.773  21.060  19.182  1.00  0.00     0.006 C 
HETATM   19  C24 UNL     1      15.555  20.772  17.717  1.00  0.00     0.059 C 
HETATM   20  C25 UNL     1      14.280  21.265  17.138  1.00  0.00     0.036 C 
HETATM   21  N4  UNL     1      13.509  20.325  16.332  1.00  0.00    -0.277 N 
ENDROOT
BRANCH   1  22
HETATM   22  C7  UNL     1      13.349  19.366  14.037  1.00  0.00     0.267 C 
HETATM   23  N3  UNL     1      12.336  18.479  13.595  1.00  0.00    -0.347 N 
ATOM     24  H3  UNL     1      11.387  18.635  13.938  1.00  0.00     0.163 HD
HETATM   25  O2  UNL     1      14.509  19.103  13.578  1.00  0.00    -0.266 OA
BRANCH  23  26
HETATM   26  C6  UNL     1      12.548  17.379  12.701  1.00  0.00     0.225 C 
BRANCH  26  27
HETATM   27  C5  UNL     1      11.974  16.112  13.242  1.00  0.00     0.235 C 
HETATM   28  N2  UNL     1      11.483  16.110  14.571  1.00  0.00    -0.358 N 
ATOM     29  H2  UNL     1      11.539  16.973  15.111  1.00  0.00     0.162 HD
HETATM   30  O1  UNL     1      11.951  15.099  12.497  1.00  0.00    -0.272 OA
BRANCH  28  31
HETATM   31  C4  UNL     1      10.910  14.943  15.195  1.00  0.00     0.150 C 
BRANCH  31  32
HETATM   32  C3  UNL     1       9.425  14.817  15.023  1.00  0.00     0.251 C 
BRANCH  32  33
HETATM   33  N1  UNL     1       9.068  14.317  13.708  1.00  0.00    -0.074 N 
ATOM     34  H12 UNL     1       8.839  13.323  13.736  1.00  0.00     0.277 HD
ATOM     35  H11 UNL     1       9.879  14.273  13.092  1.00  0.00     0.277 HD
BRANCH  33  36
HETATM   36  C2  UNL     1       8.000  15.090  13.124  1.00  0.00     0.228 C 
HETATM   37  C1  UNL     1       8.470  16.229  12.283  1.00  0.00     0.034 C 
ENDBRANCH  33  36
ENDBRANCH  32  33
ENDBRANCH  31  32
ENDBRANCH  28  31
ENDBRANCH  26  27
ENDBRANCH  23  26
ENDBRANCH   1  22
BRANCH  21  38
HETATM   38  C26 UNL     1      13.008  19.112  16.843  1.00  0.00     0.224 C 
BRANCH  38  39
HETATM   39  O5  UNL     1      11.960  18.561  16.304  1.00  0.00    -0.332 OA
ATOM     40  H5  UNL     1      11.857  17.617  16.322  1.00  0.00     0.221 HD
ENDBRANCH  38  39
BRANCH  38  41
HETATM   41  N5  UNL     1      13.532  18.387  17.933  1.00  0.00    -0.354 N 
ATOM     42  H5  UNL     1      14.536  18.376  18.111  1.00  0.00     0.163 HD
BRANCH  41  43
HETATM   43  C27 UNL     1      12.617  17.648  18.804  1.00  0.00     0.149 C 
BRANCH  43  44
HETATM   44  C28 UNL     1      12.288  18.423  20.058  1.00  0.00     0.186 C 
BRANCH  44  45
HETATM   45  O6  UNL     1      11.122  18.042  20.660  1.00  0.00    -0.394 OA
HETATM   46  C29 UNL     1      10.555  16.895  20.155  1.00  0.00     0.201 C 
ENDBRANCH  44  45
ENDBRANCH  43  44
ENDBRANCH  41  43
ENDBRANCH  38  41
ENDBRANCH  21  38
TORSDOF 13
ENDMDL
