MODEL 1
REMARK VINA RESULT: -7.774045525      0.000      0.000
REMARK  16 active torsions:
REMARK  status: ('A' for Active; 'I' for Inactive)
REMARK    1  A    between atoms: C2_2  and  C3_3 
REMARK    2  A    between atoms: C2_2  and  C4_5 
REMARK    3  A    between atoms: C4_5  and  O2_6 
REMARK    4  A    between atoms: C4_5  and  C6_10 
REMARK    5  A    between atoms: O2_6  and  C5_7 
REMARK    6  A    between atoms: C6_10  and  C8_12 
REMARK    7  A    between atoms: C8_12  and  O5_14 
REMARK    8  A    between atoms: O5_14  and  C9_15 
REMARK    9  A    between atoms: C9_15  and  O6_16 
REMARK   10  A    between atoms: C9_15  and  C10_18 
REMARK   11  A    between atoms: C10_18  and  O7_19 
REMARK   12  A    between atoms: C10_18  and  C11_21 
REMARK   13  A    between atoms: C11_21  and  C12_22 
REMARK   14  A    between atoms: C11_21  and  C13_25 
REMARK   15  A    between atoms: C13_25  and  C14_26 
REMARK   16  A    between atoms: C15_29  and  O12_30 
ROOT
HETATM    1  C10 UNL     1      -1.985   2.194  -6.705  1.00  0.00     0.191 C 
ENDROOT
BRANCH   1   2
HETATM    2  C9  UNL     1      -0.686   1.447  -6.653  1.00  0.00     0.296 C 
BRANCH   2   3
HETATM    3  O5  UNL     1      -0.066   1.195  -7.855  1.00  0.00    -0.287 OA
BRANCH   3   4
HETATM    4  C8  UNL     1       1.131   1.701  -8.295  1.00  0.00     0.267 C 
HETATM    5  O4  UNL     1       1.155   2.950  -8.297  1.00  0.00    -0.265 OA
BRANCH   4   6
HETATM    6  C6  UNL     1       2.299   0.915  -8.732  1.00  0.00     0.112 C 
HETATM    7  C7  UNL     1       1.861  -0.450  -9.172  1.00  0.00     0.023 C 
BRANCH   6   8
HETATM    8  C4  UNL     1       3.405   0.885  -7.702  1.00  0.00     0.156 C 
BRANCH   8   9
HETATM    9  C2  UNL     1       4.591   0.181  -8.263  1.00  0.00     0.073 C 
HETATM   10  C1  UNL     1       5.865   0.587  -7.536  1.00  0.00     0.020 C 
BRANCH   9  11
HETATM   11  C3  UNL     1       4.753   0.638  -9.680  1.00  0.00     0.237 C 
HETATM   12  O1  UNL     1       5.229  -0.051 -10.554  1.00  0.00    -0.306 OA
ENDBRANCH   9  11
ENDBRANCH   8   9
BRANCH   8  13
HETATM   13  O2  UNL     1       2.995   0.468  -6.445  1.00  0.00    -0.299 OA
BRANCH  13  14
HETATM   14  C5  UNL     1       3.209   1.107  -5.256  1.00  0.00     0.373 C 
HETATM   15  N1  UNL     1       3.184   2.517  -5.203  1.00  0.00    -0.032 NA
HETATM   16  O3  UNL     1       3.422   0.401  -4.239  1.00  0.00    -0.242 OA
ENDBRANCH  13  14
ENDBRANCH   8  13
ENDBRANCH   6   8
ENDBRANCH   4   6
ENDBRANCH   3   4
ENDBRANCH   2   3
BRANCH   2  17
HETATM   17  O6  UNL     1       0.216   2.192  -5.880  1.00  0.00    -0.368 OA
ATOM     18  H6  UNL     1      -0.281   2.569  -5.164  1.00  0.00     0.212 HD
ENDBRANCH   2  17
ENDBRANCH   1   2
BRANCH   1  19
HETATM   19  O7  UNL     1      -1.669   3.547  -6.663  1.00  0.00    -0.390 OA
ATOM     20  H7  UNL     1      -2.459   4.003  -6.397  1.00  0.00     0.210 HD
ENDBRANCH   1  19
BRANCH   1  21
HETATM   21  C11 UNL     1      -2.895   1.875  -5.571  1.00  0.00     0.173 C 
BRANCH  21  22
HETATM   22  C12 UNL     1      -2.459   0.658  -4.808  1.00  0.00     0.183 C 
HETATM   23  O8  UNL     1      -2.030   0.695  -3.628  1.00  0.00    -0.648 OA
HETATM   24  O9  UNL     1      -2.510  -0.617  -5.396  1.00  0.00    -0.648 OA
ENDBRANCH  21  22
BRANCH  21  25
HETATM   25  C13 UNL     1      -4.337   1.691  -5.863  1.00  0.00     0.287 C 
HETATM   26  C15 UNL     1      -4.726   1.034  -7.120  1.00  0.00     0.171 C 
HETATM   27  C16 UNL     1      -5.089   2.129  -8.119  1.00  0.00     0.071 C 
HETATM   28  C17 UNL     1      -4.790   3.402  -7.393  1.00  0.00     0.229 C 
HETATM   29  C18 UNL     1      -6.051   4.248  -7.157  1.00  0.00     0.066 C 
HETATM   30  N2  UNL     1      -4.855   3.079  -5.984  1.00  0.00     0.117 N 
HETATM   31  C19 UNL     1      -6.263   3.220  -6.057  1.00  0.00     0.277 C 
BRANCH  25  32
HETATM   32  C14 UNL     1      -5.117   1.126  -4.736  1.00  0.00     0.217 C 
HETATM   33  O10 UNL     1      -5.359   1.696  -3.653  1.00  0.00    -0.646 OA
HETATM   34  O11 UNL     1      -5.646  -0.160  -4.868  1.00  0.00    -0.646 OA
ENDBRANCH  25  32
BRANCH  26  35
HETATM   35  O12 UNL     1      -5.888   0.233  -6.978  1.00  0.00    -0.392 OA
ATOM     36  H12 UNL     1      -5.684  -0.678  -6.803  1.00  0.00     0.210 HD
ENDBRANCH  26  35
ENDBRANCH  21  25
ENDBRANCH   1  21
TORSDOF 16
ENDMDL
MODEL 2
REMARK VINA RESULT: -7.770367574      2.747      4.232
REMARK  16 active torsions:
REMARK  status: ('A' for Active; 'I' for Inactive)
REMARK    1  A    between atoms: C2_2  and  C3_3 
REMARK    2  A    between atoms: C2_2  and  C4_5 
REMARK    3  A    between atoms: C4_5  and  O2_6 
REMARK    4  A    between atoms: C4_5  and  C6_10 
REMARK    5  A    between atoms: O2_6  and  C5_7 
REMARK    6  A    between atoms: C6_10  and  C8_12 
REMARK    7  A    between atoms: C8_12  and  O5_14 
REMARK    8  A    between atoms: O5_14  and  C9_15 
REMARK    9  A    between atoms: C9_15  and  O6_16 
REMARK   10  A    between atoms: C9_15  and  C10_18 
REMARK   11  A    between atoms: C10_18  and  O7_19 
REMARK   12  A    between atoms: C10_18  and  C11_21 
REMARK   13  A    between atoms: C11_21  and  C12_22 
REMARK   14  A    between atoms: C11_21  and  C13_25 
REMARK   15  A    between atoms: C13_25  and  C14_26 
REMARK   16  A    between atoms: C15_29  and  O12_30 
ROOT
HETATM    1  C10 UNL     1      -1.708   0.240  -4.490  1.00  0.00     0.191 C 
ENDROOT
BRANCH   1   2
HETATM    2  C9  UNL     1      -0.367   0.486  -3.866  1.00  0.00     0.296 C 
BRANCH   2   3
HETATM    3  O5  UNL     1       0.726  -0.041  -4.513  1.00  0.00    -0.287 OA
BRANCH   3   4
HETATM    4  C8  UNL     1       2.030   0.378  -4.420  1.00  0.00     0.267 C 
HETATM    5  O4  UNL     1       2.432   0.441  -3.238  1.00  0.00    -0.265 OA
BRANCH   4   6
HETATM    6  C6  UNL     1       2.912   0.731  -5.547  1.00  0.00     0.112 C 
HETATM    7  C7  UNL     1       3.778   1.896  -5.172  1.00  0.00     0.023 C 
BRANCH   6   8
HETATM    8  C4  UNL     1       2.158   0.936  -6.840  1.00  0.00     0.156 C 
BRANCH   8   9
HETATM    9  C2  UNL     1       2.718   0.044  -7.893  1.00  0.00     0.073 C 
HETATM   10  C1  UNL     1       4.114   0.489  -8.303  1.00  0.00     0.020 C 
BRANCH   9  11
HETATM   11  C3  UNL     1       1.856   0.191  -9.108  1.00  0.00     0.237 C 
HETATM   12  O1  UNL     1       0.678  -0.085  -9.129  1.00  0.00    -0.306 OA
ENDBRANCH   9  11
ENDBRANCH   8   9
BRANCH   8  13
HETATM   13  O2  UNL     1       2.002   2.267  -7.198  1.00  0.00    -0.299 OA
BRANCH  13  14
HETATM   14  C5  UNL     1       0.825   2.940  -7.372  1.00  0.00     0.373 C 
HETATM   15  N1  UNL     1       0.792   4.104  -8.170  1.00  0.00    -0.032 NA
HETATM   16  O3  UNL     1      -0.200   2.486  -6.805  1.00  0.00    -0.242 OA
ENDBRANCH  13  14
ENDBRANCH   8  13
ENDBRANCH   6   8
ENDBRANCH   4   6
ENDBRANCH   3   4
ENDBRANCH   2   3
BRANCH   2  17
HETATM   17  O6  UNL     1      -0.166   1.872  -3.793  1.00  0.00    -0.368 OA
ATOM     18  H6  UNL     1      -0.490   2.240  -4.607  1.00  0.00     0.212 HD
ENDBRANCH   2  17
ENDBRANCH   1   2
BRANCH   1  19
HETATM   19  O7  UNL     1      -2.202   1.481  -4.876  1.00  0.00    -0.390 OA
ATOM     20  H7  UNL     1      -2.875   1.316  -5.526  1.00  0.00     0.210 HD
ENDBRANCH   1  19
BRANCH   1  21
HETATM   21  C11 UNL     1      -2.681  -0.402  -3.565  1.00  0.00     0.173 C 
BRANCH  21  22
HETATM   22  C12 UNL     1      -2.058  -1.488  -2.738  1.00  0.00     0.183 C 
HETATM   23  O8  UNL     1      -1.571  -2.539  -3.225  1.00  0.00    -0.648 OA
HETATM   24  O9  UNL     1      -1.990  -1.378  -1.339  1.00  0.00    -0.648 OA
ENDBRANCH  21  22
BRANCH  21  25
HETATM   25  C13 UNL     1      -3.922  -0.973  -4.142  1.00  0.00     0.287 C 
HETATM   26  C15 UNL     1      -5.152  -0.166  -4.113  1.00  0.00     0.171 C 
HETATM   27  C16 UNL     1      -5.984  -0.638  -2.923  1.00  0.00     0.071 C 
HETATM   28  C17 UNL     1      -5.119  -1.658  -2.252  1.00  0.00     0.229 C 
HETATM   29  C18 UNL     1      -5.746  -3.061  -2.281  1.00  0.00     0.066 C 
HETATM   30  N2  UNL     1      -4.213  -2.142  -3.272  1.00  0.00     0.117 N 
HETATM   31  C19 UNL     1      -5.241  -3.013  -3.715  1.00  0.00     0.277 C 
BRANCH  25  32
HETATM   32  C14 UNL     1      -3.746  -1.574  -5.486  1.00  0.00     0.217 C 
HETATM   33  O10 UNL     1      -3.657  -2.793  -5.737  1.00  0.00    -0.646 OA
HETATM   34  O11 UNL     1      -3.671  -0.727  -6.593  1.00  0.00    -0.646 OA
ENDBRANCH  25  32
BRANCH  26  35
HETATM   35  O12 UNL     1      -5.962  -0.367  -5.260  1.00  0.00    -0.392 OA
ATOM     36  H12 UNL     1      -6.400  -1.210  -5.254  1.00  0.00     0.210 HD
ENDBRANCH  26  35
ENDBRANCH  21  25
ENDBRANCH   1  21
TORSDOF 16
ENDMDL
MODEL 3
REMARK VINA RESULT: -7.709321649      3.368      5.067
REMARK  16 active torsions:
REMARK  status: ('A' for Active; 'I' for Inactive)
REMARK    1  A    between atoms: C2_2  and  C3_3 
REMARK    2  A    between atoms: C2_2  and  C4_5 
REMARK    3  A    between atoms: C4_5  and  O2_6 
REMARK    4  A    between atoms: C4_5  and  C6_10 
REMARK    5  A    between atoms: O2_6  and  C5_7 
REMARK    6  A    between atoms: C6_10  and  C8_12 
REMARK    7  A    between atoms: C8_12  and  O5_14 
REMARK    8  A    between atoms: O5_14  and  C9_15 
REMARK    9  A    between atoms: C9_15  and  O6_16 
REMARK   10  A    between atoms: C9_15  and  C10_18 
REMARK   11  A    between atoms: C10_18  and  O7_19 
REMARK   12  A    between atoms: C10_18  and  C11_21 
REMARK   13  A    between atoms: C11_21  and  C12_22 
REMARK   14  A    between atoms: C11_21  and  C13_25 
REMARK   15  A    between atoms: C13_25  and  C14_26 
REMARK   16  A    between atoms: C15_29  and  O12_30 
ROOT
HETATM    1  C10 UNL     1      -2.497  -0.882  -3.728  1.00  0.00     0.191 C 
ENDROOT
BRANCH   1   2
HETATM    2  C9  UNL     1      -1.992   0.074  -4.768  1.00  0.00     0.296 C 
BRANCH   2   3
HETATM    3  O5  UNL     1      -0.673  -0.051  -5.138  1.00  0.00    -0.287 OA
BRANCH   3   4
HETATM    4  C8  UNL     1       0.404   0.619  -4.615  1.00  0.00     0.267 C 
HETATM    5  O4  UNL     1       0.224   0.971  -3.429  1.00  0.00    -0.265 OA
BRANCH   4   6
HETATM    6  C6  UNL     1       1.664   0.923  -5.318  1.00  0.00     0.112 C 
HETATM    7  C7  UNL     1       2.351   2.081  -4.658  1.00  0.00     0.023 C 
BRANCH   6   8
HETATM    8  C4  UNL     1       1.476   1.107  -6.806  1.00  0.00     0.156 C 
BRANCH   8   9
HETATM    9  C2  UNL     1       2.325   0.130  -7.542  1.00  0.00     0.073 C 
HETATM   10  C1  UNL     1       3.756   0.632  -7.666  1.00  0.00     0.020 C 
BRANCH   9  11
HETATM   11  C3  UNL     1       1.791   0.036  -8.937  1.00  0.00     0.237 C 
HETATM   12  O1  UNL     1       0.611  -0.043  -9.197  1.00  0.00    -0.306 OA
ENDBRANCH   9  11
ENDBRANCH   8   9
BRANCH   8  13
HETATM   13  O2  UNL     1       1.568   2.425  -7.228  1.00  0.00    -0.299 OA
BRANCH  13  14
HETATM   14  C5  UNL     1       0.557   3.206  -7.714  1.00  0.00     0.373 C 
HETATM   15  N1  UNL     1       0.832   4.181  -8.696  1.00  0.00    -0.032 NA
HETATM   16  O3  UNL     1      -0.599   3.021  -7.257  1.00  0.00    -0.242 OA
ENDBRANCH  13  14
ENDBRANCH   8  13
ENDBRANCH   6   8
ENDBRANCH   4   6
ENDBRANCH   3   4
ENDBRANCH   2   3
BRANCH   2  17
HETATM   17  O6  UNL     1      -2.757  -0.099  -5.930  1.00  0.00    -0.368 OA
ATOM     18  H6  UNL     1      -3.213  -0.928  -5.838  1.00  0.00     0.212 HD
ENDBRANCH   2  17
ENDBRANCH   1   2
BRANCH   1  19
HETATM   19  O7  UNL     1      -1.473  -1.794  -3.494  1.00  0.00    -0.390 OA
ATOM     20  H7  UNL     1      -0.823  -1.345  -2.967  1.00  0.00     0.210 HD
ENDBRANCH   1  19
BRANCH   1  21
HETATM   21  C11 UNL     1      -3.717  -1.623  -4.150  1.00  0.00     0.173 C 
BRANCH  21  22
HETATM   22  C12 UNL     1      -4.886  -0.713  -4.394  1.00  0.00     0.183 C 
HETATM   23  O8  UNL     1      -5.311   0.114  -3.550  1.00  0.00    -0.648 OA
HETATM   24  O9  UNL     1      -5.580  -0.746  -5.615  1.00  0.00    -0.648 OA
ENDBRANCH  21  22
BRANCH  21  25
HETATM   25  C13 UNL     1      -4.210  -2.713  -3.275  1.00  0.00     0.287 C 
HETATM   26  C15 UNL     1      -3.435  -3.962  -3.197  1.00  0.00     0.171 C 
HETATM   27  C16 UNL     1      -4.098  -4.973  -4.129  1.00  0.00     0.071 C 
HETATM   28  C17 UNL     1      -5.197  -4.201  -4.787  1.00  0.00     0.229 C 
HETATM   29  C18 UNL     1      -6.588  -4.751  -4.434  1.00  0.00     0.066 C 
HETATM   30  N2  UNL     1      -5.503  -3.106  -3.891  1.00  0.00     0.117 N 
HETATM   31  C19 UNL     1      -6.311  -3.999  -3.141  1.00  0.00     0.277 C 
BRANCH  25  32
HETATM   32  C14 UNL     1      -4.593  -2.272  -1.912  1.00  0.00     0.217 C 
HETATM   33  O10 UNL     1      -5.743  -2.298  -1.430  1.00  0.00    -0.646 OA
HETATM   34  O11 UNL     1      -3.598  -1.781  -1.065  1.00  0.00    -0.646 OA
ENDBRANCH  25  32
BRANCH  26  35
HETATM   35  O12 UNL     1      -3.468  -4.542  -1.903  1.00  0.00    -0.392 OA
ATOM     36  H12 UNL     1      -3.590  -5.484  -1.929  1.00  0.00     0.210 HD
ENDBRANCH  26  35
ENDBRANCH  21  25
ENDBRANCH   1  21
TORSDOF 16
ENDMDL
MODEL 4
REMARK VINA RESULT: -7.641433393      3.488      5.339
REMARK  16 active torsions:
REMARK  status: ('A' for Active; 'I' for Inactive)
REMARK    1  A    between atoms: C2_2  and  C3_3 
REMARK    2  A    between atoms: C2_2  and  C4_5 
REMARK    3  A    between atoms: C4_5  and  O2_6 
REMARK    4  A    between atoms: C4_5  and  C6_10 
REMARK    5  A    between atoms: O2_6  and  C5_7 
REMARK    6  A    between atoms: C6_10  and  C8_12 
REMARK    7  A    between atoms: C8_12  and  O5_14 
REMARK    8  A    between atoms: O5_14  and  C9_15 
REMARK    9  A    between atoms: C9_15  and  O6_16 
REMARK   10  A    between atoms: C9_15  and  C10_18 
REMARK   11  A    between atoms: C10_18  and  O7_19 
REMARK   12  A    between atoms: C10_18  and  C11_21 
REMARK   13  A    between atoms: C11_21  and  C12_22 
REMARK   14  A    between atoms: C11_21  and  C13_25 
REMARK   15  A    between atoms: C13_25  and  C14_26 
REMARK   16  A    between atoms: C15_29  and  O12_30 
ROOT
HETATM    1  C10 UNL     1      -2.736  -1.044  -3.602  1.00  0.00     0.191 C 
ENDROOT
BRANCH   1   2
HETATM    2  C9  UNL     1      -2.441   0.198  -4.388  1.00  0.00     0.296 C 
BRANCH   2   3
HETATM    3  O5  UNL     1      -1.202   0.768  -4.208  1.00  0.00    -0.287 OA
BRANCH   3   4
HETATM    4  C8  UNL     1      -0.133   0.721  -5.067  1.00  0.00     0.267 C 
HETATM    5  O4  UNL     1       0.253  -0.446  -5.293  1.00  0.00    -0.265 OA
BRANCH   4   6
HETATM    6  C6  UNL     1       0.534   1.880  -5.689  1.00  0.00     0.112 C 
HETATM    7  C7  UNL     1      -0.234   2.322  -6.899  1.00  0.00     0.023 C 
BRANCH   6   8
HETATM    8  C4  UNL     1       1.999   1.634  -5.967  1.00  0.00     0.156 C 
BRANCH   8   9
HETATM    9  C2  UNL     1       2.827   2.387  -4.985  1.00  0.00     0.073 C 
HETATM   10  C1  UNL     1       4.307   2.087  -5.170  1.00  0.00     0.020 C 
BRANCH   9  11
HETATM   11  C3  UNL     1       2.465   1.889  -3.620  1.00  0.00     0.237 C 
HETATM   12  O1  UNL     1       2.956   0.904  -3.117  1.00  0.00    -0.306 OA
ENDBRANCH   9  11
ENDBRANCH   8   9
BRANCH   8  13
HETATM   13  O2  UNL     1       2.355   1.787  -7.298  1.00  0.00    -0.299 OA
BRANCH  13  14
HETATM   14  C5  UNL     1       2.694   0.796  -8.178  1.00  0.00     0.373 C 
HETATM   15  N1  UNL     1       1.765  -0.221  -8.483  1.00  0.00    -0.032 NA
HETATM   16  O3  UNL     1       3.841   0.834  -8.689  1.00  0.00    -0.242 OA
ENDBRANCH  13  14
ENDBRANCH   8  13
ENDBRANCH   6   8
ENDBRANCH   4   6
ENDBRANCH   3   4
ENDBRANCH   2   3
BRANCH   2  17
HETATM   17  O6  UNL     1      -2.551  -0.110  -5.751  1.00  0.00    -0.368 OA
ATOM     18  H6  UNL     1      -2.930  -0.979  -5.807  1.00  0.00     0.212 HD
ENDBRANCH   2  17
ENDBRANCH   1   2
BRANCH   1  19
HETATM   19  O7  UNL     1      -1.642  -1.887  -3.763  1.00  0.00    -0.390 OA
ATOM     20  H7  UNL     1      -1.266  -2.014  -2.899  1.00  0.00     0.210 HD
ENDBRANCH   1  19
BRANCH   1  21
HETATM   21  C11 UNL     1      -3.963  -1.753  -4.056  1.00  0.00     0.173 C 
BRANCH  21  22
HETATM   22  C12 UNL     1      -5.136  -0.830  -4.212  1.00  0.00     0.183 C 
HETATM   23  O8  UNL     1      -5.732  -0.641  -5.301  1.00  0.00    -0.648 OA
HETATM   24  O9  UNL     1      -5.638  -0.113  -3.113  1.00  0.00    -0.648 OA
ENDBRANCH  21  22
BRANCH  21  25
HETATM   25  C13 UNL     1      -4.440  -2.907  -3.257  1.00  0.00     0.287 C 
HETATM   26  C15 UNL     1      -3.655  -4.151  -3.273  1.00  0.00     0.171 C 
HETATM   27  C16 UNL     1      -4.316  -5.100  -4.269  1.00  0.00     0.071 C 
HETATM   28  C17 UNL     1      -5.427  -4.293  -4.863  1.00  0.00     0.229 C 
HETATM   29  C18 UNL     1      -6.811  -4.879  -4.539  1.00  0.00     0.066 C 
HETATM   30  N2  UNL     1      -5.735  -3.267  -3.890  1.00  0.00     0.117 N 
HETATM   31  C19 UNL     1      -6.530  -4.217  -3.199  1.00  0.00     0.277 C 
BRANCH  25  32
HETATM   32  C14 UNL     1      -4.816  -2.567  -1.864  1.00  0.00     0.217 C 
HETATM   33  O10 UNL     1      -5.933  -2.754  -1.340  1.00  0.00    -0.646 OA
HETATM   34  O11 UNL     1      -3.855  -1.984  -1.036  1.00  0.00    -0.646 OA
ENDBRANCH  25  32
BRANCH  26  35
HETATM   35  O12 UNL     1      -3.672  -4.822  -2.023  1.00  0.00    -0.392 OA
ATOM     36  H12 UNL     1      -3.722  -4.222  -1.288  1.00  0.00     0.210 HD
ENDBRANCH  26  35
ENDBRANCH  21  25
ENDBRANCH   1  21
TORSDOF 16
ENDMDL
MODEL 5
REMARK VINA RESULT: -7.640429729      2.218      7.873
REMARK  16 active torsions:
REMARK  status: ('A' for Active; 'I' for Inactive)
REMARK    1  A    between atoms: C2_2  and  C3_3 
REMARK    2  A    between atoms: C2_2  and  C4_5 
REMARK    3  A    between atoms: C4_5  and  O2_6 
REMARK    4  A    between atoms: C4_5  and  C6_10 
REMARK    5  A    between atoms: O2_6  and  C5_7 
REMARK    6  A    between atoms: C6_10  and  C8_12 
REMARK    7  A    between atoms: C8_12  and  O5_14 
REMARK    8  A    between atoms: O5_14  and  C9_15 
REMARK    9  A    between atoms: C9_15  and  O6_16 
REMARK   10  A    between atoms: C9_15  and  C10_18 
REMARK   11  A    between atoms: C10_18  and  O7_19 
REMARK   12  A    between atoms: C10_18  and  C11_21 
REMARK   13  A    between atoms: C11_21  and  C12_22 
REMARK   14  A    between atoms: C11_21  and  C13_25 
REMARK   15  A    between atoms: C13_25  and  C14_26 
REMARK   16  A    between atoms: C15_29  and  O12_30 
ROOT
HETATM    1  C10 UNL     1       0.029  -0.207  -4.850  1.00  0.00     0.191 C 
ENDROOT
BRANCH   1   2
HETATM    2  C9  UNL     1      -0.925   0.949  -4.879  1.00  0.00     0.296 C 
BRANCH   2   3
HETATM    3  O5  UNL     1      -1.879   0.942  -5.869  1.00  0.00    -0.287 OA
BRANCH   3   4
HETATM    4  C8  UNL     1      -3.235   1.090  -5.718  1.00  0.00     0.267 C 
HETATM    5  O4  UNL     1      -3.562   2.255  -5.404  1.00  0.00    -0.265 OA
BRANCH   4   6
HETATM    6  C6  UNL     1      -4.249   0.034  -5.891  1.00  0.00     0.112 C 
HETATM    7  C7  UNL     1      -5.344   0.519  -6.794  1.00  0.00     0.023 C 
BRANCH   6   8
HETATM    8  C4  UNL     1      -4.756  -0.514  -4.577  1.00  0.00     0.156 C 
BRANCH   8   9
HETATM    9  C2  UNL     1      -4.357  -1.943  -4.444  1.00  0.00     0.073 C 
HETATM   10  C1  UNL     1      -5.576  -2.841  -4.291  1.00  0.00     0.020 C 
BRANCH   9  11
HETATM   11  C3  UNL     1      -3.578  -2.072  -3.173  1.00  0.00     0.237 C 
HETATM   12  O1  UNL     1      -2.984  -1.153  -2.656  1.00  0.00    -0.306 OA
ENDBRANCH   9  11
ENDBRANCH   8   9
BRANCH   8  13
HETATM   13  O2  UNL     1      -6.091  -0.235  -4.325  1.00  0.00    -0.299 OA
BRANCH  13  14
HETATM   14  C5  UNL     1      -6.591   0.584  -3.352  1.00  0.00     0.373 C 
HETATM   15  N1  UNL     1      -7.445   1.651  -3.703  1.00  0.00    -0.032 NA
HETATM   16  O3  UNL     1      -6.264   0.349  -2.162  1.00  0.00    -0.242 OA
ENDBRANCH  13  14
ENDBRANCH   8  13
ENDBRANCH   6   8
ENDBRANCH   4   6
ENDBRANCH   3   4
ENDBRANCH   2   3
BRANCH   2  17
HETATM   17  O6  UNL     1      -1.610   0.982  -3.656  1.00  0.00    -0.368 OA
ATOM     18  H6  UNL     1      -0.988   0.724  -2.986  1.00  0.00     0.212 HD
ENDBRANCH   2  17
ENDBRANCH   1   2
BRANCH   1  19
HETATM   19  O7  UNL     1      -0.278  -0.950  -3.715  1.00  0.00    -0.390 OA
ATOM     20  H7  UNL     1       0.425  -1.579  -3.602  1.00  0.00     0.210 HD
ENDBRANCH   1  19
BRANCH   1  21
HETATM   21  C11 UNL     1       1.458   0.207  -4.785  1.00  0.00     0.173 C 
BRANCH  21  22
HETATM   22  C12 UNL     1       1.838   0.750  -3.439  1.00  0.00     0.183 C 
HETATM   23  O8  UNL     1       2.951   0.543  -2.895  1.00  0.00    -0.648 OA
HETATM   24  O9  UNL     1       0.939   1.539  -2.701  1.00  0.00    -0.648 OA
ENDBRANCH  21  22
BRANCH  21  25
HETATM   25  C13 UNL     1       1.949   1.184  -5.786  1.00  0.00     0.287 C 
HETATM   26  C15 UNL     1       0.973   1.838  -6.672  1.00  0.00     0.171 C 
HETATM   27  C16 UNL     1       0.991   1.094  -8.005  1.00  0.00     0.071 C 
HETATM   28  C17 UNL     1       1.935  -0.044  -7.777  1.00  0.00     0.229 C 
HETATM   29  C18 UNL     1       3.182   0.045  -8.672  1.00  0.00     0.066 C 
HETATM   30  N2  UNL     1       2.799   0.370  -6.691  1.00  0.00     0.117 N 
HETATM   31  C19 UNL     1       3.577   1.086  -7.636  1.00  0.00     0.277 C 
BRANCH  25  32
HETATM   32  C14 UNL     1       2.888   2.193  -5.239  1.00  0.00     0.217 C 
HETATM   33  O10 UNL     1       2.570   3.256  -4.669  1.00  0.00    -0.646 OA
HETATM   34  O11 UNL     1       4.259   1.961  -5.356  1.00  0.00    -0.646 OA
ENDBRANCH  25  32
BRANCH  26  35
HETATM   35  O12 UNL     1       1.323   3.180  -6.970  1.00  0.00    -0.392 OA
ATOM     36  H12 UNL     1       1.046   3.445  -7.839  1.00  0.00     0.210 HD
ENDBRANCH  26  35
ENDBRANCH  21  25
ENDBRANCH   1  21
TORSDOF 16
ENDMDL
