MODEL 1
REMARK VINA RESULT: -5.452452336      0.000      0.000
REMARK  5 active torsions:
REMARK  status: ('A' for Active; 'I' for Inactive)
REMARK    1  A    between atoms: C2_2  and  C3_3 
REMARK    2  A    between atoms: C3_3  and  N1_4 
REMARK    3  A    between atoms: N1_4  and  C4_7 
REMARK    4  A    between atoms: C4_7  and  C5_8 
REMARK    5  A    between atoms: C5_8  and  O1_9 
ROOT
HETATM    1  C1  UNL     1      -3.923  16.135  16.826  1.00  0.00     0.042 C 
HETATM    2  C2  UNL     1      -2.413  16.033  16.836  1.00  0.00     0.068 C 
HETATM    3  C6  UNL     1      -1.824  17.360  16.833  1.00  0.00     0.154 C 
HETATM    4  N2  UNL     1      -0.459  17.556  17.188  1.00  0.00    -0.365 N 
ATOM      5  H2  UNL     1      -0.141  18.498  16.961  1.00  0.00     0.162 HD
HETATM    6  C7  UNL     1       0.564  16.787  17.771  1.00  0.00     0.173 C 
HETATM    7  S1  UNL     1       1.977  17.518  18.103  1.00  0.00    -0.041 SA
HETATM    8  N3  UNL     1       0.436  15.386  18.078  1.00  0.00    -0.310 N 
ATOM      9  H3  UNL     1       1.304  14.859  18.172  1.00  0.00     0.170 HD
HETATM   10  C8  UNL     1      -0.794  14.649  18.269  1.00  0.00     0.174 C 
HETATM   11  S2  UNL     1      -0.643  13.182  18.969  1.00  0.00    -0.041 SA
HETATM   12  N4  UNL     1      -2.078  15.110  17.889  1.00  0.00    -0.355 N 
ATOM     13  H4  UNL     1      -2.863  14.744  18.428  1.00  0.00     0.162 HD
ENDROOT
BRANCH   2  14
HETATM   14  C3  UNL     1      -2.049  15.336  15.495  1.00  0.00     0.264 C 
BRANCH  14  15
HETATM   15  N1  UNL     1      -2.847  14.153  15.350  1.00  0.00    -0.071 N 
ATOM     16  H12 UNL     1      -3.586  14.119  16.053  1.00  0.00     0.277 HD
ATOM     17  H11 UNL     1      -3.423  14.200  14.510  1.00  0.00     0.277 HD
BRANCH  15  18
HETATM   18  C4  UNL     1      -2.057  12.958  15.370  1.00  0.00     0.258 C 
BRANCH  18  19
HETATM   19  C5  UNL     1      -2.357  12.130  14.122  1.00  0.00     0.191 C 
BRANCH  19  20
HETATM   20  O1  UNL     1      -2.685  10.860  14.587  1.00  0.00    -0.399 OA
ATOM     21  H1  UNL     1      -3.630  10.861  14.683  1.00  0.00     0.209 HD
ENDBRANCH  19  20
ENDBRANCH  18  19
ENDBRANCH  15  18
ENDBRANCH  14  15
ENDBRANCH   2  14
TORSDOF 5
ENDMDL
MODEL 2
REMARK VINA RESULT: -5.324512689      1.910      3.016
REMARK  5 active torsions:
REMARK  status: ('A' for Active; 'I' for Inactive)
REMARK    1  A    between atoms: C2_2  and  C3_3 
REMARK    2  A    between atoms: C3_3  and  N1_4 
REMARK    3  A    between atoms: N1_4  and  C4_7 
REMARK    4  A    between atoms: C4_7  and  C5_8 
REMARK    5  A    between atoms: C5_8  and  O1_9 
ROOT
HETATM    1  C1  UNL     1      -0.477  13.312  18.496  1.00  0.00     0.042 C 
HETATM    2  C2  UNL     1      -0.974  14.709  18.193  1.00  0.00     0.068 C 
HETATM    3  C6  UNL     1      -2.054  15.060  19.098  1.00  0.00     0.154 C 
HETATM    4  N2  UNL     1      -2.459  16.415  19.264  1.00  0.00    -0.365 N 
ATOM      5  H2  UNL     1      -3.337  16.488  19.778  1.00  0.00     0.162 HD
HETATM    6  C7  UNL     1      -1.961  17.680  18.901  1.00  0.00     0.173 C 
HETATM    7  S1  UNL     1      -2.744  18.996  19.446  1.00  0.00    -0.041 SA
HETATM    8  N3  UNL     1      -0.806  17.876  18.065  1.00  0.00    -0.310 N 
ATOM      9  H3  UNL     1      -0.732  18.778  17.594  1.00  0.00     0.170 HD
HETATM   10  C8  UNL     1       0.260  16.928  17.822  1.00  0.00     0.174 C 
HETATM   11  S2  UNL     1       1.614  17.539  17.144  1.00  0.00    -0.041 SA
HETATM   12  N4  UNL     1       0.194  15.546  18.123  1.00  0.00    -0.355 N 
ATOM     13  H4  UNL     1       1.085  15.087  18.313  1.00  0.00     0.162 HD
ENDROOT
BRANCH   2  14
HETATM   14  C3  UNL     1      -1.555  14.625  16.754  1.00  0.00     0.264 C 
BRANCH  14  15
HETATM   15  N1  UNL     1      -1.608  13.250  16.350  1.00  0.00    -0.071 N 
ATOM     16  H12 UNL     1      -0.758  12.978  15.855  1.00  0.00     0.277 HD
ATOM     17  H11 UNL     1      -1.535  12.627  17.154  1.00  0.00     0.277 HD
BRANCH  15  18
HETATM   18  C4  UNL     1      -2.776  12.956  15.572  1.00  0.00     0.258 C 
BRANCH  18  19
HETATM   19  C5  UNL     1      -2.372  12.165  14.329  1.00  0.00     0.191 C 
BRANCH  19  20
HETATM   20  O1  UNL     1      -2.620  10.831  14.639  1.00  0.00    -0.399 OA
ATOM     21  H1  UNL     1      -1.774  10.460  14.862  1.00  0.00     0.209 HD
ENDBRANCH  19  20
ENDBRANCH  18  19
ENDBRANCH  15  18
ENDBRANCH  14  15
ENDBRANCH   2  14
TORSDOF 5
ENDMDL
MODEL 3
REMARK VINA RESULT: -5.198896538      2.628      4.156
REMARK  5 active torsions:
REMARK  status: ('A' for Active; 'I' for Inactive)
REMARK    1  A    between atoms: C2_2  and  C3_3 
REMARK    2  A    between atoms: C3_3  and  N1_4 
REMARK    3  A    between atoms: N1_4  and  C4_7 
REMARK    4  A    between atoms: C4_7  and  C5_8 
REMARK    5  A    between atoms: C5_8  and  O1_9 
ROOT
HETATM    1  C1  UNL     1      -4.017  16.502  15.985  1.00  0.00     0.042 C 
HETATM    2  C2  UNL     1      -2.828  15.625  16.317  1.00  0.00     0.068 C 
HETATM    3  C6  UNL     1      -2.523  15.715  17.733  1.00  0.00     0.154 C 
HETATM    4  N2  UNL     1      -1.695  14.745  18.366  1.00  0.00    -0.365 N 
ATOM      5  H2  UNL     1      -1.420  15.037  19.304  1.00  0.00     0.162 HD
HETATM    6  C7  UNL     1      -1.158  13.489  18.033  1.00  0.00     0.173 C 
HETATM    7  S1  UNL     1      -0.341  12.676  19.180  1.00  0.00    -0.041 SA
HETATM    8  N3  UNL     1      -1.278  12.886  16.731  1.00  0.00    -0.310 N 
ATOM      9  H3  UNL     1      -0.593  12.169  16.495  1.00  0.00     0.170 HD
HETATM   10  C8  UNL     1      -2.270  13.191  15.723  1.00  0.00     0.174 C 
HETATM   11  S2  UNL     1      -2.404  12.111  14.506  1.00  0.00    -0.041 SA
HETATM   12  N4  UNL     1      -3.099  14.340  15.728  1.00  0.00    -0.355 N 
ATOM     13  H4  UNL     1      -3.998  14.245  15.257  1.00  0.00     0.162 HD
ENDROOT
BRANCH   2  14
HETATM   14  C3  UNL     1      -1.641  16.242  15.524  1.00  0.00     0.264 C 
BRANCH  14  15
HETATM   15  N1  UNL     1      -1.069  17.309  16.293  1.00  0.00    -0.071 N 
ATOM     16  H12 UNL     1      -1.423  18.216  15.985  1.00  0.00     0.277 HD
ATOM     17  H11 UNL     1      -1.429  17.309  17.247  1.00  0.00     0.277 HD
BRANCH  15  18
HETATM   18  C4  UNL     1       0.364  17.282  16.280  1.00  0.00     0.258 C 
BRANCH  18  19
HETATM   19  C5  UNL     1       0.887  17.435  17.708  1.00  0.00     0.191 C 
BRANCH  19  20
HETATM   20  O1  UNL     1       1.056  16.138  18.183  1.00  0.00    -0.399 OA
ATOM     21  H1  UNL     1       1.733  16.197  18.847  1.00  0.00     0.209 HD
ENDBRANCH  19  20
ENDBRANCH  18  19
ENDBRANCH  15  18
ENDBRANCH  14  15
ENDBRANCH   2  14
TORSDOF 5
ENDMDL
MODEL 4
REMARK VINA RESULT: -5.011998474      3.298      5.316
REMARK  5 active torsions:
REMARK  status: ('A' for Active; 'I' for Inactive)
REMARK    1  A    between atoms: C2_2  and  C3_3 
REMARK    2  A    between atoms: C3_3  and  N1_4 
REMARK    3  A    between atoms: N1_4  and  C4_7 
REMARK    4  A    between atoms: C4_7  and  C5_8 
REMARK    5  A    between atoms: C5_8  and  O1_9 
ROOT
HETATM    1  C1  UNL     1      -2.101  15.662  19.551  1.00  0.00     0.042 C 
HETATM    2  C2  UNL     1      -1.785  15.133  18.169  1.00  0.00     0.068 C 
HETATM    3  C6  UNL     1      -1.937  13.689  18.142  1.00  0.00     0.154 C 
HETATM    4  N2  UNL     1      -2.043  12.987  16.908  1.00  0.00    -0.365 N 
ATOM      5  H2  UNL     1      -1.956  11.979  17.038  1.00  0.00     0.162 HD
HETATM    6  C7  UNL     1      -2.236  13.324  15.557  1.00  0.00     0.173 C 
HETATM    7  S1  UNL     1      -2.420  12.116  14.484  1.00  0.00    -0.041 SA
HETATM    8  N3  UNL     1      -2.267  14.676  15.065  1.00  0.00    -0.310 N 
ATOM      9  H3  UNL     1      -2.072  14.806  14.072  1.00  0.00     0.170 HD
HETATM   10  C8  UNL     1      -2.545  15.872  15.832  1.00  0.00     0.174 C 
HETATM   11  S2  UNL     1      -2.882  17.212  14.963  1.00  0.00    -0.041 SA
HETATM   12  N4  UNL     1      -2.536  15.943  17.246  1.00  0.00    -0.355 N 
ATOM     13  H4  UNL     1      -3.134  16.656  17.663  1.00  0.00     0.162 HD
ENDROOT
BRANCH   2  14
HETATM   14  C3  UNL     1      -0.284  15.468  17.945  1.00  0.00     0.264 C 
BRANCH  14  15
HETATM   15  N1  UNL     1      -0.108  16.890  17.998  1.00  0.00    -0.071 N 
ATOM     16  H12 UNL     1      -0.889  17.374  17.554  1.00  0.00     0.277 HD
ATOM     17  H11 UNL     1      -0.219  17.239  18.950  1.00  0.00     0.277 HD
BRANCH  15  18
HETATM   18  C4  UNL     1       1.144  17.305  17.437  1.00  0.00     0.258 C 
BRANCH  18  19
HETATM   19  C5  UNL     1       2.072  17.770  18.559  1.00  0.00     0.191 C 
BRANCH  19  20
HETATM   20  O1  UNL     1       2.910  16.690  18.820  1.00  0.00    -0.399 OA
ATOM     21  H1  UNL     1       2.487  15.938  18.422  1.00  0.00     0.209 HD
ENDBRANCH  19  20
ENDBRANCH  18  19
ENDBRANCH  15  18
ENDBRANCH  14  15
ENDBRANCH   2  14
TORSDOF 5
ENDMDL
MODEL 5
REMARK VINA RESULT: -4.965581241      2.972      4.961
REMARK  5 active torsions:
REMARK  status: ('A' for Active; 'I' for Inactive)
REMARK    1  A    between atoms: C2_2  and  C3_3 
REMARK    2  A    between atoms: C3_3  and  N1_4 
REMARK    3  A    between atoms: N1_4  and  C4_7 
REMARK    4  A    between atoms: C4_7  and  C5_8 
REMARK    5  A    between atoms: C5_8  and  O1_9 
ROOT
HETATM    1  C1  UNL     1      -2.055  15.554  19.563  1.00  0.00     0.042 C 
HETATM    2  C2  UNL     1      -1.762  15.060  18.163  1.00  0.00     0.068 C 
HETATM    3  C6  UNL     1      -1.886  13.615  18.110  1.00  0.00     0.154 C 
HETATM    4  N2  UNL     1      -2.007  12.936  16.864  1.00  0.00    -0.365 N 
ATOM      5  H2  UNL     1      -1.898  11.928  16.970  1.00  0.00     0.162 HD
HETATM    6  C7  UNL     1      -2.238  13.297  15.524  1.00  0.00     0.173 C 
HETATM    7  S1  UNL     1      -2.424  12.108  14.431  1.00  0.00    -0.041 SA
HETATM    8  N3  UNL     1      -2.307  14.659  15.062  1.00  0.00    -0.310 N 
ATOM      9  H3  UNL     1      -2.138  14.813  14.068  1.00  0.00     0.170 HD
HETATM   10  C8  UNL     1      -2.590  15.832  15.860  1.00  0.00     0.174 C 
HETATM   11  S2  UNL     1      -2.973  17.183  15.028  1.00  0.00    -0.041 SA
HETATM   12  N4  UNL     1      -2.549  15.874  17.275  1.00  0.00    -0.355 N 
ATOM     13  H4  UNL     1      -3.151  16.567  17.720  1.00  0.00     0.162 HD
ENDROOT
BRANCH   2  14
HETATM   14  C3  UNL     1      -0.273  15.429  17.911  1.00  0.00     0.264 C 
BRANCH  14  15
HETATM   15  N1  UNL     1      -0.118  16.851  18.016  1.00  0.00    -0.071 N 
ATOM     16  H12 UNL     1      -0.967  17.336  17.725  1.00  0.00     0.277 HD
ATOM     17  H11 UNL     1      -0.087  17.146  18.992  1.00  0.00     0.277 HD
BRANCH  15  18
HETATM   18  C4  UNL     1       1.024  17.329  17.295  1.00  0.00     0.258 C 
BRANCH  18  19
HETATM   19  C5  UNL     1       0.558  18.104  16.063  1.00  0.00     0.191 C 
BRANCH  19  20
HETATM   20  O1  UNL     1       0.611  17.197  15.010  1.00  0.00    -0.399 OA
ATOM     21  H1  UNL     1       0.457  17.709  14.225  1.00  0.00     0.209 HD
ENDBRANCH  19  20
ENDBRANCH  18  19
ENDBRANCH  15  18
ENDBRANCH  14  15
ENDBRANCH   2  14
TORSDOF 5
ENDMDL
