MODEL 1
REMARK VINA RESULT: -6.538280294      0.000      0.000
REMARK  4 active torsions:
REMARK  status: ('A' for Active; 'I' for Inactive)
REMARK    1  A    between atoms: C3_3  and  C4_4 
REMARK    2  A    between atoms: C4_4  and  N1_5 
REMARK       I    between atoms: N1_5  and  C5_7 
REMARK       I    between atoms: C5_7  and  N3_11 
REMARK    3  A    between atoms: N3_11  and  C6_13 
REMARK    4  A    between atoms: C6_13  and  C7_14 
REMARK       I    between atoms: C7_14  and  N4_16 
ROOT
HETATM    1  C1  UNL     1       6.514  18.078  12.977  1.00  0.00     0.012 C 
HETATM    2  C2  UNL     1       5.389  18.513  12.939  1.00  0.00    -0.116 C 
HETATM    3  C3  UNL     1       4.006  19.023  12.906  1.00  0.00     0.113 C 
ENDROOT
BRANCH   3   4
HETATM    4  C4  UNL     1       3.348  18.533  14.189  1.00  0.00     0.150 C 
BRANCH   4   5
HETATM    5  N1  UNL     1       1.914  18.537  13.994  1.00  0.00    -0.226 N 
HETATM    6  C5  UNL     1       1.065  18.550  15.134  1.00  0.00     0.667 C 
HETATM    7  N2  UNL     1       0.966  19.563  15.924  1.00  0.00    -0.235 N 
HETATM    8  N3  UNL     1       0.273  17.400  15.439  1.00  0.00    -0.218 N 
ATOM      9  H22 UNL     1       1.531  20.383  15.706  1.00  0.00     0.174 HD
ATOM     10  H21 UNL     1       0.358  19.572  16.742  1.00  0.00     0.174 HD
ATOM     11  H3  UNL     1       0.697  16.478  15.330  1.00  0.00     0.178 HD
ATOM     12  H1  UNL     1       1.519  18.532  13.054  1.00  0.00     0.177 HD
BRANCH   8  13
HETATM   13  C6  UNL     1      -1.083  17.476  15.888  1.00  0.00     0.241 C 
BRANCH  13  14
HETATM   14  C7  UNL     1      -1.794  16.238  15.586  1.00  0.00     0.242 C 
HETATM   15  O1  UNL     1      -2.498  16.209  14.546  1.00  0.00    -0.271 OA
HETATM   16  N4  UNL     1      -1.747  15.065  16.382  1.00  0.00    -0.313 N 
HETATM   17  C8  UNL     1      -2.523  13.940  15.911  1.00  0.00     0.133 C 
HETATM   18  C12 UNL     1      -0.948  15.048  17.589  1.00  0.00     0.185 C 
HETATM   19  C9  UNL     1      -1.790  12.638  16.149  1.00  0.00     0.025 C 
HETATM   20  C10 UNL     1      -2.029  12.111  17.531  1.00  0.00     0.046 C 
HETATM   21  C11 UNL     1      -1.374  12.907  18.610  1.00  0.00     0.062 C 
HETATM   22  N5  UNL     1      -1.599  14.296  18.581  1.00  0.00    -0.366 N 
ATOM     23  H5  UNL     1      -2.216  14.742  19.258  1.00  0.00     0.165 HD
ENDBRANCH  13  14
ENDBRANCH   8  13
ENDBRANCH   4   5
ENDBRANCH   3   4
TORSDOF 4
ENDMDL
MODEL 2
REMARK VINA RESULT: -6.514176391      1.451      1.955
REMARK  4 active torsions:
REMARK  status: ('A' for Active; 'I' for Inactive)
REMARK    1  A    between atoms: C3_3  and  C4_4 
REMARK    2  A    between atoms: C4_4  and  N1_5 
REMARK       I    between atoms: N1_5  and  C5_7 
REMARK       I    between atoms: C5_7  and  N3_11 
REMARK    3  A    between atoms: N3_11  and  C6_13 
REMARK    4  A    between atoms: C6_13  and  C7_14 
REMARK       I    between atoms: C7_14  and  N4_16 
ROOT
HETATM    1  C1  UNL     1       6.237  18.053  13.129  1.00  0.00     0.012 C 
HETATM    2  C2  UNL     1       5.243  18.693  13.370  1.00  0.00    -0.116 C 
HETATM    3  C3  UNL     1       4.016  19.464  13.643  1.00  0.00     0.113 C 
ENDROOT
BRANCH   3   4
HETATM    4  C4  UNL     1       2.856  18.554  13.260  1.00  0.00     0.150 C 
BRANCH   4   5
HETATM    5  N1  UNL     1       1.689  18.968  14.010  1.00  0.00    -0.226 N 
HETATM    6  C5  UNL     1       1.385  18.306  15.231  1.00  0.00     0.667 C 
HETATM    7  N2  UNL     1       2.112  18.418  16.288  1.00  0.00    -0.235 N 
HETATM    8  N3  UNL     1       0.227  17.473  15.315  1.00  0.00    -0.218 N 
ATOM      9  H22 UNL     1       2.938  19.013  16.229  1.00  0.00     0.174 HD
ATOM     10  H21 UNL     1       1.894  17.943  17.164  1.00  0.00     0.174 HD
ATOM     11  H3  UNL     1       0.010  16.864  14.525  1.00  0.00     0.178 HD
ATOM     12  H1  UNL     1       1.094  19.722  13.668  1.00  0.00     0.177 HD
BRANCH   8  13
HETATM   13  C6  UNL     1      -0.644  17.450  16.450  1.00  0.00     0.241 C 
BRANCH  13  14
HETATM   14  C7  UNL     1      -0.378  16.277  17.276  1.00  0.00     0.242 C 
HETATM   15  O1  UNL     1       0.472  16.390  18.194  1.00  0.00    -0.271 OA
HETATM   16  N4  UNL     1      -1.010  15.017  17.116  1.00  0.00    -0.313 N 
HETATM   17  C8  UNL     1      -0.609  13.978  18.038  1.00  0.00     0.133 C 
HETATM   18  C12 UNL     1      -1.997  14.837  16.073  1.00  0.00     0.185 C 
HETATM   19  C9  UNL     1      -1.794  13.130  18.447  1.00  0.00     0.025 C 
HETATM   20  C10 UNL     1      -2.057  12.032  17.463  1.00  0.00     0.046 C 
HETATM   21  C11 UNL     1      -2.596  12.503  16.152  1.00  0.00     0.062 C 
HETATM   22  N5  UNL     1      -1.886  13.547  15.529  1.00  0.00    -0.366 N 
ATOM     23  H5  UNL     1      -1.308  13.371  14.707  1.00  0.00     0.165 HD
ENDBRANCH  13  14
ENDBRANCH   8  13
ENDBRANCH   4   5
ENDBRANCH   3   4
TORSDOF 4
ENDMDL
MODEL 3
REMARK VINA RESULT: -6.183884135      1.658      2.385
REMARK  4 active torsions:
REMARK  status: ('A' for Active; 'I' for Inactive)
REMARK    1  A    between atoms: C3_3  and  C4_4 
REMARK    2  A    between atoms: C4_4  and  N1_5 
REMARK       I    between atoms: N1_5  and  C5_7 
REMARK       I    between atoms: C5_7  and  N3_11 
REMARK    3  A    between atoms: N3_11  and  C6_13 
REMARK    4  A    between atoms: C6_13  and  C7_14 
REMARK       I    between atoms: C7_14  and  N4_16 
ROOT
HETATM    1  C1  UNL     1       5.020  18.602  13.099  1.00  0.00     0.012 C 
HETATM    2  C2  UNL     1       4.199  18.901  13.931  1.00  0.00    -0.116 C 
HETATM    3  C3  UNL     1       3.179  19.274  14.929  1.00  0.00     0.113 C 
ENDROOT
BRANCH   3   4
HETATM    4  C4  UNL     1       1.833  18.952  14.292  1.00  0.00     0.150 C 
BRANCH   4   5
HETATM    5  N1  UNL     1       1.275  17.800  14.968  1.00  0.00    -0.226 N 
HETATM    6  C5  UNL     1      -0.022  17.900  15.541  1.00  0.00     0.667 C 
HETATM    7  N2  UNL     1      -1.093  18.012  14.836  1.00  0.00    -0.235 N 
HETATM    8  N3  UNL     1      -0.170  17.876  16.962  1.00  0.00    -0.218 N 
ATOM      9  H22 UNL     1      -0.987  18.029  13.821  1.00  0.00     0.174 HD
ATOM     10  H21 UNL     1      -2.023  18.084  15.247  1.00  0.00     0.174 HD
ATOM     11  H3  UNL     1       0.502  18.395  17.528  1.00  0.00     0.178 HD
ATOM     12  H1  UNL     1       1.804  16.930  15.031  1.00  0.00     0.177 HD
BRANCH   8  13
HETATM   13  C6  UNL     1      -1.213  17.161  17.631  1.00  0.00     0.241 C 
BRANCH  13  14
HETATM   14  C7  UNL     1      -0.839  15.763  17.816  1.00  0.00     0.242 C 
HETATM   15  O1  UNL     1       0.039  15.503  18.677  1.00  0.00    -0.271 OA
HETATM   16  N4  UNL     1      -1.394  14.676  17.094  1.00  0.00    -0.313 N 
HETATM   17  C8  UNL     1      -0.889  13.362  17.424  1.00  0.00     0.133 C 
HETATM   18  C12 UNL     1      -2.409  14.924  16.092  1.00  0.00     0.185 C 
HETATM   19  C9  UNL     1      -1.999  12.333  17.400  1.00  0.00     0.025 C 
HETATM   20  C10 UNL     1      -2.230  11.799  16.020  1.00  0.00     0.046 C 
HETATM   21  C11 UNL     1      -2.851  12.781  15.081  1.00  0.00     0.062 C 
HETATM   22  N5  UNL     1      -2.236  14.045  15.010  1.00  0.00    -0.366 N 
ATOM     23  H5  UNL     1      -1.681  14.314  14.198  1.00  0.00     0.165 HD
ENDBRANCH  13  14
ENDBRANCH   8  13
ENDBRANCH   4   5
ENDBRANCH   3   4
TORSDOF 4
ENDMDL
MODEL 4
REMARK VINA RESULT: -6.016959183      1.808      2.517
REMARK  4 active torsions:
REMARK  status: ('A' for Active; 'I' for Inactive)
REMARK    1  A    between atoms: C3_3  and  C4_4 
REMARK    2  A    between atoms: C4_4  and  N1_5 
REMARK       I    between atoms: N1_5  and  C5_7 
REMARK       I    between atoms: C5_7  and  N3_11 
REMARK    3  A    between atoms: N3_11  and  C6_13 
REMARK    4  A    between atoms: C6_13  and  C7_14 
REMARK       I    between atoms: C7_14  and  N4_16 
ROOT
HETATM    1  C1  UNL     1       1.751  18.476   9.997  1.00  0.00     0.012 C 
HETATM    2  C2  UNL     1       2.281  19.024  10.932  1.00  0.00    -0.116 C 
HETATM    3  C3  UNL     1       2.913  19.682  12.091  1.00  0.00     0.113 C 
ENDROOT
BRANCH   3   4
HETATM    4  C4  UNL     1       2.751  18.718  13.259  1.00  0.00     0.150 C 
BRANCH   4   5
HETATM    5  N1  UNL     1       1.549  19.078  13.981  1.00  0.00    -0.226 N 
HETATM    6  C5  UNL     1       1.257  18.415  15.205  1.00  0.00     0.667 C 
HETATM    7  N2  UNL     1       1.956  18.579  16.274  1.00  0.00    -0.235 N 
HETATM    8  N3  UNL     1       0.143  17.523  15.277  1.00  0.00    -0.218 N 
ATOM      9  H22 UNL     1       2.750  19.216  16.222  1.00  0.00     0.174 HD
ATOM     10  H21 UNL     1       1.747  18.104  17.151  1.00  0.00     0.174 HD
ATOM     11  H3  UNL     1      -0.025  16.894  14.492  1.00  0.00     0.178 HD
ATOM     12  H1  UNL     1       0.921  19.795  13.618  1.00  0.00     0.177 HD
BRANCH   8  13
HETATM   13  C6  UNL     1      -0.747  17.468  16.396  1.00  0.00     0.241 C 
BRANCH  13  14
HETATM   14  C7  UNL     1      -0.453  16.305  17.228  1.00  0.00     0.242 C 
HETATM   15  O1  UNL     1       0.395  16.444  18.145  1.00  0.00    -0.271 OA
HETATM   16  N4  UNL     1      -1.055  15.030  17.076  1.00  0.00    -0.313 N 
HETATM   17  C8  UNL     1      -0.628  14.006  18.002  1.00  0.00     0.133 C 
HETATM   18  C12 UNL     1      -2.038  14.821  16.034  1.00  0.00     0.185 C 
HETATM   19  C9  UNL     1      -1.792  13.132  18.417  1.00  0.00     0.025 C 
HETATM   20  C10 UNL     1      -2.030  12.023  17.439  1.00  0.00     0.046 C 
HETATM   21  C11 UNL     1      -2.580  12.474  16.126  1.00  0.00     0.062 C 
HETATM   22  N5  UNL     1      -1.896  13.531  15.497  1.00  0.00    -0.366 N 
ATOM     23  H5  UNL     1      -1.315  13.365  14.676  1.00  0.00     0.165 HD
ENDBRANCH  13  14
ENDBRANCH   8  13
ENDBRANCH   4   5
ENDBRANCH   3   4
TORSDOF 4
ENDMDL
MODEL 5
REMARK VINA RESULT: -5.991844570      2.488      3.461
REMARK  4 active torsions:
REMARK  status: ('A' for Active; 'I' for Inactive)
REMARK    1  A    between atoms: C3_3  and  C4_4 
REMARK    2  A    between atoms: C4_4  and  N1_5 
REMARK       I    between atoms: N1_5  and  C5_7 
REMARK       I    between atoms: C5_7  and  N3_11 
REMARK    3  A    between atoms: N3_11  and  C6_13 
REMARK    4  A    between atoms: C6_13  and  C7_14 
REMARK       I    between atoms: C7_14  and  N4_16 
ROOT
HETATM    1  C1  UNL     1       2.340  18.494  14.607  1.00  0.00     0.012 C 
HETATM    2  C2  UNL     1       2.508  18.930  15.719  1.00  0.00    -0.116 C 
HETATM    3  C3  UNL     1       2.690  19.476  17.077  1.00  0.00     0.113 C 
ENDROOT
BRANCH   3   4
HETATM    4  C4  UNL     1       1.294  19.581  17.676  1.00  0.00     0.150 C 
BRANCH   4   5
HETATM    5  N1  UNL     1       0.817  18.243  17.954  1.00  0.00    -0.226 N 
HETATM    6  C5  UNL     1      -0.547  17.932  17.702  1.00  0.00     0.667 C 
HETATM    7  N2  UNL     1      -1.044  17.868  16.516  1.00  0.00    -0.235 N 
HETATM    8  N3  UNL     1      -1.427  17.673  18.798  1.00  0.00    -0.218 N 
ATOM      9  H22 UNL     1      -0.416  18.053  15.734  1.00  0.00     0.174 HD
ATOM     10  H21 UNL     1      -2.022  17.646  16.335  1.00  0.00     0.174 HD
ATOM     11  H3  UNL     1      -1.351  18.259  19.629  1.00  0.00     0.178 HD
ATOM     12  H1  UNL     1       1.450  17.533  18.325  1.00  0.00     0.177 HD
BRANCH   8  13
HETATM   13  C6  UNL     1      -2.409  16.632  18.788  1.00  0.00     0.241 C 
BRANCH  13  14
HETATM   14  C7  UNL     1      -1.768  15.324  18.699  1.00  0.00     0.242 C 
HETATM   15  O1  UNL     1      -1.016  14.978  19.644  1.00  0.00    -0.271 OA
HETATM   16  N4  UNL     1      -1.933  14.415  17.623  1.00  0.00    -0.313 N 
HETATM   17  C8  UNL     1      -1.211  13.167  17.723  1.00  0.00     0.133 C 
HETATM   18  C12 UNL     1      -2.790  14.768  16.511  1.00  0.00     0.185 C 
HETATM   19  C9  UNL     1      -2.040  12.017  17.192  1.00  0.00     0.025 C 
HETATM   20  C10 UNL     1      -1.905  11.874  15.708  1.00  0.00     0.046 C 
HETATM   21  C11 UNL     1      -2.560  12.966  14.927  1.00  0.00     0.062 C 
HETATM   22  N5  UNL     1      -2.241  14.281  15.313  1.00  0.00    -0.366 N 
ATOM     23  H5  UNL     1      -1.630  14.863  14.741  1.00  0.00     0.165 HD
ENDBRANCH  13  14
ENDBRANCH   8  13
ENDBRANCH   4   5
ENDBRANCH   3   4
TORSDOF 4
ENDMDL
