MODEL 1
REMARK VINA RESULT: -8.713187771      0.000      0.000
REMARK  9 active torsions:
REMARK  status: ('A' for Active; 'I' for Inactive)
REMARK    1  A    between atoms: N1_2  and  C2_3 
REMARK    2  A    between atoms: C2_3  and  C3_4 
REMARK    3  A    between atoms: C3_4  and  N2_5 
REMARK       I    between atoms: N2_5  and  C4_7 
REMARK    4  A    between atoms: C4_7  and  C5_9 
REMARK    5  A    between atoms: C5_9  and  C6_10 
REMARK    6  A    between atoms: C6_10  and  C7_11 
REMARK    7  A    between atoms: C7_11  and  C8_12 
REMARK    8  A    between atoms: C8_12  and  C9_13 
REMARK    9  A    between atoms: C9_13  and  C10_14 
ROOT
HETATM    1  N2  UNL     1      54.881  13.589  52.768  1.00  0.00    -0.359 N 
ATOM      2  H2  UNL     1      54.084  14.108  53.140  1.00  0.00     0.162 HD
HETATM    3  C4  UNL     1      56.173  14.145  52.873  1.00  0.00     0.217 C 
HETATM    4  O1  UNL     1      57.131  13.485  52.408  1.00  0.00    -0.274 OA
ENDROOT
BRANCH   3   5
HETATM    5  C5  UNL     1      56.371  15.440  53.502  1.00  0.00     0.103 C 
BRANCH   5   6
HETATM    6  C6  UNL     1      57.071  15.447  54.813  1.00  0.00     0.009 C 
BRANCH   6   7
HETATM    7  C7  UNL     1      57.886  16.655  55.120  1.00  0.00     0.000 C 
BRANCH   7   8
HETATM    8  C8  UNL     1      57.473  17.774  54.194  1.00  0.00     0.000 C 
BRANCH   8   9
HETATM    9  C9  UNL     1      58.386  18.949  54.175  1.00  0.00     0.004 C 
BRANCH   9  10
HETATM   10  C10 UNL     1      57.711  20.271  54.470  1.00  0.00    -0.014 C 
HETATM   11  C11 UNL     1      58.766  21.324  54.545  1.00  0.00     0.004 C 
HETATM   12  C12 UNL     1      58.347  22.619  53.885  1.00  0.00     0.000 C 
HETATM   13  C13 UNL     1      58.118  22.262  52.429  1.00  0.00     0.000 C 
HETATM   14  C14 UNL     1      57.004  21.278  52.261  1.00  0.00     0.000 C 
HETATM   15  C15 UNL     1      56.620  20.537  53.490  1.00  0.00     0.004 C 
ENDBRANCH   9  10
ENDBRANCH   8   9
ENDBRANCH   7   8
ENDBRANCH   6   7
ENDBRANCH   5   6
ENDBRANCH   3   5
BRANCH   1  16
HETATM   16  C3  UNL     1      54.653  12.279  52.136  1.00  0.00     0.150 C 
BRANCH  16  17
HETATM   17  C2  UNL     1      53.255  11.788  52.465  1.00  0.00     0.256 C 
BRANCH  17  18
HETATM   18  N1  UNL     1      53.255  10.730  53.423  1.00  0.00    -0.069 N 
HETATM   19  C1  UNL     1      54.503  10.003  53.492  1.00  0.00     0.272 C 
HETATM   20  C16 UNL     1      52.188   9.804  53.139  1.00  0.00     0.237 C 
HETATM   21  C17 UNL     1      52.213   8.902  54.372  1.00  0.00     0.029 C 
HETATM   22  C18 UNL     1      52.564   9.885  55.453  1.00  0.00     0.029 C 
HETATM   23  C19 UNL     1      52.942  11.174  54.765  1.00  0.00     0.237 C 
ENDBRANCH  17  18
ENDBRANCH  16  17
ENDBRANCH   1  16
TORSDOF 9
ENDMDL
MODEL 2
REMARK VINA RESULT: -8.631724948      2.818      4.611
REMARK  9 active torsions:
REMARK  status: ('A' for Active; 'I' for Inactive)
REMARK    1  A    between atoms: N1_2  and  C2_3 
REMARK    2  A    between atoms: C2_3  and  C3_4 
REMARK    3  A    between atoms: C3_4  and  N2_5 
REMARK       I    between atoms: N2_5  and  C4_7 
REMARK    4  A    between atoms: C4_7  and  C5_9 
REMARK    5  A    between atoms: C5_9  and  C6_10 
REMARK    6  A    between atoms: C6_10  and  C7_11 
REMARK    7  A    between atoms: C7_11  and  C8_12 
REMARK    8  A    between atoms: C8_12  and  C9_13 
REMARK    9  A    between atoms: C9_13  and  C10_14 
ROOT
HETATM    1  N2  UNL     1      55.748   9.271  52.202  1.00  0.00    -0.359 N 
ATOM      2  H2  UNL     1      55.978   9.079  51.227  1.00  0.00     0.162 HD
HETATM    3  C4  UNL     1      56.668   9.987  52.997  1.00  0.00     0.217 C 
HETATM    4  O1  UNL     1      56.357  10.208  54.191  1.00  0.00    -0.274 OA
ENDROOT
BRANCH   3   5
HETATM    5  C5  UNL     1      57.928  10.445  52.438  1.00  0.00     0.103 C 
BRANCH   5   6
HETATM    6  C6  UNL     1      57.848  11.407  51.307  1.00  0.00     0.009 C 
BRANCH   6   7
HETATM    7  C7  UNL     1      56.724  12.383  51.348  1.00  0.00     0.000 C 
BRANCH   7   8
HETATM    8  C8  UNL     1      57.064  13.480  52.328  1.00  0.00     0.000 C 
BRANCH   8   9
HETATM    9  C9  UNL     1      56.318  14.754  52.134  1.00  0.00     0.004 C 
BRANCH   9  10
HETATM   10  C10 UNL     1      55.729  15.332  53.403  1.00  0.00    -0.014 C 
HETATM   11  C11 UNL     1      56.157  14.473  54.546  1.00  0.00     0.004 C 
HETATM   12  C12 UNL     1      56.531  15.277  55.773  1.00  0.00     0.000 C 
HETATM   13  C13 UNL     1      57.705  16.132  55.339  1.00  0.00     0.000 C 
HETATM   14  C14 UNL     1      57.330  17.093  54.255  1.00  0.00     0.000 C 
HETATM   15  C15 UNL     1      56.071  16.777  53.534  1.00  0.00     0.004 C 
ENDBRANCH   9  10
ENDBRANCH   8   9
ENDBRANCH   7   8
ENDBRANCH   6   7
ENDBRANCH   5   6
ENDBRANCH   3   5
BRANCH   1  16
HETATM   16  C3  UNL     1      54.464   8.796  52.744  1.00  0.00     0.150 C 
BRANCH  16  17
HETATM   17  C2  UNL     1      53.328   9.620  52.166  1.00  0.00     0.256 C 
BRANCH  17  18
HETATM   18  N1  UNL     1      52.730  10.485  53.130  1.00  0.00    -0.069 N 
HETATM   19  C1  UNL     1      51.333  10.764  52.880  1.00  0.00     0.272 C 
HETATM   20  C16 UNL     1      53.451  11.731  53.195  1.00  0.00     0.237 C 
HETATM   21  C17 UNL     1      52.815  12.406  54.409  1.00  0.00     0.029 C 
HETATM   22  C18 UNL     1      52.564  11.227  55.307  1.00  0.00     0.029 C 
HETATM   23  C19 UNL     1      52.832   9.989  54.487  1.00  0.00     0.237 C 
ENDBRANCH  17  18
ENDBRANCH  16  17
ENDBRANCH   1  16
TORSDOF 9
ENDMDL
MODEL 3
REMARK VINA RESULT: -8.609226244      0.939      1.090
REMARK  9 active torsions:
REMARK  status: ('A' for Active; 'I' for Inactive)
REMARK    1  A    between atoms: N1_2  and  C2_3 
REMARK    2  A    between atoms: C2_3  and  C3_4 
REMARK    3  A    between atoms: C3_4  and  N2_5 
REMARK       I    between atoms: N2_5  and  C4_7 
REMARK    4  A    between atoms: C4_7  and  C5_9 
REMARK    5  A    between atoms: C5_9  and  C6_10 
REMARK    6  A    between atoms: C6_10  and  C7_11 
REMARK    7  A    between atoms: C7_11  and  C8_12 
REMARK    8  A    between atoms: C8_12  and  C9_13 
REMARK    9  A    between atoms: C9_13  and  C10_14 
ROOT
HETATM    1  N2  UNL     1      55.526  13.588  52.181  1.00  0.00    -0.359 N 
ATOM      2  H2  UNL     1      56.196  13.809  51.444  1.00  0.00     0.162 HD
HETATM    3  C4  UNL     1      55.728  14.115  53.474  1.00  0.00     0.217 C 
HETATM    4  O1  UNL     1      54.888  13.826  54.358  1.00  0.00    -0.274 OA
ENDROOT
BRANCH   3   5
HETATM    5  C5  UNL     1      56.874  14.962  53.756  1.00  0.00     0.103 C 
BRANCH   5   6
HETATM    6  C6  UNL     1      56.974  15.517  55.132  1.00  0.00     0.009 C 
BRANCH   6   7
HETATM    7  C7  UNL     1      57.852  16.708  55.301  1.00  0.00     0.000 C 
BRANCH   7   8
HETATM    8  C8  UNL     1      57.515  17.720  54.234  1.00  0.00     0.000 C 
BRANCH   8   9
HETATM    9  C9  UNL     1      58.415  18.906  54.180  1.00  0.00     0.004 C 
BRANCH   9  10
HETATM   10  C10 UNL     1      57.732  20.223  54.484  1.00  0.00    -0.014 C 
HETATM   11  C11 UNL     1      58.778  21.286  54.529  1.00  0.00     0.004 C 
HETATM   12  C12 UNL     1      58.331  22.573  53.872  1.00  0.00     0.000 C 
HETATM   13  C13 UNL     1      58.072  22.206  52.424  1.00  0.00     0.000 C 
HETATM   14  C14 UNL     1      56.964  21.210  52.287  1.00  0.00     0.000 C 
HETATM   15  C15 UNL     1      56.616  20.472  53.528  1.00  0.00     0.004 C 
ENDBRANCH   9  10
ENDBRANCH   8   9
ENDBRANCH   7   8
ENDBRANCH   6   7
ENDBRANCH   5   6
ENDBRANCH   3   5
BRANCH   1  16
HETATM   16  C3  UNL     1      54.373  12.727  51.870  1.00  0.00     0.150 C 
BRANCH  16  17
HETATM   17  C2  UNL     1      54.767  11.270  52.015  1.00  0.00     0.256 C 
BRANCH  17  18
HETATM   18  N1  UNL     1      53.842  10.526  52.807  1.00  0.00    -0.069 N 
HETATM   19  C1  UNL     1      53.543   9.213  52.280  1.00  0.00     0.272 C 
HETATM   20  C16 UNL     1      52.613  11.262  52.957  1.00  0.00     0.237 C 
HETATM   21  C17 UNL     1      51.865  10.426  53.995  1.00  0.00     0.029 C 
HETATM   22  C18 UNL     1      52.992   9.968  54.877  1.00  0.00     0.029 C 
HETATM   23  C19 UNL     1      54.274  10.349  54.178  1.00  0.00     0.237 C 
ENDBRANCH  17  18
ENDBRANCH  16  17
ENDBRANCH   1  16
TORSDOF 9
ENDMDL
MODEL 4
REMARK VINA RESULT: -8.493861842      0.839      1.304
REMARK  9 active torsions:
REMARK  status: ('A' for Active; 'I' for Inactive)
REMARK    1  A    between atoms: N1_2  and  C2_3 
REMARK    2  A    between atoms: C2_3  and  C3_4 
REMARK    3  A    between atoms: C3_4  and  N2_5 
REMARK       I    between atoms: N2_5  and  C4_7 
REMARK    4  A    between atoms: C4_7  and  C5_9 
REMARK    5  A    between atoms: C5_9  and  C6_10 
REMARK    6  A    between atoms: C6_10  and  C7_11 
REMARK    7  A    between atoms: C7_11  and  C8_12 
REMARK    8  A    between atoms: C8_12  and  C9_13 
REMARK    9  A    between atoms: C9_13  and  C10_14 
ROOT
HETATM    1  N2  UNL     1      54.777  13.379  54.260  1.00  0.00    -0.359 N 
ATOM      2  H2  UNL     1      54.067  13.610  54.956  1.00  0.00     0.162 HD
HETATM    3  C4  UNL     1      55.830  14.287  54.025  1.00  0.00     0.217 C 
HETATM    4  O1  UNL     1      56.686  13.976  53.164  1.00  0.00    -0.274 OA
ENDROOT
BRANCH   3   5
HETATM    5  C5  UNL     1      55.907  15.537  54.763  1.00  0.00     0.103 C 
BRANCH   5   6
HETATM    6  C6  UNL     1      57.095  15.726  55.637  1.00  0.00     0.009 C 
BRANCH   6   7
HETATM    7  C7  UNL     1      58.175  16.602  55.103  1.00  0.00     0.000 C 
BRANCH   7   8
HETATM    8  C8  UNL     1      57.546  17.782  54.401  1.00  0.00     0.000 C 
BRANCH   8   9
HETATM    9  C9  UNL     1      58.430  18.970  54.249  1.00  0.00     0.004 C 
BRANCH   9  10
HETATM   10  C10 UNL     1      57.747  20.295  54.519  1.00  0.00    -0.014 C 
HETATM   11  C11 UNL     1      58.795  21.358  54.547  1.00  0.00     0.004 C 
HETATM   12  C12 UNL     1      58.355  22.630  53.858  1.00  0.00     0.000 C 
HETATM   13  C13 UNL     1      58.106  22.231  52.417  1.00  0.00     0.000 C 
HETATM   14  C14 UNL     1      56.997  21.233  52.294  1.00  0.00     0.000 C 
HETATM   15  C15 UNL     1      56.639  20.525  53.549  1.00  0.00     0.004 C 
ENDBRANCH   9  10
ENDBRANCH   8   9
ENDBRANCH   7   8
ENDBRANCH   6   7
ENDBRANCH   5   6
ENDBRANCH   3   5
BRANCH   1  16
HETATM   16  C3  UNL     1      54.677  12.106  53.526  1.00  0.00     0.150 C 
BRANCH  16  17
HETATM   17  C2  UNL     1      53.295  11.978  52.911  1.00  0.00     0.256 C 
BRANCH  17  18
HETATM   18  N1  UNL     1      52.713  10.694  53.130  1.00  0.00    -0.069 N 
HETATM   19  C1  UNL     1      51.400  10.539  52.542  1.00  0.00     0.272 C 
HETATM   20  C16 UNL     1      52.628  10.422  54.542  1.00  0.00     0.237 C 
HETATM   21  C17 UNL     1      52.205   8.954  54.559  1.00  0.00     0.029 C 
HETATM   22  C18 UNL     1      52.954   8.414  53.373  1.00  0.00     0.029 C 
HETATM   23  C19 UNL     1      53.531   9.603  52.645  1.00  0.00     0.237 C 
ENDBRANCH  17  18
ENDBRANCH  16  17
ENDBRANCH   1  16
TORSDOF 9
ENDMDL
MODEL 5
REMARK VINA RESULT: -8.493328485      0.987      1.439
REMARK  9 active torsions:
REMARK  status: ('A' for Active; 'I' for Inactive)
REMARK    1  A    between atoms: N1_2  and  C2_3 
REMARK    2  A    between atoms: C2_3  and  C3_4 
REMARK    3  A    between atoms: C3_4  and  N2_5 
REMARK       I    between atoms: N2_5  and  C4_7 
REMARK    4  A    between atoms: C4_7  and  C5_9 
REMARK    5  A    between atoms: C5_9  and  C6_10 
REMARK    6  A    between atoms: C6_10  and  C7_11 
REMARK    7  A    between atoms: C7_11  and  C8_12 
REMARK    8  A    between atoms: C8_12  and  C9_13 
REMARK    9  A    between atoms: C9_13  and  C10_14 
ROOT
HETATM    1  N2  UNL     1      54.843  14.235  52.280  1.00  0.00    -0.359 N 
ATOM      2  H2  UNL     1      54.151  14.694  52.873  1.00  0.00     0.162 HD
HETATM    3  C4  UNL     1      55.890  15.001  51.727  1.00  0.00     0.217 C 
HETATM    4  O1  UNL     1      56.725  14.410  51.003  1.00  0.00    -0.274 OA
ENDROOT
BRANCH   3   5
HETATM    5  C5  UNL     1      55.986  16.426  51.996  1.00  0.00     0.103 C 
BRANCH   5   6
HETATM    6  C6  UNL     1      56.028  16.836  53.425  1.00  0.00     0.009 C 
BRANCH   6   7
HETATM    7  C7  UNL     1      57.245  16.443  54.188  1.00  0.00     0.000 C 
BRANCH   7   8
HETATM    8  C8  UNL     1      57.793  17.659  54.895  1.00  0.00     0.000 C 
BRANCH   8   9
HETATM    9  C9  UNL     1      58.194  18.781  54.003  1.00  0.00     0.004 C 
BRANCH   9  10
HETATM   10  C10 UNL     1      57.616  20.126  54.390  1.00  0.00    -0.014 C 
HETATM   11  C11 UNL     1      58.745  21.092  54.534  1.00  0.00     0.004 C 
HETATM   12  C12 UNL     1      58.422  22.456  53.966  1.00  0.00     0.000 C 
HETATM   13  C13 UNL     1      58.171  22.217  52.490  1.00  0.00     0.000 C 
HETATM   14  C14 UNL     1      56.988  21.330  52.258  1.00  0.00     0.000 C 
HETATM   15  C15 UNL     1      56.549  20.537  53.434  1.00  0.00     0.004 C 
ENDBRANCH   9  10
ENDBRANCH   8   9
ENDBRANCH   7   8
ENDBRANCH   6   7
ENDBRANCH   5   6
ENDBRANCH   3   5
BRANCH   1  16
HETATM   16  C3  UNL     1      54.724  12.790  52.022  1.00  0.00     0.150 C 
BRANCH  16  17
HETATM   17  C2  UNL     1      54.850  12.026  53.327  1.00  0.00     0.256 C 
BRANCH  17  18
HETATM   18  N1  UNL     1      53.594  11.552  53.811  1.00  0.00    -0.069 N 
HETATM   19  C1  UNL     1      52.927  12.471  54.707  1.00  0.00     0.272 C 
HETATM   20  C16 UNL     1      53.765  10.287  54.480  1.00  0.00     0.237 C 
HETATM   21  C17 UNL     1      52.320   9.852  54.713  1.00  0.00     0.029 C 
HETATM   22  C18 UNL     1      51.650  10.360  53.467  1.00  0.00     0.029 C 
HETATM   23  C19 UNL     1      52.659  11.228  52.754  1.00  0.00     0.237 C 
ENDBRANCH  17  18
ENDBRANCH  16  17
ENDBRANCH   1  16
TORSDOF 9
ENDMDL
