MODEL 1
REMARK VINA RESULT: -8.221726867      0.000      0.000
REMARK  11 active torsions:
REMARK  status: ('A' for Active; 'I' for Inactive)
REMARK    1  A    between atoms: C1_2  and  C2_4 
REMARK    2  A    between atoms: C2_4  and  C3_5 
REMARK    3  A    between atoms: C3_5  and  N1_6 
REMARK    4  A    between atoms: N1_6  and  C4_7 
REMARK    5  A    between atoms: C4_7  and  C5_8 
REMARK    6  A    between atoms: C5_8  and  C6_9 
REMARK    7  A    between atoms: C6_9  and  C7_10 
REMARK    8  A    between atoms: C7_10  and  C8_11 
REMARK    9  A    between atoms: C9_12  and  C10_13 
REMARK   10  A    between atoms: C10_13  and  C11_14 
REMARK   11  A    between atoms: C11_14  and  C12_15 
ROOT
HETATM    1  C5  UNL     1      55.877  14.011  54.273  1.00  0.00     0.029 C 
ENDROOT
BRANCH   1   2
HETATM    2  C4  UNL     1      54.794  13.423  53.463  1.00  0.00     0.237 C 
BRANCH   2   3
HETATM    3  N1  UNL     1      54.630  12.011  53.469  1.00  0.00    -0.066 N 
HETATM    4  C17 UNL     1      53.550  11.672  54.423  1.00  0.00     0.239 C 
HETATM    5  C18 UNL     1      52.550  11.580  53.307  1.00  0.00     0.056 C 
HETATM    6  C19 UNL     1      53.805  11.462  52.439  1.00  0.00     0.239 C 
BRANCH   3   7
HETATM    7  C3  UNL     1      55.782  11.213  53.850  1.00  0.00     0.248 C 
BRANCH   7   8
HETATM    8  C2  UNL     1      56.271  10.361  52.688  1.00  0.00     0.141 C 
BRANCH   8   9
HETATM    9  C1  UNL     1      57.694  10.017  52.814  1.00  0.00     0.174 C 
HETATM   10  O1  UNL     1      58.537  10.677  52.126  1.00  0.00    -0.648 OA
HETATM   11  O2  UNL     1      58.214   9.019  53.636  1.00  0.00    -0.648 OA
ENDBRANCH   8   9
ENDBRANCH   7   8
ENDBRANCH   3   7
ENDBRANCH   2   3
ENDBRANCH   1   2
BRANCH   1  12
HETATM   12  C6  UNL     1      55.504  15.062  55.253  1.00  0.00     0.014 C 
BRANCH  12  13
HETATM   13  C7  UNL     1      56.749  15.371  56.104  1.00  0.00     0.094 C 
BRANCH  13  14
HETATM   14  C8  UNL     1      57.429  16.499  55.429  1.00  0.00    -0.107 C 
HETATM   15  C9  UNL     1      57.977  17.419  54.849  1.00  0.00    -0.107 C 
BRANCH  15  16
HETATM   16  C10 UNL     1      58.567  18.511  54.117  1.00  0.00     0.094 C 
BRANCH  16  17
HETATM   17  C11 UNL     1      57.671  19.248  53.226  1.00  0.00     0.017 C 
BRANCH  17  18
HETATM   18  C12 UNL     1      57.687  20.702  53.235  1.00  0.00    -0.014 C 
HETATM   19  C13 UNL     1      56.318  21.365  53.357  1.00  0.00     0.005 C 
HETATM   20  C14 UNL     1      56.675  22.827  53.301  1.00  0.00     0.000 C 
HETATM   21  C15 UNL     1      58.026  22.917  53.955  1.00  0.00     0.000 C 
HETATM   22  C16 UNL     1      58.495  21.467  54.208  1.00  0.00     0.005 C 
ENDBRANCH  17  18
ENDBRANCH  16  17
ENDBRANCH  15  16
ENDBRANCH  13  14
ENDBRANCH  12  13
ENDBRANCH   1  12
TORSDOF 11
ENDMDL
MODEL 2
REMARK VINA RESULT: -8.132619127      1.145      2.280
REMARK  11 active torsions:
REMARK  status: ('A' for Active; 'I' for Inactive)
REMARK    1  A    between atoms: C1_2  and  C2_4 
REMARK    2  A    between atoms: C2_4  and  C3_5 
REMARK    3  A    between atoms: C3_5  and  N1_6 
REMARK    4  A    between atoms: N1_6  and  C4_7 
REMARK    5  A    between atoms: C4_7  and  C5_8 
REMARK    6  A    between atoms: C5_8  and  C6_9 
REMARK    7  A    between atoms: C6_9  and  C7_10 
REMARK    8  A    between atoms: C7_10  and  C8_11 
REMARK    9  A    between atoms: C9_12  and  C10_13 
REMARK   10  A    between atoms: C10_13  and  C11_14 
REMARK   11  A    between atoms: C11_14  and  C12_15 
ROOT
HETATM    1  C5  UNL     1      54.536  12.790  51.952  1.00  0.00     0.029 C 
ENDROOT
BRANCH   1   2
HETATM    2  C4  UNL     1      53.750  11.954  52.878  1.00  0.00     0.237 C 
BRANCH   2   3
HETATM    3  N1  UNL     1      53.983  10.552  52.894  1.00  0.00    -0.066 N 
HETATM    4  C17 UNL     1      53.790  10.065  54.279  1.00  0.00     0.239 C 
HETATM    5  C18 UNL     1      52.391   9.622  53.962  1.00  0.00     0.056 C 
HETATM    6  C19 UNL     1      52.885   9.719  52.516  1.00  0.00     0.239 C 
BRANCH   3   7
HETATM    7  C3  UNL     1      55.297  10.096  52.476  1.00  0.00     0.248 C 
BRANCH   7   8
HETATM    8  C2  UNL     1      56.194   9.825  53.675  1.00  0.00     0.141 C 
BRANCH   8   9
HETATM    9  C1  UNL     1      57.596   9.625  53.282  1.00  0.00     0.174 C 
HETATM   10  O1  UNL     1      58.241   8.668  53.820  1.00  0.00    -0.648 OA
HETATM   11  O2  UNL     1      58.295  10.397  52.357  1.00  0.00    -0.648 OA
ENDBRANCH   8   9
ENDBRANCH   7   8
ENDBRANCH   3   7
ENDBRANCH   2   3
ENDBRANCH   1   2
BRANCH   1  12
HETATM   12  C6  UNL     1      55.327  13.901  52.537  1.00  0.00     0.014 C 
BRANCH  12  13
HETATM   13  C7  UNL     1      55.740  13.483  53.960  1.00  0.00     0.094 C 
BRANCH  13  14
HETATM   14  C8  UNL     1      56.325  14.691  54.582  1.00  0.00    -0.107 C 
HETATM   15  C9  UNL     1      56.825  15.688  55.073  1.00  0.00    -0.107 C 
BRANCH  15  16
HETATM   16  C10 UNL     1      57.433  16.889  55.585  1.00  0.00     0.094 C 
BRANCH  16  17
HETATM   17  C11 UNL     1      58.228  17.665  54.633  1.00  0.00     0.017 C 
BRANCH  17  18
HETATM   18  C12 UNL     1      57.625  18.799  53.952  1.00  0.00    -0.014 C 
HETATM   19  C13 UNL     1      58.176  20.165  54.354  1.00  0.00     0.005 C 
HETATM   20  C14 UNL     1      57.338  21.095  53.518  1.00  0.00     0.000 C 
HETATM   21  C15 UNL     1      57.056  20.328  52.256  1.00  0.00     0.000 C 
HETATM   22  C16 UNL     1      57.590  18.895  52.478  1.00  0.00     0.005 C 
ENDBRANCH  17  18
ENDBRANCH  16  17
ENDBRANCH  15  16
ENDBRANCH  13  14
ENDBRANCH  12  13
ENDBRANCH   1  12
TORSDOF 11
ENDMDL
MODEL 3
REMARK VINA RESULT: -8.127493666      2.898      3.741
REMARK  11 active torsions:
REMARK  status: ('A' for Active; 'I' for Inactive)
REMARK    1  A    between atoms: C1_2  and  C2_4 
REMARK    2  A    between atoms: C2_4  and  C3_5 
REMARK    3  A    between atoms: C3_5  and  N1_6 
REMARK    4  A    between atoms: N1_6  and  C4_7 
REMARK    5  A    between atoms: C4_7  and  C5_8 
REMARK    6  A    between atoms: C5_8  and  C6_9 
REMARK    7  A    between atoms: C6_9  and  C7_10 
REMARK    8  A    between atoms: C7_10  and  C8_11 
REMARK    9  A    between atoms: C9_12  and  C10_13 
REMARK   10  A    between atoms: C10_13  and  C11_14 
REMARK   11  A    between atoms: C11_14  and  C12_15 
ROOT
HETATM    1  C5  UNL     1      56.163  14.117  54.628  1.00  0.00     0.029 C 
ENDROOT
BRANCH   1   2
HETATM    2  C4  UNL     1      55.225  13.442  53.711  1.00  0.00     0.237 C 
BRANCH   2   3
HETATM    3  N1  UNL     1      55.457  13.534  52.312  1.00  0.00    -0.066 N 
HETATM    4  C17 UNL     1      56.904  13.335  52.066  1.00  0.00     0.239 C 
HETATM    5  C18 UNL     1      56.680  11.890  51.727  1.00  0.00     0.056 C 
HETATM    6  C19 UNL     1      55.230  12.347  51.549  1.00  0.00     0.239 C 
BRANCH   3   7
HETATM    7  C3  UNL     1      55.096  14.782  51.663  1.00  0.00     0.248 C 
BRANCH   7   8
HETATM    8  C2  UNL     1      56.317  15.664  51.445  1.00  0.00     0.141 C 
BRANCH   8   9
HETATM    9  C1  UNL     1      56.069  17.057  51.838  1.00  0.00     0.174 C 
HETATM   10  O1  UNL     1      56.727  17.975  51.249  1.00  0.00    -0.648 OA
HETATM   11  O2  UNL     1      55.163  17.474  52.811  1.00  0.00    -0.648 OA
ENDBRANCH   8   9
ENDBRANCH   7   8
ENDBRANCH   3   7
ENDBRANCH   2   3
ENDBRANCH   1   2
BRANCH   1  12
HETATM   12  C6  UNL     1      55.644  15.264  55.414  1.00  0.00     0.014 C 
BRANCH  12  13
HETATM   13  C7  UNL     1      56.790  15.777  56.305  1.00  0.00     0.094 C 
BRANCH  13  14
HETATM   14  C8  UNL     1      57.533  16.756  55.482  1.00  0.00    -0.107 C 
HETATM   15  C9  UNL     1      58.122  17.575  54.799  1.00  0.00    -0.107 C 
BRANCH  15  16
HETATM   16  C10 UNL     1      58.766  18.594  54.010  1.00  0.00     0.094 C 
BRANCH  16  17
HETATM   17  C11 UNL     1      58.850  19.923  54.616  1.00  0.00     0.017 C 
BRANCH  17  18
HETATM   18  C12 UNL     1      57.844  20.922  54.296  1.00  0.00    -0.014 C 
HETATM   19  C13 UNL     1      58.387  22.228  53.722  1.00  0.00     0.005 C 
HETATM   20  C14 UNL     1      57.129  23.034  53.540  1.00  0.00     0.000 C 
HETATM   21  C15 UNL     1      56.068  22.020  53.211  1.00  0.00     0.000 C 
HETATM   22  C16 UNL     1      56.712  20.628  53.394  1.00  0.00     0.005 C 
ENDBRANCH  17  18
ENDBRANCH  16  17
ENDBRANCH  15  16
ENDBRANCH  13  14
ENDBRANCH  12  13
ENDBRANCH   1  12
TORSDOF 11
ENDMDL
MODEL 4
REMARK VINA RESULT: -8.078369811      4.343      8.663
REMARK  11 active torsions:
REMARK  status: ('A' for Active; 'I' for Inactive)
REMARK    1  A    between atoms: C1_2  and  C2_4 
REMARK    2  A    between atoms: C2_4  and  C3_5 
REMARK    3  A    between atoms: C3_5  and  N1_6 
REMARK    4  A    between atoms: N1_6  and  C4_7 
REMARK    5  A    between atoms: C4_7  and  C5_8 
REMARK    6  A    between atoms: C5_8  and  C6_9 
REMARK    7  A    between atoms: C6_9  and  C7_10 
REMARK    8  A    between atoms: C7_10  and  C8_11 
REMARK    9  A    between atoms: C9_12  and  C10_13 
REMARK   10  A    between atoms: C10_13  and  C11_14 
REMARK   11  A    between atoms: C11_14  and  C12_15 
ROOT
HETATM    1  C5  UNL     1      57.699  17.862  55.098  1.00  0.00     0.029 C 
ENDROOT
BRANCH   1   2
HETATM    2  C4  UNL     1      57.864  18.455  53.757  1.00  0.00     0.237 C 
BRANCH   2   3
HETATM    3  N1  UNL     1      56.700  18.801  53.018  1.00  0.00    -0.066 N 
HETATM    4  C17 UNL     1      56.948  18.495  51.590  1.00  0.00     0.239 C 
HETATM    5  C18 UNL     1      56.231  17.182  51.714  1.00  0.00     0.056 C 
HETATM    6  C19 UNL     1      55.657  17.825  52.980  1.00  0.00     0.239 C 
BRANCH   3   7
HETATM    7  C3  UNL     1      56.269  20.186  53.075  1.00  0.00     0.248 C 
BRANCH   7   8
HETATM    8  C2  UNL     1      57.245  21.097  52.344  1.00  0.00     0.141 C 
BRANCH   8   9
HETATM    9  C1  UNL     1      57.537  22.318  53.106  1.00  0.00     0.174 C 
HETATM   10  O1  UNL     1      56.594  23.154  53.291  1.00  0.00    -0.648 OA
HETATM   11  O2  UNL     1      58.773  22.651  53.657  1.00  0.00    -0.648 OA
ENDBRANCH   8   9
ENDBRANCH   7   8
ENDBRANCH   3   7
ENDBRANCH   2   3
ENDBRANCH   1   2
BRANCH   1  12
HETATM   12  C6  UNL     1      58.094  16.442  55.272  1.00  0.00     0.014 C 
BRANCH  12  13
HETATM   13  C7  UNL     1      57.009  15.755  56.120  1.00  0.00     0.094 C 
BRANCH  13  14
HETATM   14  C8  UNL     1      56.214  14.940  55.175  1.00  0.00    -0.107 C 
HETATM   15  C9  UNL     1      55.538  14.270  54.414  1.00  0.00    -0.107 C 
BRANCH  15  16
HETATM   16  C10 UNL     1      54.679  13.515  53.539  1.00  0.00     0.094 C 
BRANCH  16  17
HETATM   17  C11 UNL     1      55.231  13.178  52.226  1.00  0.00     0.017 C 
BRANCH  17  18
HETATM   18  C12 UNL     1      56.451  12.394  52.142  1.00  0.00    -0.014 C 
HETATM   19  C13 UNL     1      56.346  10.970  52.683  1.00  0.00     0.005 C 
HETATM   20  C14 UNL     1      57.748  10.459  52.486  1.00  0.00     0.000 C 
HETATM   21  C15 UNL     1      58.240  11.153  51.246  1.00  0.00     0.000 C 
HETATM   22  C16 UNL     1      57.163  12.192  50.863  1.00  0.00     0.005 C 
ENDBRANCH  17  18
ENDBRANCH  16  17
ENDBRANCH  15  16
ENDBRANCH  13  14
ENDBRANCH  12  13
ENDBRANCH   1  12
TORSDOF 11
ENDMDL
MODEL 5
REMARK VINA RESULT: -8.058389682      1.223      2.183
REMARK  11 active torsions:
REMARK  status: ('A' for Active; 'I' for Inactive)
REMARK    1  A    between atoms: C1_2  and  C2_4 
REMARK    2  A    between atoms: C2_4  and  C3_5 
REMARK    3  A    between atoms: C3_5  and  N1_6 
REMARK    4  A    between atoms: N1_6  and  C4_7 
REMARK    5  A    between atoms: C4_7  and  C5_8 
REMARK    6  A    between atoms: C5_8  and  C6_9 
REMARK    7  A    between atoms: C6_9  and  C7_10 
REMARK    8  A    between atoms: C7_10  and  C8_11 
REMARK    9  A    between atoms: C9_12  and  C10_13 
REMARK   10  A    between atoms: C10_13  and  C11_14 
REMARK   11  A    between atoms: C11_14  and  C12_15 
ROOT
HETATM    1  C5  UNL     1      54.517  12.980  52.066  1.00  0.00     0.029 C 
ENDROOT
BRANCH   1   2
HETATM    2  C4  UNL     1      53.761  12.259  53.107  1.00  0.00     0.237 C 
BRANCH   2   3
HETATM    3  N1  UNL     1      53.683  10.842  53.032  1.00  0.00    -0.066 N 
HETATM    4  C17 UNL     1      53.748  10.299  54.409  1.00  0.00     0.239 C 
HETATM    5  C18 UNL     1      52.253  10.175  54.464  1.00  0.00     0.056 C 
HETATM    6  C19 UNL     1      52.372  10.281  52.941  1.00  0.00     0.239 C 
BRANCH   3   7
HETATM    7  C3  UNL     1      54.716  10.162  52.272  1.00  0.00     0.248 C 
BRANCH   7   8
HETATM    8  C2  UNL     1      55.858   9.712  53.172  1.00  0.00     0.141 C 
BRANCH   8   9
HETATM    9  C1  UNL     1      57.172  10.037  52.602  1.00  0.00     0.174 C 
HETATM   10  O1  UNL     1      58.212   9.632  53.216  1.00  0.00    -0.648 OA
HETATM   11  O2  UNL     1      57.390  10.757  51.429  1.00  0.00    -0.648 OA
ENDBRANCH   8   9
ENDBRANCH   7   8
ENDBRANCH   3   7
ENDBRANCH   2   3
ENDBRANCH   1   2
BRANCH   1  12
HETATM   12  C6  UNL     1      55.710  13.751  52.497  1.00  0.00     0.014 C 
BRANCH  12  13
HETATM   13  C7  UNL     1      55.915  13.494  54.001  1.00  0.00     0.094 C 
BRANCH  13  14
HETATM   14  C8  UNL     1      56.486  14.745  54.549  1.00  0.00    -0.107 C 
HETATM   15  C9  UNL     1      56.955  15.785  54.975  1.00  0.00    -0.107 C 
BRANCH  15  16
HETATM   16  C10 UNL     1      57.474  17.051  55.425  1.00  0.00     0.094 C 
BRANCH  16  17
HETATM   17  C11 UNL     1      58.513  17.656  54.591  1.00  0.00     0.017 C 
BRANCH  17  18
HETATM   18  C12 UNL     1      58.210  18.855  53.827  1.00  0.00    -0.014 C 
HETATM   19  C13 UNL     1      57.238  18.657  52.667  1.00  0.00     0.005 C 
HETATM   20  C14 UNL     1      57.170  20.042  52.080  1.00  0.00     0.000 C 
HETATM   21  C15 UNL     1      57.341  20.966  53.254  1.00  0.00     0.000 C 
HETATM   22  C16 UNL     1      57.688  20.079  54.470  1.00  0.00     0.005 C 
ENDBRANCH  17  18
ENDBRANCH  16  17
ENDBRANCH  15  16
ENDBRANCH  13  14
ENDBRANCH  12  13
ENDBRANCH   1  12
TORSDOF 11
ENDMDL
