MODEL 1
REMARK VINA RESULT: -4.985379233      0.000      0.000
REMARK  1 active torsions:
REMARK  status: ('A' for Active; 'I' for Inactive)
REMARK    1  A    between atoms: C8_10  and  C9_11 
ROOT
HETATM    1  C1  UNL     1     -38.074 -10.483 -44.900  1.00  0.00     0.011 C 
HETATM    2  C2  UNL     1     -37.270 -11.706 -45.256  1.00  0.00     0.002 C 
HETATM    3  C3  UNL     1     -35.979 -11.732 -44.540  1.00  0.00     0.008 C 
HETATM    4  C4  UNL     1     -34.793 -11.256 -45.288  1.00  0.00     0.035 C 
HETATM    5  C5  UNL     1     -34.904 -11.626 -46.761  1.00  0.00     0.152 C 
HETATM    6  O1  UNL     1     -35.283 -12.970 -46.789  1.00  0.00    -0.298 OA
HETATM    7  N1  UNL     1     -36.549 -13.045 -47.182  1.00  0.00    -0.195 NA
HETATM    8  C6  UNL     1     -37.246 -14.212 -46.791  1.00  0.00     0.144 C 
HETATM    9  C7  UNL     1     -37.186 -11.806 -46.743  1.00  0.00     0.097 C 
HETATM   10  C8  UNL     1     -36.101 -10.858 -47.288  1.00  0.00     0.047 C 
ENDROOT
BRANCH  10  11
HETATM   11  C9  UNL     1     -36.159 -10.982 -48.791  1.00  0.00     0.095 C 
HETATM   12  S1  UNL     1     -35.421  -9.588 -49.633  1.00  0.00    -0.097 SA
ENDBRANCH  10  11
TORSDOF 1
ENDMDL
MODEL 2
REMARK VINA RESULT: -4.828539071      1.243      1.685
REMARK  1 active torsions:
REMARK  status: ('A' for Active; 'I' for Inactive)
REMARK    1  A    between atoms: C8_10  and  C9_11 
ROOT
HETATM    1  C1  UNL     1     -35.977 -10.981 -44.059  1.00  0.00     0.011 C 
HETATM    2  C2  UNL     1     -35.822 -11.928 -45.220  1.00  0.00     0.002 C 
HETATM    3  C3  UNL     1     -34.529 -11.735 -45.907  1.00  0.00     0.008 C 
HETATM    4  C4  UNL     1     -34.545 -10.906 -47.135  1.00  0.00     0.035 C 
HETATM    5  C5  UNL     1     -35.844 -11.112 -47.904  1.00  0.00     0.152 C 
HETATM    6  O1  UNL     1     -36.036 -12.494 -47.964  1.00  0.00    -0.298 OA
HETATM    7  N1  UNL     1     -37.039 -12.818 -47.156  1.00  0.00    -0.195 NA
HETATM    8  C6  UNL     1     -37.050 -14.155 -46.694  1.00  0.00     0.144 C 
HETATM    9  C7  UNL     1     -37.035 -11.826 -46.085  1.00  0.00     0.097 C 
HETATM   10  C8  UNL     1     -36.944 -10.591 -46.999  1.00  0.00     0.047 C 
ENDROOT
BRANCH  10  11
HETATM   11  C9  UNL     1     -38.245 -10.543 -47.763  1.00  0.00     0.095 C 
HETATM   12  S1  UNL     1     -38.065  -9.857 -49.404  1.00  0.00    -0.097 SA
ENDBRANCH  10  11
TORSDOF 1
ENDMDL
MODEL 3
REMARK VINA RESULT: -4.764726367      2.822      3.762
REMARK  1 active torsions:
REMARK  status: ('A' for Active; 'I' for Inactive)
REMARK    1  A    between atoms: C8_10  and  C9_11 
ROOT
HETATM    1  C1  UNL     1     -35.991 -12.348 -47.475  1.00  0.00     0.011 C 
HETATM    2  C2  UNL     1     -34.912 -11.410 -47.000  1.00  0.00     0.002 C 
HETATM    3  C3  UNL     1     -34.377 -11.821 -45.687  1.00  0.00     0.008 C 
HETATM    4  C4  UNL     1     -34.917 -11.120 -44.499  1.00  0.00     0.035 C 
HETATM    5  C5  UNL     1     -35.217  -9.663 -44.827  1.00  0.00     0.152 C 
HETATM    6  O1  UNL     1     -34.089  -9.183 -45.497  1.00  0.00    -0.298 OA
HETATM    7  N1  UNL     1     -34.396  -9.022 -46.779  1.00  0.00    -0.195 NA
HETATM    8  C6  UNL     1     -33.304  -9.045 -47.679  1.00  0.00     0.144 C 
HETATM    9  C7  UNL     1     -35.426 -10.010 -47.079  1.00  0.00     0.097 C 
HETATM   10  C8  UNL     1     -36.321  -9.695 -45.866  1.00  0.00     0.047 C 
ENDROOT
BRANCH  10  11
HETATM   11  C9  UNL     1     -36.845  -8.297 -46.090  1.00  0.00     0.095 C 
HETATM   12  S1  UNL     1     -38.557  -8.110 -45.612  1.00  0.00    -0.097 SA
ENDBRANCH  10  11
TORSDOF 1
ENDMDL
MODEL 4
REMARK VINA RESULT: -4.704656022      2.245      3.090
REMARK  1 active torsions:
REMARK  status: ('A' for Active; 'I' for Inactive)
REMARK    1  A    between atoms: C8_10  and  C9_11 
ROOT
HETATM    1  C1  UNL     1     -37.340  -9.027 -46.101  1.00  0.00     0.011 C 
HETATM    2  C2  UNL     1     -36.096  -9.876 -46.063  1.00  0.00     0.002 C 
HETATM    3  C3  UNL     1     -35.275  -9.688 -47.276  1.00  0.00     0.008 C 
HETATM    4  C4  UNL     1     -35.423 -10.705 -48.343  1.00  0.00     0.035 C 
HETATM    5  C5  UNL     1     -35.669 -12.082 -47.741  1.00  0.00     0.152 C 
HETATM    6  O1  UNL     1     -34.717 -12.231 -46.730  1.00  0.00    -0.298 OA
HETATM    7  N1  UNL     1     -35.331 -12.151 -45.556  1.00  0.00    -0.195 NA
HETATM    8  C6  UNL     1     -34.518 -11.770 -44.462  1.00  0.00     0.144 C 
HETATM    9  C7  UNL     1     -36.487 -11.284 -45.759  1.00  0.00     0.097 C 
HETATM   10  C8  UNL     1     -37.003 -11.987 -47.028  1.00  0.00     0.047 C 
ENDROOT
BRANCH  10  11
HETATM   11  C9  UNL     1     -37.442 -13.364 -46.591  1.00  0.00     0.095 C 
HETATM   12  S1  UNL     1     -39.203 -13.476 -46.306  1.00  0.00    -0.097 SA
ENDBRANCH  10  11
TORSDOF 1
ENDMDL
MODEL 5
REMARK VINA RESULT: -4.703296185      2.367      3.385
REMARK  1 active torsions:
REMARK  status: ('A' for Active; 'I' for Inactive)
REMARK    1  A    between atoms: C8_10  and  C9_11 
ROOT
HETATM    1  C1  UNL     1     -36.734  -9.559 -47.682  1.00  0.00     0.011 C 
HETATM    2  C2  UNL     1     -36.119 -10.504 -46.683  1.00  0.00     0.002 C 
HETATM    3  C3  UNL     1     -35.170 -11.432 -47.329  1.00  0.00     0.008 C 
HETATM    4  C4  UNL     1     -35.680 -12.784 -47.654  1.00  0.00     0.035 C 
HETATM    5  C5  UNL     1     -36.673 -13.252 -46.598  1.00  0.00     0.152 C 
HETATM    6  O1  UNL     1     -36.071 -12.984 -45.366  1.00  0.00    -0.298 OA
HETATM    7  N1  UNL     1     -36.703 -11.963 -44.800  1.00  0.00    -0.195 NA
HETATM    8  C6  UNL     1     -35.959 -11.236 -43.841  1.00  0.00     0.144 C 
HETATM    9  C7  UNL     1     -37.213 -11.143 -45.894  1.00  0.00     0.097 C 
HETATM   10  C8  UNL     1     -37.848 -12.299 -46.689  1.00  0.00     0.047 C 
ENDROOT
BRANCH  10  11
HETATM   11  C9  UNL     1     -38.983 -12.814 -45.837  1.00  0.00     0.095 C 
HETATM   12  S1  UNL     1     -40.335 -11.652 -45.703  1.00  0.00    -0.097 SA
ENDBRANCH  10  11
TORSDOF 1
ENDMDL
