MODEL 1
REMARK VINA RESULT: -4.277576690      0.000      0.000
REMARK  2 active torsions:
REMARK  status: ('A' for Active; 'I' for Inactive)
REMARK    1  A    between atoms: N1_1  and  C1_5 
REMARK    2  A    between atoms: C1_5  and  C2_6 
ROOT
HETATM    1  C1  UNL     1      74.696  15.909  25.913  1.00  0.00     0.291 C 
HETATM    2  C3  UNL     1      73.561  14.977  26.126  1.00  0.00     0.272 C 
HETATM    3  O1  UNL     1      72.412  15.216  25.673  1.00  0.00    -0.270 OA
HETATM    4  N2  UNL     1      73.732  13.760  26.862  1.00  0.00    -0.276 N 
ATOM      5  H2  UNL     1      73.001  13.048  26.843  1.00  0.00     0.173 HD
HETATM    6  C4  UNL     1      74.913  13.540  27.616  1.00  0.00     0.329 C 
HETATM    7  O2  UNL     1      75.079  12.464  28.274  1.00  0.00    -0.247 OA
HETATM    8  N3  UNL     1      75.940  14.518  27.655  1.00  0.00    -0.276 N 
ATOM      9  H3  UNL     1      76.789  14.360  28.197  1.00  0.00     0.173 HD
HETATM   10  C5  UNL     1      75.761  15.730  26.918  1.00  0.00     0.272 C 
HETATM   11  O3  UNL     1      76.576  16.658  27.176  1.00  0.00    -0.270 OA
ENDROOT
BRANCH   1  12
HETATM   12  N1  UNL     1      74.181  17.259  26.068  1.00  0.00    -0.052 N 
ATOM     13  H13 UNL     1      74.879  17.905  26.435  1.00  0.00     0.276 HD
ATOM     14  H12 UNL     1      74.021  17.723  25.174  1.00  0.00     0.276 HD
ATOM     15  H11 UNL     1      73.342  17.218  26.645  1.00  0.00     0.276 HD
ENDBRANCH   1  12
BRANCH   1  16
HETATM   16  C2  UNL     1      75.264  15.773  24.511  1.00  0.00     0.145 C 
HETATM   17  S1  UNL     1      75.376  17.388  23.708  1.00  0.00    -0.094 SA
ENDBRANCH   1  16
TORSDOF 2
ENDMDL
MODEL 2
REMARK VINA RESULT: -4.195529773      2.571      3.655
REMARK  2 active torsions:
REMARK  status: ('A' for Active; 'I' for Inactive)
REMARK    1  A    between atoms: N1_1  and  C1_5 
REMARK    2  A    between atoms: C1_5  and  C2_6 
ROOT
HETATM    1  C1  UNL     1      75.089  14.991  27.557  1.00  0.00     0.291 C 
HETATM    2  C3  UNL     1      74.468  14.197  26.467  1.00  0.00     0.272 C 
HETATM    3  O1  UNL     1      75.066  13.231  25.927  1.00  0.00    -0.270 OA
HETATM    4  N2  UNL     1      73.155  14.503  25.985  1.00  0.00    -0.276 N 
ATOM      5  H2  UNL     1      72.672  13.844  25.374  1.00  0.00     0.173 HD
HETATM    6  C4  UNL     1      72.523  15.719  26.355  1.00  0.00     0.329 C 
HETATM    7  O2  UNL     1      71.356  16.004  25.935  1.00  0.00    -0.247 OA
HETATM    8  N3  UNL     1      73.179  16.647  27.204  1.00  0.00    -0.276 N 
ATOM      9  H3  UNL     1      72.724  17.521  27.469  1.00  0.00     0.173 HD
HETATM   10  C5  UNL     1      74.490  16.334  27.679  1.00  0.00     0.272 C 
HETATM   11  O3  UNL     1      75.121  17.282  28.221  1.00  0.00    -0.270 OA
ENDROOT
BRANCH   1  12
HETATM   12  N1  UNL     1      76.489  15.175  27.214  1.00  0.00    -0.052 N 
ATOM     13  H13 UNL     1      76.646  15.199  26.206  1.00  0.00     0.276 HD
ATOM     14  H12 UNL     1      76.826  16.114  27.428  1.00  0.00     0.276 HD
ATOM     15  H11 UNL     1      77.032  14.448  27.679  1.00  0.00     0.276 HD
ENDBRANCH   1  12
BRANCH   1  16
HETATM   16  C2  UNL     1      75.015  14.256  28.884  1.00  0.00     0.145 C 
HETATM   17  S1  UNL     1      76.672  13.979  29.552  1.00  0.00    -0.094 SA
ENDBRANCH   1  16
TORSDOF 2
ENDMDL
MODEL 3
REMARK VINA RESULT: -4.110106973      3.168      4.289
REMARK  2 active torsions:
REMARK  status: ('A' for Active; 'I' for Inactive)
REMARK    1  A    between atoms: N1_1  and  C1_5 
REMARK    2  A    between atoms: C1_5  and  C2_6 
ROOT
HETATM    1  C1  UNL     1      76.312  16.292  22.769  1.00  0.00     0.291 C 
HETATM    2  C3  UNL     1      76.608  15.270  23.804  1.00  0.00     0.272 C 
HETATM    3  O1  UNL     1      77.096  14.148  23.508  1.00  0.00    -0.270 OA
HETATM    4  N2  UNL     1      76.347  15.523  25.189  1.00  0.00    -0.276 N 
ATOM      5  H2  UNL     1      76.722  14.894  25.900  1.00  0.00     0.173 HD
HETATM    6  C4  UNL     1      75.569  16.645  25.577  1.00  0.00     0.329 C 
HETATM    7  O2  UNL     1      75.329  16.883  26.803  1.00  0.00    -0.247 OA
HETATM    8  N3  UNL     1      75.039  17.529  24.602  1.00  0.00    -0.276 N 
ATOM      9  H3  UNL     1      74.480  18.336  24.881  1.00  0.00     0.173 HD
HETATM   10  C5  UNL     1      75.304  17.269  23.223  1.00  0.00     0.272 C 
HETATM   11  O3  UNL     1      74.620  17.930  22.395  1.00  0.00    -0.270 OA
ENDROOT
BRANCH   1  12
HETATM   12  N1  UNL     1      75.751  15.596  21.623  1.00  0.00    -0.052 N 
ATOM     13  H13 UNL     1      76.436  15.441  20.884  1.00  0.00     0.276 HD
ATOM     14  H12 UNL     1      75.540  14.618  21.822  1.00  0.00     0.276 HD
ATOM     15  H11 UNL     1      74.935  16.115  21.300  1.00  0.00     0.276 HD
ENDBRANCH   1  12
BRANCH   1  16
HETATM   16  C2  UNL     1      77.576  17.005  22.322  1.00  0.00     0.145 C 
HETATM   17  S1  UNL     1      77.862  16.750  20.555  1.00  0.00    -0.094 SA
ENDBRANCH   1  16
TORSDOF 2
ENDMDL
MODEL 4
REMARK VINA RESULT: -4.057779490      2.922      4.449
REMARK  2 active torsions:
REMARK  status: ('A' for Active; 'I' for Inactive)
REMARK    1  A    between atoms: N1_1  and  C1_5 
REMARK    2  A    between atoms: C1_5  and  C2_6 
ROOT
HETATM    1  C1  UNL     1      75.409  15.620  25.315  1.00  0.00     0.291 C 
HETATM    2  C3  UNL     1      75.967  15.388  23.959  1.00  0.00     0.272 C 
HETATM    3  O1  UNL     1      76.712  14.407  23.707  1.00  0.00    -0.270 OA
HETATM    4  N2  UNL     1      75.675  16.280  22.877  1.00  0.00    -0.276 N 
ATOM      5  H2  UNL     1      75.909  16.012  21.921  1.00  0.00     0.173 HD
HETATM    6  C4  UNL     1      75.063  17.535  23.130  1.00  0.00     0.329 C 
HETATM    7  O2  UNL     1      74.798  18.338  22.179  1.00  0.00    -0.247 OA
HETATM    8  N3  UNL     1      74.732  17.925  24.453  1.00  0.00    -0.276 N 
ATOM      9  H3  UNL     1      74.292  18.827  24.635  1.00  0.00     0.173 HD
HETATM   10  C5  UNL     1      75.027  17.029  25.527  1.00  0.00     0.272 C 
HETATM   11  O3  UNL     1      74.941  17.513  26.688  1.00  0.00    -0.270 OA
ENDROOT
BRANCH   1  12
HETATM   12  N1  UNL     1      76.458  15.311  26.272  1.00  0.00    -0.052 N 
ATOM     13  H13 UNL     1      76.498  15.981  27.040  1.00  0.00     0.276 HD
ATOM     14  H12 UNL     1      76.252  14.479  26.825  1.00  0.00     0.276 HD
ATOM     15  H11 UNL     1      77.341  15.238  25.768  1.00  0.00     0.276 HD
ENDBRANCH   1  12
BRANCH   1  16
HETATM   16  C2  UNL     1      74.228  14.705  25.588  1.00  0.00     0.145 C 
HETATM   17  S1  UNL     1      74.506  13.736  27.089  1.00  0.00    -0.094 SA
ENDBRANCH   1  16
TORSDOF 2
ENDMDL
MODEL 5
REMARK VINA RESULT: -4.040083932      2.768      3.989
REMARK  2 active torsions:
REMARK  status: ('A' for Active; 'I' for Inactive)
REMARK    1  A    between atoms: N1_1  and  C1_5 
REMARK    2  A    between atoms: C1_5  and  C2_6 
ROOT
HETATM    1  C1  UNL     1      75.089  14.745  28.654  1.00  0.00     0.291 C 
HETATM    2  C3  UNL     1      74.390  15.874  27.992  1.00  0.00     0.272 C 
HETATM    3  O1  UNL     1      74.040  16.902  28.627  1.00  0.00    -0.270 OA
HETATM    4  N2  UNL     1      74.086  15.837  26.593  1.00  0.00    -0.276 N 
ATOM      5  H2  UNL     1      73.776  16.686  26.118  1.00  0.00     0.173 HD
HETATM    6  C4  UNL     1      74.212  14.626  25.865  1.00  0.00     0.329 C 
HETATM    7  O2  UNL     1      73.945  14.578  24.622  1.00  0.00    -0.247 OA
HETATM    8  N3  UNL     1      74.640  13.436  26.509  1.00  0.00    -0.276 N 
ATOM      9  H3  UNL     1      74.731  12.565  25.986  1.00  0.00     0.173 HD
HETATM   10  C5  UNL     1      74.941  13.482  27.906  1.00  0.00     0.272 C 
HETATM   11  O3  UNL     1      75.078  12.366  28.477  1.00  0.00    -0.270 OA
ENDROOT
BRANCH   1  12
HETATM   12  N1  UNL     1      74.464  14.551  29.951  1.00  0.00    -0.052 N 
ATOM     13  H13 UNL     1      74.972  15.013  30.705  1.00  0.00     0.276 HD
ATOM     14  H12 UNL     1      73.586  15.062  30.044  1.00  0.00     0.276 HD
ATOM     15  H11 UNL     1      74.353  13.550  30.108  1.00  0.00     0.276 HD
ENDBRANCH   1  12
BRANCH   1  16
HETATM   16  C2  UNL     1      76.558  15.060  28.875  1.00  0.00     0.145 C 
HETATM   17  S1  UNL     1      77.063  14.606  30.550  1.00  0.00    -0.094 SA
ENDBRANCH   1  16
TORSDOF 2
ENDMDL
