MODEL 1
REMARK VINA RESULT: -6.302514334      0.000      0.000
REMARK  2 active torsions:
REMARK  status: ('A' for Active; 'I' for Inactive)
REMARK    1  A    between atoms: O1_1  and  C1_3 
REMARK    2  A    between atoms: C8_10  and  N1_11 
ROOT
HETATM    1  C1  UNL     1       2.412   9.268  -9.242  1.00  0.00     0.126 C 
HETATM    2  C2  UNL     1       0.966   8.933  -9.019  1.00  0.00     0.017 C 
HETATM    3  C3  UNL     1       0.128   9.090 -10.273  1.00  0.00     0.012 C 
HETATM    4  C4  UNL     1       0.249  10.508 -10.765  1.00  0.00    -0.011 C 
HETATM    5  C5  UNL     1       1.729  10.761 -11.039  1.00  0.00     0.012 C 
HETATM    6  C6  UNL     1       2.519  10.702  -9.762  1.00  0.00     0.017 C 
HETATM    7  C7  UNL     1       1.988  11.617  -8.693  1.00  0.00     0.042 C 
HETATM    8  C8  UNL     1       0.528  11.283  -8.452  1.00  0.00     0.073 C 
HETATM    9  C10 UNL     1      -0.199  11.524  -9.763  1.00  0.00     0.039 C 
HETATM   10  C11 UNL     1       0.372   9.840  -7.987  1.00  0.00     0.042 C 
ENDROOT
BRANCH   8  11
HETATM   11  N1  UNL     1       0.042  12.162  -7.408  1.00  0.00    -0.209 N 
HETATM   12  N2  UNL     1      -1.249  12.263  -7.105  1.00  0.00    -0.277 N 
HETATM   13  C9  UNL     1      -1.400  13.158  -6.095  1.00  0.00     0.217 A 
ATOM     14  H2  UNL     1      -2.005  11.751  -7.560  1.00  0.00     0.189 HD
HETATM   15  N3  UNL     1      -0.187  13.592  -5.795  1.00  0.00    -0.279 N 
HETATM   16  N4  UNL     1       0.683  12.975  -6.606  1.00  0.00    -0.224 N 
ATOM     17  H3  UNL     1       0.045  14.276  -5.074  1.00  0.00     0.189 HD
ATOM     18  H4  UNL     1       1.692  13.117  -6.599  1.00  0.00     0.210 HD
ENDBRANCH   8  11
BRANCH   1  19
HETATM   19  O1  UNL     1       2.947   8.450 -10.219  1.00  0.00    -0.395 OA
ATOM     20  H1  UNL     1       3.858   8.264 -10.028  1.00  0.00     0.210 HD
ENDBRANCH   1  19
TORSDOF 2
ENDMDL
MODEL 2
REMARK VINA RESULT: -6.222151528      0.802      2.064
REMARK  2 active torsions:
REMARK  status: ('A' for Active; 'I' for Inactive)
REMARK    1  A    between atoms: O1_1  and  C1_3 
REMARK    2  A    between atoms: C8_10  and  N1_11 
ROOT
HETATM    1  C1  UNL     1      -0.057   8.861 -10.242  1.00  0.00     0.126 C 
HETATM    2  C2  UNL     1       0.309  10.218 -10.769  1.00  0.00     0.017 C 
HETATM    3  C3  UNL     1       1.796  10.366 -11.027  1.00  0.00     0.012 C 
HETATM    4  C4  UNL     1       2.540  10.104  -9.744  1.00  0.00    -0.011 C 
HETATM    5  C5  UNL     1       2.181   8.688  -9.301  1.00  0.00     0.012 C 
HETATM    6  C6  UNL     1       0.722   8.598  -8.953  1.00  0.00     0.017 C 
HETATM    7  C7  UNL     1       0.290   9.623  -7.940  1.00  0.00     0.042 C 
HETATM    8  C8  UNL     1       0.646  11.001  -8.464  1.00  0.00     0.073 C 
HETATM    9  C10 UNL     1       2.155  11.029  -8.634  1.00  0.00     0.039 C 
HETATM   10  C11 UNL     1      -0.066  11.281  -9.782  1.00  0.00     0.042 C 
ENDROOT
BRANCH   8  11
HETATM   11  N1  UNL     1       0.206  11.973  -7.484  1.00  0.00    -0.209 N 
HETATM   12  N2  UNL     1      -1.078  12.158  -7.192  1.00  0.00    -0.277 N 
HETATM   13  C9  UNL     1      -1.184  13.126  -6.245  1.00  0.00     0.217 A 
ATOM     14  H2  UNL     1      -1.859  11.655  -7.613  1.00  0.00     0.189 HD
HETATM   15  N3  UNL     1       0.050  13.519  -5.973  1.00  0.00    -0.279 N 
HETATM   16  N4  UNL     1       0.887  12.805  -6.737  1.00  0.00    -0.224 N 
ATOM     17  H3  UNL     1       0.316  14.237  -5.300  1.00  0.00     0.189 HD
ATOM     18  H4  UNL     1       1.902  12.897  -6.738  1.00  0.00     0.210 HD
ENDBRANCH   8  11
BRANCH   1  19
HETATM   19  O1  UNL     1       0.321   7.882 -11.140  1.00  0.00    -0.395 OA
ATOM     20  H1  UNL     1       1.242   7.969 -11.352  1.00  0.00     0.210 HD
ENDBRANCH   1  19
TORSDOF 2
ENDMDL
MODEL 3
REMARK VINA RESULT: -6.123897281      0.659      1.922
REMARK  2 active torsions:
REMARK  status: ('A' for Active; 'I' for Inactive)
REMARK    1  A    between atoms: O1_1  and  C1_3 
REMARK    2  A    between atoms: C8_10  and  N1_11 
ROOT
HETATM    1  C1  UNL     1       1.741  10.531 -11.029  1.00  0.00     0.126 C 
HETATM    2  C2  UNL     1       2.505  10.223  -9.775  1.00  0.00     0.017 C 
HETATM    3  C3  UNL     1       2.263   8.813  -9.271  1.00  0.00     0.012 C 
HETATM    4  C4  UNL     1       0.789   8.632  -9.022  1.00  0.00    -0.011 C 
HETATM    5  C5  UNL     1       0.077   8.889 -10.348  1.00  0.00     0.012 C 
HETATM    6  C6  UNL     1       0.249  10.322 -10.770  1.00  0.00     0.017 C 
HETATM    7  C7  UNL     1      -0.175  11.305  -9.714  1.00  0.00     0.042 C 
HETATM    8  C8  UNL     1       0.597  11.010  -8.441  1.00  0.00     0.073 C 
HETATM    9  C10 UNL     1       0.232   9.597  -8.024  1.00  0.00     0.039 C 
HETATM   10  C11 UNL     1       2.097  11.151  -8.672  1.00  0.00     0.042 C 
ENDROOT
BRANCH   8  11
HETATM   11  N1  UNL     1       0.188  11.979  -7.444  1.00  0.00    -0.209 N 
HETATM   12  N2  UNL     1      -1.084  12.150  -7.098  1.00  0.00    -0.277 N 
HETATM   13  C9  UNL     1      -1.160  13.119  -6.149  1.00  0.00     0.217 A 
ATOM     14  H2  UNL     1      -1.877  11.637  -7.483  1.00  0.00     0.189 HD
HETATM   15  N3  UNL     1       0.080  13.526  -5.930  1.00  0.00    -0.279 N 
HETATM   16  N4  UNL     1       0.891  12.821  -6.729  1.00  0.00    -0.224 N 
ATOM     17  H3  UNL     1       0.367  14.249  -5.271  1.00  0.00     0.189 HD
ATOM     18  H4  UNL     1       1.904  12.924  -6.774  1.00  0.00     0.210 HD
ENDBRANCH   8  11
BRANCH   1  19
HETATM   19  O1  UNL     1       2.097   9.651 -12.033  1.00  0.00    -0.395 OA
ATOM     20  H1  UNL     1       2.197   8.774 -11.681  1.00  0.00     0.210 HD
ENDBRANCH   1  19
TORSDOF 2
ENDMDL
MODEL 4
REMARK VINA RESULT: -5.748054568      1.091      1.276
REMARK  2 active torsions:
REMARK  status: ('A' for Active; 'I' for Inactive)
REMARK    1  A    between atoms: O1_1  and  C1_3 
REMARK    2  A    between atoms: C8_10  and  N1_11 
ROOT
HETATM    1  C1  UNL     1       2.680  10.080  -9.618  1.00  0.00     0.126 C 
HETATM    2  C2  UNL     1       1.416   9.275  -9.690  1.00  0.00     0.017 C 
HETATM    3  C3  UNL     1       0.570   9.618 -10.901  1.00  0.00     0.012 C 
HETATM    4  C4  UNL     1       0.233  11.085 -10.860  1.00  0.00    -0.011 C 
HETATM    5  C5  UNL     1       1.556  11.847 -10.860  1.00  0.00     0.012 C 
HETATM    6  C6  UNL     1       2.325  11.567  -9.599  1.00  0.00     0.017 C 
HETATM    7  C7  UNL     1       1.532  11.833  -8.350  1.00  0.00     0.042 C 
HETATM    8  C8  UNL     1       0.254  11.018  -8.406  1.00  0.00     0.073 C 
HETATM    9  C10 UNL     1      -0.513  11.488  -9.628  1.00  0.00     0.039 C 
HETATM   10  C11 UNL     1       0.564   9.528  -8.484  1.00  0.00     0.042 C 
ENDROOT
BRANCH   8  11
HETATM   11  N1  UNL     1      -0.485  11.274  -7.186  1.00  0.00    -0.209 N 
HETATM   12  N2  UNL     1      -1.153  12.407  -6.982  1.00  0.00    -0.277 N 
HETATM   13  C9  UNL     1      -1.742  12.361  -5.760  1.00  0.00     0.217 A 
ATOM     14  H2  UNL     1      -1.212  13.185  -7.639  1.00  0.00     0.189 HD
HETATM   15  N3  UNL     1      -1.421  11.191  -5.232  1.00  0.00    -0.279 N 
HETATM   16  N4  UNL     1      -0.653  10.539  -6.116  1.00  0.00    -0.224 N 
ATOM     17  H3  UNL     1      -1.707  10.846  -4.316  1.00  0.00     0.189 HD
ATOM     18  H4  UNL     1      -0.258   9.610  -5.975  1.00  0.00     0.210 HD
ENDBRANCH   8  11
BRANCH   1  19
HETATM   19  O1  UNL     1       3.445   9.869 -10.748  1.00  0.00    -0.395 OA
ATOM     20  H1  UNL     1       4.369   9.895 -10.529  1.00  0.00     0.210 HD
ENDBRANCH   1  19
TORSDOF 2
ENDMDL
MODEL 5
REMARK VINA RESULT: -5.473090083      3.719      4.676
REMARK  2 active torsions:
REMARK  status: ('A' for Active; 'I' for Inactive)
REMARK    1  A    between atoms: O1_1  and  C1_3 
REMARK    2  A    between atoms: C8_10  and  N1_11 
ROOT
HETATM    1  C1  UNL     1       2.479   9.383  -9.242  1.00  0.00     0.126 C 
HETATM    2  C2  UNL     1       2.355   8.444 -10.407  1.00  0.00     0.017 C 
HETATM    3  C3  UNL     1       1.740   9.102 -11.627  1.00  0.00     0.012 C 
HETATM    4  C4  UNL     1       0.380   9.634 -11.259  1.00  0.00    -0.011 C 
HETATM    5  C5  UNL     1       0.584  10.631 -10.122  1.00  0.00     0.012 C 
HETATM    6  C6  UNL     1       1.096   9.933  -8.894  1.00  0.00     0.017 C 
HETATM    7  C7  UNL     1       0.236   8.775  -8.468  1.00  0.00     0.042 C 
HETATM    8  C8  UNL     1       0.109   7.813  -9.635  1.00  0.00     0.073 C 
HETATM    9  C10 UNL     1      -0.557   8.579 -10.764  1.00  0.00     0.039 C 
HETATM   10  C11 UNL     1       1.476   7.284 -10.053  1.00  0.00     0.042 C 
ENDROOT
BRANCH   8  11
HETATM   11  N1  UNL     1      -0.706   6.698  -9.199  1.00  0.00    -0.209 N 
HETATM   12  N2  UNL     1      -1.985   6.572  -9.543  1.00  0.00    -0.277 N 
HETATM   13  C9  UNL     1      -2.485   5.437  -8.990  1.00  0.00     0.217 A 
ATOM     14  H2  UNL     1      -2.506   7.224 -10.129  1.00  0.00     0.189 HD
HETATM   15  N3  UNL     1      -1.494   4.884  -8.310  1.00  0.00    -0.279 N 
HETATM   16  N4  UNL     1      -0.415   5.666  -8.448  1.00  0.00    -0.224 N 
ATOM     17  H3  UNL     1      -1.543   4.016  -7.776  1.00  0.00     0.189 HD
ATOM     18  H4  UNL     1       0.497   5.484  -8.029  1.00  0.00     0.210 HD
ENDBRANCH   8  11
BRANCH   1  19
HETATM   19  O1  UNL     1       3.263  10.467  -9.585  1.00  0.00    -0.395 OA
ATOM     20  H1  UNL     1       2.946  11.251  -9.152  1.00  0.00     0.210 HD
ENDBRANCH   1  19
TORSDOF 2
ENDMDL
