MODEL 1
REMARK VINA RESULT: -5.740931939      0.000      0.000
REMARK  5 active torsions:
REMARK  status: ('A' for Active; 'I' for Inactive)
REMARK    1  A    between atoms: C2_2  and  O1_4 
REMARK    2  A    between atoms: O1_4  and  C4_5 
REMARK    3  A    between atoms: C4_5  and  N1_6 
REMARK    4  A    between atoms: C4_5  and  N3_10 
REMARK    5  A    between atoms: N3_10  and  C6_12 
ROOT
HETATM    1  N1  UNL     1      -1.552  11.764  -5.415  1.00  0.00    -0.259 N 
ATOM      2  H1  UNL     1      -1.877  11.163  -4.658  1.00  0.00     0.181 HD
HETATM    3  C5  UNL     1      -2.017  13.084  -5.460  1.00  0.00     0.185 C 
HETATM    4  N2  UNL     1      -2.398  14.187  -5.513  1.00  0.00    -0.172 NA
ENDROOT
BRANCH   1   5
HETATM    5  C4  UNL     1      -0.740  11.271  -6.275  1.00  0.00     0.234 C 
BRANCH   5   6
HETATM    6  O1  UNL     1      -0.091  10.127  -5.864  1.00  0.00    -0.317 OA
BRANCH   6   7
HETATM    7  C2  UNL     1      -0.604   8.846  -5.886  1.00  0.00     0.123 C 
HETATM    8  C1  UNL     1      -0.133   8.162  -7.158  1.00  0.00     0.040 C 
HETATM    9  C3  UNL     1      -0.299   7.964  -4.739  1.00  0.00     0.040 C 
ENDBRANCH   6   7
ENDBRANCH   5   6
BRANCH   5  10
HETATM   10  N3  UNL     1      -0.498  11.828  -7.559  1.00  0.00    -0.300 N 
ATOM     11  H3  UNL     1      -1.173  12.467  -7.979  1.00  0.00     0.171 HD
BRANCH  10  12
HETATM   12  C6  UNL     1       0.606  11.514  -8.202  1.00  0.00     0.167 A 
HETATM   13  N4  UNL     1       1.862  11.590  -7.754  1.00  0.00    -0.279 N 
HETATM   14  N5  UNL     1       2.804  11.241  -8.522  1.00  0.00    -0.303 N 
ATOM     15  H4  UNL     1       2.058  11.924  -6.809  1.00  0.00     0.189 HD
HETATM   16  C7  UNL     1       2.550  10.809  -9.748  1.00  0.00     0.160 A 
ATOM     17  H5  UNL     1       3.768  11.293  -8.194  1.00  0.00     0.186 HD
HETATM   18  S1  UNL     1       0.844  10.915  -9.788  1.00  0.00    -0.046 SA
ENDBRANCH  10  12
ENDBRANCH   5  10
ENDBRANCH   1   5
TORSDOF 5
ENDMDL
MODEL 2
REMARK VINA RESULT: -5.643278072      1.131      1.322
REMARK  5 active torsions:
REMARK  status: ('A' for Active; 'I' for Inactive)
REMARK    1  A    between atoms: C2_2  and  O1_4 
REMARK    2  A    between atoms: O1_4  and  C4_5 
REMARK    3  A    between atoms: C4_5  and  N1_6 
REMARK    4  A    between atoms: C4_5  and  N3_10 
REMARK    5  A    between atoms: N3_10  and  C6_12 
ROOT
HETATM    1  N1  UNL     1      -0.160  13.194  -6.115  1.00  0.00    -0.259 N 
ATOM      2  H1  UNL     1       0.726  13.655  -5.911  1.00  0.00     0.181 HD
HETATM    3  C5  UNL     1      -1.346  13.853  -5.767  1.00  0.00     0.185 C 
HETATM    4  N2  UNL     1      -2.344  14.388  -5.481  1.00  0.00    -0.172 NA
ENDROOT
BRANCH   1   5
HETATM    5  C4  UNL     1      -0.130  12.042  -6.675  1.00  0.00     0.234 C 
BRANCH   5   6
HETATM    6  O1  UNL     1      -0.065  10.978  -5.802  1.00  0.00    -0.317 OA
BRANCH   6   7
HETATM    7  C2  UNL     1      -1.078  10.079  -5.535  1.00  0.00     0.123 C 
HETATM    8  C1  UNL     1      -0.461   8.705  -5.337  1.00  0.00     0.040 C 
HETATM    9  C3  UNL     1      -1.965  10.365  -4.387  1.00  0.00     0.040 C 
ENDBRANCH   6   7
ENDBRANCH   5   6
BRANCH   5  10
HETATM   10  N3  UNL     1      -0.158  11.835  -8.080  1.00  0.00    -0.300 N 
ATOM     11  H3  UNL     1      -0.976  12.107  -8.625  1.00  0.00     0.171 HD
BRANCH  10  12
HETATM   12  C6  UNL     1       0.881  11.287  -8.673  1.00  0.00     0.167 A 
HETATM   13  N4  UNL     1       2.130  11.193  -8.210  1.00  0.00    -0.279 N 
HETATM   14  N5  UNL     1       3.004  10.627  -8.927  1.00  0.00    -0.303 N 
ATOM     15  H4  UNL     1       2.375  11.571  -7.294  1.00  0.00     0.189 HD
HETATM   16  C7  UNL     1       2.687  10.138 -10.117  1.00  0.00     0.160 A 
ATOM     17  H5  UNL     1       3.962  10.547  -8.587  1.00  0.00     0.186 HD
HETATM   18  S1  UNL     1       1.023  10.521 -10.197  1.00  0.00    -0.046 SA
ENDBRANCH  10  12
ENDBRANCH   5  10
ENDBRANCH   1   5
TORSDOF 5
ENDMDL
MODEL 3
REMARK VINA RESULT: -5.628156332      1.510      1.932
REMARK  5 active torsions:
REMARK  status: ('A' for Active; 'I' for Inactive)
REMARK    1  A    between atoms: C2_2  and  O1_4 
REMARK    2  A    between atoms: O1_4  and  C4_5 
REMARK    3  A    between atoms: C4_5  and  N1_6 
REMARK    4  A    between atoms: C4_5  and  N3_10 
REMARK    5  A    between atoms: N3_10  and  C6_12 
ROOT
HETATM    1  N1  UNL     1       0.137  13.266  -6.383  1.00  0.00    -0.259 N 
ATOM      2  H1  UNL     1       0.960  13.836  -6.577  1.00  0.00     0.181 HD
HETATM    3  C5  UNL     1      -0.998  13.898  -5.858  1.00  0.00     0.185 C 
HETATM    4  N2  UNL     1      -1.951  14.408  -5.417  1.00  0.00    -0.172 NA
ENDROOT
BRANCH   1   5
HETATM    5  C4  UNL     1       0.195  12.011  -6.633  1.00  0.00     0.234 C 
BRANCH   5   6
HETATM    6  O1  UNL     1      -0.911  11.292  -6.232  1.00  0.00    -0.317 OA
BRANCH   6   7
HETATM    7  C2  UNL     1      -0.965  10.399  -5.182  1.00  0.00     0.123 C 
HETATM    8  C1  UNL     1      -2.255  10.638  -4.414  1.00  0.00     0.040 C 
HETATM    9  C3  UNL     1      -0.870   8.958  -5.499  1.00  0.00     0.040 C 
ENDBRANCH   6   7
ENDBRANCH   5   6
BRANCH   5  10
HETATM   10  N3  UNL     1       1.292  11.371  -7.268  1.00  0.00    -0.300 N 
ATOM     11  H3  UNL     1       1.738  10.563  -6.834  1.00  0.00     0.171 HD
BRANCH  10  12
HETATM   12  C6  UNL     1       1.730  11.831  -8.420  1.00  0.00     0.167 A 
HETATM   13  N4  UNL     1       2.712  12.711  -8.628  1.00  0.00    -0.279 N 
HETATM   14  N5  UNL     1       2.995  13.037  -9.817  1.00  0.00    -0.303 N 
ATOM     15  H4  UNL     1       3.225  13.114  -7.843  1.00  0.00     0.189 HD
HETATM   16  C7  UNL     1       2.329  12.516 -10.837  1.00  0.00     0.160 A 
ATOM     17  H5  UNL     1       3.743  13.707  -9.992  1.00  0.00     0.186 HD
HETATM   18  S1  UNL     1       1.228  11.492 -10.022  1.00  0.00    -0.046 SA
ENDBRANCH  10  12
ENDBRANCH   5  10
ENDBRANCH   1   5
TORSDOF 5
ENDMDL
MODEL 4
REMARK VINA RESULT: -5.599441213      1.931      4.268
REMARK  5 active torsions:
REMARK  status: ('A' for Active; 'I' for Inactive)
REMARK    1  A    between atoms: C2_2  and  O1_4 
REMARK    2  A    between atoms: O1_4  and  C4_5 
REMARK    3  A    between atoms: C4_5  and  N1_6 
REMARK    4  A    between atoms: C4_5  and  N3_10 
REMARK    5  A    between atoms: N3_10  and  C6_12 
ROOT
HETATM    1  N1  UNL     1       1.207  10.970  -8.825  1.00  0.00    -0.259 N 
ATOM      2  H1  UNL     1       0.722  10.810  -9.708  1.00  0.00     0.181 HD
HETATM    3  C5  UNL     1       2.483  11.548  -8.865  1.00  0.00     0.185 C 
HETATM    4  N2  UNL     1       3.548  12.027  -8.881  1.00  0.00    -0.172 NA
ENDROOT
BRANCH   1   5
HETATM    5  C4  UNL     1       0.618  10.633  -7.739  1.00  0.00     0.234 C 
BRANCH   5   6
HETATM    6  O1  UNL     1      -0.224   9.547  -7.854  1.00  0.00    -0.317 OA
BRANCH   6   7
HETATM    7  C2  UNL     1       0.075   8.245  -7.510  1.00  0.00     0.123 C 
HETATM    8  C1  UNL     1      -0.300   8.035  -6.053  1.00  0.00     0.040 C 
HETATM    9  C3  UNL     1      -0.538   7.165  -8.312  1.00  0.00     0.040 C 
ENDBRANCH   6   7
ENDBRANCH   5   6
BRANCH   5  10
HETATM   10  N3  UNL     1       0.789  11.297  -6.496  1.00  0.00    -0.300 N 
ATOM     11  H3  UNL     1       1.573  11.059  -5.888  1.00  0.00     0.171 HD
BRANCH  10  12
HETATM   12  C6  UNL     1      -0.073  12.223  -6.134  1.00  0.00     0.167 A 
HETATM   13  N4  UNL     1       0.097  13.547  -6.147  1.00  0.00    -0.279 N 
HETATM   14  N5  UNL     1      -0.852  14.287  -5.759  1.00  0.00    -0.303 N 
ATOM     15  H4  UNL     1       0.977  13.955  -6.464  1.00  0.00     0.189 HD
HETATM   16  C7  UNL     1      -1.995  13.758  -5.346  1.00  0.00     0.160 A 
ATOM     17  H5  UNL     1      -0.738  15.300  -5.765  1.00  0.00     0.186 HD
HETATM   18  S1  UNL     1      -1.671  12.089  -5.533  1.00  0.00    -0.046 SA
ENDBRANCH  10  12
ENDBRANCH   5  10
ENDBRANCH   1   5
TORSDOF 5
ENDMDL
MODEL 5
REMARK VINA RESULT: -5.534577722      1.015      1.035
REMARK  5 active torsions:
REMARK  status: ('A' for Active; 'I' for Inactive)
REMARK    1  A    between atoms: C2_2  and  O1_4 
REMARK    2  A    between atoms: O1_4  and  C4_5 
REMARK    3  A    between atoms: C4_5  and  N1_6 
REMARK    4  A    between atoms: C4_5  and  N3_10 
REMARK    5  A    between atoms: N3_10  and  C6_12 
ROOT
HETATM    1  N1  UNL     1      -1.369  11.995  -6.530  1.00  0.00    -0.259 N 
ATOM      2  H1  UNL     1      -2.006  11.294  -6.908  1.00  0.00     0.181 HD
HETATM    3  C5  UNL     1      -1.912  13.190  -6.040  1.00  0.00     0.185 C 
HETATM    4  N2  UNL     1      -2.349  14.192  -5.630  1.00  0.00    -0.172 NA
ENDROOT
BRANCH   1   5
HETATM    5  C4  UNL     1      -0.114  11.737  -6.530  1.00  0.00     0.234 C 
BRANCH   5   6
HETATM    6  O1  UNL     1       0.218  10.496  -6.030  1.00  0.00    -0.317 OA
BRANCH   6   7
HETATM    7  C2  UNL     1      -0.545   9.350  -6.121  1.00  0.00     0.123 C 
HETATM    8  C1  UNL     1      -0.009   8.506  -7.265  1.00  0.00     0.040 C 
HETATM    9  C3  UNL     1      -0.649   8.497  -4.918  1.00  0.00     0.040 C 
ENDBRANCH   6   7
ENDBRANCH   5   6
BRANCH   5  10
HETATM   10  N3  UNL     1       0.887  12.630  -6.995  1.00  0.00    -0.300 N 
ATOM     11  H3  UNL     1       1.109  13.475  -6.469  1.00  0.00     0.171 HD
BRANCH  10  12
HETATM   12  C6  UNL     1       1.526  12.359  -8.113  1.00  0.00     0.167 A 
HETATM   13  N4  UNL     1       2.721  12.811  -8.501  1.00  0.00    -0.279 N 
HETATM   14  N5  UNL     1       3.179  12.438  -9.619  1.00  0.00    -0.303 N 
ATOM     15  H4  UNL     1       3.255  13.446  -7.906  1.00  0.00     0.189 HD
HETATM   16  C7  UNL     1       2.486  11.615 -10.392  1.00  0.00     0.160 A 
ATOM     17  H5  UNL     1       4.091  12.774  -9.929  1.00  0.00     0.186 HD
HETATM   18  S1  UNL     1       1.088  11.368  -9.439  1.00  0.00    -0.046 SA
ENDBRANCH  10  12
ENDBRANCH   5  10
ENDBRANCH   1   5
TORSDOF 5
ENDMDL
