MODEL 1
REMARK VINA RESULT: -5.971917980      0.000      0.000
REMARK  7 active torsions:
REMARK  status: ('A' for Active; 'I' for Inactive)
REMARK    1  A    between atoms: N1_1  and  C1_5 
REMARK    2  A    between atoms: C1_5  and  C2_6 
REMARK    3  A    between atoms: C3_10  and  O1_11 
REMARK    4  A    between atoms: C4_13  and  N3_14 
REMARK    5  A    between atoms: C6_16  and  O2_17 
REMARK    6  A    between atoms: C6_16  and  N4_19 
REMARK    7  A    between atoms: N4_19  and  C7_21 
ROOT
HETATM    1  N3  UNL     1      22.581  29.087  21.976  1.00  0.00    -0.247 N 
HETATM    2  C5  UNL     1      22.487  27.838  21.401  1.00  0.00     0.181 A 
HETATM    3  C6  UNL     1      22.997  26.612  21.967  1.00  0.00     0.202 C 
HETATM    4  N8  UNL     1      21.735  28.022  20.291  1.00  0.00    -0.278 N 
ATOM      5  H8  UNL     1      21.475  27.289  19.632  1.00  0.00     0.189 HD
HETATM    6  N9  UNL     1      21.394  29.279  20.190  1.00  0.00    -0.249 N 
ATOM      7  H9  UNL     1      20.826  29.680  19.443  1.00  0.00     0.192 HD
HETATM    8  C10 UNL     1      21.919  29.969  21.246  1.00  0.00     0.345 A 
HETATM    9  O5  UNL     1      21.768  31.215  21.440  1.00  0.00    -0.245 OA
ENDROOT
BRANCH   1  10
HETATM   10  C4  UNL     1      23.328  29.320  23.187  1.00  0.00     0.293 C 
HETATM   11  C3  UNL     1      22.524  29.927  24.312  1.00  0.00     0.371 C 
HETATM   12  N2  UNL     1      23.622  30.487  25.137  1.00  0.00    -0.017 N 
HETATM   13  C2  UNL     1      24.785  30.466  24.285  1.00  0.00     0.351 C 
ATOM     14  H22 UNL     1      23.755  30.007  26.027  1.00  0.00     0.283 HD
ATOM     15  H21 UNL     1      23.414  31.406  25.528  1.00  0.00     0.283 HD
HETATM   16  O6  UNL     1      24.376  30.255  22.983  1.00  0.00    -0.327 OA
BRANCH  11  17
HETATM   17  O1  UNL     1      21.818  28.994  25.061  1.00  0.00    -0.366 OA
ATOM     18  H1  UNL     1      22.428  28.383  25.456  1.00  0.00     0.212 HD
ENDBRANCH  11  17
BRANCH  13  19
HETATM   19  C1  UNL     1      25.472  31.803  24.417  1.00  0.00     0.290 C 
BRANCH  19  20
HETATM   20  N1  UNL     1      26.753  31.789  23.773  1.00  0.00    -0.075 N 
ATOM     21  H13 UNL     1      27.010  30.851  23.467  1.00  0.00     0.274 HD
ATOM     22  H12 UNL     1      26.721  32.246  22.861  1.00  0.00     0.274 HD
ATOM     23  H11 UNL     1      27.469  32.199  24.373  1.00  0.00     0.274 HD
ENDBRANCH  19  20
ENDBRANCH  13  19
ENDBRANCH   1  10
BRANCH   3  24
HETATM   24  O2  UNL     1      22.890  26.595  23.286  1.00  0.00    -0.343 OA
ATOM     25  H2  UNL     1      23.734  26.685  23.711  1.00  0.00     0.219 HD
ENDBRANCH   3  24
BRANCH   3  26
HETATM   26  N4  UNL     1      23.559  25.473  21.416  1.00  0.00    -0.166 N 
ATOM     27  H4  UNL     1      24.475  25.651  21.005  1.00  0.00     0.186 HD
BRANCH  26  28
HETATM   28  C7  UNL     1      23.168  24.137  21.290  1.00  0.00     0.692 A 
HETATM   29  N5  UNL     1      22.770  23.527  22.465  1.00  0.00    -0.141 N 
HETATM   30  C8  UNL     1      22.407  22.243  22.510  1.00  0.00     0.342 A 
ATOM     31  H5  UNL     1      22.753  24.076  23.325  1.00  0.00     0.189 HD
HETATM   32  O3  UNL     1      22.050  21.713  23.595  1.00  0.00    -0.246 OA
HETATM   33  N6  UNL     1      22.413  21.483  21.405  1.00  0.00    -0.260 N 
HETATM   34  C9  UNL     1      22.788  22.028  20.255  1.00  0.00     0.342 A 
ATOM     35  H6  UNL     1      22.133  20.503  21.449  1.00  0.00     0.175 HD
HETATM   36  O4  UNL     1      22.811  21.360  19.189  1.00  0.00    -0.246 OA
HETATM   37  N7  UNL     1      23.156  23.347  20.239  1.00  0.00    -0.141 N 
ATOM     38  H7  UNL     1      23.442  23.747  19.345  1.00  0.00     0.189 HD
ENDBRANCH  26  28
ENDBRANCH   3  26
TORSDOF 7
ENDMDL
MODEL 2
REMARK VINA RESULT: -5.911983725      1.968      2.596
REMARK  7 active torsions:
REMARK  status: ('A' for Active; 'I' for Inactive)
REMARK    1  A    between atoms: N1_1  and  C1_5 
REMARK    2  A    between atoms: C1_5  and  C2_6 
REMARK    3  A    between atoms: C3_10  and  O1_11 
REMARK    4  A    between atoms: C4_13  and  N3_14 
REMARK    5  A    between atoms: C6_16  and  O2_17 
REMARK    6  A    between atoms: C6_16  and  N4_19 
REMARK    7  A    between atoms: N4_19  and  C7_21 
ROOT
HETATM    1  N3  UNL     1      22.550  29.144  21.966  1.00  0.00    -0.247 N 
HETATM    2  C5  UNL     1      22.528  27.844  21.509  1.00  0.00     0.181 A 
HETATM    3  C6  UNL     1      23.022  26.693  22.226  1.00  0.00     0.202 C 
HETATM    4  N8  UNL     1      21.856  27.900  20.337  1.00  0.00    -0.278 N 
ATOM      5  H8  UNL     1      21.662  27.100  19.734  1.00  0.00     0.189 HD
HETATM    6  N9  UNL     1      21.493  29.131  20.090  1.00  0.00    -0.249 N 
ATOM      7  H9  UNL     1      20.973  29.442  19.269  1.00  0.00     0.192 HD
HETATM    8  C10 UNL     1      21.923  29.933  21.110  1.00  0.00     0.345 A 
HETATM    9  O5  UNL     1      21.729  31.187  21.171  1.00  0.00    -0.245 OA
ENDROOT
BRANCH   1  10
HETATM   10  C4  UNL     1      23.200  29.513  23.200  1.00  0.00     0.293 C 
HETATM   11  C3  UNL     1      22.418  30.483  24.054  1.00  0.00     0.371 C 
HETATM   12  N2  UNL     1      23.513  31.020  24.897  1.00  0.00    -0.017 N 
HETATM   13  C2  UNL     1      24.731  30.613  24.241  1.00  0.00     0.351 C 
ATOM     14  H22 UNL     1      23.458  30.736  25.875  1.00  0.00     0.283 HD
ATOM     15  H21 UNL     1      23.450  32.024  25.062  1.00  0.00     0.283 HD
HETATM   16  O6  UNL     1      24.425  30.188  22.964  1.00  0.00    -0.327 OA
BRANCH  11  17
HETATM   17  O1  UNL     1      21.470  29.873  24.867  1.00  0.00    -0.366 OA
ATOM     18  H1  UNL     1      21.358  28.970  24.594  1.00  0.00     0.212 HD
ENDBRANCH  11  17
BRANCH  13  19
HETATM   19  C1  UNL     1      25.649  31.811  24.198  1.00  0.00     0.290 C 
BRANCH  19  20
HETATM   20  N1  UNL     1      26.949  31.446  23.716  1.00  0.00    -0.075 N 
ATOM     21  H13 UNL     1      27.689  31.815  24.314  1.00  0.00     0.274 HD
ATOM     22  H12 UNL     1      27.131  30.450  23.841  1.00  0.00     0.274 HD
ATOM     23  H11 UNL     1      27.073  31.731  22.745  1.00  0.00     0.274 HD
ENDBRANCH  19  20
ENDBRANCH  13  19
ENDBRANCH   1  10
BRANCH   3  24
HETATM   24  O2  UNL     1      22.818  26.798  23.530  1.00  0.00    -0.343 OA
ATOM     25  H2  UNL     1      23.068  26.007  23.992  1.00  0.00     0.219 HD
ENDBRANCH   3  24
BRANCH   3  26
HETATM   26  N4  UNL     1      23.649  25.525  21.830  1.00  0.00    -0.166 N 
ATOM     27  H4  UNL     1      23.591  24.792  22.537  1.00  0.00     0.186 HD
BRANCH  26  28
HETATM   28  C7  UNL     1      24.344  25.111  20.689  1.00  0.00     0.692 A 
HETATM   29  N5  UNL     1      25.688  25.432  20.671  1.00  0.00    -0.141 N 
HETATM   30  C8  UNL     1      26.474  25.137  19.632  1.00  0.00     0.342 A 
ATOM     31  H5  UNL     1      26.094  25.908  21.477  1.00  0.00     0.189 HD
HETATM   32  O3  UNL     1      27.695  25.442  19.642  1.00  0.00    -0.246 OA
HETATM   33  N6  UNL     1      25.986  24.511  18.551  1.00  0.00    -0.260 N 
HETATM   34  C9  UNL     1      24.701  24.184  18.526  1.00  0.00     0.342 A 
ATOM     35  H6  UNL     1      26.593  24.289  17.762  1.00  0.00     0.175 HD
HETATM   36  O4  UNL     1      24.191  23.596  17.537  1.00  0.00    -0.246 OA
HETATM   37  N7  UNL     1      23.918  24.499  19.606  1.00  0.00    -0.141 N 
ATOM     38  H7  UNL     1      22.932  24.241  19.566  1.00  0.00     0.189 HD
ENDBRANCH  26  28
ENDBRANCH   3  26
TORSDOF 7
ENDMDL
MODEL 3
REMARK VINA RESULT: -5.826534927      2.012      2.757
REMARK  7 active torsions:
REMARK  status: ('A' for Active; 'I' for Inactive)
REMARK    1  A    between atoms: N1_1  and  C1_5 
REMARK    2  A    between atoms: C1_5  and  C2_6 
REMARK    3  A    between atoms: C3_10  and  O1_11 
REMARK    4  A    between atoms: C4_13  and  N3_14 
REMARK    5  A    between atoms: C6_16  and  O2_17 
REMARK    6  A    between atoms: C6_16  and  N4_19 
REMARK    7  A    between atoms: N4_19  and  C7_21 
ROOT
HETATM    1  N3  UNL     1      22.533  29.135  22.010  1.00  0.00    -0.247 N 
HETATM    2  C5  UNL     1      22.530  27.848  21.516  1.00  0.00     0.181 A 
HETATM    3  C6  UNL     1      23.056  26.687  22.193  1.00  0.00     0.202 C 
HETATM    4  N8  UNL     1      21.841  27.924  20.354  1.00  0.00    -0.278 N 
ATOM      5  H8  UNL     1      21.654  27.138  19.732  1.00  0.00     0.189 HD
HETATM    6  N9  UNL     1      21.452  29.153  20.148  1.00  0.00    -0.249 N 
ATOM      7  H9  UNL     1      20.914  29.478  19.343  1.00  0.00     0.192 HD
HETATM    8  C10 UNL     1      21.880  29.935  21.184  1.00  0.00     0.345 A 
HETATM    9  O5  UNL     1      21.662  31.182  21.284  1.00  0.00    -0.245 OA
ENDROOT
BRANCH   1  10
HETATM   10  C4  UNL     1      23.193  29.481  23.245  1.00  0.00     0.293 C 
HETATM   11  C3  UNL     1      22.403  30.408  24.138  1.00  0.00     0.371 C 
HETATM   12  N2  UNL     1      23.499  30.944  24.981  1.00  0.00    -0.017 N 
HETATM   13  C2  UNL     1      24.715  30.583  24.296  1.00  0.00     0.351 C 
ATOM     14  H22 UNL     1      23.464  30.630  25.951  1.00  0.00     0.283 HD
ATOM     15  H21 UNL     1      23.416  31.941  25.177  1.00  0.00     0.283 HD
HETATM   16  O6  UNL     1      24.400  30.190  23.011  1.00  0.00    -0.327 OA
BRANCH  11  17
HETATM   17  O1  UNL     1      21.481  29.754  24.945  1.00  0.00    -0.366 OA
ATOM     18  H1  UNL     1      21.895  29.519  25.767  1.00  0.00     0.212 HD
ENDBRANCH  11  17
BRANCH  13  19
HETATM   19  C1  UNL     1      25.606  31.802  24.276  1.00  0.00     0.290 C 
BRANCH  19  20
HETATM   20  N1  UNL     1      26.898  31.487  23.738  1.00  0.00    -0.075 N 
ATOM     21  H13 UNL     1      27.447  30.922  24.385  1.00  0.00     0.274 HD
ATOM     22  H12 UNL     1      26.832  30.820  22.968  1.00  0.00     0.274 HD
ATOM     23  H11 UNL     1      27.395  32.333  23.461  1.00  0.00     0.274 HD
ENDBRANCH  19  20
ENDBRANCH  13  19
ENDBRANCH   1  10
BRANCH   3  24
HETATM   24  O2  UNL     1      22.868  26.751  23.501  1.00  0.00    -0.343 OA
ATOM     25  H2  UNL     1      22.564  27.608  23.774  1.00  0.00     0.219 HD
ENDBRANCH   3  24
BRANCH   3  26
HETATM   26  N4  UNL     1      23.701  25.543  21.755  1.00  0.00    -0.166 N 
ATOM     27  H4  UNL     1      23.498  24.733  22.342  1.00  0.00     0.186 HD
BRANCH  26  28
HETATM   28  C7  UNL     1      24.563  25.234  20.699  1.00  0.00     0.692 A 
HETATM   29  N5  UNL     1      23.983  24.549  19.648  1.00  0.00    -0.141 N 
HETATM   30  C8  UNL     1      24.688  24.151  18.586  1.00  0.00     0.342 A 
ATOM     31  H5  UNL     1      22.984  24.342  19.684  1.00  0.00     0.189 HD
HETATM   32  O3  UNL     1      24.134  23.528  17.642  1.00  0.00    -0.246 OA
HETATM   33  N6  UNL     1      26.002  24.401  18.494  1.00  0.00    -0.260 N 
HETATM   34  C9  UNL     1      26.600  25.056  19.480  1.00  0.00     0.342 A 
ATOM     35  H6  UNL     1      26.532  24.093  17.678  1.00  0.00     0.175 HD
HETATM   36  O4  UNL     1      27.831  25.317  19.445  1.00  0.00    -0.246 OA
HETATM   37  N7  UNL     1      25.852  25.452  20.558  1.00  0.00    -0.141 N 
ATOM     38  H7  UNL     1      26.331  25.953  21.307  1.00  0.00     0.189 HD
ENDBRANCH  26  28
ENDBRANCH   3  26
TORSDOF 7
ENDMDL
MODEL 4
REMARK VINA RESULT: -5.781205724      0.693      1.684
REMARK  7 active torsions:
REMARK  status: ('A' for Active; 'I' for Inactive)
REMARK    1  A    between atoms: N1_1  and  C1_5 
REMARK    2  A    between atoms: C1_5  and  C2_6 
REMARK    3  A    between atoms: C3_10  and  O1_11 
REMARK    4  A    between atoms: C4_13  and  N3_14 
REMARK    5  A    between atoms: C6_16  and  O2_17 
REMARK    6  A    between atoms: C6_16  and  N4_19 
REMARK    7  A    between atoms: N4_19  and  C7_21 
ROOT
HETATM    1  N3  UNL     1      22.408  29.430  22.137  1.00  0.00    -0.247 N 
HETATM    2  C5  UNL     1      22.330  28.269  21.399  1.00  0.00     0.181 A 
HETATM    3  C6  UNL     1      22.916  27.001  21.762  1.00  0.00     0.202 C 
HETATM    4  N8  UNL     1      21.512  28.569  20.364  1.00  0.00    -0.278 N 
ATOM      5  H8  UNL     1      21.243  27.923  19.623  1.00  0.00     0.189 HD
HETATM    6  N9  UNL     1      21.117  29.811  20.456  1.00  0.00    -0.249 N 
ATOM      7  H9  UNL     1      20.494  30.285  19.801  1.00  0.00     0.192 HD
HETATM    8  C10 UNL     1      21.673  30.373  21.571  1.00  0.00     0.345 A 
HETATM    9  O5  UNL     1      21.485  31.572  21.944  1.00  0.00    -0.245 OA
ENDROOT
BRANCH   1  10
HETATM   10  C4  UNL     1      23.211  29.527  23.331  1.00  0.00     0.293 C 
HETATM   11  C3  UNL     1      22.445  29.927  24.570  1.00  0.00     0.371 C 
HETATM   12  N2  UNL     1      23.561  30.421  25.411  1.00  0.00    -0.017 N 
HETATM   13  C2  UNL     1      24.674  30.581  24.509  1.00  0.00     0.351 C 
ATOM     14  H22 UNL     1      23.765  29.827  26.215  1.00  0.00     0.283 HD
ATOM     15  H21 UNL     1      23.336  31.263  25.941  1.00  0.00     0.283 HD
HETATM   16  O6  UNL     1      24.203  30.535  23.212  1.00  0.00    -0.327 OA
BRANCH  11  17
HETATM   17  O1  UNL     1      21.824  28.862  25.210  1.00  0.00    -0.366 OA
ATOM     18  H1  UNL     1      22.408  28.511  25.872  1.00  0.00     0.212 HD
ENDBRANCH  11  17
BRANCH  13  19
HETATM   19  C1  UNL     1      25.307  31.921  24.798  1.00  0.00     0.290 C 
BRANCH  19  20
HETATM   20  N1  UNL     1      26.397  32.179  23.901  1.00  0.00    -0.075 N 
ATOM     21  H13 UNL     1      26.428  31.499  23.142  1.00  0.00     0.274 HD
ATOM     22  H12 UNL     1      26.238  33.022  23.349  1.00  0.00     0.274 HD
ATOM     23  H11 UNL     1      27.283  32.222  24.405  1.00  0.00     0.274 HD
ENDBRANCH  19  20
ENDBRANCH  13  19
ENDBRANCH   1  10
BRANCH   3  24
HETATM   24  O2  UNL     1      22.882  26.798  23.070  1.00  0.00    -0.343 OA
ATOM     25  H2  UNL     1      23.747  26.630  23.425  1.00  0.00     0.219 HD
ENDBRANCH   3  24
BRANCH   3  26
HETATM   26  N4  UNL     1      23.490  25.975  21.031  1.00  0.00    -0.166 N 
ATOM     27  H4  UNL     1      24.166  26.316  20.347  1.00  0.00     0.186 HD
BRANCH  26  28
HETATM   28  C7  UNL     1      23.363  24.583  21.008  1.00  0.00     0.692 A 
HETATM   29  N5  UNL     1      23.719  23.980  19.817  1.00  0.00    -0.141 N 
HETATM   30  C8  UNL     1      23.615  22.663  19.630  1.00  0.00     0.342 A 
ATOM     31  H5  UNL     1      24.074  24.560  19.056  1.00  0.00     0.189 HD
HETATM   32  O3  UNL     1      23.946  22.139  18.533  1.00  0.00    -0.246 OA
HETATM   33  N6  UNL     1      23.155  21.860  20.601  1.00  0.00    -0.260 N 
HETATM   34  C9  UNL     1      22.802  22.396  21.761  1.00  0.00     0.342 A 
ATOM     35  H6  UNL     1      23.080  20.854  20.449  1.00  0.00     0.175 HD
HETATM   36  O4  UNL     1      22.364  21.689  22.706  1.00  0.00    -0.246 OA
HETATM   37  N7  UNL     1      22.919  23.752  21.925  1.00  0.00    -0.141 N 
ATOM     38  H7  UNL     1      22.641  24.145  22.824  1.00  0.00     0.189 HD
ENDBRANCH  26  28
ENDBRANCH   3  26
TORSDOF 7
ENDMDL
MODEL 5
REMARK VINA RESULT: -5.759536277      3.278      7.533
REMARK  7 active torsions:
REMARK  status: ('A' for Active; 'I' for Inactive)
REMARK    1  A    between atoms: N1_1  and  C1_5 
REMARK    2  A    between atoms: C1_5  and  C2_6 
REMARK    3  A    between atoms: C3_10  and  O1_11 
REMARK    4  A    between atoms: C4_13  and  N3_14 
REMARK    5  A    between atoms: C6_16  and  O2_17 
REMARK    6  A    between atoms: C6_16  and  N4_19 
REMARK    7  A    between atoms: N4_19  and  C7_21 
ROOT
HETATM    1  N3  UNL     1      22.483  28.785  22.157  1.00  0.00    -0.247 N 
HETATM    2  C5  UNL     1      21.667  29.875  21.939  1.00  0.00     0.181 A 
HETATM    3  C6  UNL     1      21.602  31.056  22.766  1.00  0.00     0.202 C 
HETATM    4  N8  UNL     1      21.063  29.623  20.755  1.00  0.00    -0.278 N 
ATOM      5  H8  UNL     1      20.389  30.238  20.299  1.00  0.00     0.189 HD
HETATM    6  N9  UNL     1      21.472  28.476  20.282  1.00  0.00    -0.249 N 
ATOM      7  H9  UNL     1      21.168  28.056  19.403  1.00  0.00     0.192 HD
HETATM    8  C10 UNL     1      22.371  27.930  21.155  1.00  0.00     0.345 A 
HETATM    9  O5  UNL     1      22.955  26.815  20.985  1.00  0.00    -0.245 OA
ENDROOT
BRANCH   1  10
HETATM   10  C4  UNL     1      23.296  28.662  23.342  1.00  0.00     0.293 C 
HETATM   11  C3  UNL     1      24.785  28.702  23.087  1.00  0.00     0.371 C 
HETATM   12  N2  UNL     1      25.274  28.058  24.330  1.00  0.00    -0.017 N 
HETATM   13  C2  UNL     1      24.110  27.446  24.923  1.00  0.00     0.351 C 
ATOM     14  H22 UNL     1      25.769  28.693  24.956  1.00  0.00     0.283 HD
ATOM     15  H21 UNL     1      26.048  27.412  24.180  1.00  0.00     0.283 HD
HETATM   16  O6  UNL     1      23.101  27.410  23.982  1.00  0.00    -0.327 OA
BRANCH  11  17
HETATM   17  O1  UNL     1      25.302  29.989  23.003  1.00  0.00    -0.366 OA
ATOM     18  H1  UNL     1      24.731  30.521  22.462  1.00  0.00     0.212 HD
ENDBRANCH  11  17
BRANCH  13  19
HETATM   19  C1  UNL     1      24.495  26.048  25.344  1.00  0.00     0.290 C 
BRANCH  19  20
HETATM   20  N1  UNL     1      24.186  25.097  24.315  1.00  0.00    -0.075 N 
ATOM     21  H13 UNL     1      24.948  25.009  23.644  1.00  0.00     0.274 HD
ATOM     22  H12 UNL     1      24.183  24.142  24.674  1.00  0.00     0.274 HD
ATOM     23  H11 UNL     1      23.304  25.328  23.857  1.00  0.00     0.274 HD
ENDBRANCH  19  20
ENDBRANCH  13  19
ENDBRANCH   1  10
BRANCH   3  24
HETATM   24  O2  UNL     1      22.787  31.375  23.265  1.00  0.00    -0.343 OA
ATOM     25  H2  UNL     1      23.208  32.062  22.764  1.00  0.00     0.219 HD
ENDBRANCH   3  24
BRANCH   3  26
HETATM   26  N4  UNL     1      20.572  31.905  23.130  1.00  0.00    -0.166 N 
ATOM     27  H4  UNL     1      20.073  32.279  22.323  1.00  0.00     0.186 HD
BRANCH  26  28
HETATM   28  C7  UNL     1      20.054  32.372  24.341  1.00  0.00     0.692 A 
HETATM   29  N5  UNL     1      20.837  32.119  25.452  1.00  0.00    -0.141 N 
HETATM   30  C8  UNL     1      20.456  32.469  26.683  1.00  0.00     0.342 A 
ATOM     31  H5  UNL     1      21.735  31.651  25.328  1.00  0.00     0.189 HD
HETATM   32  O3  UNL     1      21.189  32.227  27.677  1.00  0.00    -0.246 OA
HETATM   33  N6  UNL     1      19.285  33.088  26.895  1.00  0.00    -0.260 N 
HETATM   34  C9  UNL     1      18.501  33.350  25.857  1.00  0.00     0.342 A 
ATOM     35  H6  UNL     1      19.002  33.353  27.839  1.00  0.00     0.175 HD
HETATM   36  O4  UNL     1      17.392  33.928  26.001  1.00  0.00    -0.246 OA
HETATM   37  N7  UNL     1      18.918  32.978  24.606  1.00  0.00    -0.141 N 
ATOM     38  H7  UNL     1      18.300  33.187  23.821  1.00  0.00     0.189 HD
ENDBRANCH  26  28
ENDBRANCH   3  26
TORSDOF 7
ENDMDL
