MODEL 1
REMARK VINA RESULT: -9.760496836      0.000      0.000
REMARK  7 active torsions:
REMARK  status: ('A' for Active; 'I' for Inactive)
REMARK    1  A    between atoms: O1_2  and  C2_3 
REMARK    2  A    between atoms: C4_5  and  N1_6 
REMARK    3  A    between atoms: N2_9  and  C7_10 
REMARK    4  A    between atoms: C8_13  and  N4_14 
REMARK    5  A    between atoms: C13_22  and  N6_23 
REMARK    6  A    between atoms: C18_37  and  O3_38 
REMARK    7  A    between atoms: C21_44  and  N13_45 
ROOT
HETATM    1  N6  UNL     1      39.698   0.416 134.166  1.00  0.00     0.037 N 
HETATM    2  C14 UNL     1      39.329   0.686 132.907  1.00  0.00     0.197 A 
HETATM    3  C15 UNL     1      38.116   1.324 132.424  1.00  0.00     0.123 C 
HETATM    4  N7  UNL     1      37.159   1.832 132.017  1.00  0.00    -0.190 NA
HETATM    5  C16 UNL     1      40.362   0.226 132.104  1.00  0.00     0.171 A 
HETATM    6  N8  UNL     1      40.356   0.327 130.680  1.00  0.00    -0.079 NA
HETATM    7  N9  UNL     1      41.307  -0.297 132.900  1.00  0.00    -0.175 N 
ATOM      8  H9  UNL     1      42.183  -0.711 132.583  1.00  0.00     0.185 HD
HETATM    9  C17 UNL     1      40.920  -0.192 134.168  1.00  0.00     0.699 A 
HETATM   10  N10 UNL     1      41.578  -0.591 135.198  1.00  0.00    -0.233 N 
ATOM     11 1H10 UNL     1      42.492  -1.045 135.199  1.00  0.00     0.174 HD
ATOM     12 2H10 UNL     1      41.282  -0.510 136.171  1.00  0.00     0.174 HD
ENDROOT
BRANCH   1  13
HETATM   13  C13 UNL     1      38.920   0.726 135.323  1.00  0.00     0.733 A 
HETATM   14  N5  UNL     1      39.279   1.802 136.070  1.00  0.00    -0.020 N 
HETATM   15  C8  UNL     1      38.653   2.194 137.178  1.00  0.00     0.709 A 
ATOM     16  H5  UNL     1      40.083   2.349 135.760  1.00  0.00     0.203 HD
HETATM   17  N3  UNL     1      37.599   1.463 137.569  1.00  0.00    -0.021 N 
HETATM   18  C7  UNL     1      37.207   0.375 136.847  1.00  0.00     0.712 A 
ATOM     19  H3  UNL     1      37.088   1.722 138.413  1.00  0.00     0.203 HD
HETATM   20  N11 UNL     1      37.864   0.016 135.737  1.00  0.00    -0.020 N 
ATOM     21  H11 UNL     1      37.558  -0.799 135.205  1.00  0.00     0.203 HD
BRANCH  15  22
HETATM   22  N4  UNL     1      39.075   3.351 137.896  1.00  0.00    -0.213 N 
HETATM   23  C9  UNL     1      38.343   3.868 139.044  1.00  0.00     0.167 C 
HETATM   24  C10 UNL     1      38.727   5.334 139.269  1.00  0.00     0.188 C 
HETATM   25  O2  UNL     1      40.096   5.362 139.414  1.00  0.00    -0.388 OA
HETATM   26  C11 UNL     1      40.676   5.219 138.168  1.00  0.00     0.188 C 
HETATM   27  C12 UNL     1      40.316   3.984 137.424  1.00  0.00     0.167 C 
ENDBRANCH  15  22
BRANCH  18  28
HETATM   28  N2  UNL     1      36.104  -0.389 137.377  1.00  0.00    -0.179 N 
HETATM   29  C6  UNL     1      34.795  -0.210 136.830  1.00  0.00     0.165 C 
HETATM   30  C5  UNL     1      33.857  -1.329 137.224  1.00  0.00     0.154 C 
HETATM   31  N1  UNL     1      33.975  -1.666 138.620  1.00  0.00    -0.298 N 
HETATM   32  C20 UNL     1      35.193  -1.415 139.295  1.00  0.00     0.275 C 
HETATM   33  C18 UNL     1      36.413  -1.347 138.458  1.00  0.00     0.333 C 
HETATM   34  O4  UNL     1      35.229  -1.259 140.538  1.00  0.00    -0.268 OA
BRANCH  31  35
HETATM   35  C4  UNL     1      32.901  -2.251 139.344  1.00  0.00     0.130 A 
HETATM   36  C3  UNL     1      31.622  -1.731 139.256  1.00  0.00     0.105 A 
HETATM   37  C2  UNL     1      30.566  -2.302 139.964  1.00  0.00     0.160 A 
HETATM   38  N14 UNL     1      30.847  -3.367 140.730  1.00  0.00    -0.170 N 
HETATM   39  C21 UNL     1      32.096  -3.890 140.828  1.00  0.00     0.683 A 
ATOM     40  H14 UNL     1      30.092  -3.802 141.259  1.00  0.00     0.186 HD
HETATM   41  N12 UNL     1      33.065  -3.315 140.135  1.00  0.00    -0.176 N 
ATOM     42  H12 UNL     1      34.002  -3.710 140.211  1.00  0.00     0.186 HD
BRANCH  37  43
HETATM   43  O1  UNL     1      29.276  -1.775 139.871  1.00  0.00    -0.340 OA
HETATM   44  C1  UNL     1      28.175  -2.616 140.173  1.00  0.00     0.211 C 
ENDBRANCH  37  43
BRANCH  39  45
HETATM   45  N13 UNL     1      32.267  -5.032 141.665  1.00  0.00    -0.226 N 
HETATM   46  C22 UNL     1      33.220  -6.047 141.302  1.00  0.00     0.168 C 
HETATM   47  C23 UNL     1      31.489  -5.153 142.888  1.00  0.00     0.168 C 
ENDBRANCH  39  45
ENDBRANCH  31  35
BRANCH  33  48
HETATM   48  O3  UNL     1      36.619  -2.614 137.897  1.00  0.00    -0.362 OA
HETATM   49  C19 UNL     1      37.540  -3.353 138.632  1.00  0.00     0.204 C 
ENDBRANCH  33  48
ENDBRANCH  18  28
ENDBRANCH   1  13
TORSDOF 7
ENDMDL
MODEL 2
REMARK VINA RESULT: -9.444197472      5.128     10.353
REMARK  7 active torsions:
REMARK  status: ('A' for Active; 'I' for Inactive)
REMARK    1  A    between atoms: O1_2  and  C2_3 
REMARK    2  A    between atoms: C4_5  and  N1_6 
REMARK    3  A    between atoms: N2_9  and  C7_10 
REMARK    4  A    between atoms: C8_13  and  N4_14 
REMARK    5  A    between atoms: C13_22  and  N6_23 
REMARK    6  A    between atoms: C18_37  and  O3_38 
REMARK    7  A    between atoms: C21_44  and  N13_45 
ROOT
HETATM    1  N6  UNL     1      42.749   1.746 134.772  1.00  0.00     0.037 N 
HETATM    2  C14 UNL     1      43.007   2.922 134.185  1.00  0.00     0.197 A 
HETATM    3  C15 UNL     1      42.301   3.576 133.095  1.00  0.00     0.123 C 
HETATM    4  N7  UNL     1      41.754   4.117 132.231  1.00  0.00    -0.190 NA
HETATM    5  C16 UNL     1      44.121   3.432 134.834  1.00  0.00     0.171 A 
HETATM    6  N8  UNL     1      44.719   4.684 134.501  1.00  0.00    -0.079 NA
HETATM    7  N9  UNL     1      44.490   2.554 135.779  1.00  0.00    -0.175 N 
ATOM      8  H9  UNL     1      45.281   2.668 136.413  1.00  0.00     0.185 HD
HETATM    9  C17 UNL     1      43.664   1.513 135.758  1.00  0.00     0.699 A 
HETATM   10  N10 UNL     1      43.721   0.483 136.526  1.00  0.00    -0.233 N 
ATOM     11 1H10 UNL     1      44.405   0.309 137.263  1.00  0.00     0.174 HD
ATOM     12 2H10 UNL     1      43.087  -0.316 136.510  1.00  0.00     0.174 HD
ENDROOT
BRANCH   1  13
HETATM   13  C13 UNL     1      41.674   0.877 134.411  1.00  0.00     0.733 A 
HETATM   14  N5  UNL     1      40.631   0.753 135.272  1.00  0.00    -0.020 N 
HETATM   15  C8  UNL     1      39.574  -0.032 135.068  1.00  0.00     0.709 A 
ATOM     16  H5  UNL     1      40.658   1.299 136.133  1.00  0.00     0.203 HD
HETATM   17  N3  UNL     1      39.557  -0.742 133.931  1.00  0.00    -0.021 N 
HETATM   18  C7  UNL     1      40.585  -0.645 133.041  1.00  0.00     0.712 A 
ATOM     19  H3  UNL     1      38.770  -1.358 133.730  1.00  0.00     0.203 HD
HETATM   20  N11 UNL     1      41.629   0.158 133.283  1.00  0.00    -0.020 N 
ATOM     21  H11 UNL     1      42.390   0.221 132.608  1.00  0.00     0.203 HD
BRANCH  15  22
HETATM   22  N4  UNL     1      38.505  -0.090 136.009  1.00  0.00    -0.213 N 
HETATM   23  C9  UNL     1      37.842  -1.339 136.362  1.00  0.00     0.167 C 
HETATM   24  C10 UNL     1      36.471  -1.028 136.968  1.00  0.00     0.188 C 
HETATM   25  O2  UNL     1      36.695  -0.188 138.035  1.00  0.00    -0.388 OA
HETATM   26  C11 UNL     1      36.963   1.080 137.552  1.00  0.00     0.188 C 
HETATM   27  C12 UNL     1      38.120   1.188 136.627  1.00  0.00     0.167 C 
ENDBRANCH  15  22
BRANCH  18  28
HETATM   28  N2  UNL     1      40.512  -1.492 131.875  1.00  0.00    -0.179 N 
HETATM   29  C6  UNL     1      41.592  -1.498 130.939  1.00  0.00     0.165 C 
HETATM   30  C5  UNL     1      41.530  -2.689 130.007  1.00  0.00     0.154 C 
HETATM   31  N1  UNL     1      40.196  -2.919 129.515  1.00  0.00    -0.298 N 
HETATM   32  C20 UNL     1      39.087  -2.489 130.282  1.00  0.00     0.275 C 
HETATM   33  C18 UNL     1      39.308  -2.338 131.739  1.00  0.00     0.333 C 
HETATM   34  O4  UNL     1      37.979  -2.250 129.749  1.00  0.00    -0.268 OA
BRANCH  31  35
HETATM   35  C4  UNL     1      39.956  -3.573 128.276  1.00  0.00     0.130 A 
HETATM   36  C3  UNL     1      40.281  -4.906 128.105  1.00  0.00     0.105 A 
HETATM   37  C2  UNL     1      40.047  -5.552 126.892  1.00  0.00     0.160 A 
HETATM   38  N14 UNL     1      39.499  -4.824 125.908  1.00  0.00    -0.170 N 
HETATM   39  C21 UNL     1      39.174  -3.516 126.057  1.00  0.00     0.683 A 
ATOM     40  H14 UNL     1      39.320  -5.274 125.010  1.00  0.00     0.186 HD
HETATM   41  N12 UNL     1      39.414  -2.947 127.227  1.00  0.00    -0.176 N 
ATOM     42  H12 UNL     1      39.168  -1.964 127.337  1.00  0.00     0.186 HD
BRANCH  37  43
HETATM   43  O1  UNL     1      40.375  -6.899 126.726  1.00  0.00    -0.340 OA
HETATM   44  C1  UNL     1      40.242  -7.476 125.437  1.00  0.00     0.211 C 
ENDBRANCH  37  43
BRANCH  39  45
HETATM   45  N13 UNL     1      38.586  -2.851 124.940  1.00  0.00    -0.226 N 
HETATM   46  C22 UNL     1      39.156  -3.016 123.630  1.00  0.00     0.168 C 
HETATM   47  C23 UNL     1      37.405  -2.025 125.133  1.00  0.00     0.168 C 
ENDBRANCH  39  45
ENDBRANCH  31  35
BRANCH  33  48
HETATM   48  O3  UNL     1      39.582  -3.607 132.265  1.00  0.00    -0.362 OA
HETATM   49  C19 UNL     1      38.434  -4.207 132.773  1.00  0.00     0.204 C 
ENDBRANCH  33  48
ENDBRANCH  18  28
ENDBRANCH   1  13
TORSDOF 7
ENDMDL
MODEL 3
REMARK VINA RESULT: -9.420478808      5.655      9.818
REMARK  7 active torsions:
REMARK  status: ('A' for Active; 'I' for Inactive)
REMARK    1  A    between atoms: O1_2  and  C2_3 
REMARK    2  A    between atoms: C4_5  and  N1_6 
REMARK    3  A    between atoms: N2_9  and  C7_10 
REMARK    4  A    between atoms: C8_13  and  N4_14 
REMARK    5  A    between atoms: C13_22  and  N6_23 
REMARK    6  A    between atoms: C18_37  and  O3_38 
REMARK    7  A    between atoms: C21_44  and  N13_45 
ROOT
HETATM    1  N6  UNL     1      42.805   6.195 137.280  1.00  0.00     0.037 N 
HETATM    2  C14 UNL     1      44.035   6.013 137.776  1.00  0.00     0.197 A 
HETATM    3  C15 UNL     1      44.684   4.779 138.189  1.00  0.00     0.123 C 
HETATM    4  N7  UNL     1      45.220   3.809 138.521  1.00  0.00    -0.190 NA
HETATM    5  C16 UNL     1      44.612   7.273 137.829  1.00  0.00     0.171 A 
HETATM    6  N8  UNL     1      45.936   7.512 138.305  1.00  0.00    -0.079 NA
HETATM    7  N9  UNL     1      43.718   8.160 137.366  1.00  0.00    -0.175 N 
ATOM      8  H9  UNL     1      43.870   9.165 137.289  1.00  0.00     0.185 HD
HETATM    9  C17 UNL     1      42.603   7.521 137.024  1.00  0.00     0.699 A 
HETATM   10  N10 UNL     1      41.537   8.058 136.545  1.00  0.00    -0.233 N 
ATOM     11 1H10 UNL     1      41.387   9.049 136.354  1.00  0.00     0.174 HD
ATOM     12 2H10 UNL     1      40.682   7.568 136.282  1.00  0.00     0.174 HD
ENDROOT
BRANCH   1  13
HETATM   13  C13 UNL     1      41.858   5.150 137.055  1.00  0.00     0.733 A 
HETATM   14  N5  UNL     1      40.834   5.009 137.936  1.00  0.00    -0.020 N 
HETATM   15  C8  UNL     1      39.892   4.071 137.855  1.00  0.00     0.709 A 
ATOM     16  H5  UNL     1      40.782   5.668 138.714  1.00  0.00     0.203 HD
HETATM   17  N3  UNL     1      39.978   3.215 136.827  1.00  0.00    -0.021 N 
HETATM   18  C7  UNL     1      40.990   3.322 135.920  1.00  0.00     0.712 A 
ATOM     19  H3  UNL     1      39.281   2.478 136.722  1.00  0.00     0.203 HD
HETATM   20  N11 UNL     1      41.916   4.282 136.038  1.00  0.00    -0.020 N 
ATOM     21  H11 UNL     1      42.668   4.352 135.352  1.00  0.00     0.203 HD
BRANCH  15  22
HETATM   22  N4  UNL     1      38.833   4.002 138.807  1.00  0.00    -0.213 N 
HETATM   23  C9  UNL     1      38.797   4.841 139.997  1.00  0.00     0.167 C 
HETATM   24  C10 UNL     1      37.862   4.208 141.032  1.00  0.00     0.188 C 
HETATM   25  O2  UNL     1      36.642   4.054 140.414  1.00  0.00    -0.388 OA
HETATM   26  C11 UNL     1      36.713   2.970 139.558  1.00  0.00     0.188 C 
HETATM   27  C12 UNL     1      37.758   3.045 138.505  1.00  0.00     0.167 C 
ENDBRANCH  15  22
BRANCH  18  28
HETATM   28  N2  UNL     1      41.039   2.320 134.884  1.00  0.00    -0.179 N 
HETATM   29  C6  UNL     1      42.132   2.310 133.962  1.00  0.00     0.165 C 
HETATM   30  C5  UNL     1      42.225   1.003 133.206  1.00  0.00     0.154 C 
HETATM   31  N1  UNL     1      40.937   0.555 132.743  1.00  0.00    -0.298 N 
HETATM   32  C20 UNL     1      39.770   0.955 133.438  1.00  0.00     0.275 C 
HETATM   33  C18 UNL     1      39.942   1.330 134.861  1.00  0.00     0.333 C 
HETATM   34  O4  UNL     1      38.654   0.988 132.871  1.00  0.00    -0.268 OA
BRANCH  31  35
HETATM   35  C4  UNL     1      40.799  -0.288 131.607  1.00  0.00     0.130 A 
HETATM   36  C3  UNL     1      41.081  -1.639 131.689  1.00  0.00     0.105 A 
HETATM   37  C2  UNL     1      40.947  -2.469 130.577  1.00  0.00     0.160 A 
HETATM   38  N14 UNL     1      40.537  -1.898 129.434  1.00  0.00    -0.170 N 
HETATM   39  C21 UNL     1      40.257  -0.574 129.334  1.00  0.00     0.683 A 
ATOM     40  H14 UNL     1      40.433  -2.483 128.606  1.00  0.00     0.186 HD
HETATM   41  N12 UNL     1      40.398   0.172 130.418  1.00  0.00    -0.176 N 
ATOM     42  H12 UNL     1      40.185   1.167 130.341  1.00  0.00     0.186 HD
BRANCH  37  43
HETATM   43  O1  UNL     1      41.230  -3.833 130.665  1.00  0.00    -0.340 OA
HETATM   44  C1  UNL     1      41.768  -4.490 129.530  1.00  0.00     0.211 C 
ENDBRANCH  37  43
BRANCH  39  45
HETATM   45  N13 UNL     1      39.819  -0.086 128.068  1.00  0.00    -0.226 N 
HETATM   46  C22 UNL     1      40.295  -0.707 126.860  1.00  0.00     0.168 C 
HETATM   47  C23 UNL     1      38.882   1.025 128.008  1.00  0.00     0.168 C 
ENDBRANCH  39  45
ENDBRANCH  31  35
BRANCH  33  48
HETATM   48  O3  UNL     1      40.348   0.186 135.559  1.00  0.00    -0.362 OA
HETATM   49  C19 UNL     1      39.303  -0.722 135.702  1.00  0.00     0.204 C 
ENDBRANCH  33  48
ENDBRANCH  18  28
ENDBRANCH   1  13
TORSDOF 7
ENDMDL
MODEL 4
REMARK VINA RESULT: -9.379134171      6.043      9.332
REMARK  7 active torsions:
REMARK  status: ('A' for Active; 'I' for Inactive)
REMARK    1  A    between atoms: O1_2  and  C2_3 
REMARK    2  A    between atoms: C4_5  and  N1_6 
REMARK    3  A    between atoms: N2_9  and  C7_10 
REMARK    4  A    between atoms: C8_13  and  N4_14 
REMARK    5  A    between atoms: C13_22  and  N6_23 
REMARK    6  A    between atoms: C18_37  and  O3_38 
REMARK    7  A    between atoms: C21_44  and  N13_45 
ROOT
HETATM    1  N6  UNL     1      44.110   3.083 136.617  1.00  0.00     0.037 N 
HETATM    2  C14 UNL     1      44.507   4.360 136.694  1.00  0.00     0.197 A 
HETATM    3  C15 UNL     1      43.743   5.573 136.452  1.00  0.00     0.123 C 
HETATM    4  N7  UNL     1      43.154   6.552 136.268  1.00  0.00    -0.190 NA
HETATM    5  C16 UNL     1      45.843   4.319 137.063  1.00  0.00     0.171 A 
HETATM    6  N8  UNL     1      46.641   5.487 137.253  1.00  0.00    -0.079 NA
HETATM    7  N9  UNL     1      46.199   3.033 137.196  1.00  0.00    -0.175 N 
ATOM      8  H9  UNL     1      47.126   2.702 137.461  1.00  0.00     0.185 HD
HETATM    9  C17 UNL     1      45.153   2.257 136.927  1.00  0.00     0.699 A 
HETATM   10  N10 UNL     1      45.133   0.972 136.954  1.00  0.00    -0.233 N 
ATOM     11 1H10 UNL     1      45.913   0.355 137.185  1.00  0.00     0.174 HD
ATOM     12 2H10 UNL     1      44.331   0.377 136.748  1.00  0.00     0.174 HD
ENDROOT
BRANCH   1  13
HETATM   13  C13 UNL     1      42.791   2.663 136.265  1.00  0.00     0.733 A 
HETATM   14  N5  UNL     1      41.743   3.199 136.944  1.00  0.00    -0.020 N 
HETATM   15  C8  UNL     1      40.467   2.885 136.730  1.00  0.00     0.709 A 
ATOM     16  H5  UNL     1      41.948   3.888 137.667  1.00  0.00     0.203 HD
HETATM   17  N3  UNL     1      40.218   1.976 135.776  1.00  0.00    -0.021 N 
HETATM   18  C7  UNL     1      41.242   1.415 135.073  1.00  0.00     0.712 A 
ATOM     19  H3  UNL     1      39.256   1.702 135.576  1.00  0.00     0.203 HD
HETATM   20  N11 UNL     1      42.512   1.759 135.319  1.00  0.00    -0.020 N 
ATOM     21  H11 UNL     1      43.269   1.332 134.784  1.00  0.00     0.203 HD
BRANCH  15  22
HETATM   22  N4  UNL     1      39.418   3.510 137.467  1.00  0.00    -0.213 N 
HETATM   23  C9  UNL     1      39.405   4.939 137.748  1.00  0.00     0.167 C 
HETATM   24  C10 UNL     1      38.476   5.211 138.934  1.00  0.00     0.188 C 
HETATM   25  O2  UNL     1      37.247   4.691 138.597  1.00  0.00    -0.388 OA
HETATM   26  C11 UNL     1      37.297   3.316 138.727  1.00  0.00     0.188 C 
HETATM   27  C12 UNL     1      38.330   2.626 137.912  1.00  0.00     0.167 C 
ENDBRANCH  15  22
BRANCH  18  28
HETATM   28  N2  UNL     1      40.886   0.400 134.111  1.00  0.00    -0.179 N 
HETATM   29  C6  UNL     1      40.707  -0.951 134.544  1.00  0.00     0.165 C 
HETATM   30  C5  UNL     1      39.982  -1.787 133.513  1.00  0.00     0.154 C 
HETATM   31  N1  UNL     1      40.483  -1.556 132.182  1.00  0.00    -0.298 N 
HETATM   32  C20 UNL     1      41.089  -0.314 131.873  1.00  0.00     0.275 C 
HETATM   33  C18 UNL     1      40.699   0.841 132.713  1.00  0.00     0.333 C 
HETATM   34  O4  UNL     1      41.912  -0.207 130.934  1.00  0.00    -0.268 OA
BRANCH  31  35
HETATM   35  C4  UNL     1      40.384  -2.540 131.162  1.00  0.00     0.130 A 
HETATM   36  C3  UNL     1      39.150  -2.971 130.712  1.00  0.00     0.105 A 
HETATM   37  C2  UNL     1      39.047  -3.936 129.711  1.00  0.00     0.160 A 
HETATM   38  N14 UNL     1      40.193  -4.423 129.211  1.00  0.00    -0.170 N 
HETATM   39  C21 UNL     1      41.413  -4.012 129.640  1.00  0.00     0.683 A 
ATOM     40  H14 UNL     1      40.145  -5.131 128.479  1.00  0.00     0.186 HD
HETATM   41  N12 UNL     1      41.458  -3.093 130.591  1.00  0.00    -0.176 N 
ATOM     42  H12 UNL     1      42.377  -2.785 130.911  1.00  0.00     0.186 HD
BRANCH  37  43
HETATM   43  O1  UNL     1      37.798  -4.367 129.259  1.00  0.00    -0.340 OA
HETATM   44  C1  UNL     1      37.558  -5.760 129.152  1.00  0.00     0.211 C 
ENDBRANCH  37  43
BRANCH  39  45
HETATM   45  N13 UNL     1      42.559  -4.595 129.023  1.00  0.00    -0.226 N 
HETATM   46  C22 UNL     1      43.426  -5.450 129.791  1.00  0.00     0.168 C 
HETATM   47  C23 UNL     1      42.834  -4.333 127.619  1.00  0.00     0.168 C 
ENDBRANCH  39  45
ENDBRANCH  31  35
BRANCH  33  48
HETATM   48  O3  UNL     1      39.338   1.091 132.494  1.00  0.00    -0.362 OA
HETATM   49  C19 UNL     1      39.147   2.008 131.466  1.00  0.00     0.204 C 
ENDBRANCH  33  48
ENDBRANCH  18  28
ENDBRANCH   1  13
TORSDOF 7
ENDMDL
MODEL 5
REMARK VINA RESULT: -9.345889753      5.018      8.713
REMARK  7 active torsions:
REMARK  status: ('A' for Active; 'I' for Inactive)
REMARK    1  A    between atoms: O1_2  and  C2_3 
REMARK    2  A    between atoms: C4_5  and  N1_6 
REMARK    3  A    between atoms: N2_9  and  C7_10 
REMARK    4  A    between atoms: C8_13  and  N4_14 
REMARK    5  A    between atoms: C13_22  and  N6_23 
REMARK    6  A    between atoms: C18_37  and  O3_38 
REMARK    7  A    between atoms: C21_44  and  N13_45 
ROOT
HETATM    1  N6  UNL     1      36.710  -3.128 127.736  1.00  0.00     0.037 N 
HETATM    2  C14 UNL     1      36.163  -2.036 127.186  1.00  0.00     0.197 A 
HETATM    3  C15 UNL     1      36.399  -0.636 127.500  1.00  0.00     0.123 C 
HETATM    4  N7  UNL     1      36.572   0.485 127.732  1.00  0.00    -0.190 NA
HETATM    5  C16 UNL     1      35.289  -2.498 126.214  1.00  0.00     0.171 A 
HETATM    6  N8  UNL     1      34.502  -1.638 125.391  1.00  0.00    -0.079 NA
HETATM    7  N9  UNL     1      35.341  -3.839 126.213  1.00  0.00    -0.175 N 
ATOM      8  H9  UNL     1      34.802  -4.449 125.598  1.00  0.00     0.185 HD
HETATM    9  C17 UNL     1      36.205  -4.246 127.137  1.00  0.00     0.699 A 
HETATM   10  N10 UNL     1      36.503  -5.466 127.413  1.00  0.00    -0.233 N 
ATOM     11 1H10 UNL     1      36.126  -6.302 126.965  1.00  0.00     0.174 HD
ATOM     12 2H10 UNL     1      37.166  -5.779 128.122  1.00  0.00     0.174 HD
ENDROOT
BRANCH   1  13
HETATM   13  C13 UNL     1      37.676  -3.110 128.788  1.00  0.00     0.733 A 
HETATM   14  N5  UNL     1      38.915  -3.604 128.531  1.00  0.00    -0.020 N 
HETATM   15  C8  UNL     1      39.903  -3.662 129.422  1.00  0.00     0.709 A 
ATOM     16  H5  UNL     1      39.102  -3.954 127.591  1.00  0.00     0.203 HD
HETATM   17  N3  UNL     1      39.638  -3.199 130.652  1.00  0.00    -0.021 N 
HETATM   18  C7  UNL     1      38.406  -2.695 130.950  1.00  0.00     0.712 A 
ATOM     19  H3  UNL     1      40.362  -3.223 131.369  1.00  0.00     0.203 HD
HETATM   20  N11 UNL     1      37.441  -2.653 130.023  1.00  0.00    -0.020 N 
ATOM     21  H11 UNL     1      36.525  -2.272 130.259  1.00  0.00     0.203 HD
BRANCH  15  22
HETATM   22  N4  UNL     1      41.187  -4.174 129.070  1.00  0.00    -0.213 N 
HETATM   23  C9  UNL     1      41.871  -3.788 127.843  1.00  0.00     0.167 C 
HETATM   24  C10 UNL     1      42.934  -4.839 127.507  1.00  0.00     0.188 C 
HETATM   25  O2  UNL     1      43.757  -4.929 128.608  1.00  0.00    -0.388 OA
HETATM   26  C11 UNL     1      43.104  -5.650 129.591  1.00  0.00     0.188 C 
HETATM   27  C12 UNL     1      41.797  -5.101 130.035  1.00  0.00     0.167 C 
ENDBRANCH  15  22
BRANCH  18  28
HETATM   28  N2  UNL     1      38.192  -2.278 132.314  1.00  0.00    -0.179 N 
HETATM   29  C6  UNL     1      37.992  -3.263 133.330  1.00  0.00     0.165 C 
HETATM   30  C5  UNL     1      38.161  -2.689 134.719  1.00  0.00     0.154 C 
HETATM   31  N1  UNL     1      37.501  -1.417 134.861  1.00  0.00    -0.298 N 
HETATM   32  C20 UNL     1      37.297  -0.607 133.718  1.00  0.00     0.275 C 
HETATM   33  C18 UNL     1      38.220  -0.824 132.579  1.00  0.00     0.333 C 
HETATM   34  O4  UNL     1      36.382   0.247 133.679  1.00  0.00    -0.268 OA
BRANCH  31  35
HETATM   35  C4  UNL     1      37.048  -0.943 136.122  1.00  0.00     0.130 A 
HETATM   36  C3  UNL     1      36.297  -1.753 136.954  1.00  0.00     0.105 A 
HETATM   37  C2  UNL     1      35.851  -1.293 138.192  1.00  0.00     0.160 A 
HETATM   38  N14 UNL     1      36.180  -0.037 138.533  1.00  0.00    -0.170 N 
HETATM   39  C21 UNL     1      36.916   0.772 137.729  1.00  0.00     0.683 A 
ATOM     40  H14 UNL     1      35.865   0.323 139.433  1.00  0.00     0.186 HD
HETATM   41  N12 UNL     1      37.318   0.288 136.565  1.00  0.00    -0.176 N 
ATOM     42  H12 UNL     1      37.871   0.898 135.963  1.00  0.00     0.186 HD
BRANCH  37  43
HETATM   43  O1  UNL     1      35.095  -2.114 139.030  1.00  0.00    -0.340 OA
HETATM   44  C1  UNL     1      33.829  -1.653 139.472  1.00  0.00     0.211 C 
ENDBRANCH  37  43
BRANCH  39  45
HETATM   45  N13 UNL     1      37.212   2.082 138.207  1.00  0.00    -0.226 N 
HETATM   46  C22 UNL     1      36.265   2.767 139.046  1.00  0.00     0.168 C 
HETATM   47  C23 UNL     1      38.476   2.709 137.855  1.00  0.00     0.168 C 
ENDBRANCH  39  45
ENDBRANCH  31  35
BRANCH  33  48
HETATM   48  O3  UNL     1      39.507  -0.463 132.997  1.00  0.00    -0.362 OA
HETATM   49  C19 UNL     1      39.830   0.828 132.593  1.00  0.00     0.204 C 
ENDBRANCH  33  48
ENDBRANCH  18  28
ENDBRANCH   1  13
TORSDOF 7
ENDMDL
