MODEL 1
REMARK VINA RESULT: -8.930282526      0.000      0.000
REMARK  2 active torsions:
REMARK  status: ('A' for Active; 'I' for Inactive)
REMARK    1  A    between atoms: N1_2  and  C3_5 
REMARK    2  A    between atoms: C3_5  and  C4_6 
ROOT
HETATM    1  C4  UNL     1      20.435 -11.669  20.439  1.00  0.00     0.020 C 
HETATM    2  C5  UNL     1      19.808 -12.898  20.968  1.00  0.00     0.012 C 
HETATM    3  C6  UNL     1      19.035 -13.721  20.000  1.00  0.00     0.075 C 
HETATM    4  C7  UNL     1      18.607 -13.070  18.745  1.00  0.00     0.230 C 
HETATM    5  C8  UNL     1      19.349 -11.863  18.306  1.00  0.00     0.075 C 
HETATM    6  C9  UNL     1      20.714 -11.730  18.948  1.00  0.00     0.012 C 
HETATM    7  O2  UNL     1      18.648 -13.989  17.668  1.00  0.00    -0.195 OA
HETATM    8  O3  UNL     1      17.906 -13.555  16.659  1.00  0.00    -0.194 OA
HETATM    9  C10 UNL     1      16.541 -13.622  16.988  1.00  0.00     0.237 C 
HETATM   10  O4  UNL     1      16.465 -13.657  18.366  1.00  0.00    -0.194 OA
HETATM   11  O5  UNL     1      17.241 -12.703  18.827  1.00  0.00    -0.195 OA
HETATM   12  C11 UNL     1      15.890 -12.365  16.487  1.00  0.00     0.055 C 
HETATM   13  C12 UNL     1      14.394 -12.395  16.606  1.00  0.00     0.015 C 
HETATM   14  C13 UNL     1      13.850 -13.596  15.868  1.00  0.00    -0.013 C 
HETATM   15  C14 UNL     1      14.205 -13.527  14.408  1.00  0.00     0.009 C 
HETATM   16  C15 UNL     1      15.712 -13.454  14.287  1.00  0.00    -0.013 C 
HETATM   17  C16 UNL     1      16.227 -12.245  15.006  1.00  0.00     0.015 C 
HETATM   18  C17 UNL     1      16.318 -14.717  14.827  1.00  0.00     0.015 C 
HETATM   19  C18 UNL     1      15.952 -14.822  16.314  1.00  0.00     0.055 C 
HETATM   20  C19 UNL     1      14.460 -14.881  16.418  1.00  0.00     0.015 C 
ENDROOT
BRANCH   1  21
HETATM   21  C3  UNL     1      21.716 -11.309  21.124  1.00  0.00     0.315 C 
BRANCH  21  22
HETATM   22  N1  UNL     1      21.613 -10.808  22.452  1.00  0.00     0.005 N 
HETATM   23  C1  UNL     1      21.480 -11.826  23.476  1.00  0.00     0.355 C 
HETATM   24  C2  UNL     1      20.609  -9.786  22.637  1.00  0.00     0.355 C 
HETATM   25  O1  UNL     1      22.833 -10.206  22.708  1.00  0.00    -0.065 OA
ENDBRANCH  21  22
ENDBRANCH   1  21
TORSDOF 2
ENDMDL
MODEL 2
REMARK VINA RESULT: -8.735457630      1.236      2.200
REMARK  2 active torsions:
REMARK  status: ('A' for Active; 'I' for Inactive)
REMARK    1  A    between atoms: N1_2  and  C3_5 
REMARK    2  A    between atoms: C3_5  and  C4_6 
ROOT
HETATM    1  C4  UNL     1      20.442 -11.332  20.993  1.00  0.00     0.020 C 
HETATM    2  C5  UNL     1      21.167 -11.671  19.751  1.00  0.00     0.012 C 
HETATM    3  C6  UNL     1      20.359 -11.740  18.505  1.00  0.00     0.075 C 
HETATM    4  C7  UNL     1      18.896 -11.883  18.652  1.00  0.00     0.230 C 
HETATM    5  C8  UNL     1      18.288 -11.468  19.940  1.00  0.00     0.075 C 
HETATM    6  C9  UNL     1      19.170 -10.540  20.750  1.00  0.00     0.012 C 
HETATM    7  O2  UNL     1      18.221 -11.167  17.632  1.00  0.00    -0.195 OA
HETATM    8  O3  UNL     1      16.974 -11.603  17.508  1.00  0.00    -0.194 OA
HETATM    9  C10 UNL     1      16.958 -12.894  16.956  1.00  0.00     0.237 C 
HETATM   10  O4  UNL     1      18.209 -13.438  17.174  1.00  0.00    -0.194 OA
HETATM   11  O5  UNL     1      18.513 -13.229  18.435  1.00  0.00    -0.195 OA
HETATM   12  C11 UNL     1      15.931 -13.696  17.703  1.00  0.00     0.055 C 
HETATM   13  C12 UNL     1      15.678 -15.041  17.087  1.00  0.00     0.015 C 
HETATM   14  C13 UNL     1      15.259 -14.869  15.646  1.00  0.00    -0.013 C 
HETATM   15  C14 UNL     1      13.992 -14.063  15.555  1.00  0.00     0.009 C 
HETATM   16  C15 UNL     1      14.232 -12.722  16.213  1.00  0.00    -0.013 C 
HETATM   17  C16 UNL     1      14.624 -12.916  17.646  1.00  0.00     0.015 C 
HETATM   18  C17 UNL     1      15.284 -11.971  15.449  1.00  0.00     0.015 C 
HETATM   19  C18 UNL     1      16.585 -12.784  15.509  1.00  0.00     0.055 C 
HETATM   20  C19 UNL     1      16.329 -14.111  14.866  1.00  0.00     0.015 C 
ENDROOT
BRANCH   1  21
HETATM   21  C3  UNL     1      21.269 -10.567  21.978  1.00  0.00     0.315 C 
BRANCH  21  22
HETATM   22  N1  UNL     1      21.471 -11.171  23.251  1.00  0.00     0.005 N 
HETATM   23  C1  UNL     1      22.806 -11.011  23.794  1.00  0.00     0.355 C 
HETATM   24  C2  UNL     1      21.066 -12.555  23.334  1.00  0.00     0.355 C 
HETATM   25  O1  UNL     1      20.650 -10.471  24.118  1.00  0.00    -0.065 OA
ENDBRANCH  21  22
ENDBRANCH   1  21
TORSDOF 2
ENDMDL
MODEL 3
REMARK VINA RESULT: -8.334292881     10.035     13.244
REMARK  2 active torsions:
REMARK  status: ('A' for Active; 'I' for Inactive)
REMARK    1  A    between atoms: N1_2  and  C3_5 
REMARK    2  A    between atoms: C3_5  and  C4_6 
ROOT
HETATM    1  C4  UNL     1       8.992  -9.253  21.391  1.00  0.00     0.020 C 
HETATM    2  C5  UNL     1       9.670  -8.120  20.729  1.00  0.00     0.012 C 
HETATM    3  C6  UNL     1      10.698  -7.401  21.526  1.00  0.00     0.075 C 
HETATM    4  C7  UNL     1      10.669  -7.581  22.993  1.00  0.00     0.230 C 
HETATM    5  C8  UNL     1       9.987  -8.785  23.526  1.00  0.00     0.075 C 
HETATM    6  C9  UNL     1       9.817  -9.885  22.498  1.00  0.00     0.012 C 
HETATM    7  O2  UNL     1      11.984  -7.589  23.519  1.00  0.00    -0.195 OA
HETATM    8  O3  UNL     1      11.963  -7.345  24.823  1.00  0.00    -0.194 OA
HETATM    9  C10 UNL     1      11.607  -6.008  25.067  1.00  0.00     0.237 C 
HETATM   10  O4  UNL     1      10.956  -5.556  23.936  1.00  0.00    -0.194 OA
HETATM   11  O5  UNL     1      10.061  -6.460  23.609  1.00  0.00    -0.195 OA
HETATM   12  C11 UNL     1      10.653  -5.995  26.227  1.00  0.00     0.055 C 
HETATM   13  C12 UNL     1      10.343  -4.609  26.712  1.00  0.00     0.015 C 
HETATM   14  C13 UNL     1      11.625  -3.901  27.082  1.00  0.00    -0.013 C 
HETATM   15  C14 UNL     1      12.339  -4.637  28.183  1.00  0.00     0.009 C 
HETATM   16  C15 UNL     1      12.615  -6.048  27.711  1.00  0.00    -0.013 C 
HETATM   17  C16 UNL     1      11.329  -6.737  27.372  1.00  0.00     0.015 C 
HETATM   18  C17 UNL     1      13.547  -6.008  26.535  1.00  0.00     0.015 C 
HETATM   19  C18 UNL     1      12.850  -5.243  25.402  1.00  0.00     0.055 C 
HETATM   20  C19 UNL     1      12.572  -3.854  25.887  1.00  0.00     0.015 C 
ENDROOT
BRANCH   1  21
HETATM   21  C3  UNL     1       8.591 -10.344  20.448  1.00  0.00     0.315 C 
BRANCH  21  22
HETATM   22  N1  UNL     1       7.232 -10.765  20.496  1.00  0.00     0.005 N 
HETATM   23  C1  UNL     1       6.690 -10.917  21.832  1.00  0.00     0.355 C 
HETATM   24  C2  UNL     1       6.935 -11.937  19.705  1.00  0.00     0.355 C 
HETATM   25  O1  UNL     1       6.511  -9.725  19.937  1.00  0.00    -0.065 OA
ENDBRANCH  21  22
ENDBRANCH   1  21
TORSDOF 2
ENDMDL
MODEL 4
REMARK VINA RESULT: -8.280402701      1.392      2.236
REMARK  2 active torsions:
REMARK  status: ('A' for Active; 'I' for Inactive)
REMARK    1  A    between atoms: N1_2  and  C3_5 
REMARK    2  A    between atoms: C3_5  and  C4_6 
ROOT
HETATM    1  C4  UNL     1      20.415 -11.574  20.814  1.00  0.00     0.020 C 
HETATM    2  C5  UNL     1      19.346 -10.561  20.924  1.00  0.00     0.012 C 
HETATM    3  C6  UNL     1      18.022 -10.924  20.351  1.00  0.00     0.075 C 
HETATM    4  C7  UNL     1      17.985 -12.038  19.381  1.00  0.00     0.230 C 
HETATM    5  C8  UNL     1      19.105 -13.009  19.403  1.00  0.00     0.075 C 
HETATM    6  C9  UNL     1      19.890 -12.994  20.699  1.00  0.00     0.012 C 
HETATM    7  O2  UNL     1      16.791 -12.786  19.529  1.00  0.00    -0.195 OA
HETATM    8  O3  UNL     1      16.558 -13.507  18.440  1.00  0.00    -0.194 OA
HETATM    9  C10 UNL     1      16.197 -12.675  17.368  1.00  0.00     0.237 C 
HETATM   10  O4  UNL     1      16.660 -11.409  17.671  1.00  0.00    -0.194 OA
HETATM   11  O5  UNL     1      17.909 -11.531  18.061  1.00  0.00    -0.195 OA
HETATM   12  C11 UNL     1      16.901 -13.180  16.141  1.00  0.00     0.055 C 
HETATM   13  C12 UNL     1      16.452 -12.493  14.885  1.00  0.00     0.015 C 
HETATM   14  C13 UNL     1      14.957 -12.646  14.730  1.00  0.00    -0.013 C 
HETATM   15  C14 UNL     1      14.579 -14.099  14.633  1.00  0.00     0.009 C 
HETATM   16  C15 UNL     1      15.069 -14.802  15.881  1.00  0.00    -0.013 C 
HETATM   17  C16 UNL     1      16.555 -14.657  16.002  1.00  0.00     0.015 C 
HETATM   18  C17 UNL     1      14.359 -14.243  17.080  1.00  0.00     0.015 C 
HETATM   19  C18 UNL     1      14.712 -12.754  17.189  1.00  0.00     0.055 C 
HETATM   20  C19 UNL     1      14.233 -12.074  15.945  1.00  0.00     0.015 C 
ENDROOT
BRANCH   1  21
HETATM   21  C3  UNL     1      21.387 -11.544  21.951  1.00  0.00     0.315 C 
BRANCH  21  22
HETATM   22  N1  UNL     1      22.759 -11.743  21.628  1.00  0.00     0.005 N 
HETATM   23  C1  UNL     1      23.253 -13.083  21.882  1.00  0.00     0.355 C 
HETATM   24  C2  UNL     1      23.661 -10.767  22.194  1.00  0.00     0.355 C 
HETATM   25  O1  UNL     1      22.833 -11.592  20.255  1.00  0.00    -0.065 OA
ENDBRANCH  21  22
ENDBRANCH   1  21
TORSDOF 2
ENDMDL
MODEL 5
REMARK VINA RESULT: -8.228145278      2.853      3.462
REMARK  2 active torsions:
REMARK  status: ('A' for Active; 'I' for Inactive)
REMARK    1  A    between atoms: N1_2  and  C3_5 
REMARK    2  A    between atoms: C3_5  and  C4_6 
ROOT
HETATM    1  C4  UNL     1      17.641  -9.399  21.309  1.00  0.00     0.020 C 
HETATM    2  C5  UNL     1      16.164  -9.418  21.311  1.00  0.00     0.012 C 
HETATM    3  C6  UNL     1      15.510 -10.531  20.572  1.00  0.00     0.075 C 
HETATM    4  C7  UNL     1      16.328 -11.257  19.578  1.00  0.00     0.230 C 
HETATM    5  C8  UNL     1      17.803 -11.187  19.714  1.00  0.00     0.075 C 
HETATM    6  C9  UNL     1      18.260 -10.769  21.097  1.00  0.00     0.012 C 
HETATM    7  O2  UNL     1      15.984 -12.631  19.560  1.00  0.00    -0.195 OA
HETATM    8  O3  UNL     1      16.397 -13.198  18.434  1.00  0.00    -0.194 OA
HETATM    9  C10 UNL     1      15.637 -12.739  17.345  1.00  0.00     0.237 C 
HETATM   10  O4  UNL     1      15.067 -11.542  17.734  1.00  0.00    -0.194 OA
HETATM   11  O5  UNL     1      16.016 -10.810  18.271  1.00  0.00    -0.195 OA
HETATM   12  C11 UNL     1      16.580 -12.491  16.203  1.00  0.00     0.055 C 
HETATM   13  C12 UNL     1      15.871 -12.179  14.918  1.00  0.00     0.015 C 
HETATM   14  C13 UNL     1      14.920 -13.301  14.576  1.00  0.00    -0.013 C 
HETATM   15  C14 UNL     1      15.667 -14.595  14.400  1.00  0.00     0.009 C 
HETATM   16  C15 UNL     1      16.416 -14.890  15.681  1.00  0.00    -0.013 C 
HETATM   17  C16 UNL     1      17.369 -13.776  15.987  1.00  0.00     0.015 C 
HETATM   18  C17 UNL     1      15.434 -15.100  16.797  1.00  0.00     0.015 C 
HETATM   19  C18 UNL     1      14.643 -13.799  16.984  1.00  0.00     0.055 C 
HETATM   20  C19 UNL     1      13.918 -13.513  15.706  1.00  0.00     0.015 C 
ENDROOT
BRANCH   1  21
HETATM   21  C3  UNL     1      18.233  -8.824  22.558  1.00  0.00     0.315 C 
BRANCH  21  22
HETATM   22  N1  UNL     1      17.677  -7.601  23.027  1.00  0.00     0.005 N 
HETATM   23  C1  UNL     1      18.649  -6.568  23.327  1.00  0.00     0.355 C 
HETATM   24  C2  UNL     1      16.750  -7.742  24.126  1.00  0.00     0.355 C 
HETATM   25  O1  UNL     1      16.946  -7.103  21.963  1.00  0.00    -0.065 OA
ENDBRANCH  21  22
ENDBRANCH   1  21
TORSDOF 2
ENDMDL
