MODEL 1
REMARK VINA RESULT: -7.331742378      0.000      0.000
REMARK  7 active torsions:
REMARK  status: ('A' for Active; 'I' for Inactive)
REMARK    1  A    between atoms: C1_1  and  C2_2 
REMARK    2  A    between atoms: C1_1  and  O3_19 
REMARK    3  A    between atoms: C2_2  and  N1_3 
REMARK    4  A    between atoms: C6_8  and  C7_9 
REMARK    5  A    between atoms: C8_13  and  C9_14 
REMARK    6  A    between atoms: O3_19  and  C12_20 
REMARK    7  A    between atoms: C12_20  and  C13_21 
ROOT
HETATM    1  N1  UNL     1      10.471  -8.794  22.150  1.00  0.00    -0.356 N 
HETATM    2  C3  UNL     1       9.648  -8.304  21.122  1.00  0.00     0.090 C 
HETATM    3  C4  UNL     1      10.490  -7.347  20.292  1.00  0.00     0.212 C 
HETATM    4  O1  UNL     1      10.910  -6.255  21.002  1.00  0.00    -0.384 OA
HETATM    5  C5  UNL     1      11.254  -6.484  22.304  1.00  0.00     0.201 C 
HETATM    6  C6  UNL     1      11.427  -7.901  22.697  1.00  0.00     0.181 C 
ENDROOT
BRANCH   6   7
HETATM    7  C7  UNL     1      12.794  -8.424  22.439  1.00  0.00     0.129 A 
HETATM    8  N2  UNL     1      13.229  -9.319  21.552  1.00  0.00    -0.245 N 
HETATM    9  O2  UNL     1      14.495  -9.476  21.686  1.00  0.00    -0.222 OA
ATOM     10  H2  UNL     1      12.645  -9.804  20.872  1.00  0.00     0.196 HD
HETATM   11  C8  UNL     1      14.964  -8.711  22.648  1.00  0.00     0.152 A 
HETATM   12  N3  UNL     1      13.908  -8.044  23.130  1.00  0.00    -0.325 N 
ATOM     13  H3  UNL     1      13.933  -7.363  23.890  1.00  0.00     0.169 HD
BRANCH  11  14
HETATM   14  C9  UNL     1      16.393  -8.615  23.102  1.00  0.00     0.063 A 
HETATM   15  C10 UNL     1      17.264  -7.519  22.493  1.00  0.00     0.013 A 
HETATM   16  C11 UNL     1      17.455  -8.979  22.130  1.00  0.00     0.013 A 
ENDBRANCH  11  14
ENDBRANCH   6   7
BRANCH   1  17
HETATM   17  C2  UNL     1      10.137  -9.935  22.850  1.00  0.00     0.090 C 
BRANCH  17  18
HETATM   18  C1  UNL     1       8.765  -9.991  23.493  1.00  0.00     0.212 C 
BRANCH  18  19
HETATM   19  O3  UNL     1       8.990 -10.282  24.832  1.00  0.00    -0.386 OA
BRANCH  19  20
HETATM   20  C12 UNL     1       9.317  -9.203  25.599  1.00  0.00     0.176 C 
BRANCH  20  21
HETATM   21  C13 UNL     1       9.732  -9.480  27.006  1.00  0.00     0.057 C 
HETATM   22  C14 UNL     1       8.721 -10.456  27.627  1.00  0.00     0.176 C 
HETATM   23  O4  UNL     1       8.862  -9.758  28.803  1.00  0.00    -0.390 OA
HETATM   24  C15 UNL     1       9.133  -8.581  28.069  1.00  0.00     0.176 C 
ENDBRANCH  20  21
ENDBRANCH  19  20
ENDBRANCH  18  19
ENDBRANCH  17  18
ENDBRANCH   1  17
TORSDOF 7
ENDMDL
MODEL 2
REMARK VINA RESULT: -7.209114654      6.988      9.644
REMARK  7 active torsions:
REMARK  status: ('A' for Active; 'I' for Inactive)
REMARK    1  A    between atoms: C1_1  and  C2_2 
REMARK    2  A    between atoms: C1_1  and  O3_19 
REMARK    3  A    between atoms: C2_2  and  N1_3 
REMARK    4  A    between atoms: C6_8  and  C7_9 
REMARK    5  A    between atoms: C8_13  and  C9_14 
REMARK    6  A    between atoms: O3_19  and  C12_20 
REMARK    7  A    between atoms: C12_20  and  C13_21 
ROOT
HETATM    1  N1  UNL     1      16.991 -12.724  18.606  1.00  0.00    -0.356 N 
HETATM    2  C3  UNL     1      17.579 -13.972  18.339  1.00  0.00     0.090 C 
HETATM    3  C4  UNL     1      19.059 -13.848  18.666  1.00  0.00     0.212 C 
HETATM    4  O1  UNL     1      19.705 -12.940  17.871  1.00  0.00    -0.384 OA
HETATM    5  C5  UNL     1      18.999 -11.815  17.553  1.00  0.00     0.201 C 
HETATM    6  C6  UNL     1      17.768 -11.569  18.337  1.00  0.00     0.181 C 
ENDROOT
BRANCH   6   7
HETATM    7  C7  UNL     1      18.011 -10.832  19.604  1.00  0.00     0.129 A 
HETATM    8  N2  UNL     1      19.130 -10.656  20.306  1.00  0.00    -0.245 N 
HETATM    9  O2  UNL     1      18.878  -9.951  21.348  1.00  0.00    -0.222 OA
ATOM     10  H2  UNL     1      20.046 -11.025  20.053  1.00  0.00     0.196 HD
HETATM   11  C8  UNL     1      17.605  -9.625  21.397  1.00  0.00     0.152 A 
HETATM   12  N3  UNL     1      17.047 -10.170  20.309  1.00  0.00    -0.325 N 
ATOM     13  H3  UNL     1      16.062 -10.102  20.048  1.00  0.00     0.169 HD
BRANCH  11  14
HETATM   14  C9  UNL     1      16.927  -8.808  22.461  1.00  0.00     0.063 A 
HETATM   15  C10 UNL     1      17.262  -7.320  22.541  1.00  0.00     0.013 A 
HETATM   16  C11 UNL     1      17.761  -8.304  23.582  1.00  0.00     0.013 A 
ENDBRANCH  11  14
ENDBRANCH   6   7
BRANCH   1  17
HETATM   17  C2  UNL     1      15.625 -12.596  18.762  1.00  0.00     0.090 C 
BRANCH  17  18
HETATM   18  C1  UNL     1      14.831 -12.052  17.591  1.00  0.00     0.212 C 
BRANCH  18  19
HETATM   19  O3  UNL     1      14.258 -13.159  16.979  1.00  0.00    -0.386 OA
BRANCH  19  20
HETATM   20  C12 UNL     1      14.154 -13.065  15.622  1.00  0.00     0.176 C 
BRANCH  20  21
HETATM   21  C13 UNL     1      14.916 -14.067  14.819  1.00  0.00     0.057 C 
HETATM   22  C14 UNL     1      15.337 -15.215  15.750  1.00  0.00     0.176 C 
HETATM   23  O4  UNL     1      16.517 -15.271  15.045  1.00  0.00    -0.390 OA
HETATM   24  C15 UNL     1      16.419 -13.886  14.779  1.00  0.00     0.176 C 
ENDBRANCH  20  21
ENDBRANCH  19  20
ENDBRANCH  18  19
ENDBRANCH  17  18
ENDBRANCH   1  17
TORSDOF 7
ENDMDL
MODEL 3
REMARK VINA RESULT: -7.206588336      7.175      9.443
REMARK  7 active torsions:
REMARK  status: ('A' for Active; 'I' for Inactive)
REMARK    1  A    between atoms: C1_1  and  C2_2 
REMARK    2  A    between atoms: C1_1  and  O3_19 
REMARK    3  A    between atoms: C2_2  and  N1_3 
REMARK    4  A    between atoms: C6_8  and  C7_9 
REMARK    5  A    between atoms: C8_13  and  C9_14 
REMARK    6  A    between atoms: O3_19  and  C12_20 
REMARK    7  A    between atoms: C12_20  and  C13_21 
ROOT
HETATM    1  N1  UNL     1      15.036 -12.791  16.559  1.00  0.00    -0.356 N 
HETATM    2  C3  UNL     1      14.100 -13.833  16.447  1.00  0.00     0.090 C 
HETATM    3  C4  UNL     1      14.838 -15.039  15.887  1.00  0.00     0.212 C 
HETATM    4  O1  UNL     1      15.329 -14.825  14.627  1.00  0.00    -0.384 OA
HETATM    5  C5  UNL     1      15.819 -13.574  14.381  1.00  0.00     0.201 C 
HETATM    6  C6  UNL     1      16.043 -12.712  15.564  1.00  0.00     0.181 C 
ENDROOT
BRANCH   6   7
HETATM    7  C7  UNL     1      17.375 -12.906  16.193  1.00  0.00     0.129 A 
HETATM    8  N2  UNL     1      17.917 -13.981  16.764  1.00  0.00    -0.245 N 
HETATM    9  O2  UNL     1      19.096 -13.696  17.185  1.00  0.00    -0.222 OA
ATOM     10  H2  UNL     1      17.465 -14.890  16.854  1.00  0.00     0.196 HD
HETATM   11  C8  UNL     1      19.398 -12.443  16.921  1.00  0.00     0.152 A 
HETATM   12  N3  UNL     1      18.327 -11.934  16.298  1.00  0.00    -0.325 N 
ATOM     13  H3  UNL     1      18.238 -10.976  15.958  1.00  0.00     0.169 HD
BRANCH  11  14
HETATM   14  C9  UNL     1      20.682 -11.739  17.256  1.00  0.00     0.063 A 
HETATM   15  C10 UNL     1      21.760 -11.669  16.176  1.00  0.00     0.013 A 
HETATM   16  C11 UNL     1      21.909 -12.566  17.391  1.00  0.00     0.013 A 
ENDBRANCH  11  14
ENDBRANCH   6   7
BRANCH   1  17
HETATM   17  C2  UNL     1      14.789 -11.692  17.356  1.00  0.00     0.090 C 
BRANCH  17  18
HETATM   18  C1  UNL     1      14.367 -11.941  18.791  1.00  0.00     0.212 C 
BRANCH  18  19
HETATM   19  O3  UNL     1      15.197 -11.146  19.569  1.00  0.00    -0.386 OA
BRANCH  19  20
HETATM   20  C12 UNL     1      16.531 -11.352  19.368  1.00  0.00     0.176 C 
BRANCH  20  21
HETATM   21  C13 UNL     1      17.447 -10.235  19.745  1.00  0.00     0.057 C 
HETATM   22  C14 UNL     1      18.735 -10.839  20.325  1.00  0.00     0.176 C 
HETATM   23  O4  UNL     1      18.751  -9.793  21.217  1.00  0.00    -0.390 OA
HETATM   24  C15 UNL     1      17.340  -9.737  21.172  1.00  0.00     0.176 C 
ENDBRANCH  20  21
ENDBRANCH  19  20
ENDBRANCH  18  19
ENDBRANCH  17  18
ENDBRANCH   1  17
TORSDOF 7
ENDMDL
MODEL 4
REMARK VINA RESULT: -7.165023830      5.992      8.400
REMARK  7 active torsions:
REMARK  status: ('A' for Active; 'I' for Inactive)
REMARK    1  A    between atoms: C1_1  and  C2_2 
REMARK    2  A    between atoms: C1_1  and  O3_19 
REMARK    3  A    between atoms: C2_2  and  N1_3 
REMARK    4  A    between atoms: C6_8  and  C7_9 
REMARK    5  A    between atoms: C8_13  and  C9_14 
REMARK    6  A    between atoms: O3_19  and  C12_20 
REMARK    7  A    between atoms: C12_20  and  C13_21 
ROOT
HETATM    1  N1  UNL     1      14.894 -12.819  16.721  1.00  0.00    -0.356 N 
HETATM    2  C3  UNL     1      14.088 -13.892  16.303  1.00  0.00     0.090 C 
HETATM    3  C4  UNL     1      15.013 -14.940  15.704  1.00  0.00     0.212 C 
HETATM    4  O1  UNL     1      15.670 -14.494  14.588  1.00  0.00    -0.384 OA
HETATM    5  C5  UNL     1      16.072 -13.188  14.613  1.00  0.00     0.201 C 
HETATM    6  C6  UNL     1      16.029 -12.514  15.930  1.00  0.00     0.181 C 
ENDROOT
BRANCH   6   7
HETATM    7  C7  UNL     1      17.261 -12.713  16.736  1.00  0.00     0.129 A 
HETATM    8  N2  UNL     1      18.048 -13.780  16.870  1.00  0.00    -0.245 N 
HETATM    9  O2  UNL     1      19.006 -13.509  17.680  1.00  0.00    -0.222 OA
ATOM     10  H2  UNL     1      17.910 -14.675  16.401  1.00  0.00     0.196 HD
HETATM   11  C8  UNL     1      18.913 -12.273  18.120  1.00  0.00     0.152 A 
HETATM   12  N3  UNL     1      17.822 -11.760  17.536  1.00  0.00    -0.325 N 
ATOM     13  H3  UNL     1      17.469 -10.812  17.668  1.00  0.00     0.169 HD
BRANCH  11  14
HETATM   14  C9  UNL     1      19.844 -11.589  19.080  1.00  0.00     0.063 A 
HETATM   15  C10 UNL     1      19.955 -12.155  20.494  1.00  0.00     0.013 A 
HETATM   16  C11 UNL     1      19.242 -10.845  20.216  1.00  0.00     0.013 A 
ENDBRANCH  11  14
ENDBRANCH   6   7
BRANCH   1  17
HETATM   17  C2  UNL     1      14.425 -11.881  17.618  1.00  0.00     0.090 C 
BRANCH  17  18
HETATM   18  C1  UNL     1      14.636 -12.151  19.095  1.00  0.00     0.212 C 
BRANCH  18  19
HETATM   19  O3  UNL     1      15.461 -11.131  19.549  1.00  0.00    -0.386 OA
BRANCH  19  20
HETATM   20  C12 UNL     1      14.936 -10.386  20.563  1.00  0.00     0.176 C 
BRANCH  20  21
HETATM   21  C13 UNL     1      15.906  -9.660  21.435  1.00  0.00     0.057 C 
HETATM   22  C14 UNL     1      15.133  -8.617  22.256  1.00  0.00     0.176 C 
HETATM   23  O4  UNL     1      16.215  -7.782  22.101  1.00  0.00    -0.390 OA
HETATM   24  C15 UNL     1      16.502  -8.392  20.858  1.00  0.00     0.176 C 
ENDBRANCH  20  21
ENDBRANCH  19  20
ENDBRANCH  18  19
ENDBRANCH  17  18
ENDBRANCH   1  17
TORSDOF 7
ENDMDL
MODEL 5
REMARK VINA RESULT: -7.146737411      7.997      9.868
REMARK  7 active torsions:
REMARK  status: ('A' for Active; 'I' for Inactive)
REMARK    1  A    between atoms: C1_1  and  C2_2 
REMARK    2  A    between atoms: C1_1  and  O3_19 
REMARK    3  A    between atoms: C2_2  and  N1_3 
REMARK    4  A    between atoms: C6_8  and  C7_9 
REMARK    5  A    between atoms: C8_13  and  C9_14 
REMARK    6  A    between atoms: O3_19  and  C12_20 
REMARK    7  A    between atoms: C12_20  and  C13_21 
ROOT
HETATM    1  N1  UNL     1      17.534 -12.781  18.650  1.00  0.00    -0.356 N 
HETATM    2  C3  UNL     1      17.985 -14.026  18.177  1.00  0.00     0.090 C 
HETATM    3  C4  UNL     1      19.502 -14.022  18.282  1.00  0.00     0.212 C 
HETATM    4  O1  UNL     1      20.088 -13.073  17.487  1.00  0.00    -0.384 OA
HETATM    5  C5  UNL     1      19.426 -11.883  17.391  1.00  0.00     0.201 C 
HETATM    6  C6  UNL     1      18.345 -11.651  18.376  1.00  0.00     0.181 C 
ENDROOT
BRANCH   6   7
HETATM    7  C7  UNL     1      18.825 -11.066  19.654  1.00  0.00     0.129 A 
HETATM    8  N2  UNL     1      18.225 -10.240  20.510  1.00  0.00    -0.245 N 
HETATM    9  O2  UNL     1      19.017  -9.984  21.488  1.00  0.00    -0.222 OA
ATOM     10  H2  UNL     1      17.282  -9.867  20.405  1.00  0.00     0.196 HD
HETATM   11  C8  UNL     1      20.163 -10.612  21.340  1.00  0.00     0.152 A 
HETATM   12  N3  UNL     1      20.057 -11.297  20.193  1.00  0.00    -0.325 N 
ATOM     13  H3  UNL     1      20.780 -11.893  19.789  1.00  0.00     0.169 HD
BRANCH  11  14
HETATM   14  C9  UNL     1      21.340 -10.565  22.272  1.00  0.00     0.063 A 
HETATM   15  C10 UNL     1      21.325 -11.487  23.489  1.00  0.00     0.013 A 
HETATM   16  C11 UNL     1      21.129  -9.989  23.625  1.00  0.00     0.013 A 
ENDBRANCH  11  14
ENDBRANCH   6   7
BRANCH   1  17
HETATM   17  C2  UNL     1      16.220 -12.593  19.025  1.00  0.00     0.090 C 
BRANCH  17  18
HETATM   18  C1  UNL     1      15.404 -11.577  18.250  1.00  0.00     0.212 C 
BRANCH  18  19
HETATM   19  O3  UNL     1      15.222 -12.126  16.988  1.00  0.00    -0.386 OA
BRANCH  19  20
HETATM   20  C12 UNL     1      13.964 -12.600  16.753  1.00  0.00     0.176 C 
BRANCH  20  21
HETATM   21  C13 UNL     1      13.827 -13.645  15.696  1.00  0.00     0.057 C 
HETATM   22  C14 UNL     1      14.983 -14.645  15.850  1.00  0.00     0.176 C 
HETATM   23  O4  UNL     1      15.023 -14.716  14.477  1.00  0.00    -0.390 OA
HETATM   24  C15 UNL     1      14.563 -13.382  14.398  1.00  0.00     0.176 C 
ENDBRANCH  20  21
ENDBRANCH  19  20
ENDBRANCH  18  19
ENDBRANCH  17  18
ENDBRANCH   1  17
TORSDOF 7
ENDMDL
