MODEL 1
REMARK VINA RESULT: -6.900886861      0.000      0.000
REMARK  9 active torsions:
REMARK  status: ('A' for Active; 'I' for Inactive)
REMARK    1  A    between atoms: C2_2  and  C3_3 
REMARK    2  A    between atoms: C3_3  and  O1_4 
REMARK    3  A    between atoms: O1_4  and  C4_5 
REMARK    4  A    between atoms: C4_5  and  C5_6 
REMARK    5  A    between atoms: C4_5  and  C12_17 
REMARK    6  A    between atoms: C5_6  and  C6_7 
REMARK    7  A    between atoms: C6_7  and  C8_9 
REMARK    8  A    between atoms: C8_9  and  O3_11 
REMARK    9  A    between atoms: O3_11  and  C9_12 
ROOT
HETATM    1  C4  UNL     1      17.321 -11.625  18.278  1.00  0.00     0.190 C 
ENDROOT
BRANCH   1   2
HETATM    2  O1  UNL     1      17.601 -10.470  18.906  1.00  0.00    -0.351 OA
BRANCH   2   3
HETATM    3  C3  UNL     1      18.022 -10.588  20.178  1.00  0.00     0.135 C 
BRANCH   3   4
HETATM    4  C2  UNL     1      17.708  -9.658  21.227  1.00  0.00     0.014 C 
HETATM    5  C1  UNL     1      16.582  -9.348  21.790  1.00  0.00     0.013 C 
ENDBRANCH   3   4
ENDBRANCH   2   3
ENDBRANCH   1   2
BRANCH   1   6
HETATM    6  C5  UNL     1      16.325 -12.493  19.061  1.00  0.00     0.083 C 
BRANCH   6   7
HETATM    7  C6  UNL     1      14.942 -12.086  18.988  1.00  0.00     0.011 C 
HETATM    8  C7  UNL     1      14.211 -11.510  19.913  1.00  0.00     0.025 C 
BRANCH   7   9
HETATM    9  C8  UNL     1      14.243 -12.347  17.706  1.00  0.00     0.292 C 
HETATM   10  O2  UNL     1      13.506 -11.465  17.209  1.00  0.00    -0.259 OA
BRANCH   9  11
HETATM   11  O3  UNL     1      14.364 -13.530  17.021  1.00  0.00    -0.261 OA
BRANCH  11  12
HETATM   12  C9  UNL     1      15.140 -13.603  15.846  1.00  0.00     0.421 C 
HETATM   13  O4  UNL     1      14.316 -13.798  14.714  1.00  0.00    -0.337 OA
HETATM   14  C10 UNL     1      15.273 -13.704  13.694  1.00  0.00     0.199 C 
HETATM   15  C11 UNL     1      16.220 -12.627  14.229  1.00  0.00     0.199 C 
HETATM   16  O5  UNL     1      15.750 -12.400  15.521  1.00  0.00    -0.337 OA
ENDBRANCH  11  12
ENDBRANCH   9  11
ENDBRANCH   7   9
ENDBRANCH   6   7
ENDBRANCH   1   6
BRANCH   1  17
HETATM   17  C12 UNL     1      18.394 -12.477  17.798  1.00  0.00     0.097 C 
HETATM   18  C13 UNL     1      18.408 -13.778  17.671  1.00  0.00     0.169 C 
HETATM   19  O6  UNL     1      19.539 -14.404  17.191  1.00  0.00    -0.358 OA
HETATM   20  C14 UNL     1      20.832 -13.853  17.180  1.00  0.00     0.201 C 
HETATM   21  C15 UNL     1      20.845 -12.376  17.407  1.00  0.00     0.202 C 
HETATM   22  O7  UNL     1      19.576 -11.808  17.420  1.00  0.00    -0.349 OA
ENDBRANCH   1  17
TORSDOF 9
ENDMDL
MODEL 2
REMARK VINA RESULT: -6.777053068      7.227     10.674
REMARK  9 active torsions:
REMARK  status: ('A' for Active; 'I' for Inactive)
REMARK    1  A    between atoms: C2_2  and  C3_3 
REMARK    2  A    between atoms: C3_3  and  O1_4 
REMARK    3  A    between atoms: O1_4  and  C4_5 
REMARK    4  A    between atoms: C4_5  and  C5_6 
REMARK    5  A    between atoms: C4_5  and  C12_17 
REMARK    6  A    between atoms: C5_6  and  C6_7 
REMARK    7  A    between atoms: C6_7  and  C8_9 
REMARK    8  A    between atoms: C8_9  and  O3_11 
REMARK    9  A    between atoms: O3_11  and  C9_12 
ROOT
HETATM    1  C4  UNL     1      11.406  -7.439  22.119  1.00  0.00     0.190 C 
ENDROOT
BRANCH   1   2
HETATM    2  O1  UNL     1      12.511  -7.999  21.595  1.00  0.00    -0.351 OA
BRANCH   2   3
HETATM    3  C3  UNL     1      13.348  -8.567  22.481  1.00  0.00     0.135 C 
BRANCH   3   4
HETATM    4  C2  UNL     1      14.623  -9.138  22.143  1.00  0.00     0.014 C 
HETATM    5  C1  UNL     1      15.827  -8.822  22.506  1.00  0.00     0.013 C 
ENDBRANCH   3   4
ENDBRANCH   2   3
ENDBRANCH   1   2
BRANCH   1   6
HETATM    6  C5  UNL     1      10.156  -7.698  21.265  1.00  0.00     0.083 C 
BRANCH   6   7
HETATM    7  C6  UNL     1       9.414  -8.894  21.581  1.00  0.00     0.011 C 
HETATM    8  C7  UNL     1       8.616  -9.588  20.804  1.00  0.00     0.025 C 
BRANCH   7   9
HETATM    9  C8  UNL     1       9.562  -9.420  22.960  1.00  0.00     0.292 C 
HETATM   10  O2  UNL     1      10.343 -10.374  23.180  1.00  0.00    -0.259 OA
BRANCH   9  11
HETATM   11  O3  UNL     1       8.875  -8.905  24.030  1.00  0.00    -0.261 OA
BRANCH  11  12
HETATM   12  C9  UNL     1       9.397  -9.008  25.335  1.00  0.00     0.421 C 
HETATM   13  O4  UNL     1       8.948  -7.935  26.140  1.00  0.00    -0.337 OA
HETATM   14  C10 UNL     1       9.473  -8.323  27.380  1.00  0.00     0.199 C 
HETATM   15  C11 UNL     1       9.322  -9.845  27.341  1.00  0.00     0.199 C 
HETATM   16  O5  UNL     1       8.893 -10.092  26.038  1.00  0.00    -0.337 OA
ENDBRANCH  11  12
ENDBRANCH   9  11
ENDBRANCH   7   9
ENDBRANCH   6   7
ENDBRANCH   1   6
BRANCH   1  17
HETATM   17  C12 UNL     1      11.410  -6.043  22.517  1.00  0.00     0.097 C 
HETATM   18  C13 UNL     1      10.972  -5.510  23.627  1.00  0.00     0.169 C 
HETATM   19  O6  UNL     1      11.068  -4.148  23.814  1.00  0.00    -0.358 OA
HETATM   20  C14 UNL     1      11.229  -3.195  22.793  1.00  0.00     0.201 C 
HETATM   21  C15 UNL     1      11.650  -3.794  21.490  1.00  0.00     0.202 C 
HETATM   22  O7  UNL     1      11.960  -5.147  21.578  1.00  0.00    -0.349 OA
ENDBRANCH   1  17
TORSDOF 9
ENDMDL
MODEL 3
REMARK VINA RESULT: -6.605974569      1.967      5.390
REMARK  9 active torsions:
REMARK  status: ('A' for Active; 'I' for Inactive)
REMARK    1  A    between atoms: C2_2  and  C3_3 
REMARK    2  A    between atoms: C3_3  and  O1_4 
REMARK    3  A    between atoms: O1_4  and  C4_5 
REMARK    4  A    between atoms: C4_5  and  C5_6 
REMARK    5  A    between atoms: C4_5  and  C12_17 
REMARK    6  A    between atoms: C5_6  and  C6_7 
REMARK    7  A    between atoms: C6_7  and  C8_9 
REMARK    8  A    between atoms: C8_9  and  O3_11 
REMARK    9  A    between atoms: O3_11  and  C9_12 
ROOT
HETATM    1  C4  UNL     1      17.006 -11.744  18.885  1.00  0.00     0.190 C 
ENDROOT
BRANCH   1   2
HETATM    2  O1  UNL     1      16.257 -10.640  19.059  1.00  0.00    -0.351 OA
BRANCH   2   3
HETATM    3  C3  UNL     1      15.830 -10.421  20.315  1.00  0.00     0.135 C 
BRANCH   3   4
HETATM    4  C2  UNL     1      16.098  -9.226  21.066  1.00  0.00     0.014 C 
HETATM    5  C1  UNL     1      16.675  -9.045  22.214  1.00  0.00     0.013 C 
ENDBRANCH   3   4
ENDBRANCH   2   3
ENDBRANCH   1   2
BRANCH   1   6
HETATM    6  C5  UNL     1      18.431 -11.418  18.417  1.00  0.00     0.083 C 
BRANCH   6   7
HETATM    7  C6  UNL     1      19.454 -11.452  19.435  1.00  0.00     0.011 C 
HETATM    8  C7  UNL     1      19.486 -10.814  20.581  1.00  0.00     0.025 C 
BRANCH   7   9
HETATM    9  C8  UNL     1      20.626 -12.319  19.164  1.00  0.00     0.292 C 
HETATM   10  O2  UNL     1      20.518 -13.563  19.272  1.00  0.00    -0.259 OA
BRANCH   9  11
HETATM   11  O3  UNL     1      21.850 -11.821  18.794  1.00  0.00    -0.261 OA
BRANCH  11  12
HETATM   12  C9  UNL     1      22.327 -11.994  17.478  1.00  0.00     0.421 C 
HETATM   13  O4  UNL     1      21.547 -11.251  16.563  1.00  0.00    -0.337 OA
HETATM   14  C10 UNL     1      22.276 -11.469  15.386  1.00  0.00     0.199 C 
HETATM   15  C11 UNL     1      23.721 -11.480  15.890  1.00  0.00     0.199 C 
HETATM   16  O5  UNL     1      23.578 -11.430  17.275  1.00  0.00    -0.337 OA
ENDBRANCH  11  12
ENDBRANCH   9  11
ENDBRANCH   7   9
ENDBRANCH   6   7
ENDBRANCH   1   6
BRANCH   1  17
HETATM   17  C12 UNL     1      16.505 -12.854  18.095  1.00  0.00     0.097 C 
HETATM   18  C13 UNL     1      17.141 -13.922  17.693  1.00  0.00     0.169 C 
HETATM   19  O6  UNL     1      16.477 -14.870  16.943  1.00  0.00    -0.358 OA
HETATM   20  C14 UNL     1      15.293 -14.651  16.219  1.00  0.00     0.201 C 
HETATM   21  C15 UNL     1      14.591 -13.389  16.605  1.00  0.00     0.202 C 
HETATM   22  O7  UNL     1      15.150 -12.762  17.713  1.00  0.00    -0.349 OA
ENDBRANCH   1  17
TORSDOF 9
ENDMDL
MODEL 4
REMARK VINA RESULT: -6.584714203      1.837      5.304
REMARK  9 active torsions:
REMARK  status: ('A' for Active; 'I' for Inactive)
REMARK    1  A    between atoms: C2_2  and  C3_3 
REMARK    2  A    between atoms: C3_3  and  O1_4 
REMARK    3  A    between atoms: O1_4  and  C4_5 
REMARK    4  A    between atoms: C4_5  and  C5_6 
REMARK    5  A    between atoms: C4_5  and  C12_17 
REMARK    6  A    between atoms: C5_6  and  C6_7 
REMARK    7  A    between atoms: C6_7  and  C8_9 
REMARK    8  A    between atoms: C8_9  and  O3_11 
REMARK    9  A    between atoms: O3_11  and  C9_12 
ROOT
HETATM    1  C4  UNL     1      17.192 -13.558  17.828  1.00  0.00     0.190 C 
ENDROOT
BRANCH   1   2
HETATM    2  O1  UNL     1      16.520 -14.601  17.310  1.00  0.00    -0.351 OA
BRANCH   2   3
HETATM    3  C3  UNL     1      15.739 -14.320  16.252  1.00  0.00     0.135 C 
BRANCH   3   4
HETATM    4  C2  UNL     1      16.154 -14.436  14.881  1.00  0.00     0.014 C 
HETATM    5  C1  UNL     1      16.128 -13.585  13.903  1.00  0.00     0.013 C 
ENDBRANCH   3   4
ENDBRANCH   2   3
ENDBRANCH   1   2
BRANCH   1   6
HETATM    6  C5  UNL     1      16.426 -12.236  17.684  1.00  0.00     0.083 C 
BRANCH   6   7
HETATM    7  C6  UNL     1      15.841 -11.711  18.894  1.00  0.00     0.011 C 
HETATM    8  C7  UNL     1      14.678 -11.999  19.430  1.00  0.00     0.025 C 
BRANCH   7   9
HETATM    9  C8  UNL     1      16.648 -10.716  19.640  1.00  0.00     0.292 C 
HETATM   10  O2  UNL     1      16.099  -9.988  20.499  1.00  0.00    -0.259 OA
BRANCH   9  11
HETATM   11  O3  UNL     1      17.994 -10.546  19.435  1.00  0.00    -0.261 OA
BRANCH  11  12
HETATM   12  C9  UNL     1      18.923 -10.896  20.437  1.00  0.00     0.421 C 
HETATM   13  O4  UNL     1      20.214 -11.061  19.886  1.00  0.00    -0.337 OA
HETATM   14  C10 UNL     1      20.957 -11.264  21.057  1.00  0.00     0.199 C 
HETATM   15  C11 UNL     1      20.265 -10.329  22.052  1.00  0.00     0.199 C 
HETATM   16  O5  UNL     1      19.154  -9.873  21.345  1.00  0.00    -0.337 OA
ENDBRANCH  11  12
ENDBRANCH   9  11
ENDBRANCH   7   9
ENDBRANCH   6   7
ENDBRANCH   1   6
BRANCH   1  17
HETATM   17  C12 UNL     1      18.579 -13.327  17.466  1.00  0.00     0.097 C 
HETATM   18  C13 UNL     1      19.644 -13.974  17.861  1.00  0.00     0.169 C 
HETATM   19  O6  UNL     1      20.885 -13.593  17.396  1.00  0.00    -0.358 OA
HETATM   20  C14 UNL     1      21.197 -12.340  16.842  1.00  0.00     0.201 C 
HETATM   21  C15 UNL     1      19.989 -11.548  16.458  1.00  0.00     0.202 C 
HETATM   22  O7  UNL     1      18.802 -12.263  16.568  1.00  0.00    -0.349 OA
ENDBRANCH   1  17
TORSDOF 9
ENDMDL
MODEL 5
REMARK VINA RESULT: -6.558432595      3.128      5.760
REMARK  9 active torsions:
REMARK  status: ('A' for Active; 'I' for Inactive)
REMARK    1  A    between atoms: C2_2  and  C3_3 
REMARK    2  A    between atoms: C3_3  and  O1_4 
REMARK    3  A    between atoms: O1_4  and  C4_5 
REMARK    4  A    between atoms: C4_5  and  C5_6 
REMARK    5  A    between atoms: C4_5  and  C12_17 
REMARK    6  A    between atoms: C5_6  and  C6_7 
REMARK    7  A    between atoms: C6_7  and  C8_9 
REMARK    8  A    between atoms: C8_9  and  O3_11 
REMARK    9  A    between atoms: O3_11  and  C9_12 
ROOT
HETATM    1  C4  UNL     1      15.752 -12.007  18.766  1.00  0.00     0.190 C 
ENDROOT
BRANCH   1   2
HETATM    2  O1  UNL     1      16.637 -12.842  19.338  1.00  0.00    -0.351 OA
BRANCH   2   3
HETATM    3  C3  UNL     1      17.928 -12.612  19.040  1.00  0.00     0.135 C 
BRANCH   3   4
HETATM    4  C2  UNL     1      18.605 -11.365  19.268  1.00  0.00     0.014 C 
HETATM    5  C1  UNL     1      19.351 -10.961  20.248  1.00  0.00     0.013 C 
ENDBRANCH   3   4
ENDBRANCH   2   3
ENDBRANCH   1   2
BRANCH   1   6
HETATM    6  C5  UNL     1      14.593 -11.646  19.705  1.00  0.00     0.083 C 
BRANCH   6   7
HETATM    7  C6  UNL     1      14.803 -10.497  20.553  1.00  0.00     0.011 C 
HETATM    8  C7  UNL     1      15.872  -9.743  20.656  1.00  0.00     0.025 C 
BRANCH   7   9
HETATM    9  C8  UNL     1      13.670 -10.106  21.427  1.00  0.00     0.292 C 
HETATM   10  O2  UNL     1      13.885  -9.417  22.451  1.00  0.00    -0.259 OA
BRANCH   9  11
HETATM   11  O3  UNL     1      12.372 -10.466  21.168  1.00  0.00    -0.261 OA
BRANCH  11  12
HETATM   12  C9  UNL     1      11.313  -9.575  21.437  1.00  0.00     0.421 C 
HETATM   13  O4  UNL     1      10.514  -9.386  20.285  1.00  0.00    -0.337 OA
HETATM   14  C10 UNL     1       9.489  -8.597  20.825  1.00  0.00     0.199 C 
HETATM   15  C11 UNL     1       9.325  -9.184  22.229  1.00  0.00     0.199 C 
HETATM   16  O5  UNL     1      10.379 -10.092  22.322  1.00  0.00    -0.337 OA
ENDBRANCH  11  12
ENDBRANCH   9  11
ENDBRANCH   7   9
ENDBRANCH   6   7
ENDBRANCH   1   6
BRANCH   1  17
HETATM   17  C12 UNL     1      15.205 -12.306  17.455  1.00  0.00     0.097 C 
HETATM   18  C13 UNL     1      14.018 -12.761  17.150  1.00  0.00     0.169 C 
HETATM   19  O6  UNL     1      13.690 -12.979  15.829  1.00  0.00    -0.358 OA
HETATM   20  C14 UNL     1      14.609 -13.142  14.778  1.00  0.00     0.201 C 
HETATM   21  C15 UNL     1      15.993 -12.704  15.133  1.00  0.00     0.202 C 
HETATM   22  O7  UNL     1      16.073 -12.071  16.368  1.00  0.00    -0.349 OA
ENDBRANCH   1  17
TORSDOF 9
ENDMDL
