MODEL 1
REMARK VINA RESULT: -5.915177530      0.000      0.000
REMARK  3 active torsions:
REMARK  status: ('A' for Active; 'I' for Inactive)
REMARK    1  A    between atoms: C10_12  and  C12_14 
REMARK    2  A    between atoms: C12_14  and  O3_15 
REMARK    3  A    between atoms: C13_17  and  O4_18 
ROOT
HETATM    1  O4  UNL     1      61.702   8.947  27.239  1.00  0.00    -0.274 OA
HETATM    2  C14 UNL     1      62.066   8.741  28.517  1.00  0.00     0.229 C 
HETATM    3  N1  UNL     1      62.365   8.577  29.606  1.00  0.00    -0.164 NA
ENDROOT
BRANCH   1   4
HETATM    4  C13 UNL     1      61.488   7.937  26.281  1.00  0.00     0.193 C 
HETATM    5  C2  UNL     1      60.345   8.461  25.392  1.00  0.00    -0.010 C 
HETATM    6  C1  UNL     1      59.734   7.352  24.580  1.00  0.00     0.018 C 
HETATM    7  C3  UNL     1      59.334   9.215  26.214  1.00  0.00     0.018 C 
HETATM    8  C4  UNL     1      61.026   9.495  24.481  1.00  0.00     0.093 C 
HETATM    9  C5  UNL     1      62.470   9.368  24.801  1.00  0.00     0.165 C 
HETATM   10  O1  UNL     1      63.279  10.250  24.670  1.00  0.00    -0.294 OA
HETATM   11  C6  UNL     1      62.614   8.002  25.274  1.00  0.00     0.162 C 
HETATM   12  O2  UNL     1      62.398   7.107  24.196  1.00  0.00    -0.357 OA
HETATM   13  C10 UNL     1      63.880   7.367  25.535  1.00  0.00     0.049 C 
HETATM   14  C7  UNL     1      63.781   6.955  24.108  1.00  0.00     0.068 C 
HETATM   15  C8  UNL     1      64.463   7.832  23.089  1.00  0.00     0.047 C 
HETATM   16  C9  UNL     1      64.082   5.488  23.819  1.00  0.00     0.047 C 
HETATM   17  C11 UNL     1      65.071   8.134  25.968  1.00  0.00     0.024 C 
BRANCH  13  18
HETATM   18  C12 UNL     1      63.735   6.128  26.431  1.00  0.00     0.179 C 
BRANCH  18  19
HETATM   19  O3  UNL     1      64.670   6.276  27.481  1.00  0.00    -0.400 OA
ATOM     20  H3  UNL     1      64.269   5.902  28.257  1.00  0.00     0.209 HD
ENDBRANCH  18  19
ENDBRANCH  13  18
ENDBRANCH   1   4
TORSDOF 3
ENDMDL
MODEL 2
REMARK VINA RESULT: -5.871880934      2.906      5.229
REMARK  3 active torsions:
REMARK  status: ('A' for Active; 'I' for Inactive)
REMARK    1  A    between atoms: C10_12  and  C12_14 
REMARK    2  A    between atoms: C12_14  and  O3_15 
REMARK    3  A    between atoms: C13_17  and  O4_18 
ROOT
HETATM    1  O4  UNL     1      67.162   9.515  23.847  1.00  0.00    -0.274 OA
HETATM    2  C14 UNL     1      67.252  10.522  24.732  1.00  0.00     0.229 C 
HETATM    3  N1  UNL     1      67.344  11.382  25.478  1.00  0.00    -0.164 NA
ENDROOT
BRANCH   1   4
HETATM    4  C13 UNL     1      65.999   9.161  23.133  1.00  0.00     0.193 C 
HETATM    5  C2  UNL     1      66.503   8.678  21.761  1.00  0.00    -0.010 C 
HETATM    6  C1  UNL     1      65.385   8.641  20.753  1.00  0.00     0.018 C 
HETATM    7  C3  UNL     1      67.680   9.497  21.304  1.00  0.00     0.018 C 
HETATM    8  C4  UNL     1      67.036   7.263  22.037  1.00  0.00     0.093 C 
HETATM    9  C5  UNL     1      66.666   7.003  23.451  1.00  0.00     0.165 C 
HETATM   10  O1  UNL     1      67.253   6.249  24.183  1.00  0.00    -0.294 OA
HETATM   11  C6  UNL     1      65.501   7.842  23.677  1.00  0.00     0.162 C 
HETATM   12  O2  UNL     1      64.412   7.346  22.916  1.00  0.00    -0.357 OA
HETATM   13  C10 UNL     1      64.686   7.788  24.862  1.00  0.00     0.049 C 
HETATM   14  C7  UNL     1      63.916   6.776  24.088  1.00  0.00     0.068 C 
HETATM   15  C8  UNL     1      64.272   5.328  24.302  1.00  0.00     0.047 C 
HETATM   16  C9  UNL     1      62.400   6.947  24.097  1.00  0.00     0.047 C 
HETATM   17  C11 UNL     1      65.237   7.398  26.181  1.00  0.00     0.024 C 
BRANCH  13  18
HETATM   18  C12 UNL     1      63.829   9.051  25.036  1.00  0.00     0.179 C 
BRANCH  18  19
HETATM   19  O3  UNL     1      64.169   9.601  26.293  1.00  0.00    -0.400 OA
ATOM     20  H3  UNL     1      64.188  10.544  26.181  1.00  0.00     0.209 HD
ENDBRANCH  18  19
ENDBRANCH  13  18
ENDBRANCH   1   4
TORSDOF 3
ENDMDL
MODEL 3
REMARK VINA RESULT: -5.787689035      3.427      5.832
REMARK  3 active torsions:
REMARK  status: ('A' for Active; 'I' for Inactive)
REMARK    1  A    between atoms: C10_12  and  C12_14 
REMARK    2  A    between atoms: C12_14  and  O3_15 
REMARK    3  A    between atoms: C13_17  and  O4_18 
ROOT
HETATM    1  O4  UNL     1      66.865   8.422  21.519  1.00  0.00    -0.274 OA
HETATM    2  C14 UNL     1      67.417   9.648  21.560  1.00  0.00     0.229 C 
HETATM    3  N1  UNL     1      67.893  10.685  21.581  1.00  0.00    -0.164 NA
ENDROOT
BRANCH   1   4
HETATM    4  C13 UNL     1      65.531   8.119  21.856  1.00  0.00     0.193 C 
HETATM    5  C2  UNL     1      65.303   6.686  21.341  1.00  0.00    -0.010 C 
HETATM    6  C1  UNL     1      63.835   6.362  21.266  1.00  0.00     0.018 C 
HETATM    7  C3  UNL     1      66.021   6.467  20.036  1.00  0.00     0.018 C 
HETATM    8  C4  UNL     1      66.005   5.799  22.381  1.00  0.00     0.093 C 
HETATM    9  C5  UNL     1      66.424   6.746  23.444  1.00  0.00     0.165 C 
HETATM   10  O1  UNL     1      67.356   6.572  24.187  1.00  0.00    -0.294 OA
HETATM   11  C6  UNL     1      65.477   7.844  23.341  1.00  0.00     0.162 C 
HETATM   12  O2  UNL     1      64.193   7.392  23.738  1.00  0.00    -0.357 OA
HETATM   13  C10 UNL     1      65.382   8.920  24.293  1.00  0.00     0.049 C 
HETATM   14  C7  UNL     1      64.404   8.022  24.964  1.00  0.00     0.068 C 
HETATM   15  C8  UNL     1      64.925   7.134  26.064  1.00  0.00     0.047 C 
HETATM   16  C9  UNL     1      63.094   8.674  25.397  1.00  0.00     0.047 C 
HETATM   17  C11 UNL     1      66.554   9.393  25.067  1.00  0.00     0.024 C 
BRANCH  13  18
HETATM   18  C12 UNL     1      64.642  10.138  23.720  1.00  0.00     0.179 C 
BRANCH  18  19
HETATM   19  O3  UNL     1      65.341  11.283  24.164  1.00  0.00    -0.400 OA
ATOM     20  H3  UNL     1      64.686  11.905  24.456  1.00  0.00     0.209 HD
ENDBRANCH  18  19
ENDBRANCH  13  18
ENDBRANCH   1   4
TORSDOF 3
ENDMDL
MODEL 4
REMARK VINA RESULT: -5.523354015      3.114      5.026
REMARK  3 active torsions:
REMARK  status: ('A' for Active; 'I' for Inactive)
REMARK    1  A    between atoms: C10_12  and  C12_14 
REMARK    2  A    between atoms: C12_14  and  O3_15 
REMARK    3  A    between atoms: C13_17  and  O4_18 
ROOT
HETATM    1  O4  UNL     1      65.165  10.671  23.844  1.00  0.00    -0.274 OA
HETATM    2  C14 UNL     1      65.503   9.563  23.162  1.00  0.00     0.229 C 
HETATM    3  N1  UNL     1      65.799   8.631  22.573  1.00  0.00    -0.164 NA
ENDROOT
BRANCH   1   4
HETATM    4  C13 UNL     1      64.992  10.746  25.240  1.00  0.00     0.193 C 
HETATM    5  C2  UNL     1      65.111  12.243  25.581  1.00  0.00    -0.010 C 
HETATM    6  C1  UNL     1      65.344  12.450  27.053  1.00  0.00     0.018 C 
HETATM    7  C3  UNL     1      66.156  12.904  24.721  1.00  0.00     0.018 C 
HETATM    8  C4  UNL     1      63.757  12.831  25.154  1.00  0.00     0.093 C 
HETATM    9  C5  UNL     1      62.950  11.647  24.767  1.00  0.00     0.165 C 
HETATM   10  O1  UNL     1      62.039  11.668  23.980  1.00  0.00    -0.294 OA
HETATM   11  C6  UNL     1      63.522  10.556  25.539  1.00  0.00     0.162 C 
HETATM   12  O2  UNL     1      63.242  10.758  26.914  1.00  0.00    -0.357 OA
HETATM   13  C10 UNL     1      62.946   9.239  25.623  1.00  0.00     0.049 C 
HETATM   14  C7  UNL     1      62.228   9.808  26.796  1.00  0.00     0.068 C 
HETATM   15  C8  UNL     1      60.848  10.364  26.556  1.00  0.00     0.047 C 
HETATM   16  C9  UNL     1      62.231   8.948  28.057  1.00  0.00     0.047 C 
HETATM   17  C11 UNL     1      62.148   8.656  24.520  1.00  0.00     0.024 C 
BRANCH  13  18
HETATM   18  C12 UNL     1      63.960   8.192  26.110  1.00  0.00     0.179 C 
BRANCH  18  19
HETATM   19  O3  UNL     1      64.057   7.218  25.090  1.00  0.00    -0.400 OA
ATOM     20  H3  UNL     1      63.489   6.501  25.344  1.00  0.00     0.209 HD
ENDBRANCH  18  19
ENDBRANCH  13  18
ENDBRANCH   1   4
TORSDOF 3
ENDMDL
MODEL 5
REMARK VINA RESULT: -5.322406809      1.869      3.922
REMARK  3 active torsions:
REMARK  status: ('A' for Active; 'I' for Inactive)
REMARK    1  A    between atoms: C10_12  and  C12_14 
REMARK    2  A    between atoms: C12_14  and  O3_15 
REMARK    3  A    between atoms: C13_17  and  O4_18 
ROOT
HETATM    1  O4  UNL     1      61.907   6.314  26.838  1.00  0.00    -0.274 OA
HETATM    2  C14 UNL     1      62.517   5.964  27.984  1.00  0.00     0.229 C 
HETATM    3  N1  UNL     1      63.030   5.651  28.954  1.00  0.00    -0.164 NA
ENDROOT
BRANCH   1   4
HETATM    4  C13 UNL     1      62.418   7.222  25.889  1.00  0.00     0.193 C 
HETATM    5  C2  UNL     1      62.286   6.503  24.534  1.00  0.00    -0.010 C 
HETATM    6  C1  UNL     1      63.138   7.161  23.482  1.00  0.00     0.018 C 
HETATM    7  C3  UNL     1      62.565   5.030  24.681  1.00  0.00     0.018 C 
HETATM    8  C4  UNL     1      60.794   6.632  24.188  1.00  0.00     0.093 C 
HETATM    9  C5  UNL     1      60.248   7.513  25.250  1.00  0.00     0.165 C 
HETATM   10  O1  UNL     1      59.102   7.510  25.619  1.00  0.00    -0.294 OA
HETATM   11  C6  UNL     1      61.388   8.307  25.679  1.00  0.00     0.162 C 
HETATM   12  O2  UNL     1      61.766   9.186  24.632  1.00  0.00    -0.357 OA
HETATM   13  C10 UNL     1      61.298   9.429  26.576  1.00  0.00     0.049 C 
HETATM   14  C7  UNL     1      61.115  10.208  25.321  1.00  0.00     0.068 C 
HETATM   15  C8  UNL     1      59.700  10.484  24.881  1.00  0.00     0.047 C 
HETATM   16  C9  UNL     1      61.956  11.476  25.199  1.00  0.00     0.047 C 
HETATM   17  C11 UNL     1      60.252   9.519  27.622  1.00  0.00     0.024 C 
BRANCH  13  18
HETATM   18  C12 UNL     1      62.656   9.784  27.200  1.00  0.00     0.179 C 
BRANCH  18  19
HETATM   19  O3  UNL     1      62.568   9.460  28.573  1.00  0.00    -0.400 OA
ATOM     20  H3  UNL     1      62.336  10.261  29.027  1.00  0.00     0.209 HD
ENDBRANCH  18  19
ENDBRANCH  13  18
ENDBRANCH   1   4
TORSDOF 3
ENDMDL
