MODEL 1
REMARK VINA RESULT: -7.426188573      0.000      0.000
REMARK  3 active torsions:
REMARK  status: ('A' for Active; 'I' for Inactive)
REMARK    1  A    between atoms: C2_2  and  C3_3 
REMARK    2  A    between atoms: C3_3  and  C4_4 
REMARK    3  A    between atoms: C4_4  and  N1_5 
ROOT
HETATM    1  N1  UNL     1      42.423   0.633  91.627  1.00  0.00    -0.308 N 
HETATM    2  C5  UNL     1      43.569   1.221  91.239  1.00  0.00     0.180 A 
HETATM    3  S1  UNL     1      44.672   0.557  90.240  1.00  0.00    -0.040 SA
HETATM    4  N2  UNL     1      43.665   2.444  91.803  1.00  0.00    -0.329 N 
ATOM      5  H2  UNL     1      44.438   3.096  91.670  1.00  0.00     0.168 HD
HETATM    6  C6  UNL     1      42.580   2.666  92.568  1.00  0.00     0.087 A 
HETATM    7  C7  UNL     1      41.957   3.572  93.402  1.00  0.00    -0.009 A 
HETATM    8  C8  UNL     1      42.416   4.925  93.815  1.00  0.00     0.052 C 
HETATM    9  C9  UNL     1      40.789   2.943  93.784  1.00  0.00     0.015 A 
HETATM   10  C10 UNL     1      39.755   3.506  94.690  1.00  0.00     0.069 C 
HETATM   11  N3  UNL     1      40.726   1.722  93.200  1.00  0.00    -0.344 N 
ATOM     12  H3  UNL     1      39.964   1.054  93.318  1.00  0.00     0.167 HD
HETATM   13  C11 UNL     1      41.821   1.520  92.440  1.00  0.00     0.138 A 
ENDROOT
BRANCH   1  14
HETATM   14  C4  UNL     1      41.938  -0.688  91.247  1.00  0.00     0.133 C 
BRANCH  14  15
HETATM   15  C3  UNL     1      41.828  -1.597  92.429  1.00  0.00     0.020 C 
BRANCH  15  16
HETATM   16  C2  UNL     1      40.503  -2.336  92.316  1.00  0.00    -0.003 C 
HETATM   17  C1  UNL     1      39.373  -1.377  92.015  1.00  0.00     0.005 C 
ENDBRANCH  15  16
ENDBRANCH  14  15
ENDBRANCH   1  14
TORSDOF 3
ENDMDL
MODEL 2
REMARK VINA RESULT: -7.396227100      1.263      1.567
REMARK  3 active torsions:
REMARK  status: ('A' for Active; 'I' for Inactive)
REMARK    1  A    between atoms: C2_2  and  C3_3 
REMARK    2  A    between atoms: C3_3  and  C4_4 
REMARK    3  A    between atoms: C4_4  and  N1_5 
ROOT
HETATM    1  N1  UNL     1      42.366  -0.435  92.394  1.00  0.00    -0.308 N 
HETATM    2  C5  UNL     1      43.465  -0.420  91.618  1.00  0.00     0.180 A 
HETATM    3  S1  UNL     1      44.141  -1.729  90.924  1.00  0.00    -0.040 SA
HETATM    4  N2  UNL     1      43.921   0.846  91.504  1.00  0.00    -0.329 N 
ATOM      5  H2  UNL     1      44.741   1.132  90.969  1.00  0.00     0.168 HD
HETATM    6  C6  UNL     1      43.122   1.671  92.207  1.00  0.00     0.087 A 
HETATM    7  C7  UNL     1      42.905   2.983  92.576  1.00  0.00    -0.009 A 
HETATM    8  C8  UNL     1      43.692   4.193  92.219  1.00  0.00     0.052 C 
HETATM    9  C9  UNL     1      41.776   2.936  93.368  1.00  0.00     0.015 A 
HETATM   10  C10 UNL     1      41.124   4.099  94.023  1.00  0.00     0.069 C 
HETATM   11  N3  UNL     1      41.347   1.653  93.461  1.00  0.00    -0.344 N 
ATOM     12  H3  UNL     1      40.530   1.345  93.989  1.00  0.00     0.167 HD
HETATM   13  C11 UNL     1      42.160   0.845  92.752  1.00  0.00     0.138 A 
ENDROOT
BRANCH   1  14
HETATM   14  C4  UNL     1      41.568  -1.596  92.767  1.00  0.00     0.133 C 
BRANCH  14  15
HETATM   15  C3  UNL     1      40.604  -1.974  91.689  1.00  0.00     0.020 C 
BRANCH  15  16
HETATM   16  C2  UNL     1      39.270  -1.321  92.018  1.00  0.00    -0.003 C 
HETATM   17  C1  UNL     1      38.847  -0.371  90.919  1.00  0.00     0.005 C 
ENDBRANCH  15  16
ENDBRANCH  14  15
ENDBRANCH   1  14
TORSDOF 3
ENDMDL
MODEL 3
REMARK VINA RESULT: -6.995147401      2.264      3.191
REMARK  3 active torsions:
REMARK  status: ('A' for Active; 'I' for Inactive)
REMARK    1  A    between atoms: C2_2  and  C3_3 
REMARK    2  A    between atoms: C3_3  and  C4_4 
REMARK    3  A    between atoms: C4_4  and  N1_5 
ROOT
HETATM    1  N1  UNL     1      42.716  -1.151  91.945  1.00  0.00    -0.308 N 
HETATM    2  C5  UNL     1      43.542  -1.791  91.099  1.00  0.00     0.180 A 
HETATM    3  S1  UNL     1      43.580  -3.403  90.864  1.00  0.00    -0.040 SA
HETATM    4  N2  UNL     1      44.336  -0.894  90.476  1.00  0.00    -0.329 N 
ATOM      5  H2  UNL     1      45.051  -1.119  89.784  1.00  0.00     0.168 HD
HETATM    6  C6  UNL     1      44.034   0.343  90.911  1.00  0.00     0.087 A 
HETATM    7  C7  UNL     1      44.341   1.684  90.793  1.00  0.00    -0.009 A 
HETATM    8  C8  UNL     1      45.362   2.332  89.929  1.00  0.00     0.052 C 
HETATM    9  C9  UNL     1      43.481   2.312  91.670  1.00  0.00     0.015 A 
HETATM   10  C10 UNL     1      43.409   3.775  91.919  1.00  0.00     0.069 C 
HETATM   11  N3  UNL     1      42.701   1.384  92.276  1.00  0.00    -0.344 N 
ATOM     12  H3  UNL     1      41.981   1.586  92.970  1.00  0.00     0.167 HD
HETATM   13  C11 UNL     1      43.020   0.154  91.827  1.00  0.00     0.138 A 
ENDROOT
BRANCH   1  14
HETATM   14  C4  UNL     1      41.704  -1.748  92.809  1.00  0.00     0.133 C 
BRANCH  14  15
HETATM   15  C3  UNL     1      40.503  -2.185  92.032  1.00  0.00     0.020 C 
BRANCH  15  16
HETATM   16  C2  UNL     1      39.483  -1.058  92.094  1.00  0.00    -0.003 C 
HETATM   17  C1  UNL     1      39.211  -0.498  90.715  1.00  0.00     0.005 C 
ENDBRANCH  15  16
ENDBRANCH  14  15
ENDBRANCH   1  14
TORSDOF 3
ENDMDL
MODEL 4
REMARK VINA RESULT: -6.760527796      1.353      1.603
REMARK  3 active torsions:
REMARK  status: ('A' for Active; 'I' for Inactive)
REMARK    1  A    between atoms: C2_2  and  C3_3 
REMARK    2  A    between atoms: C3_3  and  C4_4 
REMARK    3  A    between atoms: C4_4  and  N1_5 
ROOT
HETATM    1  N1  UNL     1      42.159   0.208  91.467  1.00  0.00    -0.308 N 
HETATM    2  C5  UNL     1      43.326   0.563  92.033  1.00  0.00     0.180 A 
HETATM    3  S1  UNL     1      44.717  -0.277  91.919  1.00  0.00    -0.040 SA
HETATM    4  N2  UNL     1      43.167   1.721  92.710  1.00  0.00    -0.329 N 
ATOM      5  H2  UNL     1      43.899   2.206  93.228  1.00  0.00     0.168 HD
HETATM    6  C6  UNL     1      41.891   2.132  92.593  1.00  0.00     0.087 A 
HETATM    7  C7  UNL     1      40.989   3.117  92.942  1.00  0.00    -0.009 A 
HETATM    8  C8  UNL     1      41.213   4.333  93.768  1.00  0.00     0.052 C 
HETATM    9  C9  UNL     1      39.806   2.726  92.350  1.00  0.00     0.015 A 
HETATM   10  C10 UNL     1      38.514   3.456  92.425  1.00  0.00     0.069 C 
HETATM   11  N3  UNL     1      40.002   1.564  91.681  1.00  0.00    -0.344 N 
ATOM     12  H3  UNL     1      39.285   1.062  91.156  1.00  0.00     0.167 HD
HETATM   13  C11 UNL     1      41.284   1.170  91.812  1.00  0.00     0.138 A 
ENDROOT
BRANCH   1  14
HETATM   14  C4  UNL     1      41.898  -0.973  90.653  1.00  0.00     0.133 C 
BRANCH  14  15
HETATM   15  C3  UNL     1      40.628  -1.652  91.055  1.00  0.00     0.020 C 
BRANCH  15  16
HETATM   16  C2  UNL     1      40.862  -2.294  92.414  1.00  0.00    -0.003 C 
HETATM   17  C1  UNL     1      42.118  -3.138  92.404  1.00  0.00     0.005 C 
ENDBRANCH  15  16
ENDBRANCH  14  15
ENDBRANCH   1  14
TORSDOF 3
ENDMDL
MODEL 5
REMARK VINA RESULT: -6.684958884      1.558      4.865
REMARK  3 active torsions:
REMARK  status: ('A' for Active; 'I' for Inactive)
REMARK    1  A    between atoms: C2_2  and  C3_3 
REMARK    2  A    between atoms: C3_3  and  C4_4 
REMARK    3  A    between atoms: C4_4  and  N1_5 
ROOT
HETATM    1  N1  UNL     1      43.556   1.827  91.368  1.00  0.00    -0.308 N 
HETATM    2  C5  UNL     1      44.704   1.338  90.867  1.00  0.00     0.180 A 
HETATM    3  S1  UNL     1      46.003   2.230  90.453  1.00  0.00    -0.040 SA
HETATM    4  N2  UNL     1      44.616  -0.006  90.760  1.00  0.00    -0.329 N 
ATOM      5  H2  UNL     1      45.351  -0.620  90.409  1.00  0.00     0.168 HD
HETATM    6  C6  UNL     1      43.405  -0.406  91.191  1.00  0.00     0.087 A 
HETATM    7  C7  UNL     1      42.588  -1.500  91.395  1.00  0.00    -0.009 A 
HETATM    8  C8  UNL     1      42.871  -2.935  91.133  1.00  0.00     0.052 C 
HETATM    9  C9  UNL     1      41.422  -0.968  91.907  1.00  0.00     0.015 A 
HETATM   10  C10 UNL     1      40.213  -1.738  92.298  1.00  0.00     0.069 C 
HETATM   11  N3  UNL     1      41.546   0.379  92.000  1.00  0.00    -0.344 N 
ATOM     12  H3  UNL     1      40.826   1.012  92.348  1.00  0.00     0.167 HD
HETATM   13  C11 UNL     1      42.764   0.758  91.564  1.00  0.00     0.138 A 
ENDROOT
BRANCH   1  14
HETATM   14  C4  UNL     1      43.238   3.224  91.639  1.00  0.00     0.133 C 
BRANCH  14  15
HETATM   15  C3  UNL     1      42.886   3.441  93.076  1.00  0.00     0.020 C 
BRANCH  15  16
HETATM   16  C2  UNL     1      43.108   4.914  93.384  1.00  0.00    -0.003 C 
HETATM   17  C1  UNL     1      42.865   5.203  94.849  1.00  0.00     0.005 C 
ENDBRANCH  15  16
ENDBRANCH  14  15
ENDBRANCH   1  14
TORSDOF 3
ENDMDL
