MODEL 1
REMARK VINA RESULT: -6.908945315      0.000      0.000
REMARK  3 active torsions:
REMARK  status: ('A' for Active; 'I' for Inactive)
REMARK    1  A    between atoms: C3_3  and  C4_4 
REMARK    2  A    between atoms: C4_4  and  C5_5 
REMARK    3  A    between atoms: C5_5  and  C6_6 
ROOT
HETATM    1  C1  UNL     1      38.782   1.276  92.022  1.00  0.00     0.049 C 
HETATM    2  C2  UNL     1      40.130   0.780  92.345  1.00  0.00    -0.045 A 
HETATM    3  C3  UNL     1      41.159   1.645  92.651  1.00  0.00    -0.036 A 
HETATM    4  C7  UNL     1      42.389   1.100  92.942  1.00  0.00     0.096 A 
HETATM    5  N1  UNL     1      42.590  -0.248  92.930  1.00  0.00    -0.356 N 
ATOM      6  H1  UNL     1      43.514  -0.619  93.151  1.00  0.00     0.166 HD
HETATM    7  C8  UNL     1      41.587  -1.101  92.631  1.00  0.00     0.106 A 
HETATM    8  S2  UNL     1      41.827  -2.721  92.618  1.00  0.00    -0.060 SA
HETATM    9  C9  UNL     1      40.337  -0.584  92.333  1.00  0.00    -0.018 A 
HETATM   10  C10 UNL     1      39.250  -1.509  92.010  1.00  0.00     0.052 C 
ENDROOT
BRANCH   3  11
HETATM   11  C4  UNL     1      41.013   3.110  92.686  1.00  0.00     0.041 C 
BRANCH  11  12
HETATM   12  C5  UNL     1      40.787   3.662  94.061  1.00  0.00     0.015 C 
BRANCH  12  13
HETATM   13  C6  UNL     1      41.634   4.834  94.419  1.00  0.00     0.086 C 
HETATM   14  S1  UNL     1      43.113   5.020  93.427  1.00  0.00    -0.098 SA
ENDBRANCH  12  13
ENDBRANCH  11  12
ENDBRANCH   3  11
TORSDOF 3
ENDMDL
MODEL 2
REMARK VINA RESULT: -6.810370222      1.964      5.287
REMARK  3 active torsions:
REMARK  status: ('A' for Active; 'I' for Inactive)
REMARK    1  A    between atoms: C3_3  and  C4_4 
REMARK    2  A    between atoms: C4_4  and  C5_5 
REMARK    3  A    between atoms: C5_5  and  C6_6 
ROOT
HETATM    1  C1  UNL     1      39.128  -1.459  92.031  1.00  0.00     0.049 C 
HETATM    2  C2  UNL     1      40.277  -0.584  92.318  1.00  0.00    -0.045 A 
HETATM    3  C3  UNL     1      41.533  -1.101  92.554  1.00  0.00    -0.036 A 
HETATM    4  C7  UNL     1      42.553  -0.214  92.813  1.00  0.00     0.096 A 
HETATM    5  N1  UNL     1      42.336   1.131  92.837  1.00  0.00    -0.356 N 
ATOM      6  H1  UNL     1      43.115   1.761  93.033  1.00  0.00     0.166 HD
HETATM    7  C8  UNL     1      41.109   1.645  92.607  1.00  0.00     0.106 A 
HETATM    8  S2  UNL     1      40.848   3.262  92.635  1.00  0.00    -0.060 SA
HETATM    9  C9  UNL     1      40.061   0.779  92.343  1.00  0.00    -0.018 A 
HETATM   10  C10 UNL     1      38.731   1.337  92.094  1.00  0.00     0.052 C 
ENDROOT
BRANCH   3  11
HETATM   11  C4  UNL     1      41.840  -2.542  92.540  1.00  0.00     0.041 C 
BRANCH  11  12
HETATM   12  C5  UNL     1      42.492  -3.008  91.274  1.00  0.00     0.015 C 
BRANCH  12  13
HETATM   13  C6  UNL     1      43.805  -3.687  91.453  1.00  0.00     0.086 C 
HETATM   14  S1  UNL     1      44.006  -5.193  90.504  1.00  0.00    -0.098 SA
ENDBRANCH  12  13
ENDBRANCH  11  12
ENDBRANCH   3  11
TORSDOF 3
ENDMDL
MODEL 3
REMARK VINA RESULT: -6.773231673      1.772      4.819
REMARK  3 active torsions:
REMARK  status: ('A' for Active; 'I' for Inactive)
REMARK    1  A    between atoms: C3_3  and  C4_4 
REMARK    2  A    between atoms: C4_4  and  C5_5 
REMARK    3  A    between atoms: C5_5  and  C6_6 
ROOT
HETATM    1  C1  UNL     1      38.629  -0.432  91.308  1.00  0.00     0.049 C 
HETATM    2  C2  UNL     1      39.821   0.052  92.024  1.00  0.00    -0.045 A 
HETATM    3  C3  UNL     1      40.864  -0.794  92.338  1.00  0.00    -0.036 A 
HETATM    4  C7  UNL     1      41.942  -0.261  93.007  1.00  0.00     0.096 A 
HETATM    5  N1  UNL     1      41.985   1.057  93.351  1.00  0.00    -0.356 N 
ATOM      6  H1  UNL     1      42.799   1.419  93.847  1.00  0.00     0.166 HD
HETATM    7  C8  UNL     1      40.968   1.891  93.047  1.00  0.00     0.106 A 
HETATM    8  S2  UNL     1      41.019   3.475  93.459  1.00  0.00    -0.060 SA
HETATM    9  C9  UNL     1      39.868   1.386  92.373  1.00  0.00    -0.018 A 
HETATM   10  C10 UNL     1      38.766   2.291  92.044  1.00  0.00     0.052 C 
ENDROOT
BRANCH   3  11
HETATM   11  C4  UNL     1      40.887  -2.226  91.995  1.00  0.00     0.041 C 
BRANCH  11  12
HETATM   12  C5  UNL     1      42.020  -2.979  92.623  1.00  0.00     0.015 C 
BRANCH  12  13
HETATM   13  C6  UNL     1      42.998  -3.565  91.663  1.00  0.00     0.086 C 
HETATM   14  S1  UNL     1      43.918  -2.364  90.705  1.00  0.00    -0.098 SA
ENDBRANCH  12  13
ENDBRANCH  11  12
ENDBRANCH   3  11
TORSDOF 3
ENDMDL
MODEL 4
REMARK VINA RESULT: -6.766157740      1.250      1.259
REMARK  3 active torsions:
REMARK  status: ('A' for Active; 'I' for Inactive)
REMARK    1  A    between atoms: C3_3  and  C4_4 
REMARK    2  A    between atoms: C4_4  and  C5_5 
REMARK    3  A    between atoms: C5_5  and  C6_6 
ROOT
HETATM    1  C1  UNL     1      39.080   1.333  92.138  1.00  0.00     0.049 C 
HETATM    2  C2  UNL     1      40.354   0.707  92.529  1.00  0.00    -0.045 A 
HETATM    3  C3  UNL     1      41.398   1.455  93.031  1.00  0.00    -0.036 A 
HETATM    4  C7  UNL     1      42.555   0.792  93.373  1.00  0.00     0.096 A 
HETATM    5  N1  UNL     1      42.672  -0.557  93.222  1.00  0.00    -0.356 N 
ATOM      6  H1  UNL     1      43.544  -1.017  93.486  1.00  0.00     0.166 HD
HETATM    7  C8  UNL     1      41.654  -1.296  92.731  1.00  0.00     0.106 A 
HETATM    8  S2  UNL     1      41.794  -2.918  92.551  1.00  0.00    -0.060 SA
HETATM    9  C9  UNL     1      40.476  -0.658  92.377  1.00  0.00    -0.018 A 
HETATM   10  C10 UNL     1      39.373  -1.460  91.845  1.00  0.00     0.052 C 
ENDROOT
BRANCH   3  11
HETATM   11  C4  UNL     1      41.341   2.914  93.224  1.00  0.00     0.041 C 
BRANCH  11  12
HETATM   12  C5  UNL     1      42.658   3.527  93.589  1.00  0.00     0.015 C 
BRANCH  12  13
HETATM   13  C6  UNL     1      43.309   4.318  92.507  1.00  0.00     0.086 C 
HETATM   14  S1  UNL     1      44.109   3.337  91.240  1.00  0.00    -0.098 SA
ENDBRANCH  12  13
ENDBRANCH  11  12
ENDBRANCH   3  11
TORSDOF 3
ENDMDL
MODEL 5
REMARK VINA RESULT: -6.732493055      0.948      1.075
REMARK  3 active torsions:
REMARK  status: ('A' for Active; 'I' for Inactive)
REMARK    1  A    between atoms: C3_3  and  C4_4 
REMARK    2  A    between atoms: C4_4  and  C5_5 
REMARK    3  A    between atoms: C5_5  and  C6_6 
ROOT
HETATM    1  C1  UNL     1      39.208   1.462  92.265  1.00  0.00     0.049 C 
HETATM    2  C2  UNL     1      40.481   0.785  92.562  1.00  0.00    -0.045 A 
HETATM    3  C3  UNL     1      41.592   1.492  92.971  1.00  0.00    -0.036 A 
HETATM    4  C7  UNL     1      42.743   0.782  93.229  1.00  0.00     0.096 A 
HETATM    5  N1  UNL     1      42.790  -0.572  93.089  1.00  0.00    -0.356 N 
ATOM      6  H1  UNL     1      43.659  -1.067  93.288  1.00  0.00     0.166 HD
HETATM    7  C8  UNL     1      41.706  -1.271  92.689  1.00  0.00     0.106 A 
HETATM    8  S2  UNL     1      41.761  -2.899  92.521  1.00  0.00    -0.060 SA
HETATM    9  C9  UNL     1      40.532  -0.586  92.421  1.00  0.00    -0.018 A 
HETATM   10  C10 UNL     1      39.357  -1.344  91.989  1.00  0.00     0.052 C 
ENDROOT
BRANCH   3  11
HETATM   11  C4  UNL     1      41.613   2.954  93.147  1.00  0.00     0.041 C 
BRANCH  11  12
HETATM   12  C5  UNL     1      42.677   3.643  92.348  1.00  0.00     0.015 C 
BRANCH  12  13
HETATM   13  C6  UNL     1      43.317   4.808  93.020  1.00  0.00     0.086 C 
HETATM   14  S1  UNL     1      42.706   5.151  94.669  1.00  0.00    -0.098 SA
ENDBRANCH  12  13
ENDBRANCH  11  12
ENDBRANCH   3  11
TORSDOF 3
ENDMDL
