MODEL 1
REMARK VINA RESULT: -8.583041774      0.000      0.000
REMARK  5 active torsions:
REMARK  status: ('A' for Active; 'I' for Inactive)
REMARK    1  A    between atoms: C1_2  and  C2_4 
REMARK    2  A    between atoms: C2_4  and  O1_5 
REMARK    3  A    between atoms: O1_5  and  C3_6 
REMARK    4  A    between atoms: C6_11  and  C7_12 
REMARK    5  A    between atoms: C12_20  and  C13_21 
ROOT
HETATM    1  C3  UNL     1      30.260   0.438   7.602  1.00  0.00     0.225 A 
HETATM    2  N1  UNL     1      29.551   1.616   7.691  1.00  0.00    -0.331 N 
ATOM      3  H1  UNL     1      29.582   2.166   8.550  1.00  0.00     0.168 HD
HETATM    4  C4  UNL     1      28.823   2.040   6.653  1.00  0.00     0.107 A 
HETATM    5  C5  UNL     1      28.753   1.335   5.485  1.00  0.00     0.032 A 
HETATM    6  C6  UNL     1      28.077   1.535   4.290  1.00  0.00    -0.019 A 
HETATM    7  C18 UNL     1      28.406   0.449   3.512  1.00  0.00     0.098 A 
HETATM    8  N3  UNL     1      29.247  -0.381   4.196  1.00  0.00    -0.351 N 
ATOM      9  H3  UNL     1      29.642  -1.256   3.849  1.00  0.00     0.166 HD
HETATM   10  C19 UNL     1      29.467   0.165   5.427  1.00  0.00     0.120 A 
HETATM   11  N4  UNL     1      30.196  -0.255   6.469  1.00  0.00    -0.307 N 
ATOM     12  H4  UNL     1      30.716  -1.129   6.391  1.00  0.00     0.171 HD
ENDROOT
BRANCH   6  13
HETATM   13  C7  UNL     1      27.227   2.707   3.909  1.00  0.00    -0.009 C 
HETATM   14  C8  UNL     1      28.139   3.784   3.393  1.00  0.00     0.042 C 
HETATM   15  C9  UNL     1      28.036   5.147   3.942  1.00  0.00     0.233 C 
HETATM   16  N2  UNL     1      27.400   6.090   3.001  1.00  0.00    -0.075 N 
HETATM   17  C10 UNL     1      25.987   6.274   3.386  1.00  0.00     0.233 C 
ATOM     18  H22 UNL     1      27.904   6.975   2.937  1.00  0.00     0.277 HD
ATOM     19  H21 UNL     1      27.503   5.798   2.029  1.00  0.00     0.277 HD
HETATM   20  C11 UNL     1      25.156   5.199   2.816  1.00  0.00     0.046 C 
HETATM   21  C12 UNL     1      24.710   4.097   3.666  1.00  0.00     0.059 C 
HETATM   22  C14 UNL     1      24.889   2.780   2.931  1.00  0.00     0.019 C 
HETATM   23  C16 UNL     1      25.280   3.928   5.024  1.00  0.00     0.019 C 
HETATM   24  C15 UNL     1      26.288   2.327   2.788  1.00  0.00     0.015 C 
HETATM   25  C17 UNL     1      26.513   3.120   5.171  1.00  0.00     0.015 C 
BRANCH  21  26
HETATM   26  C13 UNL     1      23.174   4.205   3.808  1.00  0.00     0.395 C 
HETATM   27  F3  UNL     1      22.533   3.795   2.682  1.00  0.00    -0.170 F 
HETATM   28  F4  UNL     1      22.883   5.518   4.115  1.00  0.00    -0.170 F 
HETATM   29  F5  UNL     1      22.820   3.444   4.924  1.00  0.00    -0.170 F 
ENDBRANCH  21  26
ENDBRANCH   6  13
BRANCH   1  30
HETATM   30  O1  UNL     1      31.003   0.015   8.663  1.00  0.00    -0.316 OA
BRANCH  30  31
HETATM   31  C2  UNL     1      30.891   0.335   9.986  1.00  0.00     0.249 C 
BRANCH  31  32
HETATM   32  C1  UNL     1      29.726  -0.172  10.762  1.00  0.00     0.377 C 
HETATM   33  F1  UNL     1      29.947  -0.003  12.130  1.00  0.00    -0.212 F 
HETATM   34  F2  UNL     1      28.487   0.224  10.376  1.00  0.00    -0.212 F 
ENDBRANCH  31  32
ENDBRANCH  30  31
ENDBRANCH   1  30
TORSDOF 5
ENDMDL
MODEL 2
REMARK VINA RESULT: -7.587358669      1.749      2.470
REMARK  5 active torsions:
REMARK  status: ('A' for Active; 'I' for Inactive)
REMARK    1  A    between atoms: C1_2  and  C2_4 
REMARK    2  A    between atoms: C2_4  and  O1_5 
REMARK    3  A    between atoms: O1_5  and  C3_6 
REMARK    4  A    between atoms: C6_11  and  C7_12 
REMARK    5  A    between atoms: C12_20  and  C13_21 
ROOT
HETATM    1  C3  UNL     1      30.306   0.628   9.235  1.00  0.00     0.225 A 
HETATM    2  N1  UNL     1      29.317   1.508   8.852  1.00  0.00    -0.331 N 
ATOM      3  H1  UNL     1      28.818   2.052   9.556  1.00  0.00     0.168 HD
HETATM    4  C4  UNL     1      29.011   1.650   7.558  1.00  0.00     0.107 A 
HETATM    5  C5  UNL     1      29.653   0.942   6.583  1.00  0.00     0.032 A 
HETATM    6  C6  UNL     1      29.523   0.887   5.202  1.00  0.00    -0.019 A 
HETATM    7  C18 UNL     1      30.453  -0.043   4.797  1.00  0.00     0.098 A 
HETATM    8  N3  UNL     1      31.124  -0.538   5.878  1.00  0.00    -0.351 N 
ATOM      9  H3  UNL     1      31.865  -1.240   5.856  1.00  0.00     0.166 HD
HETATM   10  C19 UNL     1      30.630   0.071   6.995  1.00  0.00     0.120 A 
HETATM   11  N4  UNL     1      30.934  -0.066   8.291  1.00  0.00    -0.307 N 
ATOM     12  H4  UNL     1      31.667  -0.722   8.563  1.00  0.00     0.171 HD
ENDROOT
BRANCH   6  13
HETATM   13  C7  UNL     1      28.616   1.706   4.339  1.00  0.00    -0.009 C 
HETATM   14  C8  UNL     1      29.217   3.079   4.217  1.00  0.00     0.042 C 
HETATM   15  C9  UNL     1      28.389   4.262   4.502  1.00  0.00     0.233 C 
HETATM   16  N2  UNL     1      28.005   4.993   3.278  1.00  0.00    -0.075 N 
HETATM   17  C10 UNL     1      26.623   4.628   2.914  1.00  0.00     0.233 C 
ATOM     18  H22 UNL     1      28.128   6.002   3.374  1.00  0.00     0.277 HD
ATOM     19  H21 UNL     1      28.662   4.842   2.513  1.00  0.00     0.277 HD
HETATM   20  C11 UNL     1      26.612   3.380   2.130  1.00  0.00     0.046 C 
HETATM   21  C12 UNL     1      26.231   2.123   2.770  1.00  0.00     0.059 C 
HETATM   22  C14 UNL     1      27.194   1.024   2.354  1.00  0.00     0.019 C 
HETATM   23  C16 UNL     1      26.087   2.052   4.244  1.00  0.00     0.019 C 
HETATM   24  C15 UNL     1      28.542   1.114   2.951  1.00  0.00     0.015 C 
HETATM   25  C17 UNL     1      27.286   1.728   5.050  1.00  0.00     0.015 C 
BRANCH  21  26
HETATM   26  C13 UNL     1      24.894   1.663   2.142  1.00  0.00     0.395 C 
HETATM   27  F3  UNL     1      23.918   2.595   2.294  1.00  0.00    -0.170 F 
HETATM   28  F4  UNL     1      24.555   0.463   2.734  1.00  0.00    -0.170 F 
HETATM   29  F5  UNL     1      25.156   1.387   0.798  1.00  0.00    -0.170 F 
ENDBRANCH  21  26
ENDBRANCH   6  13
BRANCH   1  30
HETATM   30  O1  UNL     1      30.614   0.492  10.555  1.00  0.00    -0.316 OA
BRANCH  30  31
HETATM   31  C2  UNL     1      29.992  -0.244  11.523  1.00  0.00     0.249 C 
BRANCH  31  32
HETATM   32  C1  UNL     1      29.087   0.438  12.489  1.00  0.00     0.377 C 
HETATM   33  F1  UNL     1      28.102   1.152  11.806  1.00  0.00    -0.212 F 
HETATM   34  F2  UNL     1      28.590  -0.295  13.516  1.00  0.00    -0.212 F 
ENDBRANCH  31  32
ENDBRANCH  30  31
ENDBRANCH   1  30
TORSDOF 5
ENDMDL
MODEL 3
REMARK VINA RESULT: -7.224483657      2.183      3.102
REMARK  5 active torsions:
REMARK  status: ('A' for Active; 'I' for Inactive)
REMARK    1  A    between atoms: C1_2  and  C2_4 
REMARK    2  A    between atoms: C2_4  and  O1_5 
REMARK    3  A    between atoms: O1_5  and  C3_6 
REMARK    4  A    between atoms: C6_11  and  C7_12 
REMARK    5  A    between atoms: C12_20  and  C13_21 
ROOT
HETATM    1  C3  UNL     1      30.460   0.658   9.068  1.00  0.00     0.225 A 
HETATM    2  N1  UNL     1      29.437   1.564   8.889  1.00  0.00    -0.331 N 
ATOM      3  H1  UNL     1      29.084   2.098   9.684  1.00  0.00     0.168 HD
HETATM    4  C4  UNL     1      28.907   1.743   7.676  1.00  0.00     0.107 A 
HETATM    5  C5  UNL     1      29.348   1.049   6.586  1.00  0.00     0.032 A 
HETATM    6  C6  UNL     1      28.972   1.032   5.249  1.00  0.00    -0.019 A 
HETATM    7  C18 UNL     1      29.794   0.097   4.663  1.00  0.00     0.098 A 
HETATM    8  N3  UNL     1      30.639  -0.435   5.595  1.00  0.00    -0.351 N 
ATOM      9  H3  UNL     1      31.349  -1.148   5.424  1.00  0.00     0.166 HD
HETATM   10  C19 UNL     1      30.366   0.153   6.795  1.00  0.00     0.120 A 
HETATM   11  N4  UNL     1      30.895  -0.022   8.012  1.00  0.00    -0.307 N 
ATOM     12  H4  UNL     1      31.652  -0.695   8.133  1.00  0.00     0.171 HD
ENDROOT
BRANCH   6  13
HETATM   13  C7  UNL     1      27.941   1.887   4.582  1.00  0.00    -0.009 C 
HETATM   14  C8  UNL     1      26.647   1.123   4.576  1.00  0.00     0.042 C 
HETATM   15  C9  UNL     1      25.903   0.966   3.316  1.00  0.00     0.233 C 
HETATM   16  N2  UNL     1      24.692   1.810   3.263  1.00  0.00    -0.075 N 
HETATM   17  C10 UNL     1      24.980   3.015   2.461  1.00  0.00     0.233 C 
ATOM     18  H22 UNL     1      23.877   1.300   2.920  1.00  0.00     0.277 HD
ATOM     19  H21 UNL     1      24.337   2.037   4.192  1.00  0.00     0.277 HD
HETATM   20  C11 UNL     1      25.621   4.045   3.296  1.00  0.00     0.046 C 
HETATM   21  C12 UNL     1      27.062   4.264   3.202  1.00  0.00     0.059 C 
HETATM   22  C14 UNL     1      27.651   4.406   4.596  1.00  0.00     0.019 C 
HETATM   23  C16 UNL     1      27.913   3.305   2.457  1.00  0.00     0.019 C 
HETATM   24  C15 UNL     1      27.721   3.154   5.375  1.00  0.00     0.015 C 
HETATM   25  C17 UNL     1      28.461   2.140   3.189  1.00  0.00     0.015 C 
BRANCH  21  26
HETATM   26  C13 UNL     1      27.286   5.668   2.591  1.00  0.00     0.395 C 
HETATM   27  F3  UNL     1      26.162   6.143   1.994  1.00  0.00    -0.170 F 
HETATM   28  F4  UNL     1      28.336   5.564   1.702  1.00  0.00    -0.170 F 
HETATM   29  F5  UNL     1      27.720   6.493   3.631  1.00  0.00    -0.170 F 
ENDBRANCH  21  26
ENDBRANCH   6  13
BRANCH   1  30
HETATM   30  O1  UNL     1      30.998   0.485  10.309  1.00  0.00    -0.316 OA
BRANCH  30  31
HETATM   31  C2  UNL     1      30.523  -0.230  11.371  1.00  0.00     0.249 C 
BRANCH  31  32
HETATM   32  C1  UNL     1      29.517   0.391  12.276  1.00  0.00     0.377 C 
HETATM   33  F1  UNL     1      28.326   0.622  11.588  1.00  0.00    -0.212 F 
HETATM   34  F2  UNL     1      29.322  -0.178  13.492  1.00  0.00    -0.212 F 
ENDBRANCH  31  32
ENDBRANCH  30  31
ENDBRANCH   1  30
TORSDOF 5
ENDMDL
MODEL 4
REMARK VINA RESULT: -7.062572188      1.831      2.607
REMARK  5 active torsions:
REMARK  status: ('A' for Active; 'I' for Inactive)
REMARK    1  A    between atoms: C1_2  and  C2_4 
REMARK    2  A    between atoms: C2_4  and  O1_5 
REMARK    3  A    between atoms: O1_5  and  C3_6 
REMARK    4  A    between atoms: C6_11  and  C7_12 
REMARK    5  A    between atoms: C12_20  and  C13_21 
ROOT
HETATM    1  C3  UNL     1      30.178   0.381   7.180  1.00  0.00     0.225 A 
HETATM    2  N1  UNL     1      29.270   1.371   7.487  1.00  0.00    -0.331 N 
ATOM      3  H1  UNL     1      29.244   1.766   8.427  1.00  0.00     0.168 HD
HETATM    4  C4  UNL     1      28.423   1.815   6.554  1.00  0.00     0.107 A 
HETATM    5  C5  UNL     1      28.422   1.314   5.283  1.00  0.00     0.032 A 
HETATM    6  C6  UNL     1      27.658   1.579   4.154  1.00  0.00    -0.019 A 
HETATM    7  C18 UNL     1      28.141   0.720   3.193  1.00  0.00     0.098 A 
HETATM    8  N3  UNL     1      29.155  -0.037   3.706  1.00  0.00    -0.351 N 
ATOM      9  H3  UNL     1      29.685  -0.750   3.204  1.00  0.00     0.166 HD
HETATM   10  C19 UNL     1      29.335   0.328   5.008  1.00  0.00     0.120 A 
HETATM   11  N4  UNL     1      30.183  -0.112   5.946  1.00  0.00    -0.307 N 
ATOM     12  H4  UNL     1      30.850  -0.846   5.707  1.00  0.00     0.171 HD
ENDROOT
BRANCH   6  13
HETATM   13  C7  UNL     1      26.588   2.613   4.000  1.00  0.00    -0.009 C 
HETATM   14  C8  UNL     1      25.261   1.923   4.143  1.00  0.00     0.042 C 
HETATM   15  C9  UNL     1      24.224   2.123   3.117  1.00  0.00     0.233 C 
HETATM   16  N2  UNL     1      23.127   2.995   3.582  1.00  0.00    -0.075 N 
HETATM   17  C10 UNL     1      23.333   4.354   3.046  1.00  0.00     0.233 C 
ATOM     18  H22 UNL     1      22.207   2.621   3.348  1.00  0.00     0.277 HD
ATOM     19  H21 UNL     1      23.029   2.988   4.597  1.00  0.00     0.277 HD
HETATM   20  C11 UNL     1      24.256   5.112   3.910  1.00  0.00     0.046 C 
HETATM   21  C12 UNL     1      25.647   5.295   3.504  1.00  0.00     0.059 C 
HETATM   22  C14 UNL     1      26.563   5.052   4.691  1.00  0.00     0.019 C 
HETATM   23  C16 UNL     1      26.194   4.530   2.357  1.00  0.00     0.019 C 
HETATM   24  C15 UNL     1      26.693   3.640   5.102  1.00  0.00     0.015 C 
HETATM   25  C17 UNL     1      26.782   3.197   2.622  1.00  0.00     0.015 C 
BRANCH  21  26
HETATM   26  C13 UNL     1      25.856   6.800   3.211  1.00  0.00     0.395 C 
HETATM   27  F3  UNL     1      25.747   7.076   1.885  1.00  0.00    -0.170 F 
HETATM   28  F4  UNL     1      27.097   7.144   3.706  1.00  0.00    -0.170 F 
HETATM   29  F5  UNL     1      24.913   7.492   3.974  1.00  0.00    -0.170 F 
ENDBRANCH  21  26
ENDBRANCH   6  13
BRANCH   1  30
HETATM   30  O1  UNL     1      31.041  -0.062   8.137  1.00  0.00    -0.316 OA
BRANCH  30  31
HETATM   31  C2  UNL     1      31.198   0.354   9.429  1.00  0.00     0.249 C 
BRANCH  31  32
HETATM   32  C1  UNL     1      30.233  -0.106  10.464  1.00  0.00     0.377 C 
HETATM   33  F1  UNL     1      30.907  -0.430  11.642  1.00  0.00    -0.212 F 
HETATM   34  F2  UNL     1      29.128   0.651  10.681  1.00  0.00    -0.212 F 
ENDBRANCH  31  32
ENDBRANCH  30  31
ENDBRANCH   1  30
TORSDOF 5
ENDMDL
MODEL 5
REMARK VINA RESULT: -6.135115395      1.637      2.158
REMARK  5 active torsions:
REMARK  status: ('A' for Active; 'I' for Inactive)
REMARK    1  A    between atoms: C1_2  and  C2_4 
REMARK    2  A    between atoms: C2_4  and  O1_5 
REMARK    3  A    between atoms: O1_5  and  C3_6 
REMARK    4  A    between atoms: C6_11  and  C7_12 
REMARK    5  A    between atoms: C12_20  and  C13_21 
ROOT
HETATM    1  C3  UNL     1      30.729   0.694   8.762  1.00  0.00     0.225 A 
HETATM    2  N1  UNL     1      29.722   1.596   8.493  1.00  0.00    -0.331 N 
ATOM      3  H1  UNL     1      29.339   2.171   9.243  1.00  0.00     0.168 HD
HETATM    4  C4  UNL     1      29.247   1.717   7.250  1.00  0.00     0.107 A 
HETATM    5  C5  UNL     1      29.730   0.966   6.216  1.00  0.00     0.032 A 
HETATM    6  C6  UNL     1      29.412   0.884   4.867  1.00  0.00    -0.019 A 
HETATM    7  C18 UNL     1      30.251  -0.085   4.366  1.00  0.00     0.098 A 
HETATM    8  N3  UNL     1      31.049  -0.576   5.359  1.00  0.00    -0.351 N 
ATOM      9  H3  UNL     1      31.759  -1.300   5.256  1.00  0.00     0.166 HD
HETATM   10  C19 UNL     1      30.729   0.075   6.516  1.00  0.00     0.120 A 
HETATM   11  N4  UNL     1      31.203  -0.042   7.762  1.00  0.00    -0.307 N 
ATOM     12  H4  UNL     1      31.947  -0.714   7.949  1.00  0.00     0.171 HD
ENDROOT
BRANCH   6  13
HETATM   13  C7  UNL     1      28.419   1.711   4.113  1.00  0.00    -0.009 C 
HETATM   14  C8  UNL     1      28.965   3.108   4.020  1.00  0.00     0.042 C 
HETATM   15  C9  UNL     1      28.122   4.246   4.423  1.00  0.00     0.233 C 
HETATM   16  N2  UNL     1      27.627   5.022   3.268  1.00  0.00    -0.075 N 
HETATM   17  C10 UNL     1      26.235   4.625   2.983  1.00  0.00     0.233 C 
ATOM     18  H22 UNL     1      27.724   6.028   3.406  1.00  0.00     0.277 HD
ATOM     19  H21 UNL     1      28.232   4.931   2.451  1.00  0.00     0.277 HD
HETATM   20  C11 UNL     1      26.208   3.417   2.140  1.00  0.00     0.046 C 
HETATM   21  C12 UNL     1      25.915   2.118   2.739  1.00  0.00     0.059 C 
HETATM   22  C14 UNL     1      26.881   1.076   2.201  1.00  0.00     0.019 C 
HETATM   23  C16 UNL     1      25.879   1.971   4.214  1.00  0.00     0.019 C 
HETATM   24  C15 UNL     1      28.264   1.185   2.706  1.00  0.00     0.015 C 
HETATM   25  C17 UNL     1      27.143   1.650   4.916  1.00  0.00     0.015 C 
BRANCH  21  26
HETATM   26  C13 UNL     1      24.552   1.642   2.184  1.00  0.00     0.395 C 
HETATM   27  F3  UNL     1      24.086   0.555   2.853  1.00  0.00    -0.170 F 
HETATM   28  F4  UNL     1      24.725   1.383   0.840  1.00  0.00    -0.170 F 
HETATM   29  F5  UNL     1      23.680   2.729   2.274  1.00  0.00    -0.170 F 
ENDBRANCH  21  26
ENDBRANCH   6  13
BRANCH   1  30
HETATM   30  O1  UNL     1      31.210   0.579  10.032  1.00  0.00    -0.316 OA
BRANCH  30  31
HETATM   31  C2  UNL     1      30.589   0.124  11.161  1.00  0.00     0.249 C 
BRANCH  31  32
HETATM   32  C1  UNL     1      29.137  -0.202  11.113  1.00  0.00     0.377 C 
HETATM   33  F1  UNL     1      28.378   0.941  11.365  1.00  0.00    -0.212 F 
HETATM   34  F2  UNL     1      28.683  -0.912  10.050  1.00  0.00    -0.212 F 
ENDBRANCH  31  32
ENDBRANCH  30  31
ENDBRANCH   1  30
TORSDOF 5
ENDMDL
