MODEL 1
REMARK VINA RESULT: -3.016172473      0.000      0.000
REMARK  6 active torsions:
REMARK  status: ('A' for Active; 'I' for Inactive)
REMARK    1  A    between atoms: C6_6  and  S1_7 
REMARK    2  A    between atoms: C10_14  and  N1_15 
REMARK       I    between atoms: N1_15  and  C11_17 
REMARK       I    between atoms: C11_17  and  N2_19 
REMARK    3  A    between atoms: C14_24  and  C15_25 
REMARK    4  A    between atoms: C15_25  and  C16_26 
REMARK    5  A    between atoms: C16_26  and  C17_27 
REMARK    6  A    between atoms: C17_27  and  C18_28 
ROOT
HETATM    1  N1  UNL     1      26.862   1.970   4.053  1.00  0.00    -0.338 N 
ATOM      2  H1  UNL     1      26.713   1.919   5.061  1.00  0.00     0.164 HD
HETATM    3  C11 UNL     1      26.066   2.879   3.337  1.00  0.00     0.320 C 
HETATM    4  O3  UNL     1      26.246   2.950   2.090  1.00  0.00    -0.247 OA
HETATM    5  N2  UNL     1      25.089   3.705   3.950  1.00  0.00    -0.312 N 
HETATM    6  C12 UNL     1      24.800   3.706   5.387  1.00  0.00     0.211 C 
HETATM    7  S2  UNL     1      22.958   3.753   5.303  1.00  0.00    -0.070 SA
HETATM    8  C13 UNL     1      22.840   4.270   3.609  1.00  0.00     0.210 C 
HETATM    9  O4  UNL     1      21.878   4.281   2.920  1.00  0.00    -0.283 OA
HETATM   10  C14 UNL     1      24.214   4.678   3.272  1.00  0.00     0.171 C 
ENDROOT
BRANCH   1  11
HETATM   11  C10 UNL     1      27.860   1.112   3.503  1.00  0.00     0.094 C 
HETATM   12  C4  UNL     1      29.264   1.588   3.577  1.00  0.00     0.011 C 
HETATM   13  C3  UNL     1      30.090   0.650   2.683  1.00  0.00     0.015 C 
HETATM   14  C5  UNL     1      29.882   1.528   4.937  1.00  0.00     0.035 C 
HETATM   15  C2  UNL     1      30.036  -0.734   3.250  1.00  0.00    -0.042 C 
HETATM   16  C1  UNL     1      30.922  -1.641   2.417  1.00  0.00     0.015 C 
HETATM   17  C9  UNL     1      28.607  -1.229   3.193  1.00  0.00     0.015 C 
HETATM   18  C19 UNL     1      30.487  -0.820   4.678  1.00  0.00     0.037 C 
HETATM   19  C8  UNL     1      27.765  -0.313   4.051  1.00  0.00     0.011 C 
HETATM   20  C7  UNL     1      28.220  -0.275   5.484  1.00  0.00     0.035 C 
HETATM   21  C6  UNL     1      29.651   0.153   5.510  1.00  0.00     0.095 C 
BRANCH  21  22
HETATM   22  S1  UNL     1      30.299   0.136   7.165  1.00  0.00     0.308 S 
HETATM   23  O1  UNL     1      29.478  -0.740   8.053  1.00  0.00    -0.193 OA
HETATM   24  O2  UNL     1      30.304   1.548   7.729  1.00  0.00    -0.193 OA
HETATM   25  F1  UNL     1      31.876  -0.423   7.172  1.00  0.00    -0.104 F 
ENDBRANCH  21  22
ENDBRANCH   1  11
BRANCH  10  26
HETATM   26  C15 UNL     1      24.476   6.071   3.806  1.00  0.00     0.034 C 
BRANCH  26  27
HETATM   27  C16 UNL     1      25.607   6.709   3.072  1.00  0.00     0.013 C 
BRANCH  27  28
HETATM   28  C17 UNL     1      26.880   6.703   3.881  1.00  0.00     0.113 C 
BRANCH  28  29
HETATM   29  C18 UNL     1      27.800   5.650   3.392  1.00  0.00     0.172 C 
HETATM   30  O5  UNL     1      28.359   4.904   4.227  1.00  0.00    -0.648 OA
HETATM   31  O6  UNL     1      28.064   5.455   2.053  1.00  0.00    -0.648 OA
ENDBRANCH  28  29
ENDBRANCH  27  28
ENDBRANCH  26  27
ENDBRANCH  10  26
TORSDOF 6
ENDMDL
MODEL 2
REMARK VINA RESULT: -2.630472599      3.159      7.629
REMARK  6 active torsions:
REMARK  status: ('A' for Active; 'I' for Inactive)
REMARK    1  A    between atoms: C6_6  and  S1_7 
REMARK    2  A    between atoms: C10_14  and  N1_15 
REMARK       I    between atoms: N1_15  and  C11_17 
REMARK       I    between atoms: C11_17  and  N2_19 
REMARK    3  A    between atoms: C14_24  and  C15_25 
REMARK    4  A    between atoms: C15_25  and  C16_26 
REMARK    5  A    between atoms: C16_26  and  C17_27 
REMARK    6  A    between atoms: C17_27  and  C18_28 
ROOT
HETATM    1  N1  UNL     1      26.842   2.005   3.846  1.00  0.00    -0.338 N 
ATOM      2  H1  UNL     1      27.440   2.685   3.378  1.00  0.00     0.164 HD
HETATM    3  C11 UNL     1      27.459   0.841   4.333  1.00  0.00     0.320 C 
HETATM    4  O3  UNL     1      26.727  -0.004   4.917  1.00  0.00    -0.247 OA
HETATM    5  N2  UNL     1      28.849   0.587   4.198  1.00  0.00    -0.312 N 
HETATM    6  C12 UNL     1      29.790   1.498   3.542  1.00  0.00     0.211 C 
HETATM    7  S2  UNL     1      30.756   0.258   2.576  1.00  0.00    -0.070 SA
HETATM    8  C13 UNL     1      30.225  -1.172   3.484  1.00  0.00     0.210 C 
HETATM    9  O4  UNL     1      30.366  -2.309   3.191  1.00  0.00    -0.283 OA
HETATM   10  C14 UNL     1      29.571  -0.606   4.676  1.00  0.00     0.171 C 
ENDROOT
BRANCH   1  11
HETATM   11  C10 UNL     1      25.456   2.325   3.947  1.00  0.00     0.094 C 
HETATM   12  C4  UNL     1      25.043   3.146   5.112  1.00  0.00     0.011 C 
HETATM   13  C3  UNL     1      23.507   3.109   5.151  1.00  0.00     0.015 C 
HETATM   14  C5  UNL     1      25.428   4.589   5.037  1.00  0.00     0.035 C 
HETATM   15  C2  UNL     1      22.974   3.756   3.911  1.00  0.00    -0.042 C 
HETATM   16  C1  UNL     1      21.459   3.797   3.991  1.00  0.00     0.015 C 
HETATM   17  C9  UNL     1      23.398   2.936   2.712  1.00  0.00     0.015 C 
HETATM   18  C19 UNL     1      23.471   5.155   3.699  1.00  0.00     0.037 C 
HETATM   19  C8  UNL     1      24.907   2.939   2.657  1.00  0.00     0.011 C 
HETATM   20  C7  UNL     1      25.483   4.324   2.539  1.00  0.00     0.035 C 
HETATM   21  C6  UNL     1      25.000   5.133   3.698  1.00  0.00     0.095 C 
BRANCH  21  22
HETATM   22  S1  UNL     1      25.560   6.816   3.588  1.00  0.00     0.308 S 
HETATM   23  O1  UNL     1      26.948   6.955   4.122  1.00  0.00    -0.193 OA
HETATM   24  O2  UNL     1      24.631   7.720   4.384  1.00  0.00    -0.193 OA
HETATM   25  F1  UNL     1      25.543   7.338   1.999  1.00  0.00    -0.104 F 
ENDBRANCH  21  22
ENDBRANCH   1  11
BRANCH  10  26
HETATM   26  C15 UNL     1      30.624  -0.204   5.688  1.00  0.00     0.034 C 
BRANCH  26  27
HETATM   27  C16 UNL     1      30.004   0.557   6.813  1.00  0.00     0.013 C 
BRANCH  27  28
HETATM   28  C17 UNL     1      30.548   0.127   8.153  1.00  0.00     0.113 C 
BRANCH  28  29
HETATM   29  C18 UNL     1      29.855   0.845   9.248  1.00  0.00     0.172 C 
HETATM   30  O5  UNL     1      29.910   0.373  10.405  1.00  0.00    -0.648 OA
HETATM   31  O6  UNL     1      29.154   2.014   9.045  1.00  0.00    -0.648 OA
ENDBRANCH  28  29
ENDBRANCH  27  28
ENDBRANCH  26  27
ENDBRANCH  10  26
TORSDOF 6
ENDMDL
MODEL 3
REMARK VINA RESULT: -1.912980962      3.074      7.486
REMARK  6 active torsions:
REMARK  status: ('A' for Active; 'I' for Inactive)
REMARK    1  A    between atoms: C6_6  and  S1_7 
REMARK    2  A    between atoms: C10_14  and  N1_15 
REMARK       I    between atoms: N1_15  and  C11_17 
REMARK       I    between atoms: C11_17  and  N2_19 
REMARK    3  A    between atoms: C14_24  and  C15_25 
REMARK    4  A    between atoms: C15_25  and  C16_26 
REMARK    5  A    between atoms: C16_26  and  C17_27 
REMARK    6  A    between atoms: C17_27  and  C18_28 
ROOT
HETATM    1  N1  UNL     1      26.803   2.076   3.941  1.00  0.00    -0.338 N 
ATOM      2  H1  UNL     1      27.404   2.774   3.503  1.00  0.00     0.164 HD
HETATM    3  C11 UNL     1      27.423   0.909   4.417  1.00  0.00     0.320 C 
HETATM    4  O3  UNL     1      26.688   0.042   4.964  1.00  0.00    -0.247 OA
HETATM    5  N2  UNL     1      28.819   0.675   4.310  1.00  0.00    -0.312 N 
HETATM    6  C12 UNL     1      29.765   1.612   3.699  1.00  0.00     0.211 C 
HETATM    7  S2  UNL     1      30.769   0.406   2.730  1.00  0.00    -0.070 SA
HETATM    8  C13 UNL     1      30.234  -1.050   3.592  1.00  0.00     0.210 C 
HETATM    9  O4  UNL     1      30.397  -2.179   3.277  1.00  0.00    -0.283 OA
HETATM   10  C14 UNL     1      29.545  -0.519   4.779  1.00  0.00     0.171 C 
ENDROOT
BRANCH   1  11
HETATM   11  C10 UNL     1      25.411   2.377   4.014  1.00  0.00     0.094 C 
HETATM   12  C4  UNL     1      24.966   3.203   5.164  1.00  0.00     0.011 C 
HETATM   13  C3  UNL     1      23.431   3.143   5.177  1.00  0.00     0.015 C 
HETATM   14  C5  UNL     1      25.332   4.651   5.082  1.00  0.00     0.035 C 
HETATM   15  C2  UNL     1      22.909   3.771   3.922  1.00  0.00    -0.042 C 
HETATM   16  C1  UNL     1      21.394   3.790   3.975  1.00  0.00     0.015 C 
HETATM   17  C9  UNL     1      23.366   2.946   2.738  1.00  0.00     0.015 C 
HETATM   18  C19 UNL     1      23.390   5.175   3.705  1.00  0.00     0.037 C 
HETATM   19  C8  UNL     1      24.876   2.970   2.710  1.00  0.00     0.011 C 
HETATM   20  C7  UNL     1      25.434   4.362   2.588  1.00  0.00     0.035 C 
HETATM   21  C6  UNL     1      24.919   5.175   3.731  1.00  0.00     0.095 C 
BRANCH  21  22
HETATM   22  S1  UNL     1      25.456   6.866   3.614  1.00  0.00     0.308 S 
HETATM   23  O1  UNL     1      25.465   7.327   2.194  1.00  0.00    -0.193 OA
HETATM   24  O2  UNL     1      26.858   6.999   4.187  1.00  0.00    -0.193 OA
HETATM   25  F1  UNL     1      24.446   7.865   4.496  1.00  0.00    -0.104 F 
ENDBRANCH  21  22
ENDBRANCH   1  11
BRANCH  10  26
HETATM   26  C15 UNL     1      30.567  -0.128   5.826  1.00  0.00     0.034 C 
BRANCH  26  27
HETATM   27  C16 UNL     1      29.979  -0.227   7.195  1.00  0.00     0.013 C 
BRANCH  27  28
HETATM   28  C17 UNL     1      30.497   0.854   8.111  1.00  0.00     0.113 C 
BRANCH  28  29
HETATM   29  C18 UNL     1      29.601   2.034   8.078  1.00  0.00     0.172 C 
HETATM   30  O5  UNL     1      28.794   2.202   9.019  1.00  0.00    -0.648 OA
HETATM   31  O6  UNL     1      29.620   2.955   7.053  1.00  0.00    -0.648 OA
ENDBRANCH  28  29
ENDBRANCH  27  28
ENDBRANCH  26  27
ENDBRANCH  10  26
TORSDOF 6
ENDMDL
MODEL 4
REMARK VINA RESULT: -1.620034707      4.665      7.937
REMARK  6 active torsions:
REMARK  status: ('A' for Active; 'I' for Inactive)
REMARK    1  A    between atoms: C6_6  and  S1_7 
REMARK    2  A    between atoms: C10_14  and  N1_15 
REMARK       I    between atoms: N1_15  and  C11_17 
REMARK       I    between atoms: C11_17  and  N2_19 
REMARK    3  A    between atoms: C14_24  and  C15_25 
REMARK    4  A    between atoms: C15_25  and  C16_26 
REMARK    5  A    between atoms: C16_26  and  C17_27 
REMARK    6  A    between atoms: C17_27  and  C18_28 
ROOT
HETATM    1  N1  UNL     1      29.577   2.014   6.955  1.00  0.00    -0.338 N 
ATOM      2  H1  UNL     1      30.589   1.890   6.925  1.00  0.00     0.164 HD
HETATM    3  C11 UNL     1      28.909   1.522   8.088  1.00  0.00     0.320 C 
HETATM    4  O3  UNL     1      27.657   1.673   8.136  1.00  0.00    -0.247 OA
HETATM    5  N2  UNL     1      29.576   0.876   9.162  1.00  0.00    -0.312 N 
HETATM    6  C12 UNL     1      31.022   0.650   9.212  1.00  0.00     0.211 C 
HETATM    7  S2  UNL     1      31.014  -1.085   9.839  1.00  0.00    -0.070 SA
HETATM    8  C13 UNL     1      29.336  -1.090  10.416  1.00  0.00     0.210 C 
HETATM    9  O4  UNL     1      28.687  -2.022  10.748  1.00  0.00    -0.283 OA
HETATM   10  C14 UNL     1      28.950   0.330  10.380  1.00  0.00     0.171 C 
ENDROOT
BRANCH   1  11
HETATM   11  C10 UNL     1      28.972   2.671   5.843  1.00  0.00     0.094 C 
HETATM   12  C4  UNL     1      29.810   2.835   4.629  1.00  0.00     0.011 C 
HETATM   13  C3  UNL     1      29.054   3.802   3.704  1.00  0.00     0.015 C 
HETATM   14  C5  UNL     1      30.033   1.585   3.840  1.00  0.00     0.035 C 
HETATM   15  C2  UNL     1      27.759   3.172   3.296  1.00  0.00    -0.042 C 
HETATM   16  C1  UNL     1      27.054   4.089   2.315  1.00  0.00     0.015 C 
HETATM   17  C9  UNL     1      26.898   2.986   4.527  1.00  0.00     0.015 C 
HETATM   18  C19 UNL     1      27.919   1.828   2.651  1.00  0.00     0.037 C 
HETATM   19  C8  UNL     1      27.625   2.052   5.466  1.00  0.00     0.011 C 
HETATM   20  C7  UNL     1      27.905   0.709   4.849  1.00  0.00     0.035 C 
HETATM   21  C6  UNL     1      28.701   0.922   3.603  1.00  0.00     0.095 C 
BRANCH  21  22
HETATM   22  S1  UNL     1      28.998  -0.614   2.757  1.00  0.00     0.308 S 
HETATM   23  O1  UNL     1      28.020  -1.658   3.185  1.00  0.00    -0.193 OA
HETATM   24  O2  UNL     1      30.406  -1.101   3.059  1.00  0.00    -0.193 OA
HETATM   25  F1  UNL     1      28.871  -0.407   1.103  1.00  0.00    -0.104 F 
ENDBRANCH  21  22
ENDBRANCH   1  11
BRANCH  10  26
HETATM   26  C15 UNL     1      29.497   1.036  11.604  1.00  0.00     0.034 C 
BRANCH  26  27
HETATM   27  C16 UNL     1      28.646   0.749  12.797  1.00  0.00     0.013 C 
BRANCH  27  28
HETATM   28  C17 UNL     1      29.338  -0.167  13.776  1.00  0.00     0.113 C 
BRANCH  28  29
HETATM   29  C18 UNL     1      28.359  -0.743  14.727  1.00  0.00     0.172 C 
HETATM   30  O5  UNL     1      27.138  -0.579  14.505  1.00  0.00    -0.648 OA
HETATM   31  O6  UNL     1      28.736  -1.453  15.846  1.00  0.00    -0.648 OA
ENDBRANCH  28  29
ENDBRANCH  27  28
ENDBRANCH  26  27
ENDBRANCH  10  26
TORSDOF 6
ENDMDL
MODEL 5
REMARK VINA RESULT: -1.602064674      4.399      7.954
REMARK  6 active torsions:
REMARK  status: ('A' for Active; 'I' for Inactive)
REMARK    1  A    between atoms: C6_6  and  S1_7 
REMARK    2  A    between atoms: C10_14  and  N1_15 
REMARK       I    between atoms: N1_15  and  C11_17 
REMARK       I    between atoms: C11_17  and  N2_19 
REMARK    3  A    between atoms: C14_24  and  C15_25 
REMARK    4  A    between atoms: C15_25  and  C16_26 
REMARK    5  A    between atoms: C16_26  and  C17_27 
REMARK    6  A    between atoms: C17_27  and  C18_28 
ROOT
HETATM    1  N1  UNL     1      30.133   0.475   6.370  1.00  0.00    -0.338 N 
ATOM      2  H1  UNL     1      30.807   1.236   6.447  1.00  0.00     0.164 HD
HETATM    3  C11 UNL     1      29.631  -0.056   7.570  1.00  0.00     0.320 C 
HETATM    4  O3  UNL     1      28.794  -0.996   7.485  1.00  0.00    -0.247 OA
HETATM    5  N2  UNL     1      30.021   0.419   8.850  1.00  0.00    -0.312 N 
HETATM    6  C12 UNL     1      30.980   1.505   9.065  1.00  0.00     0.211 C 
HETATM    7  S2  UNL     1      31.948   0.755  10.446  1.00  0.00    -0.070 SA
HETATM    8  C13 UNL     1      30.759  -0.489  10.880  1.00  0.00     0.210 C 
HETATM    9  O4  UNL     1      30.915  -1.423  11.590  1.00  0.00    -0.283 OA
HETATM   10  C14 UNL     1      29.546  -0.084  10.152  1.00  0.00     0.171 C 
ENDROOT
BRANCH   1  11
HETATM   11  C10 UNL     1      29.787   0.048   5.054  1.00  0.00     0.094 C 
HETATM   12  C4  UNL     1      28.353  -0.242   4.802  1.00  0.00     0.011 C 
HETATM   13  C3  UNL     1      28.284  -0.943   3.436  1.00  0.00     0.015 C 
HETATM   14  C5  UNL     1      27.471   0.961   4.704  1.00  0.00     0.035 C 
HETATM   15  C2  UNL     1      28.761   0.003   2.379  1.00  0.00    -0.042 C 
HETATM   16  C1  UNL     1      28.610  -0.659   1.022  1.00  0.00     0.015 C 
HETATM   17  C9  UNL     1      30.220   0.319   2.631  1.00  0.00     0.015 C 
HETATM   18  C19 UNL     1      28.016   1.305   2.353  1.00  0.00     0.037 C 
HETATM   19  C8  UNL     1      30.323   0.994   3.978  1.00  0.00     0.011 C 
HETATM   20  C7  UNL     1      29.520   2.264   4.056  1.00  0.00     0.035 C 
HETATM   21  C6  UNL     1      28.096   1.939   3.742  1.00  0.00     0.095 C 
BRANCH  21  22
HETATM   22  S1  UNL     1      27.089   3.403   3.720  1.00  0.00     0.308 S 
HETATM   23  O1  UNL     1      27.892   4.610   4.079  1.00  0.00    -0.193 OA
HETATM   24  O2  UNL     1      25.947   3.256   4.714  1.00  0.00    -0.193 OA
HETATM   25  F1  UNL     1      26.422   3.635   2.204  1.00  0.00    -0.104 F 
ENDBRANCH  21  22
ENDBRANCH   1  11
BRANCH  10  26
HETATM   26  C15 UNL     1      28.845   1.023  10.910  1.00  0.00     0.034 C 
BRANCH  26  27
HETATM   27  C16 UNL     1      28.127   0.471  12.097  1.00  0.00     0.013 C 
BRANCH  27  28
HETATM   28  C17 UNL     1      28.954   0.574  13.355  1.00  0.00     0.113 C 
BRANCH  28  29
HETATM   29  C18 UNL     1      28.515  -0.435  14.347  1.00  0.00     0.172 C 
HETATM   30  O5  UNL     1      27.291  -0.665  14.468  1.00  0.00    -0.648 OA
HETATM   31  O6  UNL     1      29.399  -1.133  15.141  1.00  0.00    -0.648 OA
ENDBRANCH  28  29
ENDBRANCH  27  28
ENDBRANCH  26  27
ENDBRANCH  10  26
TORSDOF 6
ENDMDL
