MODEL 1
REMARK VINA RESULT: -7.463382351      0.000      0.000
REMARK  9 active torsions:
REMARK  status: ('A' for Active; 'I' for Inactive)
REMARK    1  A    between atoms: O1_2  and  C2_3 
REMARK    2  A    between atoms: C4_6  and  O2_7 
REMARK    3  A    between atoms: C5_9  and  C6_10 
REMARK    4  A    between atoms: C6_10  and  C7_11 
REMARK    5  A    between atoms: C6_10  and  C10_18 
REMARK    6  A    between atoms: C7_11  and  S1_12 
REMARK    7  A    between atoms: S1_12  and  C8_13 
REMARK    8  A    between atoms: C8_13  and  C9_15 
REMARK    9  A    between atoms: C10_18  and  O6_20 
ROOT
HETATM    1  C2  UNL     1      26.002   3.959   3.723  1.00  0.00     0.116 A 
HETATM    2  C3  UNL     1      27.282   4.347   3.926  1.00  0.00     0.103 A 
HETATM    3 CL1  UNL     1      27.710   6.034   3.747  1.00  0.00    -0.078 Cl
HETATM    4  C4  UNL     1      28.253   3.384   4.303  1.00  0.00     0.102 A 
HETATM    5  C5  UNL     1      27.991   2.058   4.483  1.00  0.00     0.028 A 
HETATM    6  C13 UNL     1      26.629   1.729   4.245  1.00  0.00     0.072 A 
HETATM    7 CL2  UNL     1      26.111   0.058   4.209  1.00  0.00    -0.081 Cl
HETATM    8  C14 UNL     1      25.682   2.651   3.885  1.00  0.00     0.091 A 
HETATM    9 CL3  UNL     1      24.004   2.129   3.614  1.00  0.00    -0.079 Cl
ENDROOT
BRANCH   5  10
HETATM   10  C6  UNL     1      28.958   0.984   4.676  1.00  0.00    -0.027 C 
BRANCH  10  11
HETATM   11  C7  UNL     1      29.898   1.463   5.776  1.00  0.00     0.120 C 
BRANCH  11  12
HETATM   12  S1  UNL     1      29.155   1.745   7.341  1.00  0.00    -0.076 SA
BRANCH  12  13
HETATM   13  C8  UNL     1      29.857   1.020   8.766  1.00  0.00     0.285 C 
HETATM   14  O3  UNL     1      30.982   0.494   8.924  1.00  0.00    -0.273 OA
BRANCH  13  15
HETATM   15  C9  UNL     1      28.948   1.042   9.980  1.00  0.00     0.258 C 
HETATM   16  O4  UNL     1      28.084   1.958  10.082  1.00  0.00    -0.641 OA
HETATM   17  O5  UNL     1      29.085   0.083  10.919  1.00  0.00    -0.641 OA
ENDBRANCH  13  15
ENDBRANCH  12  13
ENDBRANCH  11  12
ENDBRANCH  10  11
BRANCH  10  18
HETATM   18  C10 UNL     1      29.602   0.231   3.631  1.00  0.00     0.147 C 
HETATM   19  C11 UNL     1      29.091   0.001   2.288  1.00  0.00     0.044 C 
BRANCH  18  20
HETATM   20  O6  UNL     1      29.769  -1.096   4.192  1.00  0.00    -0.387 OA
HETATM   21  C12 UNL     1      30.457  -1.888   3.303  1.00  0.00     0.202 C 
ENDBRANCH  18  20
ENDBRANCH  10  18
ENDBRANCH   5  10
BRANCH   4  22
HETATM   22  O2  UNL     1      29.504   3.939   4.466  1.00  0.00    -0.358 OA
ATOM     23  H2  UNL     1      30.072   3.396   5.000  1.00  0.00     0.217 HD
ENDBRANCH   4  22
BRANCH   1  24
HETATM   24  O1  UNL     1      24.979   4.842   3.353  1.00  0.00    -0.352 OA
HETATM   25  C1  UNL     1      24.265   5.464   4.424  1.00  0.00     0.210 C 
ENDBRANCH   1  24
TORSDOF 9
ENDMDL
MODEL 2
REMARK VINA RESULT: -7.323182237      0.760      1.067
REMARK  9 active torsions:
REMARK  status: ('A' for Active; 'I' for Inactive)
REMARK    1  A    between atoms: O1_2  and  C2_3 
REMARK    2  A    between atoms: C4_6  and  O2_7 
REMARK    3  A    between atoms: C5_9  and  C6_10 
REMARK    4  A    between atoms: C6_10  and  C7_11 
REMARK    5  A    between atoms: C6_10  and  C10_18 
REMARK    6  A    between atoms: C7_11  and  S1_12 
REMARK    7  A    between atoms: S1_12  and  C8_13 
REMARK    8  A    between atoms: C8_13  and  C9_15 
REMARK    9  A    between atoms: C10_18  and  O6_20 
ROOT
HETATM    1  C2  UNL     1      25.969   3.874   3.704  1.00  0.00     0.116 A 
HETATM    2  C3  UNL     1      27.220   4.319   3.961  1.00  0.00     0.103 A 
HETATM    3 CL1  UNL     1      27.582   6.022   3.788  1.00  0.00    -0.078 Cl
HETATM    4  C4  UNL     1      28.214   3.402   4.389  1.00  0.00     0.102 A 
HETATM    5  C5  UNL     1      28.001   2.067   4.569  1.00  0.00     0.028 A 
HETATM    6  C13 UNL     1      26.668   1.677   4.272  1.00  0.00     0.072 A 
HETATM    7 CL2  UNL     1      26.225  -0.015   4.227  1.00  0.00    -0.081 Cl
HETATM    8  C14 UNL     1      25.699   2.555   3.862  1.00  0.00     0.091 A 
HETATM    9 CL3  UNL     1      24.060   1.958   3.520  1.00  0.00    -0.079 Cl
ENDROOT
BRANCH   5  10
HETATM   10  C6  UNL     1      29.005   1.038   4.814  1.00  0.00    -0.027 C 
BRANCH  10  11
HETATM   11  C7  UNL     1      29.857   1.553   5.967  1.00  0.00     0.120 C 
BRANCH  11  12
HETATM   12  S1  UNL     1      30.126   0.420   7.280  1.00  0.00    -0.076 SA
BRANCH  12  13
HETATM   13  C8  UNL     1      29.613   0.843   8.896  1.00  0.00     0.285 C 
HETATM   14  O3  UNL     1      29.073   1.892   9.314  1.00  0.00    -0.273 OA
BRANCH  13  15
HETATM   15  C9  UNL     1      29.872  -0.239   9.927  1.00  0.00     0.258 C 
HETATM   16  O4  UNL     1      29.446  -1.408   9.709  1.00  0.00    -0.641 OA
HETATM   17  O5  UNL     1      30.551   0.075  11.049  1.00  0.00    -0.641 OA
ENDBRANCH  13  15
ENDBRANCH  12  13
ENDBRANCH  11  12
ENDBRANCH  10  11
BRANCH  10  18
HETATM   18  C10 UNL     1      29.742   0.320   3.806  1.00  0.00     0.147 C 
HETATM   19  C11 UNL     1      29.529   0.384   2.368  1.00  0.00     0.044 C 
BRANCH  18  20
HETATM   20  O6  UNL     1      29.549  -1.077   4.144  1.00  0.00    -0.387 OA
HETATM   21  C12 UNL     1      30.303  -1.861   3.302  1.00  0.00     0.202 C 
ENDBRANCH  18  20
ENDBRANCH  10  18
ENDBRANCH   5  10
BRANCH   4  22
HETATM   22  O2  UNL     1      29.431   4.012   4.604  1.00  0.00    -0.358 OA
ATOM     23  H2  UNL     1      30.031   3.457   5.089  1.00  0.00     0.217 HD
ENDBRANCH   4  22
BRANCH   1  24
HETATM   24  O1  UNL     1      24.926   4.710   3.280  1.00  0.00    -0.352 OA
HETATM   25  C1  UNL     1      24.139   5.308   4.313  1.00  0.00     0.210 C 
ENDBRANCH   1  24
TORSDOF 9
ENDMDL
MODEL 3
REMARK VINA RESULT: -6.450547917      1.341      2.431
REMARK  9 active torsions:
REMARK  status: ('A' for Active; 'I' for Inactive)
REMARK    1  A    between atoms: O1_2  and  C2_3 
REMARK    2  A    between atoms: C4_6  and  O2_7 
REMARK    3  A    between atoms: C5_9  and  C6_10 
REMARK    4  A    between atoms: C6_10  and  C7_11 
REMARK    5  A    between atoms: C6_10  and  C10_18 
REMARK    6  A    between atoms: C7_11  and  S1_12 
REMARK    7  A    between atoms: S1_12  and  C8_13 
REMARK    8  A    between atoms: C8_13  and  C9_15 
REMARK    9  A    between atoms: C10_18  and  O6_20 
ROOT
HETATM    1  C2  UNL     1      25.829   3.917   3.724  1.00  0.00     0.116 A 
HETATM    2  C3  UNL     1      25.413   2.632   3.784  1.00  0.00     0.103 A 
HETATM    3 CL1  UNL     1      23.747   2.245   3.415  1.00  0.00    -0.078 Cl
HETATM    4  C4  UNL     1      26.340   1.613   4.124  1.00  0.00     0.102 A 
HETATM    5  C5  UNL     1      27.656   1.833   4.402  1.00  0.00     0.028 A 
HETATM    6  C13 UNL     1      28.013   3.206   4.325  1.00  0.00     0.072 A 
HETATM    7 CL2  UNL     1      29.594   3.746   4.847  1.00  0.00    -0.081 Cl
HETATM    8  C14 UNL     1      27.128   4.198   3.994  1.00  0.00     0.091 A 
HETATM    9 CL3  UNL     1      27.683   5.885   3.924  1.00  0.00    -0.079 Cl
ENDROOT
BRANCH   5  10
HETATM   10  C6  UNL     1      28.617   0.878   4.944  1.00  0.00    -0.027 C 
BRANCH  10  11
HETATM   11  C7  UNL     1      29.033   1.431   6.301  1.00  0.00     0.120 C 
BRANCH  11  12
HETATM   12  S1  UNL     1      30.011   0.362   7.291  1.00  0.00    -0.076 SA
BRANCH  12  13
HETATM   13  C8  UNL     1      30.214   0.712   8.990  1.00  0.00     0.285 C 
HETATM   14  O3  UNL     1      31.248   0.688   9.693  1.00  0.00    -0.273 OA
BRANCH  13  15
HETATM   15  C9  UNL     1      28.928   1.101   9.695  1.00  0.00     0.258 C 
HETATM   16  O4  UNL     1      28.395   2.214   9.427  1.00  0.00    -0.641 OA
HETATM   17  O5  UNL     1      28.389   0.248  10.591  1.00  0.00    -0.641 OA
ENDBRANCH  13  15
ENDBRANCH  12  13
ENDBRANCH  11  12
ENDBRANCH  10  11
BRANCH  10  18
HETATM   18  C10 UNL     1      29.680   0.242   4.210  1.00  0.00     0.147 C 
HETATM   19  C11 UNL     1      30.153   0.603   2.882  1.00  0.00     0.044 C 
BRANCH  18  20
HETATM   20  O6  UNL     1      29.257  -1.139   4.085  1.00  0.00    -0.387 OA
HETATM   21  C12 UNL     1      30.168  -1.832   3.322  1.00  0.00     0.202 C 
ENDBRANCH  18  20
ENDBRANCH  10  18
ENDBRANCH   5  10
BRANCH   4  22
HETATM   22  O2  UNL     1      25.759   0.363   4.145  1.00  0.00    -0.358 OA
ATOM     23  H2  UNL     1      26.240  -0.249   4.690  1.00  0.00     0.217 HD
ENDBRANCH   4  22
BRANCH   1  24
HETATM   24  O1  UNL     1      24.983   4.985   3.394  1.00  0.00    -0.352 OA
HETATM   25  C1  UNL     1      24.003   5.340   4.372  1.00  0.00     0.210 C 
ENDBRANCH   1  24
TORSDOF 9
ENDMDL
MODEL 4
REMARK VINA RESULT: -6.391522266      1.449      2.639
REMARK  9 active torsions:
REMARK  status: ('A' for Active; 'I' for Inactive)
REMARK    1  A    between atoms: O1_2  and  C2_3 
REMARK    2  A    between atoms: C4_6  and  O2_7 
REMARK    3  A    between atoms: C5_9  and  C6_10 
REMARK    4  A    between atoms: C6_10  and  C7_11 
REMARK    5  A    between atoms: C6_10  and  C10_18 
REMARK    6  A    between atoms: C7_11  and  S1_12 
REMARK    7  A    between atoms: S1_12  and  C8_13 
REMARK    8  A    between atoms: C8_13  and  C9_15 
REMARK    9  A    between atoms: C10_18  and  O6_20 
ROOT
HETATM    1  C2  UNL     1      25.752   3.804   3.694  1.00  0.00     0.116 A 
HETATM    2  C3  UNL     1      25.422   2.496   3.777  1.00  0.00     0.103 A 
HETATM    3 CL1  UNL     1      23.789   1.993   3.400  1.00  0.00    -0.078 Cl
HETATM    4  C4  UNL     1      26.409   1.547   4.146  1.00  0.00     0.102 A 
HETATM    5  C5  UNL     1      27.706   1.859   4.433  1.00  0.00     0.028 A 
HETATM    6  C13 UNL     1      27.972   3.251   4.330  1.00  0.00     0.072 A 
HETATM    7 CL2  UNL     1      29.508   3.904   4.857  1.00  0.00    -0.081 Cl
HETATM    8  C14 UNL     1      27.027   4.175   3.970  1.00  0.00     0.091 A 
HETATM    9 CL3  UNL     1      27.471   5.894   3.871  1.00  0.00    -0.079 Cl
ENDROOT
BRANCH   5  10
HETATM   10  C6  UNL     1      28.721   0.981   5.004  1.00  0.00    -0.027 C 
BRANCH  10  11
HETATM   11  C7  UNL     1      29.194   1.666   6.279  1.00  0.00     0.120 C 
BRANCH  11  12
HETATM   12  S1  UNL     1      29.929   0.616   7.479  1.00  0.00    -0.076 SA
BRANCH  12  13
HETATM   13  C8  UNL     1      29.475   0.784   9.158  1.00  0.00     0.285 C 
HETATM   14  O3  UNL     1      28.807   1.681   9.719  1.00  0.00    -0.273 OA
BRANCH  13  15
HETATM   15  C9  UNL     1      29.979  -0.337  10.047  1.00  0.00     0.258 C 
HETATM   16  O4  UNL     1      29.710  -1.532   9.738  1.00  0.00    -0.641 OA
HETATM   17  O5  UNL     1      30.701  -0.028  11.143  1.00  0.00    -0.641 OA
ENDBRANCH  13  15
ENDBRANCH  12  13
ENDBRANCH  11  12
ENDBRANCH  10  11
BRANCH  10  18
HETATM   18  C10 UNL     1      29.760   0.305   4.271  1.00  0.00     0.147 C 
HETATM   19  C11 UNL     1      30.235   0.636   2.936  1.00  0.00     0.044 C 
BRANCH  18  20
HETATM   20  O6  UNL     1      29.296  -1.064   4.166  1.00  0.00    -0.387 OA
HETATM   21  C12 UNL     1      30.116  -1.764   3.311  1.00  0.00     0.202 C 
ENDBRANCH  18  20
ENDBRANCH  10  18
ENDBRANCH   5  10
BRANCH   4  22
HETATM   22  O2  UNL     1      25.912   0.263   4.189  1.00  0.00    -0.358 OA
ATOM     23  H2  UNL     1      25.157   0.187   4.760  1.00  0.00     0.217 HD
ENDBRANCH   4  22
BRANCH   1  24
HETATM   24  O1  UNL     1      24.842   4.808   3.334  1.00  0.00    -0.352 OA
HETATM   25  C1  UNL     1      23.943   5.240   4.357  1.00  0.00     0.210 C 
ENDBRANCH   1  24
TORSDOF 9
ENDMDL
MODEL 5
REMARK VINA RESULT: -6.316074013      1.313      1.608
REMARK  9 active torsions:
REMARK  status: ('A' for Active; 'I' for Inactive)
REMARK    1  A    between atoms: O1_2  and  C2_3 
REMARK    2  A    between atoms: C4_6  and  O2_7 
REMARK    3  A    between atoms: C5_9  and  C6_10 
REMARK    4  A    between atoms: C6_10  and  C7_11 
REMARK    5  A    between atoms: C6_10  and  C10_18 
REMARK    6  A    between atoms: C7_11  and  S1_12 
REMARK    7  A    between atoms: S1_12  and  C8_13 
REMARK    8  A    between atoms: C8_13  and  C9_15 
REMARK    9  A    between atoms: C10_18  and  O6_20 
ROOT
HETATM    1  C2  UNL     1      25.605   5.042   3.671  1.00  0.00     0.116 A 
HETATM    2  C3  UNL     1      26.938   5.198   3.837  1.00  0.00     0.103 A 
HETATM    3 CL1  UNL     1      27.649   6.787   3.657  1.00  0.00    -0.078 Cl
HETATM    4  C4  UNL     1      27.736   4.076   4.177  1.00  0.00     0.102 A 
HETATM    5  C5  UNL     1      27.252   2.814   4.357  1.00  0.00     0.028 A 
HETATM    6  C13 UNL     1      25.848   2.730   4.159  1.00  0.00     0.072 A 
HETATM    7 CL2  UNL     1      25.044   1.176   4.127  1.00  0.00    -0.081 Cl
HETATM    8  C14 UNL     1      25.066   3.808   3.834  1.00  0.00     0.091 A 
HETATM    9 CL3  UNL     1      23.316   3.590   3.611  1.00  0.00    -0.079 Cl
ENDROOT
BRANCH   5  10
HETATM   10  C6  UNL     1      28.022   1.586   4.512  1.00  0.00    -0.027 C 
BRANCH  10  11
HETATM   11  C7  UNL     1      29.237   1.959   5.352  1.00  0.00     0.120 C 
BRANCH  11  12
HETATM   12  S1  UNL     1      29.710   0.787   6.569  1.00  0.00    -0.076 SA
BRANCH  12  13
HETATM   13  C8  UNL     1      29.686   1.244   8.255  1.00  0.00     0.285 C 
HETATM   14  O3  UNL     1      29.307   2.311   8.788  1.00  0.00    -0.273 OA
BRANCH  13  15
HETATM   15  C9  UNL     1      30.208   0.172   9.192  1.00  0.00     0.258 C 
HETATM   16  O4  UNL     1      29.615  -0.943   9.237  1.00  0.00    -0.641 OA
HETATM   17  O5  UNL     1      31.291   0.436   9.951  1.00  0.00    -0.641 OA
ENDBRANCH  13  15
ENDBRANCH  12  13
ENDBRANCH  11  12
ENDBRANCH  10  11
BRANCH  10  18
HETATM   18  C10 UNL     1      28.290   0.621   3.477  1.00  0.00     0.147 C 
HETATM   19  C11 UNL     1      28.268  -0.828   3.617  1.00  0.00     0.044 C 
BRANCH  18  20
HETATM   20  O6  UNL     1      29.637   0.926   3.038  1.00  0.00    -0.387 OA
HETATM   21  C12 UNL     1      30.220  -0.208   2.521  1.00  0.00     0.202 C 
ENDBRANCH  18  20
ENDBRANCH  10  18
ENDBRANCH   5  10
BRANCH   4  22
HETATM   22  O2  UNL     1      29.069   4.402   4.306  1.00  0.00    -0.358 OA
ATOM     23  H2  UNL     1      29.429   4.127   5.141  1.00  0.00     0.217 HD
ENDBRANCH   4  22
BRANCH   1  24
HETATM   24  O1  UNL     1      24.742   6.095   3.339  1.00  0.00    -0.352 OA
HETATM   25  C1  UNL     1      24.349   6.952   4.414  1.00  0.00     0.210 C 
ENDBRANCH   1  24
TORSDOF 9
ENDMDL
