MODEL 1
REMARK VINA RESULT: -9.002964141      0.000      0.000
REMARK  8 active torsions:
REMARK  status: ('A' for Active; 'I' for Inactive)
REMARK    1  A    between atoms: C2_7  and  C3_8 
REMARK    2  A    between atoms: C3_8  and  C4_9 
REMARK    3  A    between atoms: C4_9  and  N3_10 
REMARK    4  A    between atoms: C6_15  and  C7_16 
REMARK    5  A    between atoms: C9_21  and  C10_22 
REMARK    6  A    between atoms: C9_21  and  C15_32 
REMARK    7  A    between atoms: N6_26  and  C12_27 
REMARK    8  A    between atoms: C12_27  and  C13_28 
ROOT
HETATM    1  N3  UNL     1      29.202   1.732   8.037  1.00  0.00    -0.226 N 
ATOM      2  H3  UNL     1      28.735   2.384   8.667  1.00  0.00     0.177 HD
HETATM    3  C5  UNL     1      28.785   1.511   6.839  1.00  0.00     0.675 C 
HETATM    4  N4  UNL     1      29.397   0.612   5.932  1.00  0.00    -0.191 N 
ATOM      5  H4  UNL     1      30.197   0.068   6.252  1.00  0.00     0.184 HD
HETATM    6  C6  UNL     1      28.998   0.451   4.742  1.00  0.00     0.112 C 
HETATM    7  C8  UNL     1      27.861   1.175   4.159  1.00  0.00     0.108 C 
HETATM    8  C9  UNL     1      27.597   2.454   4.864  1.00  0.00     0.179 C 
HETATM    9  N7  UNL     1      27.665   2.224   6.290  1.00  0.00    -0.203 N 
ATOM     10  H7  UNL     1      26.925   2.566   6.902  1.00  0.00     0.179 HD
ENDROOT
BRANCH   8  11
HETATM   11  C10 UNL     1      26.241   2.995   4.455  1.00  0.00     0.014 A 
HETATM   12  C11 UNL     1      25.252   2.366   3.737  1.00  0.00     0.118 A 
HETATM   13  N5  UNL     1      24.213   3.233   3.649  1.00  0.00    -0.309 N 
HETATM   14  N6  UNL     1      24.499   4.370   4.270  1.00  0.00    -0.298 N 
ATOM     15  H5  UNL     1      23.334   3.037   3.170  1.00  0.00     0.186 HD
HETATM   16  C14 UNL     1      25.746   4.243   4.773  1.00  0.00     0.121 A 
BRANCH  14  17
HETATM   17  C12 UNL     1      23.627   5.535   4.426  1.00  0.00     0.219 C 
BRANCH  17  18
HETATM   18  C13 UNL     1      24.478   6.762   4.323  1.00  0.00     0.372 C 
HETATM   19  F4  UNL     1      24.496   7.109   2.977  1.00  0.00    -0.213 F 
HETATM   20  F5  UNL     1      23.971   7.776   5.119  1.00  0.00    -0.213 F 
ENDBRANCH  17  18
ENDBRANCH  14  17
ENDBRANCH   8  11
BRANCH   8  21
HETATM   21  C15 UNL     1      28.581   3.556   4.530  1.00  0.00     0.418 C 
HETATM   22  F6  UNL     1      28.344   4.558   5.483  1.00  0.00    -0.168 F 
HETATM   23  F7  UNL     1      29.876   3.151   4.534  1.00  0.00    -0.168 F 
HETATM   24  F8  UNL     1      28.204   4.075   3.289  1.00  0.00    -0.168 F 
ENDBRANCH   8  21
BRANCH   6  25
HETATM   25  C7  UNL     1      29.750  -0.544   3.898  1.00  0.00     0.429 C 
HETATM   26  F1  UNL     1      30.813  -1.065   4.589  1.00  0.00    -0.165 F 
HETATM   27  F2  UNL     1      28.933  -1.578   3.485  1.00  0.00    -0.165 F 
HETATM   28  F3  UNL     1      30.196   0.132   2.752  1.00  0.00    -0.165 F 
ENDBRANCH   6  25
BRANCH   1  29
HETATM   29  C4  UNL     1      30.378   0.988   8.425  1.00  0.00     0.144 C 
BRANCH  29  30
HETATM   30  C3  UNL     1      30.137  -0.266   9.187  1.00  0.00     0.078 C 
BRANCH  30  31
HETATM   31  C2  UNL     1      29.335   0.198  10.405  1.00  0.00     0.019 A 
HETATM   32  N2  UNL     1      29.638  -0.143  11.639  1.00  0.00    -0.340 N 
HETATM   33  C1  UNL     1      28.881   0.329  12.626  1.00  0.00     0.142 A 
ATOM     34  H2  UNL     1      30.432  -0.752  11.833  1.00  0.00     0.167 HD
HETATM   35  N1  UNL     1      29.014   0.109  13.924  1.00  0.00    -0.380 N 
HETATM   36  S1  UNL     1      27.718   1.275  11.810  1.00  0.00    -0.064 SA
ATOM     37  H12 UNL     1      29.710  -0.456  14.411  1.00  0.00     0.158 HD
ATOM     38  H11 UNL     1      28.434   0.470  14.680  1.00  0.00     0.158 HD
HETATM   39  C16 UNL     1      28.259   1.017  10.218  1.00  0.00     0.078 A 
ENDBRANCH  30  31
ENDBRANCH  29  30
ENDBRANCH   1  29
TORSDOF 8
ENDMDL
MODEL 2
REMARK VINA RESULT: -8.488474428      1.418      1.797
REMARK  8 active torsions:
REMARK  status: ('A' for Active; 'I' for Inactive)
REMARK    1  A    between atoms: C2_7  and  C3_8 
REMARK    2  A    between atoms: C3_8  and  C4_9 
REMARK    3  A    between atoms: C4_9  and  N3_10 
REMARK    4  A    between atoms: C6_15  and  C7_16 
REMARK    5  A    between atoms: C9_21  and  C10_22 
REMARK    6  A    between atoms: C9_21  and  C15_32 
REMARK    7  A    between atoms: N6_26  and  C12_27 
REMARK    8  A    between atoms: C12_27  and  C13_28 
ROOT
HETATM    1  N3  UNL     1      29.386   1.312   7.644  1.00  0.00    -0.226 N 
ATOM      2  H3  UNL     1      28.776   1.955   8.148  1.00  0.00     0.177 HD
HETATM    3  C5  UNL     1      29.103   0.870   6.468  1.00  0.00     0.675 C 
HETATM    4  N4  UNL     1      29.915  -0.026   5.733  1.00  0.00    -0.191 N 
ATOM      5  H4  UNL     1      30.764  -0.384   6.171  1.00  0.00     0.184 HD
HETATM    6  C6  UNL     1      29.640  -0.405   4.558  1.00  0.00     0.112 C 
HETATM    7  C8  UNL     1      28.452   0.038   3.816  1.00  0.00     0.108 C 
HETATM    8  C9  UNL     1      27.938   1.336   4.317  1.00  0.00     0.179 C 
HETATM    9  N7  UNL     1      27.931   1.310   5.763  1.00  0.00    -0.203 N 
ATOM     10  H7  UNL     1      27.101   1.602   6.278  1.00  0.00     0.179 HD
ENDROOT
BRANCH   8  11
HETATM   11  C10 UNL     1      26.550   1.588   3.761  1.00  0.00     0.014 A 
HETATM   12  C11 UNL     1      26.004   1.127   2.587  1.00  0.00     0.118 A 
HETATM   13  N5  UNL     1      24.730   1.586   2.535  1.00  0.00    -0.309 N 
HETATM   14  N6  UNL     1      24.449   2.309   3.611  1.00  0.00    -0.298 N 
ATOM     15  H5  UNL     1      24.077   1.400   1.773  1.00  0.00     0.186 HD
HETATM   16  C14 UNL     1      25.559   2.322   4.379  1.00  0.00     0.121 A 
BRANCH  14  17
HETATM   17  C12 UNL     1      23.171   2.943   3.941  1.00  0.00     0.219 C 
BRANCH  17  18
HETATM   18  C13 UNL     1      23.452   4.080   4.873  1.00  0.00     0.372 C 
HETATM   19  F4  UNL     1      22.482   5.042   4.613  1.00  0.00    -0.213 F 
HETATM   20  F5  UNL     1      23.424   3.650   6.190  1.00  0.00    -0.213 F 
ENDBRANCH  17  18
ENDBRANCH  14  17
ENDBRANCH   8  11
BRANCH   8  21
HETATM   21  C15 UNL     1      28.761   2.532   3.885  1.00  0.00     0.418 C 
HETATM   22  F6  UNL     1      29.990   2.000   3.468  1.00  0.00    -0.168 F 
HETATM   23  F7  UNL     1      28.175   3.274   2.910  1.00  0.00    -0.168 F 
HETATM   24  F8  UNL     1      29.012   3.289   5.032  1.00  0.00    -0.168 F 
ENDBRANCH   8  21
BRANCH   6  25
HETATM   25  C7  UNL     1      30.601  -1.365   3.906  1.00  0.00     0.429 C 
HETATM   26  F1  UNL     1      31.727  -1.522   4.672  1.00  0.00    -0.165 F 
HETATM   27  F2  UNL     1      30.022  -2.601   3.700  1.00  0.00    -0.165 F 
HETATM   28  F3  UNL     1      30.934  -0.835   2.650  1.00  0.00    -0.165 F 
ENDBRANCH   6  25
BRANCH   1  29
HETATM   29  C4  UNL     1      30.630   0.831   8.197  1.00  0.00     0.144 C 
BRANCH  29  30
HETATM   30  C3  UNL     1      30.529  -0.324   9.129  1.00  0.00     0.078 C 
BRANCH  30  31
HETATM   31  C2  UNL     1      29.590   0.179  10.229  1.00  0.00     0.019 A 
HETATM   32  N2  UNL     1      29.724  -0.150  11.495  1.00  0.00    -0.340 N 
HETATM   33  C1  UNL     1      28.860   0.356  12.372  1.00  0.00     0.142 A 
ATOM     34  H2  UNL     1      30.469  -0.778  11.797  1.00  0.00     0.167 HD
HETATM   35  N1  UNL     1      28.821   0.152  13.679  1.00  0.00    -0.380 N 
HETATM   36  S1  UNL     1      27.838   1.320  11.403  1.00  0.00    -0.064 SA
ATOM     37  H12 UNL     1      29.432  -0.424  14.258  1.00  0.00     0.158 HD
ATOM     38  H11 UNL     1      28.159   0.540  14.351  1.00  0.00     0.158 HD
HETATM   39  C16 UNL     1      28.571   1.023   9.896  1.00  0.00     0.078 A 
ENDBRANCH  30  31
ENDBRANCH  29  30
ENDBRANCH   1  29
TORSDOF 8
ENDMDL
MODEL 3
REMARK VINA RESULT: -8.387802613      1.028      1.528
REMARK  8 active torsions:
REMARK  status: ('A' for Active; 'I' for Inactive)
REMARK    1  A    between atoms: C2_7  and  C3_8 
REMARK    2  A    between atoms: C3_8  and  C4_9 
REMARK    3  A    between atoms: C4_9  and  N3_10 
REMARK    4  A    between atoms: C6_15  and  C7_16 
REMARK    5  A    between atoms: C9_21  and  C10_22 
REMARK    6  A    between atoms: C9_21  and  C15_32 
REMARK    7  A    between atoms: N6_26  and  C12_27 
REMARK    8  A    between atoms: C12_27  and  C13_28 
ROOT
HETATM    1  N3  UNL     1      29.300   1.517   7.746  1.00  0.00    -0.226 N 
ATOM      2  H3  UNL     1      28.741   2.132   8.337  1.00  0.00     0.177 HD
HETATM    3  C5  UNL     1      28.906   1.130   6.583  1.00  0.00     0.675 C 
HETATM    4  N4  UNL     1      29.645   0.274   5.730  1.00  0.00    -0.191 N 
ATOM      5  H4  UNL     1      30.532  -0.098   6.068  1.00  0.00     0.184 HD
HETATM    6  C6  UNL     1      29.258  -0.050   4.571  1.00  0.00     0.112 C 
HETATM    7  C8  UNL     1      28.004   0.421   3.969  1.00  0.00     0.108 C 
HETATM    8  C9  UNL     1      27.539   1.691   4.578  1.00  0.00     0.179 C 
HETATM    9  N7  UNL     1      27.671   1.596   6.016  1.00  0.00    -0.203 N 
ATOM     10  H7  UNL     1      26.894   1.857   6.622  1.00  0.00     0.179 HD
ENDROOT
BRANCH   8  11
HETATM   11  C10 UNL     1      26.103   1.960   4.172  1.00  0.00     0.014 A 
HETATM   12  C11 UNL     1      25.400   1.427   3.118  1.00  0.00     0.118 A 
HETATM   13  N5  UNL     1      24.147   1.939   3.176  1.00  0.00    -0.309 N 
HETATM   14  N6  UNL     1      24.027   2.765   4.208  1.00  0.00    -0.298 N 
ATOM     15  H5  UNL     1      23.399   1.720   2.518  1.00  0.00     0.186 HD
HETATM   16  C14 UNL     1      25.224   2.792   4.834  1.00  0.00     0.121 A 
BRANCH  14  17
HETATM   17  C12 UNL     1      22.824   3.486   4.628  1.00  0.00     0.219 C 
BRANCH  17  18
HETATM   18  C13 UNL     1      23.053   4.944   4.375  1.00  0.00     0.372 C 
HETATM   19  F4  UNL     1      23.934   5.374   5.360  1.00  0.00    -0.213 F 
HETATM   20  F5  UNL     1      23.553   5.145   3.099  1.00  0.00    -0.213 F 
ENDBRANCH  17  18
ENDBRANCH  14  17
ENDBRANCH   8  11
BRANCH   8  21
HETATM   21  C15 UNL     1      28.314   2.911   4.127  1.00  0.00     0.418 C 
HETATM   22  F6  UNL     1      27.567   3.447   3.067  1.00  0.00    -0.168 F 
HETATM   23  F7  UNL     1      28.519   3.822   5.112  1.00  0.00    -0.168 F 
HETATM   24  F8  UNL     1      29.517   2.452   3.586  1.00  0.00    -0.168 F 
ENDBRANCH   8  21
BRANCH   6  25
HETATM   25  C7  UNL     1      30.153  -0.971   3.784  1.00  0.00     0.429 C 
HETATM   26  F1  UNL     1      29.511  -2.148   3.499  1.00  0.00    -0.165 F 
HETATM   27  F2  UNL     1      30.568  -0.389   2.603  1.00  0.00    -0.165 F 
HETATM   28  F3  UNL     1      31.294  -1.214   4.564  1.00  0.00    -0.165 F 
ENDBRANCH   6  25
BRANCH   1  29
HETATM   29  C4  UNL     1      30.593   1.018   8.153  1.00  0.00     0.144 C 
BRANCH  29  30
HETATM   30  C3  UNL     1      30.582  -0.145   9.081  1.00  0.00     0.078 C 
BRANCH  30  31
HETATM   31  C2  UNL     1      29.619   0.284  10.189  1.00  0.00     0.019 A 
HETATM   32  N2  UNL     1      29.765  -0.071  11.448  1.00  0.00    -0.340 N 
HETATM   33  C1  UNL     1      28.877   0.370  12.334  1.00  0.00     0.142 A 
ATOM     34  H2  UNL     1      30.538  -0.670  11.736  1.00  0.00     0.167 HD
HETATM   35  N1  UNL     1      28.844   0.131  13.635  1.00  0.00    -0.380 N 
HETATM   36  S1  UNL     1      27.812   1.309  11.387  1.00  0.00    -0.064 SA
ATOM     37  H12 UNL     1      29.481  -0.430  14.201  1.00  0.00     0.158 HD
ATOM     38  H11 UNL     1      28.163   0.470  14.314  1.00  0.00     0.158 HD
HETATM   39  C16 UNL     1      28.561   1.087   9.875  1.00  0.00     0.078 A 
ENDBRANCH  30  31
ENDBRANCH  29  30
ENDBRANCH   1  29
TORSDOF 8
ENDMDL
MODEL 4
REMARK VINA RESULT: -8.328350242      3.560      4.856
REMARK  8 active torsions:
REMARK  status: ('A' for Active; 'I' for Inactive)
REMARK    1  A    between atoms: C2_7  and  C3_8 
REMARK    2  A    between atoms: C3_8  and  C4_9 
REMARK    3  A    between atoms: C4_9  and  N3_10 
REMARK    4  A    between atoms: C6_15  and  C7_16 
REMARK    5  A    between atoms: C9_21  and  C10_22 
REMARK    6  A    between atoms: C9_21  and  C15_32 
REMARK    7  A    between atoms: N6_26  and  C12_27 
REMARK    8  A    between atoms: C12_27  and  C13_28 
ROOT
HETATM    1  N3  UNL     1      28.156   3.193   6.598  1.00  0.00    -0.226 N 
ATOM      2  H3  UNL     1      28.519   3.958   7.166  1.00  0.00     0.177 HD
HETATM    3  C5  UNL     1      27.223   3.362   5.727  1.00  0.00     0.675 C 
HETATM    4  N4  UNL     1      26.684   2.330   4.920  1.00  0.00    -0.191 N 
ATOM      5  H4  UNL     1      27.023   1.378   5.059  1.00  0.00     0.184 HD
HETATM    6  C6  UNL     1      25.803   2.532   4.035  1.00  0.00     0.112 C 
HETATM    7  C8  UNL     1      25.237   3.853   3.735  1.00  0.00     0.108 C 
HETATM    8  C9  UNL     1      26.149   4.952   4.139  1.00  0.00     0.179 C 
HETATM    9  N7  UNL     1      26.676   4.662   5.455  1.00  0.00    -0.203 N 
ATOM     10  H7  UNL     1      26.661   5.375   6.183  1.00  0.00     0.179 HD
ENDROOT
BRANCH   8  11
HETATM   11  C10 UNL     1      25.402   6.271   4.121  1.00  0.00     0.014 A 
HETATM   12  C11 UNL     1      25.196   7.121   3.061  1.00  0.00     0.118 A 
HETATM   13  N5  UNL     1      24.449   8.155   3.520  1.00  0.00    -0.309 N 
HETATM   14  N6  UNL     1      24.178   7.999   4.809  1.00  0.00    -0.298 N 
ATOM     15  H5  UNL     1      24.138   8.943   2.952  1.00  0.00     0.186 HD
HETATM   16  C14 UNL     1      24.758   6.844   5.199  1.00  0.00     0.121 A 
BRANCH  14  17
HETATM   17  C12 UNL     1      23.370   8.880   5.655  1.00  0.00     0.219 C 
BRANCH  17  18
HETATM   18  C13 UNL     1      24.305   9.662   6.526  1.00  0.00     0.372 C 
HETATM   19  F4  UNL     1      24.585  10.836   5.837  1.00  0.00    -0.213 F 
HETATM   20  F5  UNL     1      23.731   9.903   7.763  1.00  0.00    -0.213 F 
ENDBRANCH  17  18
ENDBRANCH  14  17
ENDBRANCH   8  11
BRANCH   8  21
HETATM   21  C15 UNL     1      27.326   5.149   3.207  1.00  0.00     0.418 C 
HETATM   22  F6  UNL     1      28.170   6.052   3.872  1.00  0.00    -0.168 F 
HETATM   23  F7  UNL     1      27.969   3.998   2.888  1.00  0.00    -0.168 F 
HETATM   24  F8  UNL     1      26.841   5.804   2.073  1.00  0.00    -0.168 F 
ENDBRANCH   8  21
BRANCH   6  25
HETATM   25  C7  UNL     1      25.326   1.332   3.259  1.00  0.00     0.429 C 
HETATM   26  F1  UNL     1      25.722   0.169   3.868  1.00  0.00    -0.165 F 
HETATM   27  F2  UNL     1      23.952   1.326   3.129  1.00  0.00    -0.165 F 
HETATM   28  F3  UNL     1      25.877   1.420   1.972  1.00  0.00    -0.165 F 
ENDBRANCH   6  25
BRANCH   1  29
HETATM   29  C4  UNL     1      28.651   1.841   6.712  1.00  0.00     0.144 C 
BRANCH  29  30
HETATM   30  C3  UNL     1      30.087   1.640   6.381  1.00  0.00     0.078 C 
BRANCH  30  31
HETATM   31  C2  UNL     1      30.050   0.820   5.090  1.00  0.00     0.019 A 
HETATM   32  N2  UNL     1      30.361  -0.458   5.039  1.00  0.00    -0.340 N 
HETATM   33  C1  UNL     1      30.280  -1.079   3.866  1.00  0.00     0.142 A 
ATOM     34  H2  UNL     1      30.656  -0.958   5.877  1.00  0.00     0.167 HD
HETATM   35  N1  UNL     1      30.546  -2.349   3.603  1.00  0.00    -0.380 N 
HETATM   36  S1  UNL     1      29.754   0.151   2.806  1.00  0.00    -0.064 SA
ATOM     37  H12 UNL     1      30.860  -3.084   4.236  1.00  0.00     0.158 HD
ATOM     38  H11 UNL     1      30.484  -2.825   2.703  1.00  0.00     0.158 HD
HETATM   39  C16 UNL     1      29.663   1.426   3.930  1.00  0.00     0.078 A 
ENDBRANCH  30  31
ENDBRANCH  29  30
ENDBRANCH   1  29
TORSDOF 8
ENDMDL
MODEL 5
REMARK VINA RESULT: -8.288115521      2.401      3.461
REMARK  8 active torsions:
REMARK  status: ('A' for Active; 'I' for Inactive)
REMARK    1  A    between atoms: C2_7  and  C3_8 
REMARK    2  A    between atoms: C3_8  and  C4_9 
REMARK    3  A    between atoms: C4_9  and  N3_10 
REMARK    4  A    between atoms: C6_15  and  C7_16 
REMARK    5  A    between atoms: C9_21  and  C10_22 
REMARK    6  A    between atoms: C9_21  and  C15_32 
REMARK    7  A    between atoms: N6_26  and  C12_27 
REMARK    8  A    between atoms: C12_27  and  C13_28 
ROOT
HETATM    1  N3  UNL     1      28.203   3.218   6.638  1.00  0.00    -0.226 N 
ATOM      2  H3  UNL     1      28.549   3.991   7.207  1.00  0.00     0.177 HD
HETATM    3  C5  UNL     1      27.281   3.372   5.753  1.00  0.00     0.675 C 
HETATM    4  N4  UNL     1      26.767   2.330   4.943  1.00  0.00    -0.191 N 
ATOM      5  H4  UNL     1      27.114   1.383   5.093  1.00  0.00     0.184 HD
HETATM    6  C6  UNL     1      25.897   2.517   4.045  1.00  0.00     0.112 C 
HETATM    7  C8  UNL     1      25.320   3.830   3.729  1.00  0.00     0.108 C 
HETATM    8  C9  UNL     1      26.213   4.941   4.141  1.00  0.00     0.179 C 
HETATM    9  N7  UNL     1      26.725   4.664   5.465  1.00  0.00    -0.203 N 
ATOM     10  H7  UNL     1      26.690   5.381   6.190  1.00  0.00     0.179 HD
ENDROOT
BRANCH   8  11
HETATM   11  C10 UNL     1      25.452   6.252   4.105  1.00  0.00     0.014 A 
HETATM   12  C11 UNL     1      25.256   7.096   3.037  1.00  0.00     0.118 A 
HETATM   13  N5  UNL     1      24.489   8.123   3.479  1.00  0.00    -0.309 N 
HETATM   14  N6  UNL     1      24.196   7.968   4.764  1.00  0.00    -0.298 N 
ATOM     15  H5  UNL     1      24.180   8.906   2.903  1.00  0.00     0.186 HD
HETATM   16  C14 UNL     1      24.782   6.821   5.168  1.00  0.00     0.121 A 
BRANCH  14  17
HETATM   17  C12 UNL     1      23.363   8.843   5.591  1.00  0.00     0.219 C 
BRANCH  17  18
HETATM   18  C13 UNL     1      24.270   9.621   6.493  1.00  0.00     0.372 C 
HETATM   19  F4  UNL     1      24.524  10.823   5.843  1.00  0.00    -0.213 F 
HETATM   20  F5  UNL     1      23.682   9.809   7.733  1.00  0.00    -0.213 F 
ENDBRANCH  17  18
ENDBRANCH  14  17
ENDBRANCH   8  11
BRANCH   8  21
HETATM   21  C15 UNL     1      27.402   5.148   3.225  1.00  0.00     0.418 C 
HETATM   22  F6  UNL     1      28.223   6.068   3.894  1.00  0.00    -0.168 F 
HETATM   23  F7  UNL     1      28.066   4.003   2.926  1.00  0.00    -0.168 F 
HETATM   24  F8  UNL     1      26.926   5.786   2.077  1.00  0.00    -0.168 F 
ENDBRANCH   8  21
BRANCH   6  25
HETATM   25  C7  UNL     1      25.445   1.308   3.268  1.00  0.00     0.429 C 
HETATM   26  F1  UNL     1      25.665   0.160   3.984  1.00  0.00    -0.165 F 
HETATM   27  F2  UNL     1      24.106   1.385   2.943  1.00  0.00    -0.165 F 
HETATM   28  F3  UNL     1      26.175   1.283   2.070  1.00  0.00    -0.165 F 
ENDBRANCH   6  25
BRANCH   1  29
HETATM   29  C4  UNL     1      28.712   1.873   6.768  1.00  0.00     0.144 C 
BRANCH  29  30
HETATM   30  C3  UNL     1      30.082   1.743   7.331  1.00  0.00     0.078 C 
BRANCH  30  31
HETATM   31  C2  UNL     1      29.852   1.086   8.695  1.00  0.00     0.019 A 
HETATM   32  N2  UNL     1      28.867   1.423   9.498  1.00  0.00    -0.340 N 
HETATM   33  C1  UNL     1      28.750   0.777  10.656  1.00  0.00     0.142 A 
ATOM     34  H2  UNL     1      28.210   2.159   9.241  1.00  0.00     0.167 HD
HETATM   35  N1  UNL     1      27.837   0.961  11.596  1.00  0.00    -0.380 N 
HETATM   36  S1  UNL     1      30.047  -0.331  10.619  1.00  0.00    -0.064 SA
ATOM     37  H12 UNL     1      27.061   1.623  11.618  1.00  0.00     0.158 HD
ATOM     38  H11 UNL     1      27.748   0.466  12.483  1.00  0.00     0.158 HD
HETATM   39  C16 UNL     1      30.693   0.092   9.103  1.00  0.00     0.078 A 
ENDBRANCH  30  31
ENDBRANCH  29  30
ENDBRANCH   1  29
TORSDOF 8
ENDMDL
