MODEL 1
REMARK VINA RESULT: -8.209585634      0.000      0.000
REMARK  9 active torsions:
REMARK  status: ('A' for Active; 'I' for Inactive)
REMARK    1  A    between atoms: N1_1  and  C1_4 
REMARK    2  A    between atoms: C3_10  and  N4_11 
REMARK    3  A    between atoms: C6_14  and  O1_15 
REMARK    4  A    between atoms: O1_15  and  C7_16 
REMARK    5  A    between atoms: C7_16  and  C8_17 
REMARK    6  A    between atoms: C13_24  and  C14_25 
REMARK    7  A    between atoms: C14_25  and  S1_26 
REMARK    8  A    between atoms: S1_26  and  C15_27 
REMARK    9  A    between atoms: C15_27  and  N5_28 
ROOT
HETATM    1  N4  UNL     1      29.576   1.322   9.758  1.00  0.00    -0.366 N 
HETATM    2  C4  UNL     1      28.756   2.102   8.912  1.00  0.00     0.127 C 
HETATM    3  C5  UNL     1      29.599   2.491   7.709  1.00  0.00     0.052 C 
HETATM    4  C6  UNL     1      29.969   1.204   6.958  1.00  0.00     0.131 C 
HETATM    5  C16 UNL     1      30.531   0.197   7.853  1.00  0.00     0.052 C 
HETATM    6  C17 UNL     1      30.890   0.830   9.212  1.00  0.00     0.127 C 
ENDROOT
BRANCH   4   7
HETATM    7  O1  UNL     1      28.779   0.771   6.290  1.00  0.00    -0.357 OA
BRANCH   7   8
HETATM    8  C7  UNL     1      28.673   1.592   5.182  1.00  0.00     0.147 C 
BRANCH   8   9
HETATM    9  C8  UNL     1      27.373   1.893   4.668  1.00  0.00    -0.005 A 
HETATM   10  C9  UNL     1      26.777   3.116   4.725  1.00  0.00     0.041 A 
HETATM   11  C10 UNL     1      25.505   3.354   4.213  1.00  0.00     0.073 A 
HETATM   12 CL1  UNL     1      24.757   4.944   4.149  1.00  0.00    -0.081 Cl
HETATM   13  C11 UNL     1      24.823   2.320   3.638  1.00  0.00     0.138 A 
HETATM   14  F1  UNL     1      23.558   2.489   3.149  1.00  0.00    -0.204 F 
HETATM   15  C12 UNL     1      25.462   1.099   3.595  1.00  0.00     0.052 A 
HETATM   16  C13 UNL     1      26.706   0.811   4.060  1.00  0.00    -0.034 A 
BRANCH  16  17
HETATM   17  C14 UNL     1      27.274  -0.523   4.005  1.00  0.00     0.115 C 
BRANCH  17  18
HETATM   18  S1  UNL     1      28.522  -0.597   2.721  1.00  0.00    -0.138 SA
BRANCH  18  19
HETATM   19  C15 UNL     1      29.998  -1.444   3.046  1.00  0.00     0.303 C 
BRANCH  19  20
HETATM   20  N5  UNL     1      30.642  -1.025   4.328  1.00  0.00    -0.071 N 
ATOM     21  H53 UNL     1      30.542  -0.020   4.474  1.00  0.00     0.275 HD
ATOM     22  H52 UNL     1      30.110  -1.363   5.131  1.00  0.00     0.275 HD
ATOM     23  H51 UNL     1      31.620  -1.307   4.395  1.00  0.00     0.275 HD
ENDBRANCH  19  20
ENDBRANCH  18  19
ENDBRANCH  17  18
ENDBRANCH  16  17
ENDBRANCH   8   9
ENDBRANCH   7   8
ENDBRANCH   4   7
BRANCH   1  24
HETATM   24  C3  UNL     1      29.292   0.927  11.090  1.00  0.00     0.130 A 
HETATM   25  N3  UNL     1      28.005   1.167  11.458  1.00  0.00    -0.337 N 
HETATM   26  C2  UNL     1      27.526   0.785  12.650  1.00  0.00     0.183 A 
ATOM     27  H3  UNL     1      27.386   1.653  10.807  1.00  0.00     0.168 HD
HETATM   28  N2  UNL     1      28.322   0.149  13.508  1.00  0.00    -0.337 N 
HETATM   29  C1  UNL     1      29.614  -0.106  13.178  1.00  0.00     0.125 A 
ATOM     30  H2  UNL     1      27.961  -0.147  14.415  1.00  0.00     0.168 HD
HETATM   31  C18 UNL     1      30.118   0.291  11.948  1.00  0.00     0.121 A 
HETATM   32 CL2  UNL     1      31.761  -0.038  11.518  1.00  0.00    -0.076 Cl
BRANCH  29  33
HETATM   33  N1  UNL     1      30.327  -0.732  14.037  1.00  0.00    -0.384 N 
ATOM     34  H12 UNL     1      29.930  -1.428  14.669  1.00  0.00     0.157 HD
ATOM     35  H11 UNL     1      31.320  -0.502  14.079  1.00  0.00     0.157 HD
ENDBRANCH  29  33
ENDBRANCH   1  24
TORSDOF 9
ENDMDL
MODEL 2
REMARK VINA RESULT: -7.875733591      1.105      1.475
REMARK  9 active torsions:
REMARK  status: ('A' for Active; 'I' for Inactive)
REMARK    1  A    between atoms: N1_1  and  C1_4 
REMARK    2  A    between atoms: C3_10  and  N4_11 
REMARK    3  A    between atoms: C6_14  and  O1_15 
REMARK    4  A    between atoms: O1_15  and  C7_16 
REMARK    5  A    between atoms: C7_16  and  C8_17 
REMARK    6  A    between atoms: C13_24  and  C14_25 
REMARK    7  A    between atoms: C14_25  and  S1_26 
REMARK    8  A    between atoms: S1_26  and  C15_27 
REMARK    9  A    between atoms: C15_27  and  N5_28 
ROOT
HETATM    1  N4  UNL     1      29.994   1.044   9.754  1.00  0.00    -0.366 N 
HETATM    2  C4  UNL     1      29.033   1.890   9.157  1.00  0.00     0.127 C 
HETATM    3  C5  UNL     1      29.672   2.484   7.912  1.00  0.00     0.052 C 
HETATM    4  C6  UNL     1      29.963   1.333   6.939  1.00  0.00     0.131 C 
HETATM    5  C16 UNL     1      30.684   0.242   7.589  1.00  0.00     0.052 C 
HETATM    6  C17 UNL     1      31.225   0.701   8.957  1.00  0.00     0.127 C 
ENDROOT
BRANCH   4   7
HETATM    7  O1  UNL     1      28.700   0.934   6.396  1.00  0.00    -0.357 OA
BRANCH   7   8
HETATM    8  C7  UNL     1      28.602   1.607   5.191  1.00  0.00     0.147 C 
BRANCH   8   9
HETATM    9  C8  UNL     1      27.304   1.906   4.672  1.00  0.00    -0.005 A 
HETATM   10  C9  UNL     1      26.706   3.129   4.726  1.00  0.00     0.041 A 
HETATM   11  C10 UNL     1      25.437   3.366   4.209  1.00  0.00     0.073 A 
HETATM   12 CL1  UNL     1      24.688   4.956   4.141  1.00  0.00    -0.081 Cl
HETATM   13  C11 UNL     1      24.757   2.331   3.632  1.00  0.00     0.138 A 
HETATM   14  F1  UNL     1      23.494   2.500   3.138  1.00  0.00    -0.204 F 
HETATM   15  C12 UNL     1      25.397   1.111   3.592  1.00  0.00     0.052 A 
HETATM   16  C13 UNL     1      26.639   0.824   4.061  1.00  0.00    -0.034 A 
BRANCH  16  17
HETATM   17  C14 UNL     1      27.207  -0.510   4.010  1.00  0.00     0.115 C 
BRANCH  17  18
HETATM   18  S1  UNL     1      28.468  -0.582   2.738  1.00  0.00    -0.138 SA
BRANCH  18  19
HETATM   19  C15 UNL     1      29.946  -1.420   3.079  1.00  0.00     0.303 C 
BRANCH  19  20
HETATM   20  N5  UNL     1      30.612  -0.944   4.329  1.00  0.00    -0.071 N 
ATOM     21  H53 UNL     1      30.122  -0.137   4.718  1.00  0.00     0.275 HD
ATOM     22  H52 UNL     1      30.473  -1.607   5.092  1.00  0.00     0.275 HD
ATOM     23  H51 UNL     1      31.603  -0.740   4.200  1.00  0.00     0.275 HD
ENDBRANCH  19  20
ENDBRANCH  18  19
ENDBRANCH  17  18
ENDBRANCH  16  17
ENDBRANCH   8   9
ENDBRANCH   7   8
ENDBRANCH   4   7
BRANCH   1  24
HETATM   24  C3  UNL     1      29.927   0.456  11.043  1.00  0.00     0.130 A 
HETATM   25  N3  UNL     1      31.117  -0.050  11.463  1.00  0.00    -0.337 N 
HETATM   26  C2  UNL     1      31.271  -0.569  12.689  1.00  0.00     0.183 A 
ATOM     27  H3  UNL     1      31.916  -0.033  10.828  1.00  0.00     0.168 HD
HETATM   28  N2  UNL     1      30.239  -0.595  13.531  1.00  0.00    -0.337 N 
HETATM   29  C1  UNL     1      29.034  -0.102  13.145  1.00  0.00     0.125 A 
ATOM     30  H2  UNL     1      30.353  -0.986  14.466  1.00  0.00     0.168 HD
HETATM   31  C18 UNL     1      28.865   0.433  11.876  1.00  0.00     0.121 A 
HETATM   32 CL2  UNL     1      27.335   1.071  11.381  1.00  0.00    -0.076 Cl
BRANCH  29  33
HETATM   33  N1  UNL     1      28.083  -0.141  14.001  1.00  0.00    -0.384 N 
ATOM     34  H12 UNL     1      28.251  -0.301  14.994  1.00  0.00     0.157 HD
ATOM     35  H11 UNL     1      27.133  -0.017  13.651  1.00  0.00     0.157 HD
ENDBRANCH  29  33
ENDBRANCH   1  24
TORSDOF 9
ENDMDL
MODEL 3
REMARK VINA RESULT: -7.590985413      1.028      1.118
REMARK  9 active torsions:
REMARK  status: ('A' for Active; 'I' for Inactive)
REMARK    1  A    between atoms: N1_1  and  C1_4 
REMARK    2  A    between atoms: C3_10  and  N4_11 
REMARK    3  A    between atoms: C6_14  and  O1_15 
REMARK    4  A    between atoms: O1_15  and  C7_16 
REMARK    5  A    between atoms: C7_16  and  C8_17 
REMARK    6  A    between atoms: C13_24  and  C14_25 
REMARK    7  A    between atoms: C14_25  and  S1_26 
REMARK    8  A    between atoms: S1_26  and  C15_27 
REMARK    9  A    between atoms: C15_27  and  N5_28 
ROOT
HETATM    1  N4  UNL     1      29.642   1.215  10.003  1.00  0.00    -0.366 N 
HETATM    2  C4  UNL     1      28.900   1.974   9.070  1.00  0.00     0.127 C 
HETATM    3  C5  UNL     1      29.852   2.358   7.949  1.00  0.00     0.052 C 
HETATM    4  C6  UNL     1      30.308   1.066   7.256  1.00  0.00     0.131 C 
HETATM    5  C16 UNL     1      30.792   0.077   8.216  1.00  0.00     0.052 C 
HETATM    6  C17 UNL     1      31.009   0.733   9.594  1.00  0.00     0.127 C 
ENDROOT
BRANCH   4   7
HETATM    7  O1  UNL     1      29.194   0.608   6.482  1.00  0.00    -0.357 OA
BRANCH   7   8
HETATM    8  C7  UNL     1      29.416   1.105   5.210  1.00  0.00     0.147 C 
BRANCH   8   9
HETATM    9  C8  UNL     1      28.422   1.941   4.613  1.00  0.00    -0.005 A 
HETATM   10  C9  UNL     1      28.474   3.302   4.566  1.00  0.00     0.041 A 
HETATM   11  C10 UNL     1      27.475   4.069   3.976  1.00  0.00     0.073 A 
HETATM   12 CL1  UNL     1      27.568   5.814   3.778  1.00  0.00    -0.081 Cl
HETATM   13  C11 UNL     1      26.394   3.436   3.430  1.00  0.00     0.138 A 
HETATM   14  F1  UNL     1      25.368   4.143   2.867  1.00  0.00    -0.204 F 
HETATM   15  C12 UNL     1      26.381   2.059   3.493  1.00  0.00     0.052 A 
HETATM   16  C13 UNL     1      27.333   1.257   4.038  1.00  0.00    -0.034 A 
BRANCH  16  17
HETATM   17  C14 UNL     1      27.203  -0.187   4.093  1.00  0.00     0.115 C 
BRANCH  17  18
HETATM   18  S1  UNL     1      28.161  -0.931   2.773  1.00  0.00    -0.138 SA
BRANCH  18  19
HETATM   19  C15 UNL     1      29.888  -0.967   2.920  1.00  0.00     0.303 C 
BRANCH  19  20
HETATM   20  N5  UNL     1      30.392  -2.208   3.583  1.00  0.00    -0.071 N 
ATOM     21  H53 UNL     1      29.695  -2.586   4.225  1.00  0.00     0.275 HD
ATOM     22  H52 UNL     1      30.443  -2.981   2.919  1.00  0.00     0.275 HD
ATOM     23  H51 UNL     1      31.286  -2.073   4.055  1.00  0.00     0.275 HD
ENDBRANCH  19  20
ENDBRANCH  18  19
ENDBRANCH  17  18
ENDBRANCH  16  17
ENDBRANCH   8   9
ENDBRANCH   7   8
ENDBRANCH   4   7
BRANCH   1  24
HETATM   24  C3  UNL     1      29.235   0.834  11.306  1.00  0.00     0.130 A 
HETATM   25  N3  UNL     1      27.938   1.145  11.574  1.00  0.00    -0.337 N 
HETATM   26  C2  UNL     1      27.348   0.788  12.724  1.00  0.00     0.183 A 
ATOM     27  H3  UNL     1      27.400   1.665  10.881  1.00  0.00     0.168 HD
HETATM   28  N2  UNL     1      28.039   0.107  13.637  1.00  0.00    -0.337 N 
HETATM   29  C1  UNL     1      29.336  -0.219  13.406  1.00  0.00     0.125 A 
ATOM     30  H2  UNL     1      27.592  -0.170  14.512  1.00  0.00     0.168 HD
HETATM   31  C18 UNL     1      29.956   0.151  12.221  1.00  0.00     0.121 A 
HETATM   32 CL2  UNL     1      31.606  -0.268  11.917  1.00  0.00    -0.076 Cl
BRANCH  29  33
HETATM   33  N1  UNL     1      29.945  -0.886  14.314  1.00  0.00    -0.384 N 
ATOM     34  H12 UNL     1      29.610  -1.794  14.637  1.00  0.00     0.157 HD
ATOM     35  H11 UNL     1      30.782  -0.469  14.720  1.00  0.00     0.157 HD
ENDBRANCH  29  33
ENDBRANCH   1  24
TORSDOF 9
ENDMDL
MODEL 4
REMARK VINA RESULT: -7.395600563      1.589      1.933
REMARK  9 active torsions:
REMARK  status: ('A' for Active; 'I' for Inactive)
REMARK    1  A    between atoms: N1_1  and  C1_4 
REMARK    2  A    between atoms: C3_10  and  N4_11 
REMARK    3  A    between atoms: C6_14  and  O1_15 
REMARK    4  A    between atoms: O1_15  and  C7_16 
REMARK    5  A    between atoms: C7_16  and  C8_17 
REMARK    6  A    between atoms: C13_24  and  C14_25 
REMARK    7  A    between atoms: C14_25  and  S1_26 
REMARK    8  A    between atoms: S1_26  and  C15_27 
REMARK    9  A    between atoms: C15_27  and  N5_28 
ROOT
HETATM    1  N4  UNL     1      29.950   0.926  10.174  1.00  0.00    -0.366 N 
HETATM    2  C4  UNL     1      28.916   1.633   9.521  1.00  0.00     0.127 C 
HETATM    3  C5  UNL     1      29.544   2.349   8.336  1.00  0.00     0.052 C 
HETATM    4  C6  UNL     1      30.073   1.281   7.368  1.00  0.00     0.131 C 
HETATM    5  C16 UNL     1      30.903   0.294   8.052  1.00  0.00     0.052 C 
HETATM    6  C17 UNL     1      31.271   0.792   9.464  1.00  0.00     0.127 C 
ENDROOT
BRANCH   4   7
HETATM    7  O1  UNL     1      28.926   0.712   6.728  1.00  0.00    -0.357 OA
BRANCH   7   8
HETATM    8  C7  UNL     1      29.105   0.972   5.381  1.00  0.00     0.147 C 
BRANCH   8   9
HETATM    9  C8  UNL     1      28.207   1.871   4.727  1.00  0.00    -0.005 A 
HETATM   10  C9  UNL     1      28.371   3.222   4.656  1.00  0.00     0.041 A 
HETATM   11  C10 UNL     1      27.463   4.054   4.010  1.00  0.00     0.073 A 
HETATM   12 CL1  UNL     1      27.705   5.780   3.784  1.00  0.00    -0.081 Cl
HETATM   13  C11 UNL     1      26.357   3.498   3.431  1.00  0.00     0.138 A 
HETATM   14  F1  UNL     1      25.415   4.272   2.812  1.00  0.00    -0.204 F 
HETATM   15  C12 UNL     1      26.229   2.128   3.520  1.00  0.00     0.052 A 
HETATM   16  C13 UNL     1      27.090   1.264   4.119  1.00  0.00    -0.034 A 
BRANCH  16  17
HETATM   17  C14 UNL     1      26.841  -0.163   4.195  1.00  0.00     0.115 C 
BRANCH  17  18
HETATM   18  S1  UNL     1      28.063  -1.043   3.223  1.00  0.00    -0.138 SA
BRANCH  18  19
HETATM   19  C15 UNL     1      28.930  -0.177   1.998  1.00  0.00     0.303 C 
BRANCH  19  20
HETATM   20  N5  UNL     1      30.363   0.055   2.350  1.00  0.00    -0.071 N 
ATOM     21  H53 UNL     1      30.655  -0.559   3.111  1.00  0.00     0.275 HD
ATOM     22  H52 UNL     1      30.980  -0.287   1.613  1.00  0.00     0.275 HD
ATOM     23  H51 UNL     1      30.567   1.030   2.571  1.00  0.00     0.275 HD
ENDBRANCH  19  20
ENDBRANCH  18  19
ENDBRANCH  17  18
ENDBRANCH  16  17
ENDBRANCH   8   9
ENDBRANCH   7   8
ENDBRANCH   4   7
BRANCH   1  24
HETATM   24  C3  UNL     1      29.882   0.300  11.444  1.00  0.00     0.130 A 
HETATM   25  N3  UNL     1      31.054  -0.278  11.820  1.00  0.00    -0.337 N 
HETATM   26  C2  UNL     1      31.209  -0.844  13.025  1.00  0.00     0.183 A 
ATOM     27  H3  UNL     1      31.838  -0.281  11.166  1.00  0.00     0.168 HD
HETATM   28  N2  UNL     1      30.196  -0.846  13.890  1.00  0.00    -0.337 N 
HETATM   29  C1  UNL     1      29.009  -0.281  13.549  1.00  0.00     0.125 A 
ATOM     30  H2  UNL     1      30.311  -1.272  14.810  1.00  0.00     0.168 HD
HETATM   31  C18 UNL     1      28.839   0.303  12.301  1.00  0.00     0.121 A 
HETATM   32 CL2  UNL     1      27.333   1.032  11.865  1.00  0.00    -0.076 Cl
BRANCH  29  33
HETATM   33  N1  UNL     1      28.077  -0.300  14.426  1.00  0.00    -0.384 N 
ATOM     34  H12 UNL     1      28.019  -1.025  15.142  1.00  0.00     0.157 HD
ATOM     35  H11 UNL     1      27.374   0.438  14.378  1.00  0.00     0.157 HD
ENDBRANCH  29  33
ENDBRANCH   1  24
TORSDOF 9
ENDMDL
MODEL 5
REMARK VINA RESULT: -7.077405915      1.763      2.414
REMARK  9 active torsions:
REMARK  status: ('A' for Active; 'I' for Inactive)
REMARK    1  A    between atoms: N1_1  and  C1_4 
REMARK    2  A    between atoms: C3_10  and  N4_11 
REMARK    3  A    between atoms: C6_14  and  O1_15 
REMARK    4  A    between atoms: O1_15  and  C7_16 
REMARK    5  A    between atoms: C7_16  and  C8_17 
REMARK    6  A    between atoms: C13_24  and  C14_25 
REMARK    7  A    between atoms: C14_25  and  S1_26 
REMARK    8  A    between atoms: S1_26  and  C15_27 
REMARK    9  A    between atoms: C15_27  and  N5_28 
ROOT
HETATM    1  N4  UNL     1      30.053   1.401   8.464  1.00  0.00    -0.366 N 
HETATM    2  C4  UNL     1      29.516   2.665   8.131  1.00  0.00     0.127 C 
HETATM    3  C5  UNL     1      29.879   2.936   6.680  1.00  0.00     0.052 C 
HETATM    4  C6  UNL     1      29.180   1.878   5.815  1.00  0.00     0.131 C 
HETATM    5  C16 UNL     1      29.423   0.526   6.309  1.00  0.00     0.052 C 
HETATM    6  C17 UNL     1      30.565   0.533   7.345  1.00  0.00     0.127 C 
ENDROOT
BRANCH   4   7
HETATM    7  O1  UNL     1      27.793   2.231   5.787  1.00  0.00    -0.357 OA
BRANCH   7   8
HETATM    8  C7  UNL     1      27.589   2.776   4.532  1.00  0.00     0.147 C 
BRANCH   8   9
HETATM    9  C8  UNL     1      26.319   3.359   4.231  1.00  0.00    -0.005 A 
HETATM   10  C9  UNL     1      26.073   4.697   4.161  1.00  0.00     0.041 A 
HETATM   11  C10 UNL     1      24.814   5.213   3.868  1.00  0.00     0.073 A 
HETATM   12 CL1  UNL     1      24.486   6.925   3.640  1.00  0.00    -0.081 Cl
HETATM   13  C11 UNL     1      23.781   4.345   3.652  1.00  0.00     0.138 A 
HETATM   14  F1  UNL     1      22.517   4.797   3.394  1.00  0.00    -0.204 F 
HETATM   15  C12 UNL     1      24.071   2.999   3.727  1.00  0.00     0.052 A 
HETATM   16  C13 UNL     1      25.280   2.438   3.988  1.00  0.00    -0.034 A 
BRANCH  16  17
HETATM   17  C14 UNL     1      25.472   1.003   4.088  1.00  0.00     0.115 C 
BRANCH  17  18
HETATM   18  S1  UNL     1      26.849   0.504   3.055  1.00  0.00    -0.138 SA
BRANCH  18  19
HETATM   19  C15 UNL     1      27.679  -0.970   3.432  1.00  0.00     0.303 C 
BRANCH  19  20
HETATM   20  N5  UNL     1      26.849  -1.918   4.235  1.00  0.00    -0.071 N 
ATOM     21  H53 UNL     1      27.328  -2.812   4.352  1.00  0.00     0.275 HD
ATOM     22  H52 UNL     1      26.802  -1.626   5.211  1.00  0.00     0.275 HD
ATOM     23  H51 UNL     1      25.914  -2.054   3.850  1.00  0.00     0.275 HD
ENDBRANCH  19  20
ENDBRANCH  18  19
ENDBRANCH  17  18
ENDBRANCH  16  17
ENDBRANCH   8   9
ENDBRANCH   7   8
ENDBRANCH   4   7
BRANCH   1  24
HETATM   24  C3  UNL     1      30.158   0.836   9.760  1.00  0.00     0.130 A 
HETATM   25  N3  UNL     1      31.408   0.387  10.050  1.00  0.00    -0.337 N 
HETATM   26  C2  UNL     1      31.722  -0.102  11.257  1.00  0.00     0.183 A 
ATOM     27  H3  UNL     1      32.128   0.423   9.327  1.00  0.00     0.168 HD
HETATM   28  N2  UNL     1      30.793  -0.154  12.212  1.00  0.00    -0.337 N 
HETATM   29  C1  UNL     1      29.533   0.283  11.959  1.00  0.00     0.125 A 
ATOM     30  H2  UNL     1      31.030  -0.522  13.134  1.00  0.00     0.168 HD
HETATM   31  C18 UNL     1      29.199   0.786  10.709  1.00  0.00     0.121 A 
HETATM   32 CL2  UNL     1      27.597   1.351  10.384  1.00  0.00    -0.076 Cl
BRANCH  29  33
HETATM   33  N1  UNL     1      28.687   0.222  12.918  1.00  0.00    -0.384 N 
ATOM     34  H12 UNL     1      28.390  -0.665  13.325  1.00  0.00     0.157 HD
ATOM     35  H11 UNL     1      28.304   1.103  13.261  1.00  0.00     0.157 HD
ENDBRANCH  29  33
ENDBRANCH   1  24
TORSDOF 9
ENDMDL
