MODEL 1
REMARK VINA RESULT: -6.665269036      0.000      0.000
REMARK  9 active torsions:
REMARK  status: ('A' for Active; 'I' for Inactive)
REMARK    1  A    between atoms: C4_4  and  C5_5 
REMARK    2  A    between atoms: C5_5  and  C6_6 
REMARK    3  A    between atoms: C8_10  and  C9_11 
REMARK    4  A    between atoms: C9_11  and  N2_12 
REMARK    5  A    between atoms: C12_17  and  N4_18 
REMARK    6  A    between atoms: N6_24  and  C14_25 
REMARK    7  A    between atoms: C14_25  and  C15_26 
REMARK    8  A    between atoms: C15_26  and  C16_27 
REMARK    9  A    between atoms: C16_27  and  N7_28 
ROOT
HETATM    1  C6  UNL     1      28.459   2.182   4.884  1.00  0.00     0.089 A 
HETATM    2  N1  UNL     1      27.717   3.334   4.838  1.00  0.00    -0.341 N 
ATOM      3  H1  UNL     1      28.033   4.246   5.169  1.00  0.00     0.167 HD
HETATM    4  C7  UNL     1      26.517   3.089   4.293  1.00  0.00     0.104 A 
HETATM    5  C8  UNL     1      25.399   3.836   4.001  1.00  0.00     0.085 A 
HETATM    6  N3  UNL     1      24.296   3.287   3.429  1.00  0.00    -0.192 N 
ATOM      7  H3  UNL     1      23.472   3.850   3.217  1.00  0.00     0.184 HD
HETATM    8  C12 UNL     1      24.332   1.978   3.153  1.00  0.00     0.677 A 
HETATM    9  N5  UNL     1      25.424   1.224   3.431  1.00  0.00    -0.174 N 
ATOM     10  H5  UNL     1      25.408   0.230   3.203  1.00  0.00     0.186 HD
HETATM   11  C13 UNL     1      26.535   1.747   4.002  1.00  0.00     0.153 A 
HETATM   12  N6  UNL     1      27.734   1.205   4.372  1.00  0.00    -0.320 N 
ENDROOT
BRANCH   1  13
HETATM   13  C5  UNL     1      29.823   2.099   5.462  1.00  0.00     0.117 C 
BRANCH  13  14
HETATM   14  C4  UNL     1      29.862   1.479   6.814  1.00  0.00    -0.029 A 
HETATM   15  C3  UNL     1      29.030   1.989   7.827  1.00  0.00     0.017 A 
HETATM   16  C2  UNL     1      29.005   1.485   9.104  1.00  0.00    -0.040 A 
HETATM   17  C1  UNL     1      28.112   2.043  10.164  1.00  0.00     0.050 C 
HETATM   18  C19 UNL     1      29.814   0.431   9.456  1.00  0.00     0.041 A 
HETATM   19  C18 UNL     1      30.634  -0.080   8.478  1.00  0.00     0.048 A 
HETATM   20 CL2  UNL     1      29.784  -0.214  11.086  1.00  0.00    -0.084 Cl
HETATM   21  C17 UNL     1      30.666   0.429   7.171  1.00  0.00     0.042 A 
HETATM   22 CL1  UNL     1      31.747  -0.315   6.011  1.00  0.00    -0.084 Cl
ENDBRANCH  13  14
ENDBRANCH   1  13
BRANCH  12  23
HETATM   23  C14 UNL     1      28.013  -0.193   4.208  1.00  0.00     0.133 C 
BRANCH  23  24
HETATM   24  C15 UNL     1      28.516  -0.511   2.806  1.00  0.00     0.047 C 
BRANCH  24  25
HETATM   25  C16 UNL     1      29.991  -0.825   2.922  1.00  0.00     0.231 C 
BRANCH  25  26
HETATM   26  N7  UNL     1      30.213  -2.123   3.528  1.00  0.00    -0.079 N 
ATOM     27  H73 UNL     1      29.840  -2.161   4.477  1.00  0.00     0.274 HD
ATOM     28  H72 UNL     1      29.627  -2.840   3.099  1.00  0.00     0.274 HD
ATOM     29  H71 UNL     1      31.199  -2.384   3.504  1.00  0.00     0.274 HD
ENDBRANCH  25  26
ENDBRANCH  24  25
ENDBRANCH  23  24
ENDBRANCH  12  23
BRANCH   5  30
HETATM   30  C9  UNL     1      25.467   5.279   4.348  1.00  0.00     0.331 C 
BRANCH  30  31
HETATM   31  N2  UNL     1      26.109   5.980   3.239  1.00  0.00     0.085 N 
HETATM   32  C10 UNL     1      27.373   6.562   3.657  1.00  0.00     0.309 C 
HETATM   33  C11 UNL     1      25.244   7.113   2.882  1.00  0.00     0.309 C 
ENDBRANCH  30  31
ENDBRANCH   5  30
BRANCH   8  34
HETATM   34  N4  UNL     1      23.333   1.404   2.616  1.00  0.00    -0.234 N 
ATOM     35  H42 UNL     1      23.203   1.514   1.611  1.00  0.00     0.174 HD
ATOM     36  H41 UNL     1      22.688   0.853   3.181  1.00  0.00     0.174 HD
ENDBRANCH   8  34
TORSDOF 9
ENDMDL
MODEL 2
REMARK VINA RESULT: -5.621447938      1.193      1.578
REMARK  9 active torsions:
REMARK  status: ('A' for Active; 'I' for Inactive)
REMARK    1  A    between atoms: C4_4  and  C5_5 
REMARK    2  A    between atoms: C5_5  and  C6_6 
REMARK    3  A    between atoms: C8_10  and  C9_11 
REMARK    4  A    between atoms: C9_11  and  N2_12 
REMARK    5  A    between atoms: C12_17  and  N4_18 
REMARK    6  A    between atoms: N6_24  and  C14_25 
REMARK    7  A    between atoms: C14_25  and  C15_26 
REMARK    8  A    between atoms: C15_26  and  C16_27 
REMARK    9  A    between atoms: C16_27  and  N7_28 
ROOT
HETATM    1  C6  UNL     1      28.485   1.498   5.068  1.00  0.00     0.089 A 
HETATM    2  N1  UNL     1      27.839   2.706   5.046  1.00  0.00    -0.341 N 
ATOM      3  H1  UNL     1      28.190   3.564   5.473  1.00  0.00     0.167 HD
HETATM    4  C7  UNL     1      26.679   2.598   4.384  1.00  0.00     0.104 A 
HETATM    5  C8  UNL     1      25.651   3.451   4.055  1.00  0.00     0.085 A 
HETATM    6  N3  UNL     1      24.567   3.035   3.350  1.00  0.00    -0.192 N 
ATOM      7  H3  UNL     1      23.810   3.676   3.112  1.00  0.00     0.184 HD
HETATM    8  C12 UNL     1      24.531   1.750   2.979  1.00  0.00     0.677 A 
HETATM    9  N5  UNL     1      25.533   0.892   3.291  1.00  0.00    -0.174 N 
ATOM     10  H5  UNL     1      25.464  -0.079   2.986  1.00  0.00     0.186 HD
HETATM   11  C13 UNL     1      26.624   1.282   3.993  1.00  0.00     0.153 A 
HETATM   12  N6  UNL     1      27.740   0.621   4.422  1.00  0.00    -0.320 N 
ENDROOT
BRANCH   1  13
HETATM   13  C5  UNL     1      29.781   1.265   5.752  1.00  0.00     0.117 C 
BRANCH  13  14
HETATM   14  C4  UNL     1      29.660   1.129   7.229  1.00  0.00    -0.029 A 
HETATM   15  C3  UNL     1      29.705  -0.153   7.806  1.00  0.00     0.017 A 
HETATM   16  C2  UNL     1      29.595  -0.374   9.156  1.00  0.00    -0.040 A 
HETATM   17  C1  UNL     1      29.647  -1.745   9.747  1.00  0.00     0.050 C 
HETATM   18  C19 UNL     1      29.433   0.678  10.027  1.00  0.00     0.041 A 
HETATM   19  C18 UNL     1      29.386   1.939   9.480  1.00  0.00     0.048 A 
HETATM   20 CL2  UNL     1      29.291   0.398  11.752  1.00  0.00    -0.084 Cl
HETATM   21  C17 UNL     1      29.497   2.173   8.101  1.00  0.00     0.042 A 
HETATM   22 CL1  UNL     1      29.434   3.826   7.527  1.00  0.00    -0.084 Cl
ENDBRANCH  13  14
ENDBRANCH   1  13
BRANCH  12  23
HETATM   23  C14 UNL     1      27.927  -0.781   4.176  1.00  0.00     0.133 C 
BRANCH  23  24
HETATM   24  C15 UNL     1      28.466  -1.044   2.775  1.00  0.00     0.047 C 
BRANCH  24  25
HETATM   25  C16 UNL     1      29.961  -0.826   2.824  1.00  0.00     0.231 C 
BRANCH  25  26
HETATM   26  N7  UNL     1      30.600  -1.725   3.766  1.00  0.00    -0.079 N 
ATOM     27  H73 UNL     1      30.623  -1.326   4.705  1.00  0.00     0.274 HD
ATOM     28  H72 UNL     1      30.018  -2.541   3.956  1.00  0.00     0.274 HD
ATOM     29  H71 UNL     1      31.532  -1.995   3.453  1.00  0.00     0.274 HD
ENDBRANCH  25  26
ENDBRANCH  24  25
ENDBRANCH  23  24
ENDBRANCH  12  23
BRANCH   5  30
HETATM   30  C9  UNL     1      25.794   4.856   4.516  1.00  0.00     0.331 C 
BRANCH  30  31
HETATM   31  N2  UNL     1      26.199   5.668   3.371  1.00  0.00     0.085 N 
HETATM   32  C10 UNL     1      27.573   6.119   3.518  1.00  0.00     0.309 C 
HETATM   33  C11 UNL     1      25.374   6.883   3.386  1.00  0.00     0.309 C 
ENDBRANCH  30  31
ENDBRANCH   5  30
BRANCH   8  34
HETATM   34  N4  UNL     1      23.545   1.297   2.316  1.00  0.00    -0.234 N 
ATOM     35  H42 UNL     1      22.983   1.961   1.783  1.00  0.00     0.174 HD
ATOM     36  H41 UNL     1      23.330   0.300   2.323  1.00  0.00     0.174 HD
ENDBRANCH   8  34
TORSDOF 9
ENDMDL
MODEL 3
REMARK VINA RESULT: -4.935488476      1.274      1.481
REMARK  9 active torsions:
REMARK  status: ('A' for Active; 'I' for Inactive)
REMARK    1  A    between atoms: C4_4  and  C5_5 
REMARK    2  A    between atoms: C5_5  and  C6_6 
REMARK    3  A    between atoms: C8_10  and  C9_11 
REMARK    4  A    between atoms: C9_11  and  N2_12 
REMARK    5  A    between atoms: C12_17  and  N4_18 
REMARK    6  A    between atoms: N6_24  and  C14_25 
REMARK    7  A    between atoms: C14_25  and  C15_26 
REMARK    8  A    between atoms: C15_26  and  C16_27 
REMARK    9  A    between atoms: C16_27  and  N7_28 
ROOT
HETATM    1  C6  UNL     1      28.953   2.603   5.270  1.00  0.00     0.089 A 
HETATM    2  N1  UNL     1      27.773   3.297   5.321  1.00  0.00    -0.341 N 
ATOM      3  H1  UNL     1      27.526   3.978   6.040  1.00  0.00     0.167 HD
HETATM    4  C7  UNL     1      26.990   2.954   4.289  1.00  0.00     0.104 A 
HETATM    5  C8  UNL     1      25.739   3.313   3.841  1.00  0.00     0.085 A 
HETATM    6  N3  UNL     1      25.192   2.772   2.721  1.00  0.00    -0.192 N 
ATOM      7  H3  UNL     1      24.264   3.046   2.399  1.00  0.00     0.184 HD
HETATM    8  C12 UNL     1      25.919   1.866   2.058  1.00  0.00     0.677 A 
HETATM    9  N5  UNL     1      27.154   1.498   2.480  1.00  0.00    -0.174 N 
ATOM     10  H5  UNL     1      27.673   0.804   1.942  1.00  0.00     0.186 HD
HETATM   11  C13 UNL     1      27.721   2.022   3.593  1.00  0.00     0.153 A 
HETATM   12  N6  UNL     1      28.923   1.817   4.210  1.00  0.00    -0.320 N 
ENDROOT
BRANCH   1  13
HETATM   13  C5  UNL     1      30.028   2.722   6.285  1.00  0.00     0.117 C 
BRANCH  13  14
HETATM   14  C4  UNL     1      29.893   1.763   7.414  1.00  0.00    -0.029 A 
HETATM   15  C3  UNL     1      29.084   2.104   8.513  1.00  0.00     0.017 A 
HETATM   16  C2  UNL     1      28.907   1.285   9.600  1.00  0.00    -0.040 A 
HETATM   17  C1  UNL     1      28.041   1.669  10.756  1.00  0.00     0.050 C 
HETATM   18  C19 UNL     1      29.530   0.061   9.663  1.00  0.00     0.041 A 
HETATM   19  C18 UNL     1      30.325  -0.290   8.598  1.00  0.00     0.048 A 
HETATM   20 CL2  UNL     1      29.305  -0.987  11.051  1.00  0.00    -0.084 Cl
HETATM   21  C17 UNL     1      30.511   0.541   7.483  1.00  0.00     0.042 A 
HETATM   22 CL1  UNL     1      31.541  -0.023   6.184  1.00  0.00    -0.084 Cl
ENDBRANCH  13  14
ENDBRANCH   1  13
BRANCH  12  23
HETATM   23  C14 UNL     1      29.875   0.867   3.709  1.00  0.00     0.133 C 
BRANCH  23  24
HETATM   24  C15 UNL     1      29.346  -0.559   3.781  1.00  0.00     0.047 C 
BRANCH  24  25
HETATM   25  C16 UNL     1      30.235  -1.410   2.902  1.00  0.00     0.231 C 
BRANCH  25  26
HETATM   26  N7  UNL     1      30.902  -2.447   3.665  1.00  0.00    -0.079 N 
ATOM     27  H73 UNL     1      30.665  -2.394   4.655  1.00  0.00     0.274 HD
ATOM     28  H72 UNL     1      30.515  -3.369   3.459  1.00  0.00     0.274 HD
ATOM     29  H71 UNL     1      31.912  -2.427   3.522  1.00  0.00     0.274 HD
ENDBRANCH  25  26
ENDBRANCH  24  25
ENDBRANCH  23  24
ENDBRANCH  12  23
BRANCH   5  30
HETATM   30  C9  UNL     1      25.020   4.328   4.653  1.00  0.00     0.331 C 
BRANCH  30  31
HETATM   31  N2  UNL     1      24.185   5.118   3.751  1.00  0.00     0.085 N 
HETATM   32  C10 UNL     1      24.321   6.538   4.033  1.00  0.00     0.309 C 
HETATM   33  C11 UNL     1      22.786   4.782   4.048  1.00  0.00     0.309 C 
ENDBRANCH  30  31
ENDBRANCH   5  30
BRANCH   8  34
HETATM   34  N4  UNL     1      25.466   1.322   1.001  1.00  0.00    -0.234 N 
ATOM     35  H42 UNL     1      25.803   0.390   0.762  1.00  0.00     0.174 HD
ATOM     36  H41 UNL     1      24.787   1.811   0.418  1.00  0.00     0.174 HD
ENDBRANCH   8  34
TORSDOF 9
ENDMDL
MODEL 4
REMARK VINA RESULT: -4.846328802      1.254      1.382
REMARK  9 active torsions:
REMARK  status: ('A' for Active; 'I' for Inactive)
REMARK    1  A    between atoms: C4_4  and  C5_5 
REMARK    2  A    between atoms: C5_5  and  C6_6 
REMARK    3  A    between atoms: C8_10  and  C9_11 
REMARK    4  A    between atoms: C9_11  and  N2_12 
REMARK    5  A    between atoms: C12_17  and  N4_18 
REMARK    6  A    between atoms: N6_24  and  C14_25 
REMARK    7  A    between atoms: C14_25  and  C15_26 
REMARK    8  A    between atoms: C15_26  and  C16_27 
REMARK    9  A    between atoms: C16_27  and  N7_28 
ROOT
HETATM    1  C6  UNL     1      28.042   2.658   4.557  1.00  0.00     0.089 A 
HETATM    2  N1  UNL     1      27.534   3.928   4.479  1.00  0.00    -0.341 N 
ATOM      3  H1  UNL     1      28.075   4.783   4.610  1.00  0.00     0.167 HD
HETATM    4  C7  UNL     1      26.222   3.885   4.207  1.00  0.00     0.104 A 
HETATM    5  C8  UNL     1      25.226   4.815   4.019  1.00  0.00     0.085 A 
HETATM    6  N3  UNL     1      23.945   4.453   3.746  1.00  0.00    -0.192 N 
ATOM      7  H3  UNL     1      23.214   5.151   3.610  1.00  0.00     0.184 HD
HETATM    8  C12 UNL     1      23.680   3.144   3.664  1.00  0.00     0.677 A 
HETATM    9  N5  UNL     1      24.646   2.211   3.844  1.00  0.00    -0.174 N 
ATOM     10  H5  UNL     1      24.399   1.224   3.771  1.00  0.00     0.186 HD
HETATM   11  C13 UNL     1      25.930   2.546   4.118  1.00  0.00     0.153 A 
HETATM   12  N6  UNL     1      27.058   1.806   4.337  1.00  0.00    -0.320 N 
ENDROOT
BRANCH   1  13
HETATM   13  C5  UNL     1      29.457   2.351   4.880  1.00  0.00     0.117 C 
BRANCH  13  14
HETATM   14  C4  UNL     1      29.637   1.675   6.193  1.00  0.00    -0.029 A 
HETATM   15  C3  UNL     1      28.976   2.184   7.325  1.00  0.00     0.017 A 
HETATM   16  C2  UNL     1      29.089   1.630   8.575  1.00  0.00    -0.040 A 
HETATM   17  C1  UNL     1      28.376   2.189   9.763  1.00  0.00     0.050 C 
HETATM   18  C19 UNL     1      29.876   0.521   8.781  1.00  0.00     0.041 A 
HETATM   19  C18 UNL     1      30.530   0.009   7.686  1.00  0.00     0.048 A 
HETATM   20 CL2  UNL     1      30.022  -0.188  10.378  1.00  0.00    -0.084 Cl
HETATM   21  C17 UNL     1      30.420   0.569   6.404  1.00  0.00     0.042 A 
HETATM   22 CL1  UNL     1      31.296  -0.181   5.086  1.00  0.00    -0.084 Cl
ENDBRANCH  13  14
ENDBRANCH   1  13
BRANCH  12  23
HETATM   23  C14 UNL     1      27.032   0.371   4.332  1.00  0.00     0.133 C 
BRANCH  23  24
HETATM   24  C15 UNL     1      27.922  -0.209   3.239  1.00  0.00     0.047 C 
BRANCH  24  25
HETATM   25  C16 UNL     1      27.887  -1.713   3.387  1.00  0.00     0.231 C 
BRANCH  25  26
HETATM   26  N7  UNL     1      26.780  -2.141   4.220  1.00  0.00    -0.079 N 
ATOM     27  H73 UNL     1      26.895  -1.828   5.185  1.00  0.00     0.274 HD
ATOM     28  H72 UNL     1      25.923  -1.635   3.992  1.00  0.00     0.274 HD
ATOM     29  H71 UNL     1      26.641  -3.150   4.170  1.00  0.00     0.274 HD
ENDBRANCH  25  26
ENDBRANCH  24  25
ENDBRANCH  23  24
ENDBRANCH  12  23
BRANCH   5  30
HETATM   30  C9  UNL     1      25.631   6.240   4.132  1.00  0.00     0.331 C 
BRANCH  30  31
HETATM   31  N2  UNL     1      24.695   7.038   3.344  1.00  0.00     0.085 N 
HETATM   32  C10 UNL     1      25.407   7.910   2.424  1.00  0.00     0.309 C 
HETATM   33  C11 UNL     1      23.992   7.929   4.277  1.00  0.00     0.309 C 
ENDBRANCH  30  31
ENDBRANCH   5  30
BRANCH   8  34
HETATM   34  N4  UNL     1      22.501   2.739   3.410  1.00  0.00    -0.234 N 
ATOM     35  H42 UNL     1      21.821   3.425   3.084  1.00  0.00     0.174 HD
ATOM     36  H41 UNL     1      22.253   1.758   3.534  1.00  0.00     0.174 HD
ENDBRANCH   8  34
TORSDOF 9
ENDMDL
MODEL 5
REMARK VINA RESULT: -4.597827693      3.421      6.782
REMARK  9 active torsions:
REMARK  status: ('A' for Active; 'I' for Inactive)
REMARK    1  A    between atoms: C4_4  and  C5_5 
REMARK    2  A    between atoms: C5_5  and  C6_6 
REMARK    3  A    between atoms: C8_10  and  C9_11 
REMARK    4  A    between atoms: C9_11  and  N2_12 
REMARK    5  A    between atoms: C12_17  and  N4_18 
REMARK    6  A    between atoms: N6_24  and  C14_25 
REMARK    7  A    between atoms: C14_25  and  C15_26 
REMARK    8  A    between atoms: C15_26  and  C16_27 
REMARK    9  A    between atoms: C16_27  and  N7_28 
ROOT
HETATM    1  C6  UNL     1      28.060   3.866   4.381  1.00  0.00     0.089 A 
HETATM    2  N1  UNL     1      28.701   3.506   5.537  1.00  0.00    -0.341 N 
ATOM      3  H1  UNL     1      28.790   4.097   6.364  1.00  0.00     0.167 HD
HETATM    4  C7  UNL     1      29.196   2.266   5.424  1.00  0.00     0.104 A 
HETATM    5  C8  UNL     1      29.907   1.413   6.236  1.00  0.00     0.085 A 
HETATM    6  N3  UNL     1      30.278   0.171   5.828  1.00  0.00    -0.192 N 
ATOM      7  H3  UNL     1      30.806  -0.452   6.439  1.00  0.00     0.184 HD
HETATM    8  C12 UNL     1      29.924  -0.202   4.593  1.00  0.00     0.677 A 
HETATM    9  N5  UNL     1      29.222   0.622   3.776  1.00  0.00    -0.174 N 
ATOM     10  H5  UNL     1      28.972   0.296   2.842  1.00  0.00     0.186 HD
HETATM   11  C13 UNL     1      28.841   1.864   4.159  1.00  0.00     0.153 A 
HETATM   12  N6  UNL     1      28.145   2.859   3.532  1.00  0.00    -0.320 N 
ENDROOT
BRANCH   1  13
HETATM   13  C5  UNL     1      27.430   5.191   4.162  1.00  0.00     0.117 C 
BRANCH  13  14
HETATM   14  C4  UNL     1      25.946   5.141   4.078  1.00  0.00    -0.029 A 
HETATM   15  C3  UNL     1      25.256   4.098   4.722  1.00  0.00     0.017 A 
HETATM   16  C2  UNL     1      23.890   3.968   4.691  1.00  0.00    -0.040 A 
HETATM   17  C1  UNL     1      23.180   2.851   5.384  1.00  0.00     0.050 C 
HETATM   18  C19 UNL     1      23.115   4.878   4.012  1.00  0.00     0.041 A 
HETATM   19  C18 UNL     1      23.772   5.905   3.376  1.00  0.00     0.048 A 
HETATM   20 CL2  UNL     1      21.370   4.714   3.972  1.00  0.00    -0.084 Cl
HETATM   21  C17 UNL     1      25.168   6.045   3.402  1.00  0.00     0.042 A 
HETATM   22 CL1  UNL     1      25.887   7.402   2.561  1.00  0.00    -0.084 Cl
ENDBRANCH  13  14
ENDBRANCH   1  13
BRANCH  12  23
HETATM   23  C14 UNL     1      27.677   2.717   2.182  1.00  0.00     0.133 C 
BRANCH  23  24
HETATM   24  C15 UNL     1      26.877   1.435   1.992  1.00  0.00     0.047 C 
BRANCH  24  25
HETATM   25  C16 UNL     1      25.604   1.579   2.796  1.00  0.00     0.231 C 
BRANCH  25  26
HETATM   26  N7  UNL     1      25.587   0.678   3.932  1.00  0.00    -0.079 N 
ATOM     27  H73 UNL     1      26.191  -0.130   3.777  1.00  0.00     0.274 HD
ATOM     28  H72 UNL     1      26.067   1.082   4.737  1.00  0.00     0.274 HD
ATOM     29  H71 UNL     1      24.637   0.392   4.169  1.00  0.00     0.274 HD
ENDBRANCH  25  26
ENDBRANCH  24  25
ENDBRANCH  23  24
ENDBRANCH  12  23
BRANCH   5  30
HETATM   30  C9  UNL     1      30.246   1.927   7.588  1.00  0.00     0.331 C 
BRANCH  30  31
HETATM   31  N2  UNL     1      29.673   1.016   8.575  1.00  0.00     0.085 N 
HETATM   32  C10 UNL     1      28.753   1.720   9.454  1.00  0.00     0.309 C 
HETATM   33  C11 UNL     1      30.774   0.555   9.432  1.00  0.00     0.309 C 
ENDBRANCH  30  31
ENDBRANCH   5  30
BRANCH   8  34
HETATM   34  N4  UNL     1      30.239  -1.351   4.150  1.00  0.00    -0.234 N 
ATOM     35  H42 UNL     1      30.866  -1.924   4.715  1.00  0.00     0.174 HD
ATOM     36  H41 UNL     1      29.873  -1.681   3.257  1.00  0.00     0.174 HD
ENDBRANCH   8  34
TORSDOF 9
ENDMDL
