MODEL 1
REMARK VINA RESULT: -8.610928184      0.000      0.000
REMARK  12 active torsions:
REMARK  status: ('A' for Active; 'I' for Inactive)
REMARK    1  A    between atoms: C2_2  and  C3_3 
REMARK    2  A    between atoms: C3_3  and  C4_4 
REMARK    3  A    between atoms: C4_4  and  C5_5 
REMARK    4  A    between atoms: C5_5  and  N1_6 
REMARK       I    between atoms: N1_6  and  C6_8 
REMARK       I    between atoms: C6_8  and  N2_10 
REMARK    5  A    between atoms: N2_10  and  C7_12 
REMARK    6  A    between atoms: C7_12  and  C8_13 
REMARK    7  A    between atoms: C8_13  and  O2_14 
REMARK    8  A    between atoms: C8_13  and  N3_16 
REMARK    9  A    between atoms: C11_19  and  C12_20 
REMARK   10  A    between atoms: C12_20  and  C13_21 
REMARK   11  A    between atoms: C13_21  and  N4_22 
REMARK   12  A    between atoms: C13_21  and  C14_26 
ROOT
HETATM    1  C7  UNL     1      34.412   8.617   0.751  1.00  0.00     0.102 C 
HETATM    2  C17 UNL     1      35.775   9.331   0.912  1.00  0.00     0.059 C 
HETATM    3  C18 UNL     1      36.461   8.681   2.080  1.00  0.00     0.117 C 
HETATM    4  N6  UNL     1      36.725   7.314   1.782  1.00  0.00    -0.417 N 
ATOM      5  H6  UNL     1      37.665   6.927   1.864  1.00  0.00     0.153 HD
HETATM    6  C19 UNL     1      35.633   6.510   1.369  1.00  0.00     0.075 C 
HETATM    7  C20 UNL     1      34.897   5.776   2.447  1.00  0.00     0.032 C 
HETATM    8  C21 UNL     1      34.721   7.216   0.377  1.00  0.00     0.064 C 
ENDROOT
BRANCH   1   9
HETATM    9  N2  UNL     1      33.749   8.736   2.036  1.00  0.00    -0.326 N 
HETATM   10  C6  UNL     1      33.230   9.850   2.688  1.00  0.00     0.317 C 
HETATM   11  N1  UNL     1      32.564   9.668   3.950  1.00  0.00    -0.343 N 
HETATM   12  O1  UNL     1      33.282  11.016   2.281  1.00  0.00    -0.247 OA
ATOM     13  H1  UNL     1      32.509   8.721   4.325  1.00  0.00     0.164 HD
ATOM     14  H2  UNL     1      33.646   7.858   2.545  1.00  0.00     0.165 HD
BRANCH  11  15
HETATM   15  C5  UNL     1      31.972  10.723   4.718  1.00  0.00     0.124 C 
BRANCH  15  16
HETATM   16  C4  UNL     1      32.370  10.664   6.149  1.00  0.00     0.020 C 
BRANCH  16  17
HETATM   17  C3  UNL     1      33.815  11.071   6.320  1.00  0.00     0.001 C 
BRANCH  17  18
HETATM   18  C2  UNL     1      34.718   9.941   6.711  1.00  0.00    -0.004 C 
HETATM   19  C1  UNL     1      35.732   9.644   5.620  1.00  0.00     0.005 C 
ENDBRANCH  17  18
ENDBRANCH  16  17
ENDBRANCH  15  16
ENDBRANCH  11  15
ENDBRANCH   1   9
BRANCH   1  20
HETATM   20  C8  UNL     1      33.696   9.378  -0.282  1.00  0.00     0.142 C 
BRANCH  20  21
HETATM   21  O2  UNL     1      34.342  10.472  -0.624  1.00  0.00    -0.348 OA
ATOM     22  H2  UNL     1      34.102  11.212  -0.078  1.00  0.00     0.219 HD
ENDBRANCH  20  21
BRANCH  20  23
HETATM   23  N3  UNL     1      32.511   9.220  -0.972  1.00  0.00    -0.363 N 
HETATM   24  C9  UNL     1      31.270   9.257  -0.162  1.00  0.00     0.129 C 
HETATM   25  C10 UNL     1      30.168  10.050  -0.803  1.00  0.00     0.053 C 
HETATM   26  C11 UNL     1      30.066   9.769  -2.246  1.00  0.00    -0.078 C 
HETATM   27  C15 UNL     1      30.881   8.577  -2.640  1.00  0.00     0.053 C 
HETATM   28  C16 UNL     1      32.374   8.978  -2.384  1.00  0.00     0.129 C 
BRANCH  26  29
HETATM   29  C12 UNL     1      28.779   9.859  -2.922  1.00  0.00     0.017 C 
BRANCH  29  30
HETATM   30  C13 UNL     1      27.734  10.820  -2.574  1.00  0.00     0.295 C 
BRANCH  30  31
HETATM   31  N4  UNL     1      27.301  11.381  -3.906  1.00  0.00    -0.064 N 
ATOM     32  H43 UNL     1      27.221  12.398  -3.929  1.00  0.00     0.275 HD
ATOM     33  H42 UNL     1      28.005  11.310  -4.641  1.00  0.00     0.275 HD
ATOM     34  H41 UNL     1      26.432  10.887  -4.108  1.00  0.00     0.275 HD
ENDBRANCH  30  31
BRANCH  30  35
HETATM   35  C14 UNL     1      26.504  10.278  -2.007  1.00  0.00     0.265 C 
HETATM   36  N5  UNL     1      26.452   9.578  -0.758  1.00  0.00    -0.060 NA
HETATM   37  O3  UNL     1      25.415  10.413  -2.611  1.00  0.00    -0.274 OA
ENDBRANCH  30  35
ENDBRANCH  29  30
ENDBRANCH  26  29
ENDBRANCH  20  23
ENDBRANCH   1  20
TORSDOF 12
ENDMDL
MODEL 2
REMARK VINA RESULT: -8.560646903      2.653      5.582
REMARK  12 active torsions:
REMARK  status: ('A' for Active; 'I' for Inactive)
REMARK    1  A    between atoms: C2_2  and  C3_3 
REMARK    2  A    between atoms: C3_3  and  C4_4 
REMARK    3  A    between atoms: C4_4  and  C5_5 
REMARK    4  A    between atoms: C5_5  and  N1_6 
REMARK       I    between atoms: N1_6  and  C6_8 
REMARK       I    between atoms: C6_8  and  N2_10 
REMARK    5  A    between atoms: N2_10  and  C7_12 
REMARK    6  A    between atoms: C7_12  and  C8_13 
REMARK    7  A    between atoms: C8_13  and  O2_14 
REMARK    8  A    between atoms: C8_13  and  N3_16 
REMARK    9  A    between atoms: C11_19  and  C12_20 
REMARK   10  A    between atoms: C12_20  and  C13_21 
REMARK   11  A    between atoms: C13_21  and  N4_22 
REMARK   12  A    between atoms: C13_21  and  C14_26 
ROOT
HETATM    1  C7  UNL     1      33.685  10.218   4.889  1.00  0.00     0.102 C 
HETATM    2  C17 UNL     1      33.579  10.236   6.432  1.00  0.00     0.059 C 
HETATM    3  C18 UNL     1      34.937   9.870   6.958  1.00  0.00     0.117 C 
HETATM    4  N6  UNL     1      35.882  10.865   6.582  1.00  0.00    -0.417 N 
ATOM      5  H6  UNL     1      36.468  11.328   7.277  1.00  0.00     0.153 HD
HETATM    6  C19 UNL     1      35.981  11.190   5.206  1.00  0.00     0.075 C 
HETATM    7  C20 UNL     1      36.988  10.422   4.408  1.00  0.00     0.032 C 
HETATM    8  C21 UNL     1      34.624  11.307   4.528  1.00  0.00     0.064 C 
ENDROOT
BRANCH   1   9
HETATM    9  N2  UNL     1      34.176   8.898   4.542  1.00  0.00    -0.326 N 
HETATM   10  C6  UNL     1      34.512   8.352   3.307  1.00  0.00     0.317 C 
HETATM   11  N1  UNL     1      35.036   7.013   3.260  1.00  0.00    -0.343 N 
HETATM   12  O1  UNL     1      34.406   8.917   2.213  1.00  0.00    -0.247 OA
ATOM     13  H1  UNL     1      35.129   6.509   4.142  1.00  0.00     0.164 HD
ATOM     14  H2  UNL     1      34.295   8.265   5.334  1.00  0.00     0.165 HD
BRANCH  11  15
HETATM   15  C5  UNL     1      35.435   6.337   2.061  1.00  0.00     0.124 C 
BRANCH  15  16
HETATM   16  C4  UNL     1      34.919   4.943   2.006  1.00  0.00     0.020 C 
BRANCH  16  17
HETATM   17  C3  UNL     1      34.028   4.750   0.802  1.00  0.00     0.001 C 
BRANCH  17  18
HETATM   18  C2  UNL     1      33.829   3.313   0.425  1.00  0.00    -0.004 C 
HETATM   19  C1  UNL     1      32.355   2.944   0.424  1.00  0.00     0.005 C 
ENDBRANCH  17  18
ENDBRANCH  16  17
ENDBRANCH  15  16
ENDBRANCH  11  15
ENDBRANCH   1   9
BRANCH   1  20
HETATM   20  C8  UNL     1      32.313  10.413   4.403  1.00  0.00     0.142 C 
BRANCH  20  21
HETATM   21  O2  UNL     1      31.502  10.806   5.362  1.00  0.00    -0.348 OA
ATOM     22  H2  UNL     1      30.611  10.913   5.052  1.00  0.00     0.219 HD
ENDBRANCH  20  21
BRANCH  20  23
HETATM   23  N3  UNL     1      31.675  10.278   3.186  1.00  0.00    -0.363 N 
HETATM   24  C9  UNL     1      31.803  11.420   2.249  1.00  0.00     0.129 C 
HETATM   25  C10 UNL     1      32.053  10.997   0.831  1.00  0.00     0.053 C 
HETATM   26  C11 UNL     1      31.204   9.856   0.447  1.00  0.00    -0.078 C 
HETATM   27  C15 UNL     1      30.128   9.599   1.455  1.00  0.00     0.053 C 
HETATM   28  C16 UNL     1      30.867   9.164   2.766  1.00  0.00     0.129 C 
BRANCH  26  29
HETATM   29  C12 UNL     1      30.776   9.692  -0.936  1.00  0.00     0.017 C 
BRANCH  29  30
HETATM   30  C13 UNL     1      31.457   8.841  -1.911  1.00  0.00     0.295 C 
BRANCH  30  31
HETATM   31  N4  UNL     1      30.404   8.584  -2.961  1.00  0.00    -0.064 N 
ATOM     32  H43 UNL     1      29.562   8.126  -2.610  1.00  0.00     0.275 HD
ATOM     33  H42 UNL     1      29.938   9.423  -3.304  1.00  0.00     0.275 HD
ATOM     34  H41 UNL     1      30.900   8.055  -3.679  1.00  0.00     0.275 HD
ENDBRANCH  30  31
BRANCH  30  35
HETATM   35  C14 UNL     1      32.554   9.447  -2.658  1.00  0.00     0.265 C 
HETATM   36  N5  UNL     1      33.804   9.818  -2.063  1.00  0.00    -0.060 NA
HETATM   37  O3  UNL     1      32.440   9.667  -3.885  1.00  0.00    -0.274 OA
ENDBRANCH  30  35
ENDBRANCH  29  30
ENDBRANCH  26  29
ENDBRANCH  20  23
ENDBRANCH   1  20
TORSDOF 12
ENDMDL
MODEL 3
REMARK VINA RESULT: -8.556507046      2.337      4.598
REMARK  12 active torsions:
REMARK  status: ('A' for Active; 'I' for Inactive)
REMARK    1  A    between atoms: C2_2  and  C3_3 
REMARK    2  A    between atoms: C3_3  and  C4_4 
REMARK    3  A    between atoms: C4_4  and  C5_5 
REMARK    4  A    between atoms: C5_5  and  N1_6 
REMARK       I    between atoms: N1_6  and  C6_8 
REMARK       I    between atoms: C6_8  and  N2_10 
REMARK    5  A    between atoms: N2_10  and  C7_12 
REMARK    6  A    between atoms: C7_12  and  C8_13 
REMARK    7  A    between atoms: C8_13  and  O2_14 
REMARK    8  A    between atoms: C8_13  and  N3_16 
REMARK    9  A    between atoms: C11_19  and  C12_20 
REMARK   10  A    between atoms: C12_20  and  C13_21 
REMARK   11  A    between atoms: C13_21  and  N4_22 
REMARK   12  A    between atoms: C13_21  and  C14_26 
ROOT
HETATM    1  C7  UNL     1      34.321   9.204   1.251  1.00  0.00     0.102 C 
HETATM    2  C17 UNL     1      33.683   9.948   2.448  1.00  0.00     0.059 C 
HETATM    3  C18 UNL     1      34.205   9.284   3.690  1.00  0.00     0.117 C 
HETATM    4  N6  UNL     1      35.614   9.465   3.775  1.00  0.00    -0.417 N 
ATOM      5  H6  UNL     1      36.046   9.868   4.607  1.00  0.00     0.153 HD
HETATM    6  C19 UNL     1      36.395   9.065   2.662  1.00  0.00     0.075 C 
HETATM    7  C20 UNL     1      36.920   7.663   2.683  1.00  0.00     0.032 C 
HETATM    8  C21 UNL     1      35.778   9.467   1.332  1.00  0.00     0.064 C 
ENDROOT
BRANCH   1   9
HETATM    9  N2  UNL     1      33.979   7.805   1.427  1.00  0.00    -0.326 N 
HETATM   10  C6  UNL     1      34.313   6.689   0.667  1.00  0.00     0.317 C 
HETATM   11  N1  UNL     1      33.879   5.391   1.112  1.00  0.00    -0.343 N 
HETATM   12  O1  UNL     1      34.968   6.697  -0.382  1.00  0.00    -0.247 OA
ATOM     13  H1  UNL     1      33.327   5.344   1.968  1.00  0.00     0.164 HD
ATOM     14  H2  UNL     1      33.398   7.607   2.242  1.00  0.00     0.165 HD
BRANCH  11  15
HETATM   15  C5  UNL     1      34.166   4.161   0.435  1.00  0.00     0.124 C 
BRANCH  15  16
HETATM   16  C4  UNL     1      33.530   2.995   1.104  1.00  0.00     0.020 C 
BRANCH  16  17
HETATM   17  C3  UNL     1      32.063   2.913   0.755  1.00  0.00     0.001 C 
BRANCH  17  18
HETATM   18  C2  UNL     1      31.775   2.058  -0.443  1.00  0.00    -0.004 C 
HETATM   19  C1  UNL     1      30.331   1.588  -0.449  1.00  0.00     0.005 C 
ENDBRANCH  17  18
ENDBRANCH  16  17
ENDBRANCH  15  16
ENDBRANCH  11  15
ENDBRANCH   1   9
BRANCH   1  20
HETATM   20  C8  UNL     1      33.669   9.758   0.058  1.00  0.00     0.142 C 
BRANCH  20  21
HETATM   21  O2  UNL     1      34.329  10.785  -0.432  1.00  0.00    -0.348 OA
ATOM     22  H2  UNL     1      34.084  10.969  -1.332  1.00  0.00     0.219 HD
ENDBRANCH  20  21
BRANCH  20  23
HETATM   23  N3  UNL     1      32.531   9.461  -0.666  1.00  0.00    -0.363 N 
HETATM   24  C9  UNL     1      31.257   9.453   0.091  1.00  0.00     0.129 C 
HETATM   25  C10 UNL     1      30.126  10.112  -0.645  1.00  0.00     0.053 C 
HETATM   26  C11 UNL     1      30.110   9.729  -2.068  1.00  0.00    -0.078 C 
HETATM   27  C15 UNL     1      31.030   8.582  -2.346  1.00  0.00     0.053 C 
HETATM   28  C16 UNL     1      32.475   9.117  -2.061  1.00  0.00     0.129 C 
BRANCH  26  29
HETATM   29  C12 UNL     1      28.850   9.672  -2.798  1.00  0.00     0.017 C 
BRANCH  29  30
HETATM   30  C13 UNL     1      27.696  10.523  -2.513  1.00  0.00     0.295 C 
BRANCH  30  31
HETATM   31  N4  UNL     1      27.347  11.119  -3.854  1.00  0.00    -0.064 N 
ATOM     32  H43 UNL     1      27.208  10.433  -4.596  1.00  0.00     0.275 HD
ATOM     33  H42 UNL     1      26.413  11.525  -3.904  1.00  0.00     0.275 HD
ATOM     34  H41 UNL     1      28.103  11.781  -4.031  1.00  0.00     0.275 HD
ENDBRANCH  30  31
BRANCH  30  35
HETATM   35  C14 UNL     1      26.469   9.850  -2.100  1.00  0.00     0.265 C 
HETATM   36  N5  UNL     1      25.545  10.403  -1.154  1.00  0.00    -0.060 NA
HETATM   37  O3  UNL     1      26.169   8.732  -2.576  1.00  0.00    -0.274 OA
ENDBRANCH  30  35
ENDBRANCH  29  30
ENDBRANCH  26  29
ENDBRANCH  20  23
ENDBRANCH   1  20
TORSDOF 12
ENDMDL
MODEL 4
REMARK VINA RESULT: -8.501523115      2.451      4.641
REMARK  12 active torsions:
REMARK  status: ('A' for Active; 'I' for Inactive)
REMARK    1  A    between atoms: C2_2  and  C3_3 
REMARK    2  A    between atoms: C3_3  and  C4_4 
REMARK    3  A    between atoms: C4_4  and  C5_5 
REMARK    4  A    between atoms: C5_5  and  N1_6 
REMARK       I    between atoms: N1_6  and  C6_8 
REMARK       I    between atoms: C6_8  and  N2_10 
REMARK    5  A    between atoms: N2_10  and  C7_12 
REMARK    6  A    between atoms: C7_12  and  C8_13 
REMARK    7  A    between atoms: C8_13  and  O2_14 
REMARK    8  A    between atoms: C8_13  and  N3_16 
REMARK    9  A    between atoms: C11_19  and  C12_20 
REMARK   10  A    between atoms: C12_20  and  C13_21 
REMARK   11  A    between atoms: C13_21  and  N4_22 
REMARK   12  A    between atoms: C13_21  and  C14_26 
ROOT
HETATM    1  C7  UNL     1      34.598   9.367   2.070  1.00  0.00     0.102 C 
HETATM    2  C17 UNL     1      34.118   9.897   3.443  1.00  0.00     0.059 C 
HETATM    3  C18 UNL     1      34.775   9.038   4.485  1.00  0.00     0.117 C 
HETATM    4  N6  UNL     1      36.187   9.210   4.429  1.00  0.00    -0.417 N 
ATOM      5  H6  UNL     1      36.721   9.470   5.258  1.00  0.00     0.153 HD
HETATM    6  C19 UNL     1      36.824   9.005   3.179  1.00  0.00     0.075 C 
HETATM    7  C20 UNL     1      37.327   7.622   2.904  1.00  0.00     0.032 C 
HETATM    8  C21 UNL     1      36.058   9.620   2.018  1.00  0.00     0.064 C 
ENDROOT
BRANCH   1   9
HETATM    9  N2  UNL     1      34.259   7.956   2.051  1.00  0.00    -0.326 N 
HETATM   10  C6  UNL     1      34.478   6.985   1.079  1.00  0.00     0.317 C 
HETATM   11  N1  UNL     1      34.082   5.629   1.351  1.00  0.00    -0.343 N 
HETATM   12  O1  UNL     1      34.997   7.173  -0.027  1.00  0.00    -0.247 OA
ATOM     13  H1  UNL     1      33.641   5.436   2.250  1.00  0.00     0.164 HD
ATOM     14  H2  UNL     1      33.781   7.621   2.888  1.00  0.00     0.165 HD
BRANCH  11  15
HETATM   15  C5  UNL     1      34.263   4.532   0.448  1.00  0.00     0.124 C 
BRANCH  15  16
HETATM   16  C4  UNL     1      33.735   3.258   1.004  1.00  0.00     0.020 C 
BRANCH  16  17
HETATM   17  C3  UNL     1      32.813   2.584   0.014  1.00  0.00     0.001 C 
BRANCH  17  18
HETATM   18  C2  UNL     1      31.390   2.500   0.478  1.00  0.00    -0.004 C 
HETATM   19  C1  UNL     1      30.545   1.682  -0.484  1.00  0.00     0.005 C 
ENDBRANCH  17  18
ENDBRANCH  16  17
ENDBRANCH  15  16
ENDBRANCH  11  15
ENDBRANCH   1   9
BRANCH   1  20
HETATM   20  C8  UNL     1      33.816  10.109   1.073  1.00  0.00     0.142 C 
BRANCH  20  21
HETATM   21  O2  UNL     1      34.173  11.374   1.009  1.00  0.00    -0.348 OA
ATOM     22  H2  UNL     1      33.597  11.878   0.446  1.00  0.00     0.219 HD
ENDBRANCH  20  21
BRANCH  20  23
HETATM   23  N3  UNL     1      32.799   9.796   0.193  1.00  0.00    -0.363 N 
HETATM   24  C9  UNL     1      31.460   9.581   0.790  1.00  0.00     0.129 C 
HETATM   25  C10 UNL     1      30.351  10.216   0.001  1.00  0.00     0.053 C 
HETATM   26  C11 UNL     1      30.525  10.005  -1.446  1.00  0.00    -0.078 C 
HETATM   27  C15 UNL     1      31.585   8.989  -1.737  1.00  0.00     0.053 C 
HETATM   28  C16 UNL     1      32.928   9.616  -1.228  1.00  0.00     0.129 C 
BRANCH  26  29
HETATM   29  C12 UNL     1      29.363   9.920  -2.321  1.00  0.00     0.017 C 
BRANCH  29  30
HETATM   30  C13 UNL     1      27.984  10.104  -1.874  1.00  0.00     0.295 C 
BRANCH  30  31
HETATM   31  N4  UNL     1      27.663  11.525  -2.270  1.00  0.00    -0.064 N 
ATOM     32  H43 UNL     1      28.457  12.047  -2.641  1.00  0.00     0.275 HD
ATOM     33  H42 UNL     1      27.080  11.608  -3.102  1.00  0.00     0.275 HD
ATOM     34  H41 UNL     1      27.253  11.926  -1.427  1.00  0.00     0.275 HD
ENDBRANCH  30  31
BRANCH  30  35
HETATM   35  C14 UNL     1      26.961   9.314  -2.551  1.00  0.00     0.265 C 
HETATM   36  N5  UNL     1      27.234   8.470  -3.678  1.00  0.00    -0.060 NA
HETATM   37  O3  UNL     1      25.774   9.342  -2.157  1.00  0.00    -0.274 OA
ENDBRANCH  30  35
ENDBRANCH  29  30
ENDBRANCH  26  29
ENDBRANCH  20  23
ENDBRANCH   1  20
TORSDOF 12
ENDMDL
MODEL 5
REMARK VINA RESULT: -8.457741543      5.477      8.531
REMARK  12 active torsions:
REMARK  status: ('A' for Active; 'I' for Inactive)
REMARK    1  A    between atoms: C2_2  and  C3_3 
REMARK    2  A    between atoms: C3_3  and  C4_4 
REMARK    3  A    between atoms: C4_4  and  C5_5 
REMARK    4  A    between atoms: C5_5  and  N1_6 
REMARK       I    between atoms: N1_6  and  C6_8 
REMARK       I    between atoms: C6_8  and  N2_10 
REMARK    5  A    between atoms: N2_10  and  C7_12 
REMARK    6  A    between atoms: C7_12  and  C8_13 
REMARK    7  A    between atoms: C8_13  and  O2_14 
REMARK    8  A    between atoms: C8_13  and  N3_16 
REMARK    9  A    between atoms: C11_19  and  C12_20 
REMARK   10  A    between atoms: C12_20  and  C13_21 
REMARK   11  A    between atoms: C13_21  and  N4_22 
REMARK   12  A    between atoms: C13_21  and  C14_26 
ROOT
HETATM    1  C7  UNL     1      34.414  12.890   5.801  1.00  0.00     0.102 C 
HETATM    2  C17 UNL     1      34.290  13.527   7.206  1.00  0.00     0.059 C 
HETATM    3  C18 UNL     1      33.380  14.713   7.058  1.00  0.00     0.117 C 
HETATM    4  N6  UNL     1      32.082  14.276   6.670  1.00  0.00    -0.417 N 
ATOM      5  H6  UNL     1      31.253  14.543   7.202  1.00  0.00     0.153 HD
HETATM    6  C19 UNL     1      31.982  13.458   5.517  1.00  0.00     0.075 C 
HETATM    7  C20 UNL     1      31.759  14.162   4.215  1.00  0.00     0.032 C 
HETATM    8  C21 UNL     1      33.062  12.388   5.456  1.00  0.00     0.064 C 
ENDROOT
BRANCH   1   9
HETATM    9  N2  UNL     1      34.873  13.952   4.924  1.00  0.00    -0.326 N 
HETATM   10  C6  UNL     1      36.046  14.699   4.945  1.00  0.00     0.317 C 
HETATM   11  N1  UNL     1      36.272  15.664   3.903  1.00  0.00    -0.343 N 
HETATM   12  O1  UNL     1      36.944  14.614   5.791  1.00  0.00    -0.247 OA
ATOM     13  H1  UNL     1      35.549  15.771   3.191  1.00  0.00     0.164 HD
ATOM     14  H2  UNL     1      34.230  14.189   4.169  1.00  0.00     0.165 HD
BRANCH  11  15
HETATM   15  C5  UNL     1      37.441  16.487   3.795  1.00  0.00     0.124 C 
BRANCH  15  16
HETATM   16  C4  UNL     1      37.154  17.910   4.118  1.00  0.00     0.020 C 
BRANCH  16  17
HETATM   17  C3  UNL     1      38.315  18.792   3.723  1.00  0.00     0.001 C 
BRANCH  17  18
HETATM   18  C2  UNL     1      38.585  19.902   4.693  1.00  0.00    -0.004 C 
HETATM   19  C1  UNL     1      38.053  19.566   6.076  1.00  0.00     0.005 C 
ENDBRANCH  17  18
ENDBRANCH  16  17
ENDBRANCH  15  16
ENDBRANCH  11  15
ENDBRANCH   1   9
BRANCH   1  20
HETATM   20  C8  UNL     1      35.434  11.843   5.938  1.00  0.00     0.142 C 
BRANCH  20  21
HETATM   21  O2  UNL     1      36.171  12.012   7.015  1.00  0.00    -0.348 OA
ATOM     22  H2  UNL     1      36.001  11.345   7.670  1.00  0.00     0.219 HD
ENDBRANCH  20  21
BRANCH  20  23
HETATM   23  N3  UNL     1      35.804  10.732   5.207  1.00  0.00    -0.363 N 
HETATM   24  C9  UNL     1      35.224   9.439   5.642  1.00  0.00     0.129 C 
HETATM   25  C10 UNL     1      34.770   8.580   4.497  1.00  0.00     0.053 C 
HETATM   26  C11 UNL     1      35.746   8.585   3.394  1.00  0.00    -0.078 C 
HETATM   27  C15 UNL     1      37.046   9.202   3.804  1.00  0.00     0.053 C 
HETATM   28  C16 UNL     1      36.727  10.707   4.104  1.00  0.00     0.129 C 
BRANCH  26  29
HETATM   29  C12 UNL     1      35.887   7.418   2.533  1.00  0.00     0.017 C 
BRANCH  29  30
HETATM   30  C13 UNL     1      34.792   6.828   1.763  1.00  0.00     0.295 C 
BRANCH  30  31
HETATM   31  N4  UNL     1      35.331   6.773   0.355  1.00  0.00    -0.064 N 
ATOM     32  H43 UNL     1      36.341   6.905   0.285  1.00  0.00     0.275 HD
ATOM     33  H42 UNL     1      35.314   5.844  -0.066  1.00  0.00     0.275 HD
ATOM     34  H41 UNL     1      34.780   7.471  -0.145  1.00  0.00     0.275 HD
ENDBRANCH  30  31
BRANCH  30  35
HETATM   35  C14 UNL     1      34.452   5.441   2.062  1.00  0.00     0.265 C 
HETATM   36  N5  UNL     1      33.772   4.579   1.140  1.00  0.00    -0.060 NA
HETATM   37  O3  UNL     1      34.754   4.939   3.168  1.00  0.00    -0.274 OA
ENDBRANCH  30  35
ENDBRANCH  29  30
ENDBRANCH  26  29
ENDBRANCH  20  23
ENDBRANCH   1  20
TORSDOF 12
ENDMDL
