MODEL 1
REMARK VINA RESULT: -7.201372740      0.000      0.000
REMARK  6 active torsions:
REMARK  status: ('A' for Active; 'I' for Inactive)
REMARK    1  A    between atoms: N2_5  and  C3_6 
REMARK    2  A    between atoms: C3_6  and  C4_7 
REMARK    3  A    between atoms: C4_7  and  N3_8 
REMARK    4  A    between atoms: N3_8  and  C5_10 
REMARK    5  A    between atoms: C5_10  and  C6_11 
REMARK    6  A    between atoms: N4_15  and  C10_16 
ROOT
HETATM    1  C6  UNL     1       0.464  58.729  84.244  1.00  0.00     0.042 C 
HETATM    2  C7  UNL     1       1.272  59.538  83.240  1.00  0.00     0.016 C 
HETATM    3  C8  UNL     1       2.135  60.480  84.050  1.00  0.00     0.045 C 
HETATM    4  C9  UNL     1       1.166  61.500  84.623  1.00  0.00     0.063 C 
HETATM    5  N4  UNL     1       0.247  60.879  85.479  1.00  0.00    -0.369 N 
HETATM    6  C16 UNL     1      -0.193  59.566  85.263  1.00  0.00     0.069 C 
ENDROOT
BRANCH   1   7
HETATM    7  C5  UNL     1       1.389  57.662  84.853  1.00  0.00     0.123 C 
BRANCH   7   8
HETATM    8  N3  UNL     1       1.697  56.652  83.915  1.00  0.00    -0.419 N 
ATOM      9  H3  UNL     1       2.670  56.417  83.720  1.00  0.00     0.153 HD
BRANCH   8  10
HETATM   10  C4  UNL     1       0.659  55.965  83.244  1.00  0.00     0.135 C 
BRANCH  10  11
HETATM   11  C3  UNL     1      -0.092  54.992  84.138  1.00  0.00     0.167 C 
BRANCH  11  12
HETATM   12  N2  UNL     1      -1.482  55.339  84.232  1.00  0.00    -0.302 N 
HETATM   13  N1  UNL     1      -2.037  56.255  85.018  1.00  0.00    -0.310 N 
HETATM   14  C2  UNL     1      -3.349  56.323  84.814  1.00  0.00     0.108 A 
ATOM     15  H1  UNL     1      -1.525  56.830  85.688  1.00  0.00     0.186 HD
HETATM   16  C1  UNL     1      -3.641  55.390  83.834  1.00  0.00     0.037 A 
HETATM   17  C17 UNL     1      -2.466  54.777  83.476  1.00  0.00     0.111 A 
ENDBRANCH  11  12
ENDBRANCH  10  11
ENDBRANCH   8  10
ENDBRANCH   7   8
ENDBRANCH   1   7
BRANCH   5  18
HETATM   18  C10 UNL     1      -0.856  61.747  85.873  1.00  0.00     0.088 C 
HETATM   19  C11 UNL     1      -0.781  62.230  87.279  1.00  0.00     0.026 C 
HETATM   20  C12 UNL     1      -0.221  63.612  87.465  1.00  0.00     0.002 C 
HETATM   21  C13 UNL     1      -0.719  64.631  86.500  1.00  0.00     0.000 C 
HETATM   22  C14 UNL     1      -1.776  64.004  85.632  1.00  0.00     0.002 C 
HETATM   23  C15 UNL     1      -1.115  62.857  84.892  1.00  0.00     0.026 C 
ENDBRANCH   5  18
TORSDOF 6
ENDMDL
MODEL 2
REMARK VINA RESULT: -7.104984769      1.125      1.285
REMARK  6 active torsions:
REMARK  status: ('A' for Active; 'I' for Inactive)
REMARK    1  A    between atoms: N2_5  and  C3_6 
REMARK    2  A    between atoms: C3_6  and  C4_7 
REMARK    3  A    between atoms: C4_7  and  N3_8 
REMARK    4  A    between atoms: N3_8  and  C5_10 
REMARK    5  A    between atoms: C5_10  and  C6_11 
REMARK    6  A    between atoms: N4_15  and  C10_16 
ROOT
HETATM    1  C6  UNL     1       0.319  58.131  84.865  1.00  0.00     0.042 C 
HETATM    2  C7  UNL     1       0.756  58.567  83.474  1.00  0.00     0.016 C 
HETATM    3  C8  UNL     1       1.710  59.724  83.671  1.00  0.00     0.045 C 
HETATM    4  C9  UNL     1       0.835  60.873  84.139  1.00  0.00     0.063 C 
HETATM    5  N4  UNL     1       0.236  60.567  85.367  1.00  0.00    -0.369 N 
HETATM    6  C16 UNL     1      -0.122  59.256  85.709  1.00  0.00     0.069 C 
ENDROOT
BRANCH   1   7
HETATM    7  C5  UNL     1       1.466  57.325  85.495  1.00  0.00     0.123 C 
BRANCH   7   8
HETATM    8  N3  UNL     1       0.975  56.282  86.313  1.00  0.00    -0.419 N 
ATOM      9  H3  UNL     1       0.439  56.502  87.152  1.00  0.00     0.153 HD
BRANCH   8  10
HETATM   10  C4  UNL     1       1.227  54.933  85.969  1.00  0.00     0.135 C 
BRANCH  10  11
HETATM   11  C3  UNL     1      -0.007  54.052  86.062  1.00  0.00     0.167 C 
BRANCH  11  12
HETATM   12  N2  UNL     1      -1.068  54.553  85.236  1.00  0.00    -0.302 N 
HETATM   13  N1  UNL     1      -2.254  55.008  85.627  1.00  0.00    -0.310 N 
HETATM   14  C2  UNL     1      -2.972  55.419  84.586  1.00  0.00     0.108 A 
ATOM     15  H1  UNL     1      -2.572  55.038  86.596  1.00  0.00     0.186 HD
HETATM   16  C1  UNL     1      -2.187  55.212  83.464  1.00  0.00     0.037 A 
HETATM   17  C17 UNL     1      -0.998  54.668  83.880  1.00  0.00     0.111 A 
ENDBRANCH  11  12
ENDBRANCH  10  11
ENDBRANCH   8  10
ENDBRANCH   7   8
ENDBRANCH   1   7
BRANCH   5  18
HETATM   18  C10 UNL     1      -0.801  61.515  85.759  1.00  0.00     0.088 C 
HETATM   19  C11 UNL     1      -0.796  61.862  87.207  1.00  0.00     0.026 C 
HETATM   20  C12 UNL     1      -0.113  63.152  87.567  1.00  0.00     0.002 C 
HETATM   21  C13 UNL     1      -0.418  64.300  86.670  1.00  0.00     0.000 C 
HETATM   22  C14 UNL     1      -1.456  63.874  85.668  1.00  0.00     0.002 C 
HETATM   23  C15 UNL     1      -0.858  62.729  84.872  1.00  0.00     0.026 C 
ENDBRANCH   5  18
TORSDOF 6
ENDMDL
MODEL 3
REMARK VINA RESULT: -7.080958747      1.914      2.914
REMARK  6 active torsions:
REMARK  status: ('A' for Active; 'I' for Inactive)
REMARK    1  A    between atoms: N2_5  and  C3_6 
REMARK    2  A    between atoms: C3_6  and  C4_7 
REMARK    3  A    between atoms: C4_7  and  N3_8 
REMARK    4  A    between atoms: N3_8  and  C5_10 
REMARK    5  A    between atoms: C5_10  and  C6_11 
REMARK    6  A    between atoms: N4_15  and  C10_16 
ROOT
HETATM    1  C6  UNL     1       0.286  58.280  84.806  1.00  0.00     0.042 C 
HETATM    2  C7  UNL     1       0.788  58.779  83.458  1.00  0.00     0.016 C 
HETATM    3  C8  UNL     1       1.744  59.913  83.755  1.00  0.00     0.045 C 
HETATM    4  C9  UNL     1       0.862  61.048  84.242  1.00  0.00     0.063 C 
HETATM    5  N4  UNL     1       0.206  60.689  85.426  1.00  0.00    -0.369 N 
HETATM    6  C16 UNL     1      -0.181  59.366  85.685  1.00  0.00     0.069 C 
ENDROOT
BRANCH   1   7
HETATM    7  C5  UNL     1       1.395  57.429  85.443  1.00  0.00     0.123 C 
BRANCH   7   8
HETATM    8  N3  UNL     1       0.858  56.351  86.182  1.00  0.00    -0.419 N 
ATOM      9  H3  UNL     1       0.264  56.532  86.990  1.00  0.00     0.153 HD
BRANCH   8  10
HETATM   10  C4  UNL     1       1.143  55.018  85.801  1.00  0.00     0.135 C 
BRANCH  10  11
HETATM   11  C3  UNL     1       0.381  54.572  84.565  1.00  0.00     0.167 C 
BRANCH  11  12
HETATM   12  N2  UNL     1       1.208  53.774  83.704  1.00  0.00    -0.302 N 
HETATM   13  N1  UNL     1       0.901  52.613  83.135  1.00  0.00    -0.310 N 
HETATM   14  C2  UNL     1       1.902  52.177  82.376  1.00  0.00     0.108 A 
ATOM     15  H1  UNL     1       0.016  52.122  83.262  1.00  0.00     0.186 HD
HETATM   16  C1  UNL     1       2.906  53.126  82.472  1.00  0.00     0.037 A 
HETATM   17  C17 UNL     1       2.464  54.121  83.307  1.00  0.00     0.111 A 
ENDBRANCH  11  12
ENDBRANCH  10  11
ENDBRANCH   8  10
ENDBRANCH   7   8
ENDBRANCH   1   7
BRANCH   5  18
HETATM   18  C10 UNL     1      -0.838  61.629  85.820  1.00  0.00     0.088 C 
HETATM   19  C11 UNL     1      -0.796  62.021  87.255  1.00  0.00     0.026 C 
HETATM   20  C12 UNL     1      -0.129  63.333  87.555  1.00  0.00     0.002 C 
HETATM   21  C13 UNL     1      -0.482  64.447  86.633  1.00  0.00     0.000 C 
HETATM   22  C14 UNL     1      -1.541  63.971  85.676  1.00  0.00     0.002 C 
HETATM   23  C15 UNL     1      -0.945  62.813  84.899  1.00  0.00     0.026 C 
ENDBRANCH   5  18
TORSDOF 6
ENDMDL
MODEL 4
REMARK VINA RESULT: -7.048948036      1.111      1.399
REMARK  6 active torsions:
REMARK  status: ('A' for Active; 'I' for Inactive)
REMARK    1  A    between atoms: N2_5  and  C3_6 
REMARK    2  A    between atoms: C3_6  and  C4_7 
REMARK    3  A    between atoms: C4_7  and  N3_8 
REMARK    4  A    between atoms: N3_8  and  C5_10 
REMARK    5  A    between atoms: C5_10  and  C6_11 
REMARK    6  A    between atoms: N4_15  and  C10_16 
ROOT
HETATM    1  C6  UNL     1       0.526  58.114  84.783  1.00  0.00     0.042 C 
HETATM    2  C7  UNL     1       0.941  58.547  83.384  1.00  0.00     0.016 C 
HETATM    3  C8  UNL     1       1.850  59.743  83.562  1.00  0.00     0.045 C 
HETATM    4  C9  UNL     1       0.933  60.864  84.018  1.00  0.00     0.063 C 
HETATM    5  N4  UNL     1       0.350  60.552  85.252  1.00  0.00    -0.369 N 
HETATM    6  C16 UNL     1       0.044  59.232  85.613  1.00  0.00     0.069 C 
ENDROOT
BRANCH   1   7
HETATM    7  C5  UNL     1       1.705  57.361  85.420  1.00  0.00     0.123 C 
BRANCH   7   8
HETATM    8  N3  UNL     1       2.356  56.533  84.479  1.00  0.00    -0.419 N 
ATOM      9  H3  UNL     1       2.814  56.946  83.667  1.00  0.00     0.153 HD
BRANCH   8  10
HETATM   10  C4  UNL     1       2.374  55.130  84.660  1.00  0.00     0.135 C 
BRANCH  10  11
HETATM   11  C3  UNL     1       1.476  54.388  83.686  1.00  0.00     0.167 C 
BRANCH  11  12
HETATM   12  N2  UNL     1       0.090  54.594  83.996  1.00  0.00    -0.302 N 
HETATM   13  N1  UNL     1      -0.849  55.110  83.208  1.00  0.00    -0.310 N 
HETATM   14  C2  UNL     1      -2.029  55.120  83.820  1.00  0.00     0.108 A 
ATOM     15  H1  UNL     1      -0.686  55.452  82.261  1.00  0.00     0.186 HD
HETATM   16  C1  UNL     1      -1.823  54.573  85.076  1.00  0.00     0.037 A 
HETATM   17  C17 UNL     1      -0.493  54.248  85.178  1.00  0.00     0.111 A 
ENDBRANCH  11  12
ENDBRANCH  10  11
ENDBRANCH   8  10
ENDBRANCH   7   8
ENDBRANCH   1   7
BRANCH   5  18
HETATM   18  C10 UNL     1      -0.721  61.464  85.635  1.00  0.00     0.088 C 
HETATM   19  C11 UNL     1      -0.793  61.743  87.096  1.00  0.00     0.026 C 
HETATM   20  C12 UNL     1      -0.152  63.024  87.549  1.00  0.00     0.002 C 
HETATM   21  C13 UNL     1      -0.432  64.208  86.692  1.00  0.00     0.000 C 
HETATM   22  C14 UNL     1      -1.412  63.814  85.621  1.00  0.00     0.002 C 
HETATM   23  C15 UNL     1      -0.756  62.717  84.804  1.00  0.00     0.026 C 
ENDBRANCH   5  18
TORSDOF 6
ENDMDL
MODEL 5
REMARK VINA RESULT: -7.033340711      3.927      6.777
REMARK  6 active torsions:
REMARK  status: ('A' for Active; 'I' for Inactive)
REMARK    1  A    between atoms: N2_5  and  C3_6 
REMARK    2  A    between atoms: C3_6  and  C4_7 
REMARK    3  A    between atoms: C4_7  and  N3_8 
REMARK    4  A    between atoms: N3_8  and  C5_10 
REMARK    5  A    between atoms: C5_10  and  C6_11 
REMARK    6  A    between atoms: N4_15  and  C10_16 
ROOT
HETATM    1  C6  UNL     1      -1.649  63.316  84.739  1.00  0.00     0.042 C 
HETATM    2  C7  UNL     1      -1.718  63.623  86.229  1.00  0.00     0.016 C 
HETATM    3  C8  UNL     1      -0.297  63.888  86.674  1.00  0.00     0.045 C 
HETATM    4  C9  UNL     1       0.384  62.532  86.628  1.00  0.00     0.063 C 
HETATM    5  N4  UNL     1       0.406  62.037  85.318  1.00  0.00    -0.369 N 
HETATM    6  C16 UNL     1      -0.621  62.315  84.405  1.00  0.00     0.069 C 
ENDROOT
BRANCH   1   7
HETATM    7  C5  UNL     1      -1.458  64.643  83.987  1.00  0.00     0.123 C 
BRANCH   7   8
HETATM    8  N3  UNL     1      -2.691  65.154  83.522  1.00  0.00    -0.419 N 
ATOM      9  H3  UNL     1      -2.843  66.161  83.484  1.00  0.00     0.153 HD
BRANCH   8  10
HETATM   10  C4  UNL     1      -3.716  64.269  83.110  1.00  0.00     0.135 C 
BRANCH  10  11
HETATM   11  C3  UNL     1      -3.560  63.800  81.674  1.00  0.00     0.167 C 
BRANCH  11  12
HETATM   12  N2  UNL     1      -4.809  63.331  81.143  1.00  0.00    -0.302 N 
HETATM   13  N1  UNL     1      -5.271  63.482  79.905  1.00  0.00    -0.310 N 
HETATM   14  C2  UNL     1      -6.452  62.889  79.764  1.00  0.00     0.108 A 
ATOM     15  H1  UNL     1      -4.784  63.987  79.164  1.00  0.00     0.186 HD
HETATM   16  C1  UNL     1      -6.755  62.324  80.991  1.00  0.00     0.037 A 
HETATM   17  C17 UNL     1      -5.721  62.606  81.849  1.00  0.00     0.111 A 
ENDBRANCH  11  12
ENDBRANCH  10  11
ENDBRANCH   8  10
ENDBRANCH   7   8
ENDBRANCH   1   7
BRANCH   5  18
HETATM   18  C10 UNL     1       0.823  60.642  85.231  1.00  0.00     0.088 C 
HETATM   19  C11 UNL     1      -0.086  59.688  85.925  1.00  0.00     0.026 C 
HETATM   20  C12 UNL     1      -1.077  58.976  85.047  1.00  0.00     0.002 C 
HETATM   21  C13 UNL     1      -0.530  58.465  83.761  1.00  0.00     0.000 C 
HETATM   22  C14 UNL     1       0.954  58.710  83.731  1.00  0.00     0.002 C 
HETATM   23  C15 UNL     1       1.156  60.210  83.830  1.00  0.00     0.026 C 
ENDBRANCH   5  18
TORSDOF 6
ENDMDL
