MODEL 1
REMARK VINA RESULT: -8.089561404      0.000      0.000
REMARK  11 active torsions:
REMARK  status: ('A' for Active; 'I' for Inactive)
REMARK    1  A    between atoms: N1_1  and  C1_4 
REMARK    2  A    between atoms: C2_7  and  C3_8 
REMARK    3  A    between atoms: C3_8  and  N3_9 
REMARK    4  A    between atoms: N4_11  and  C4_13 
REMARK    5  A    between atoms: C5_16  and  N6_17 
REMARK    6  A    between atoms: N6_17  and  N7_19 
REMARK    7  A    between atoms: C6_24  and  N9_25 
REMARK    8  A    between atoms: N9_25  and  O3_26 
REMARK    9  A    between atoms: C7_28  and  N10_29 
REMARK       I    between atoms: N13_40  and  C11_42 
REMARK   10  A    between atoms: C11_42  and  C12_44 
REMARK   11  A    between atoms: C12_44  and  N14_45 
ROOT
HETATM    1  C1  UNL     1      25.097  30.687  31.607  1.00  0.00     0.676 A 
HETATM    2  N2  UNL     1      24.426  31.836  31.779  1.00  0.00    -0.192 N 
ATOM      3  H2  UNL     1      23.719  31.906  32.510  1.00  0.00     0.184 HD
HETATM    4  C2  UNL     1      24.682  32.896  30.990  1.00  0.00     0.074 A 
HETATM    5  C8  UNL     1      25.643  32.764  30.014  1.00  0.00     0.089 A 
HETATM    6  N11 UNL     1      25.889  33.834  29.231  1.00  0.00    -0.349 N 
ATOM      7  H11 UNL     1      25.373  34.703  29.370  1.00  0.00     0.167 HD
HETATM    8  C9  UNL     1      26.818  33.747  28.268  1.00  0.00     0.182 A 
HETATM    9  N12 UNL     1      27.492  32.588  28.098  1.00  0.00    -0.337 N 
ATOM     10  H12 UNL     1      28.196  32.537  27.362  1.00  0.00     0.168 HD
HETATM   11  C10 UNL     1      27.278  31.500  28.854  1.00  0.00     0.139 A 
HETATM   12  N13 UNL     1      27.909  30.402  28.700  1.00  0.00    -0.310 N 
ATOM     13  H13 UNL     1      27.669  29.636  29.329  1.00  0.00     0.170 HD
HETATM   14  C11 UNL     1      28.907  30.154  27.742  1.00  0.00     0.248 C 
HETATM   15  O4  UNL     1      29.948  30.856  27.673  1.00  0.00    -0.271 OA
HETATM   16  C13 UNL     1      26.326  31.571  29.849  1.00  0.00     0.122 A 
HETATM   17  N15 UNL     1      26.039  30.547  30.654  1.00  0.00    -0.186 N 
ATOM     18  H15 UNL     1      26.531  29.661  30.548  1.00  0.00     0.184 HD
ENDROOT
BRANCH   4  19
HETATM   19  C3  UNL     1      23.932  34.181  31.183  1.00  0.00     0.199 C 
BRANCH  19  20
HETATM   20  N3  UNL     1      22.535  33.964  31.157  1.00  0.00    -0.333 N 
HETATM   21  N4  UNL     1      21.677  34.723  31.625  1.00  0.00    -0.314 N 
ATOM     22  H4  UNL     1      20.701  34.444  31.537  1.00  0.00     0.182 HD
ATOM     23  H3  UNL     1      22.205  33.107  30.714  1.00  0.00     0.180 HD
BRANCH  21  24
HETATM   24  C4  UNL     1      21.953  35.966  32.282  1.00  0.00     0.248 C 
HETATM   25  N5  UNL     1      21.521  37.098  31.472  1.00  0.00    -0.200 N 
HETATM   26  C5  UNL     1      21.584  38.247  32.092  1.00  0.00     0.696 C 
ATOM     27  H5  UNL     1      21.198  37.002  30.509  1.00  0.00     0.180 HD
HETATM   28  N8  UNL     1      22.040  38.325  33.436  1.00  0.00    -0.202 N 
HETATM   29  C6  UNL     1      21.869  37.232  34.367  1.00  0.00     0.255 C 
ATOM     30  H8  UNL     1      22.501  39.178  33.753  1.00  0.00     0.179 HD
HETATM   31  C7  UNL     1      21.263  36.074  33.615  1.00  0.00     0.268 C 
BRANCH  26  32
HETATM   32  N6  UNL     1      21.193  39.430  31.424  1.00  0.00    -0.072 N 
ATOM     33  H6  UNL     1      21.771  39.762  30.651  1.00  0.00     0.212 HD
BRANCH  32  34
HETATM   34  N7  UNL     1      20.057  40.169  31.766  1.00  0.00    -0.024 N 
HETATM   35  O1  UNL     1      19.233  39.705  32.576  1.00  0.00    -0.516 OA
HETATM   36  O2  UNL     1      19.813  41.404  31.232  1.00  0.00    -0.516 OA
ENDBRANCH  32  34
ENDBRANCH  26  32
BRANCH  29  37
HETATM   37  N9  UNL     1      23.154  36.822  34.953  1.00  0.00    -0.075 NA
BRANCH  37  38
HETATM   38  O3  UNL     1      22.849  35.723  35.717  1.00  0.00    -0.294 OA
ATOM     39  H3  UNL     1      22.587  36.081  36.557  1.00  0.00     0.238 HD
ENDBRANCH  37  38
ENDBRANCH  29  37
BRANCH  31  40
HETATM   40  N10 UNL     1      19.858  36.434  33.375  1.00  0.00    -0.068 N 
ATOM     41 3H10 UNL     1      19.471  37.023  34.112  1.00  0.00     0.275 HD
ATOM     42 2H10 UNL     1      19.746  37.090  32.601  1.00  0.00     0.275 HD
ATOM     43 1H10 UNL     1      19.328  35.573  33.241  1.00  0.00     0.275 HD
ENDBRANCH  31  40
ENDBRANCH  21  24
ENDBRANCH  19  20
ENDBRANCH   4  19
BRANCH   1  44
HETATM   44  N1  UNL     1      24.857  29.655  32.365  1.00  0.00    -0.234 N 
ATOM     45  H12 UNL     1      24.742  29.825  33.365  1.00  0.00     0.174 HD
ATOM     46  H11 UNL     1      24.790  28.718  31.967  1.00  0.00     0.174 HD
ENDBRANCH   1  44
BRANCH  14  47
HETATM   47  C12 UNL     1      28.785  29.038  26.747  1.00  0.00     0.332 C 
BRANCH  47  48
HETATM   48  N14 UNL     1      28.120  27.899  27.362  1.00  0.00    -0.071 N 
ATOM     49 3H14 UNL     1      27.592  28.166  28.192  1.00  0.00     0.274 HD
ATOM     50 2H14 UNL     1      27.344  27.558  26.796  1.00  0.00     0.274 HD
ATOM     51 1H14 UNL     1      28.802  27.166  27.559  1.00  0.00     0.274 HD
ENDBRANCH  47  48
ENDBRANCH  14  47
TORSDOF 11
ENDMDL
MODEL 2
REMARK VINA RESULT: -8.082796624      0.909      1.064
REMARK  11 active torsions:
REMARK  status: ('A' for Active; 'I' for Inactive)
REMARK    1  A    between atoms: N1_1  and  C1_4 
REMARK    2  A    between atoms: C2_7  and  C3_8 
REMARK    3  A    between atoms: C3_8  and  N3_9 
REMARK    4  A    between atoms: N4_11  and  C4_13 
REMARK    5  A    between atoms: C5_16  and  N6_17 
REMARK    6  A    between atoms: N6_17  and  N7_19 
REMARK    7  A    between atoms: C6_24  and  N9_25 
REMARK    8  A    between atoms: N9_25  and  O3_26 
REMARK    9  A    between atoms: C7_28  and  N10_29 
REMARK       I    between atoms: N13_40  and  C11_42 
REMARK   10  A    between atoms: C11_42  and  C12_44 
REMARK   11  A    between atoms: C12_44  and  N14_45 
ROOT
HETATM    1  C1  UNL     1      25.278  29.819  31.601  1.00  0.00     0.676 A 
HETATM    2  N2  UNL     1      24.608  30.946  31.881  1.00  0.00    -0.192 N 
ATOM      3  H2  UNL     1      23.918  30.953  32.632  1.00  0.00     0.184 HD
HETATM    4  C2  UNL     1      24.841  32.068  31.175  1.00  0.00     0.074 A 
HETATM    5  C8  UNL     1      25.778  32.020  30.169  1.00  0.00     0.089 A 
HETATM    6  N11 UNL     1      26.002  33.151  29.469  1.00  0.00    -0.349 N 
ATOM      7  H11 UNL     1      25.486  34.004  29.690  1.00  0.00     0.167 HD
HETATM    8  C9  UNL     1      26.907  33.148  28.480  1.00  0.00     0.182 A 
HETATM    9  N12 UNL     1      27.581  32.010  28.202  1.00  0.00    -0.337 N 
ATOM     10  H12 UNL     1      28.267  32.023  27.447  1.00  0.00     0.168 HD
HETATM   11  C10 UNL     1      27.389  30.864  28.872  1.00  0.00     0.139 A 
HETATM   12  N13 UNL     1      28.021  29.785  28.615  1.00  0.00    -0.310 N 
ATOM     13  H13 UNL     1      27.799  28.970  29.185  1.00  0.00     0.170 HD
HETATM   14  C11 UNL     1      28.996  29.621  27.616  1.00  0.00     0.248 C 
HETATM   15  O4  UNL     1      30.033  30.332  27.580  1.00  0.00    -0.271 OA
HETATM   16  C13 UNL     1      26.462  30.849  29.892  1.00  0.00     0.122 A 
HETATM   17  N15 UNL     1      26.198  29.762  30.618  1.00  0.00    -0.186 N 
ATOM     18  H15 UNL     1      26.691  28.889  30.429  1.00  0.00     0.184 HD
ENDROOT
BRANCH   4  19
HETATM   19  C3  UNL     1      24.091  33.328  31.489  1.00  0.00     0.199 C 
BRANCH  19  20
HETATM   20  N3  UNL     1      22.696  33.141  31.346  1.00  0.00    -0.333 N 
HETATM   21  N4  UNL     1      21.819  33.920  31.739  1.00  0.00    -0.314 N 
ATOM     22  H4  UNL     1      20.847  33.661  31.570  1.00  0.00     0.182 HD
ATOM     23  H3  UNL     1      22.387  32.288  30.880  1.00  0.00     0.180 HD
BRANCH  21  24
HETATM   24  C4  UNL     1      22.066  35.161  32.412  1.00  0.00     0.248 C 
HETATM   25  N5  UNL     1      22.048  36.280  31.479  1.00  0.00    -0.200 N 
HETATM   26  C5  UNL     1      22.090  37.451  32.058  1.00  0.00     0.696 C 
ATOM     27  H5  UNL     1      22.006  36.160  30.467  1.00  0.00     0.180 HD
HETATM   28  N8  UNL     1      22.146  37.563  33.473  1.00  0.00    -0.202 N 
HETATM   29  C6  UNL     1      21.563  36.566  34.344  1.00  0.00     0.255 C 
ATOM     30  H8  UNL     1      22.611  38.371  33.888  1.00  0.00     0.179 HD
HETATM   31  C7  UNL     1      21.042  35.444  33.479  1.00  0.00     0.268 C 
BRANCH  26  32
HETATM   32  N6  UNL     1      22.078  38.626  31.271  1.00  0.00    -0.072 N 
ATOM     33  H6  UNL     1      22.503  38.591  30.344  1.00  0.00     0.212 HD
BRANCH  32  34
HETATM   34  N7  UNL     1      21.513  39.832  31.695  1.00  0.00    -0.024 N 
HETATM   35  O1  UNL     1      22.117  40.904  31.501  1.00  0.00    -0.516 OA
HETATM   36  O2  UNL     1      20.301  39.878  32.326  1.00  0.00    -0.516 OA
ENDBRANCH  32  34
ENDBRANCH  26  32
BRANCH  29  37
HETATM   37  N9  UNL     1      22.553  36.039  35.293  1.00  0.00    -0.075 NA
BRANCH  37  38
HETATM   38  O3  UNL     1      21.834  35.784  36.435  1.00  0.00    -0.294 OA
ATOM     39  H3  UNL     1      21.369  34.977  36.249  1.00  0.00     0.238 HD
ENDBRANCH  37  38
ENDBRANCH  29  37
BRANCH  31  40
HETATM   40  N10 UNL     1      19.831  35.961  32.826  1.00  0.00    -0.068 N 
ATOM     41 3H10 UNL     1      19.017  35.950  33.440  1.00  0.00     0.275 HD
ATOM     42 2H10 UNL     1      19.869  36.968  32.665  1.00  0.00     0.275 HD
ATOM     43 1H10 UNL     1      19.682  35.431  31.967  1.00  0.00     0.275 HD
ENDBRANCH  31  40
ENDBRANCH  21  24
ENDBRANCH  19  20
ENDBRANCH   4  19
BRANCH   1  44
HETATM   44  N1  UNL     1      25.060  28.727  32.279  1.00  0.00    -0.234 N 
ATOM     45  H12 UNL     1      24.353  28.086  31.917  1.00  0.00     0.174 HD
ATOM     46  H11 UNL     1      25.579  28.531  33.134  1.00  0.00     0.174 HD
ENDBRANCH   1  44
BRANCH  14  47
HETATM   47  C12 UNL     1      28.855  28.588  26.537  1.00  0.00     0.332 C 
BRANCH  47  48
HETATM   48  N14 UNL     1      28.004  27.503  27.001  1.00  0.00    -0.071 N 
ATOM     49 3H14 UNL     1      27.889  27.512  28.015  1.00  0.00     0.274 HD
ATOM     50 2H14 UNL     1      27.028  27.644  26.741  1.00  0.00     0.274 HD
ATOM     51 1H14 UNL     1      28.365  26.611  26.664  1.00  0.00     0.274 HD
ENDBRANCH  47  48
ENDBRANCH  14  47
TORSDOF 11
ENDMDL
MODEL 3
REMARK VINA RESULT: -7.987799089      1.956      2.299
REMARK  11 active torsions:
REMARK  status: ('A' for Active; 'I' for Inactive)
REMARK    1  A    between atoms: N1_1  and  C1_4 
REMARK    2  A    between atoms: C2_7  and  C3_8 
REMARK    3  A    between atoms: C3_8  and  N3_9 
REMARK    4  A    between atoms: N4_11  and  C4_13 
REMARK    5  A    between atoms: C5_16  and  N6_17 
REMARK    6  A    between atoms: N6_17  and  N7_19 
REMARK    7  A    between atoms: C6_24  and  N9_25 
REMARK    8  A    between atoms: N9_25  and  O3_26 
REMARK    9  A    between atoms: C7_28  and  N10_29 
REMARK       I    between atoms: N13_40  and  C11_42 
REMARK   10  A    between atoms: C11_42  and  C12_44 
REMARK   11  A    between atoms: C12_44  and  N14_45 
ROOT
HETATM    1  C1  UNL     1      24.972  32.311  30.891  1.00  0.00     0.676 A 
HETATM    2  N2  UNL     1      24.532  33.564  30.703  1.00  0.00    -0.192 N 
ATOM      3  H2  UNL     1      23.794  33.937  31.299  1.00  0.00     0.184 HD
HETATM    4  C2  UNL     1      25.060  34.331  29.731  1.00  0.00     0.074 A 
HETATM    5  C8  UNL     1      26.054  33.793  28.946  1.00  0.00     0.089 A 
HETATM    6  N11 UNL     1      26.575  34.573  27.976  1.00  0.00    -0.349 N 
ATOM      7  H11 UNL     1      26.232  35.525  27.842  1.00  0.00     0.167 HD
HETATM    8  C9  UNL     1      27.545  34.088  27.189  1.00  0.00     0.182 A 
HETATM    9  N12 UNL     1      27.986  32.825  27.381  1.00  0.00    -0.337 N 
ATOM     10  H12 UNL     1      28.726  32.470  26.775  1.00  0.00     0.168 HD
HETATM   11  C10 UNL     1      27.496  32.016  28.333  1.00  0.00     0.139 A 
HETATM   12  N13 UNL     1      27.907  30.822  28.521  1.00  0.00    -0.310 N 
ATOM     13  H13 UNL     1      27.466  30.293  29.273  1.00  0.00     0.170 HD
HETATM   14  C11 UNL     1      28.912  30.173  27.784  1.00  0.00     0.248 C 
HETATM   15  O4  UNL     1      30.075  30.644  27.692  1.00  0.00    -0.271 OA
HETATM   16  C13 UNL     1      26.497  32.498  29.152  1.00  0.00     0.122 A 
HETATM   17  N15 UNL     1      25.945  31.775  30.127  1.00  0.00    -0.186 N 
ATOM     18  H15 UNL     1      26.258  30.819  30.294  1.00  0.00     0.184 HD
ENDROOT
BRANCH   4  19
HETATM   19  C3  UNL     1      24.568  35.732  29.523  1.00  0.00     0.199 C 
BRANCH  19  20
HETATM   20  N3  UNL     1      23.184  35.748  29.230  1.00  0.00    -0.333 N 
HETATM   21  N4  UNL     1      22.271  35.840  30.060  1.00  0.00    -0.314 N 
ATOM     22  H4  UNL     1      21.313  35.839  29.709  1.00  0.00     0.182 HD
ATOM     23  H3  UNL     1      22.916  35.678  28.248  1.00  0.00     0.180 HD
BRANCH  21  24
HETATM   24  C4  UNL     1      22.458  35.946  31.476  1.00  0.00     0.248 C 
HETATM   25  N5  UNL     1      22.272  37.318  31.931  1.00  0.00    -0.200 N 
HETATM   26  C5  UNL     1      22.255  37.446  33.231  1.00  0.00     0.696 C 
ATOM     27  H5  UNL     1      22.165  38.106  31.293  1.00  0.00     0.180 HD
HETATM   28  N8  UNL     1      22.408  36.314  34.077  1.00  0.00    -0.202 N 
HETATM   29  C6  UNL     1      21.982  34.993  33.672  1.00  0.00     0.255 C 
ATOM     30  H8  UNL     1      22.830  36.437  34.998  1.00  0.00     0.179 HD
HETATM   31  C7  UNL     1      21.498  35.080  32.246  1.00  0.00     0.268 C 
BRANCH  26  32
HETATM   32  N6  UNL     1      22.081  38.724  33.811  1.00  0.00    -0.072 N 
ATOM     33  H6  UNL     1      21.542  39.419  33.293  1.00  0.00     0.212 HD
BRANCH  32  34
HETATM   34  N7  UNL     1      22.607  39.085  35.054  1.00  0.00    -0.024 N 
HETATM   35  O1  UNL     1      22.210  38.514  36.087  1.00  0.00    -0.516 OA
HETATM   36  O2  UNL     1      23.557  40.060  35.178  1.00  0.00    -0.516 OA
ENDBRANCH  32  34
ENDBRANCH  26  32
BRANCH  29  37
HETATM   37  N9  UNL     1      23.083  34.024  33.762  1.00  0.00    -0.075 NA
BRANCH  37  38
HETATM   38  O3  UNL     1      22.519  32.826  33.397  1.00  0.00    -0.294 OA
ATOM     39  H3  UNL     1      22.774  32.223  34.085  1.00  0.00     0.238 HD
ENDBRANCH  37  38
ENDBRANCH  29  37
BRANCH  31  40
HETATM   40  N10 UNL     1      20.200  35.768  32.296  1.00  0.00    -0.068 N 
ATOM     41 3H10 UNL     1      19.737  35.802  31.388  1.00  0.00     0.275 HD
ATOM     42 2H10 UNL     1      19.489  35.232  32.793  1.00  0.00     0.275 HD
ATOM     43 1H10 UNL     1      20.347  36.694  32.697  1.00  0.00     0.275 HD
ENDBRANCH  31  40
ENDBRANCH  21  24
ENDBRANCH  19  20
ENDBRANCH   4  19
BRANCH   1  44
HETATM   44  N1  UNL     1      24.468  31.560  31.829  1.00  0.00    -0.234 N 
ATOM     45  H12 UNL     1      23.452  31.549  31.923  1.00  0.00     0.174 HD
ATOM     46  H11 UNL     1      25.072  31.009  32.439  1.00  0.00     0.174 HD
ENDBRANCH   1  44
BRANCH  14  47
HETATM   47  C12 UNL     1      28.655  28.881  27.067  1.00  0.00     0.332 C 
BRANCH  47  48
HETATM   48  N14 UNL     1      29.919  28.232  26.753  1.00  0.00    -0.071 N 
ATOM     49 3H14 UNL     1      30.719  28.836  26.942  1.00  0.00     0.274 HD
ATOM     50 2H14 UNL     1      30.140  27.484  27.410  1.00  0.00     0.274 HD
ATOM     51 1H14 UNL     1      29.908  27.902  25.787  1.00  0.00     0.274 HD
ENDBRANCH  47  48
ENDBRANCH  14  47
TORSDOF 11
ENDMDL
MODEL 4
REMARK VINA RESULT: -7.977695747      1.053      2.299
REMARK  11 active torsions:
REMARK  status: ('A' for Active; 'I' for Inactive)
REMARK    1  A    between atoms: N1_1  and  C1_4 
REMARK    2  A    between atoms: C2_7  and  C3_8 
REMARK    3  A    between atoms: C3_8  and  N3_9 
REMARK    4  A    between atoms: N4_11  and  C4_13 
REMARK    5  A    between atoms: C5_16  and  N6_17 
REMARK    6  A    between atoms: N6_17  and  N7_19 
REMARK    7  A    between atoms: C6_24  and  N9_25 
REMARK    8  A    between atoms: N9_25  and  O3_26 
REMARK    9  A    between atoms: C7_28  and  N10_29 
REMARK       I    between atoms: N13_40  and  C11_42 
REMARK   10  A    between atoms: C11_42  and  C12_44 
REMARK   11  A    between atoms: C12_44  and  N14_45 
ROOT
HETATM    1  C1  UNL     1      25.382  34.728  29.261  1.00  0.00     0.676 A 
HETATM    2  N2  UNL     1      24.491  34.715  30.263  1.00  0.00    -0.192 N 
ATOM      3  H2  UNL     1      23.933  35.546  30.457  1.00  0.00     0.184 HD
HETATM    4  C2  UNL     1      24.330  33.609  31.013  1.00  0.00     0.074 A 
HETATM    5  C8  UNL     1      25.101  32.507  30.722  1.00  0.00     0.089 A 
HETATM    6  N11 UNL     1      24.929  31.406  31.482  1.00  0.00    -0.349 N 
ATOM      7  H11 UNL     1      24.249  31.407  32.242  1.00  0.00     0.167 HD
HETATM    8  C9  UNL     1      25.660  30.311  31.232  1.00  0.00     0.182 A 
HETATM    9  N12 UNL     1      26.557  30.328  30.221  1.00  0.00    -0.337 N 
ATOM     10  H12 UNL     1      27.106  29.487  30.042  1.00  0.00     0.168 HD
HETATM   11  C10 UNL     1      26.760  31.401  29.441  1.00  0.00     0.139 A 
HETATM   12  N13 UNL     1      27.605  31.426  28.485  1.00  0.00    -0.310 N 
ATOM     13  H13 UNL     1      27.680  32.294  27.954  1.00  0.00     0.170 HD
HETATM   14  C11 UNL     1      28.441  30.365  28.099  1.00  0.00     0.248 C 
HETATM   15  O4  UNL     1      27.977  29.244  27.767  1.00  0.00    -0.271 OA
HETATM   16  C13 UNL     1      26.017  32.537  29.685  1.00  0.00     0.122 A 
HETATM   17  N15 UNL     1      26.142  33.654  28.968  1.00  0.00    -0.186 N 
ATOM     18  H15 UNL     1      26.811  33.696  28.200  1.00  0.00     0.184 HD
ENDROOT
BRANCH   4  19
HETATM   19  C3  UNL     1      23.333  33.595  32.134  1.00  0.00     0.199 C 
BRANCH  19  20
HETATM   20  N3  UNL     1      22.013  33.724  31.642  1.00  0.00    -0.333 N 
HETATM   21  N4  UNL     1      21.308  34.738  31.723  1.00  0.00    -0.314 N 
ATOM     22  H4  UNL     1      20.371  34.695  31.324  1.00  0.00     0.182 HD
ATOM     23  H3  UNL     1      21.606  32.911  31.181  1.00  0.00     0.180 HD
BRANCH  21  24
HETATM   24  C4  UNL     1      21.711  35.970  32.335  1.00  0.00     0.248 C 
HETATM   25  N5  UNL     1      21.310  37.115  31.529  1.00  0.00    -0.200 N 
HETATM   26  C5  UNL     1      21.492  38.267  32.119  1.00  0.00     0.696 C 
ATOM     27  H5  UNL     1      20.923  37.026  30.590  1.00  0.00     0.180 HD
HETATM   28  N8  UNL     1      22.034  38.336  33.431  1.00  0.00    -0.202 N 
HETATM   29  C6  UNL     1      21.845  37.274  34.395  1.00  0.00     0.255 C 
ATOM     30  H8  UNL     1      22.573  39.159  33.702  1.00  0.00     0.179 HD
HETATM   31  C7  UNL     1      21.113  36.149  33.705  1.00  0.00     0.268 C 
BRANCH  26  32
HETATM   32  N6  UNL     1      21.144  39.463  31.451  1.00  0.00    -0.072 N 
ATOM     33  H6  UNL     1      21.748  39.787  30.694  1.00  0.00     0.212 HD
BRANCH  32  34
HETATM   34  N7  UNL     1      20.018  40.226  31.771  1.00  0.00    -0.024 N 
HETATM   35  O1  UNL     1      19.178  39.787  32.578  1.00  0.00    -0.516 OA
HETATM   36  O2  UNL     1      19.802  41.458  31.219  1.00  0.00    -0.516 OA
ENDBRANCH  32  34
ENDBRANCH  26  32
BRANCH  29  37
HETATM   37  N9  UNL     1      23.131  36.783  34.911  1.00  0.00    -0.075 NA
BRANCH  37  38
HETATM   38  O3  UNL     1      22.796  35.731  35.727  1.00  0.00    -0.294 OA
ATOM     39  H3  UNL     1      22.763  36.106  36.599  1.00  0.00     0.238 HD
ENDBRANCH  37  38
ENDBRANCH  29  37
BRANCH  31  40
HETATM   40  N10 UNL     1      19.725  36.604  33.543  1.00  0.00    -0.068 N 
ATOM     41 3H10 UNL     1      19.546  36.999  32.619  1.00  0.00     0.275 HD
ATOM     42 2H10 UNL     1      19.060  35.831  33.493  1.00  0.00     0.275 HD
ATOM     43 1H10 UNL     1      19.514  37.257  34.297  1.00  0.00     0.275 HD
ENDBRANCH  31  40
ENDBRANCH  21  24
ENDBRANCH  19  20
ENDBRANCH   4  19
BRANCH   1  44
HETATM   44  N1  UNL     1      25.546  35.793  28.527  1.00  0.00    -0.234 N 
ATOM     45  H12 UNL     1      26.037  36.581  28.951  1.00  0.00     0.174 HD
ATOM     46  H11 UNL     1      25.193  35.829  27.571  1.00  0.00     0.174 HD
ENDBRANCH   1  44
BRANCH  14  47
HETATM   47  C12 UNL     1      29.933  30.510  28.059  1.00  0.00     0.332 C 
BRANCH  47  48
HETATM   48  N14 UNL     1      30.522  29.366  27.379  1.00  0.00    -0.071 N 
ATOM     49 3H14 UNL     1      30.596  28.553  27.990  1.00  0.00     0.274 HD
ATOM     50 2H14 UNL     1      29.893  28.970  26.682  1.00  0.00     0.274 HD
ATOM     51 1H14 UNL     1      31.423  29.628  26.978  1.00  0.00     0.274 HD
ENDBRANCH  47  48
ENDBRANCH  14  47
TORSDOF 11
ENDMDL
MODEL 5
REMARK VINA RESULT: -7.873564126      1.616      1.686
REMARK  11 active torsions:
REMARK  status: ('A' for Active; 'I' for Inactive)
REMARK    1  A    between atoms: N1_1  and  C1_4 
REMARK    2  A    between atoms: C2_7  and  C3_8 
REMARK    3  A    between atoms: C3_8  and  N3_9 
REMARK    4  A    between atoms: N4_11  and  C4_13 
REMARK    5  A    between atoms: C5_16  and  N6_17 
REMARK    6  A    between atoms: N6_17  and  N7_19 
REMARK    7  A    between atoms: C6_24  and  N9_25 
REMARK    8  A    between atoms: N9_25  and  O3_26 
REMARK    9  A    between atoms: C7_28  and  N10_29 
REMARK       I    between atoms: N13_40  and  C11_42 
REMARK   10  A    between atoms: C11_42  and  C12_44 
REMARK   11  A    between atoms: C12_44  and  N14_45 
ROOT
HETATM    1  C1  UNL     1      25.025  30.741  32.200  1.00  0.00     0.676 A 
HETATM    2  N2  UNL     1      24.292  31.843  32.415  1.00  0.00    -0.192 N 
ATOM      3  H2  UNL     1      23.639  31.873  33.198  1.00  0.00     0.184 HD
HETATM    4  C2  UNL     1      24.414  32.910  31.604  1.00  0.00     0.074 A 
HETATM    5  C8  UNL     1      25.305  32.832  30.558  1.00  0.00     0.089 A 
HETATM    6  N11 UNL     1      25.418  33.908  29.752  1.00  0.00    -0.349 N 
ATOM      7  H11 UNL     1      24.856  34.742  29.925  1.00  0.00     0.167 HD
HETATM    8  C9  UNL     1      26.275  33.874  28.722  1.00  0.00     0.182 A 
HETATM    9  N12 UNL     1      27.012  32.762  28.508  1.00  0.00    -0.337 N 
ATOM     10  H12 UNL     1      27.660  32.751  27.720  1.00  0.00     0.168 HD
HETATM   11  C10 UNL     1      26.930  31.670  29.284  1.00  0.00     0.139 A 
HETATM   12  N13 UNL     1      27.623  30.616  29.089  1.00  0.00    -0.310 N 
ATOM     13  H13 UNL     1      27.483  29.842  29.739  1.00  0.00     0.170 HD
HETATM   14  C11 UNL     1      28.559  30.426  28.059  1.00  0.00     0.248 C 
HETATM   15  O4  UNL     1      29.542  31.196  27.907  1.00  0.00    -0.271 OA
HETATM   16  C13 UNL     1      26.054  31.687  30.349  1.00  0.00     0.122 A 
HETATM   17  N15 UNL     1      25.900  30.655  31.179  1.00  0.00    -0.186 N 
ATOM     18  H15 UNL     1      26.442  29.803  31.041  1.00  0.00     0.184 HD
ENDROOT
BRANCH   4  19
HETATM   19  C3  UNL     1      23.595  34.142  31.846  1.00  0.00     0.199 C 
BRANCH  19  20
HETATM   20  N3  UNL     1      22.522  33.876  32.729  1.00  0.00    -0.333 N 
HETATM   21  N4  UNL     1      21.843  34.727  33.317  1.00  0.00    -0.314 N 
ATOM     22  H4  UNL     1      21.096  34.395  33.927  1.00  0.00     0.182 HD
ATOM     23  H3  UNL     1      22.290  32.898  32.896  1.00  0.00     0.180 HD
BRANCH  21  24
HETATM   24  C4  UNL     1      22.026  36.143  33.204  1.00  0.00     0.248 C 
HETATM   25  N5  UNL     1      21.540  36.637  31.923  1.00  0.00    -0.200 N 
HETATM   26  C5  UNL     1      21.517  37.941  31.832  1.00  0.00     0.696 C 
ATOM     27  H5  UNL     1      21.245  36.022  31.164  1.00  0.00     0.180 HD
HETATM   28  N8  UNL     1      21.938  38.754  32.920  1.00  0.00    -0.202 N 
HETATM   29  C6  UNL     1      21.817  38.318  34.293  1.00  0.00     0.255 C 
ATOM     30  H8  UNL     1      22.337  39.673  32.725  1.00  0.00     0.179 HD
HETATM   31  C7  UNL     1      21.301  36.900  34.285  1.00  0.00     0.268 C 
BRANCH  26  32
HETATM   32  N6  UNL     1      21.066  38.557  30.642  1.00  0.00    -0.072 N 
ATOM     33  H6  UNL     1      21.090  39.575  30.586  1.00  0.00     0.212 HD
BRANCH  32  34
HETATM   34  N7  UNL     1      20.589  37.844  29.538  1.00  0.00    -0.024 N 
HETATM   35  O1  UNL     1      21.320  37.008  28.974  1.00  0.00    -0.516 OA
HETATM   36  O2  UNL     1      19.328  38.036  29.047  1.00  0.00    -0.516 OA
ENDBRANCH  32  34
ENDBRANCH  26  32
BRANCH  29  37
HETATM   37  N9  UNL     1      23.112  38.369  34.987  1.00  0.00    -0.075 NA
BRANCH  37  38
HETATM   38  O3  UNL     1      23.302  39.700  35.267  1.00  0.00    -0.294 OA
ATOM     39  H3  UNL     1      23.853  40.016  34.561  1.00  0.00     0.238 HD
ENDBRANCH  37  38
ENDBRANCH  29  37
BRANCH  31  40
HETATM   40  N10 UNL     1      19.882  36.984  33.912  1.00  0.00    -0.068 N 
ATOM     41 3H10 UNL     1      19.700  36.631  32.973  1.00  0.00     0.275 HD
ATOM     42 2H10 UNL     1      19.300  36.321  34.424  1.00  0.00     0.275 HD
ATOM     43 1H10 UNL     1      19.578  37.950  34.034  1.00  0.00     0.275 HD
ENDBRANCH  31  40
ENDBRANCH  21  24
ENDBRANCH  19  20
ENDBRANCH   4  19
BRANCH   1  44
HETATM   44  N1  UNL     1      24.914  29.703  32.980  1.00  0.00    -0.234 N 
ATOM     45  H12 UNL     1      24.268  29.776  33.767  1.00  0.00     0.174 HD
ATOM     46  H11 UNL     1      25.456  28.857  32.804  1.00  0.00     0.174 HD
ENDBRANCH   1  44
BRANCH  14  47
HETATM   47  C12 UNL     1      28.440  29.293  27.083  1.00  0.00     0.332 C 
BRANCH  47  48
HETATM   48  N14 UNL     1      29.687  28.544  27.041  1.00  0.00    -0.071 N 
ATOM     49 3H14 UNL     1      29.860  28.138  26.122  1.00  0.00     0.274 HD
ATOM     50 2H14 UNL     1      30.502  29.154  27.089  1.00  0.00     0.274 HD
ATOM     51 1H14 UNL     1      29.692  27.840  27.780  1.00  0.00     0.274 HD
ENDBRANCH  47  48
ENDBRANCH  14  47
TORSDOF 11
ENDMDL
