MODEL 1
REMARK VINA RESULT: -8.383700343      0.000      0.000
REMARK  10 active torsions:
REMARK  status: ('A' for Active; 'I' for Inactive)
REMARK       I    between atoms: C1_4  and  N3_6 
REMARK    1  A    between atoms: N3_6  and  N4_8 
REMARK    2  A    between atoms: N4_8  and  C2_10 
REMARK    3  A    between atoms: C3_13  and  C4_14 
REMARK    4  A    between atoms: C4_14  and  N6_15 
REMARK    5  A    between atoms: C4_14  and  N7_19 
REMARK    6  A    between atoms: N7_19  and  N8_20 
REMARK       I    between atoms: N8_20  and  C5_22 
REMARK    7  A    between atoms: C5_22  and  C6_24 
REMARK    8  A    between atoms: N11_29  and  C7_30 
REMARK    9  A    between atoms: C8_36  and  N14_37 
REMARK   10  A    between atoms: C9_42  and  N16_43 
ROOT
HETATM    1  C4  UNL     1      21.537  35.218  33.705  1.00  0.00     0.348 C 
ENDROOT
BRANCH   1   2
HETATM    2  C3  UNL     1      21.506  36.573  32.967  1.00  0.00     0.100 A 
HETATM    3  N5  UNL     1      21.235  36.601  31.671  1.00  0.00    -0.333 N 
HETATM    4  C2  UNL     1      21.213  37.774  31.049  1.00  0.00     0.166 A 
ATOM      5  H5  UNL     1      21.048  35.738  31.160  1.00  0.00     0.168 HD
HETATM    6  S1  UNL     1      21.571  38.877  32.274  1.00  0.00    -0.026 SA
HETATM    7  C9  UNL     1      21.747  37.747  33.600  1.00  0.00     0.173 A 
BRANCH   4   8
HETATM    8  N4  UNL     1      20.968  37.932  29.770  1.00  0.00    -0.277 N 
ATOM      9  H4  UNL     1      20.361  38.706  29.501  1.00  0.00     0.189 HD
BRANCH   8  10
HETATM   10  N3  UNL     1      21.459  37.149  28.776  1.00  0.00    -0.272 N 
HETATM   11  C1  UNL     1      22.772  37.376  28.269  1.00  0.00     0.200 C 
HETATM   12  N1  UNL     1      23.765  37.087  29.051  1.00  0.00    -0.372 N 
HETATM   13  N2  UNL     1      23.002  37.890  26.968  1.00  0.00    -0.062 NA
ATOM     14  H12 UNL     1      24.704  37.249  28.689  1.00  0.00     0.158 HD
ATOM     15  H11 UNL     1      23.599  36.717  29.988  1.00  0.00     0.158 HD
ATOM     16  H3  UNL     1      20.888  36.397  28.390  1.00  0.00     0.189 HD
ENDBRANCH   8  10
ENDBRANCH   4   8
BRANCH   7  17
HETATM   17  N16 UNL     1      22.095  38.118  34.936  1.00  0.00    -0.106 N 
HETATM   18  O3  UNL     1      23.248  38.634  35.110  1.00  0.00    -0.531 OA
HETATM   19  O4  UNL     1      21.373  37.996  36.065  1.00  0.00    -0.531 OA
ENDBRANCH   7  17
ENDBRANCH   1   2
BRANCH   1  20
HETATM   20  N6  UNL     1      20.675  35.218  34.844  1.00  0.00    -0.054 N 
ATOM     21  H63 UNL     1      21.117  35.669  35.644  1.00  0.00     0.276 HD
ATOM     22  H62 UNL     1      19.889  35.855  34.717  1.00  0.00     0.276 HD
ATOM     23  H61 UNL     1      20.358  34.277  35.076  1.00  0.00     0.276 HD
ENDBRANCH   1  20
BRANCH   1  24
HETATM   24  N7  UNL     1      22.907  34.884  33.953  1.00  0.00    -0.098 NA
BRANCH  24  25
HETATM   25  N8  UNL     1      23.528  34.300  32.869  1.00  0.00    -0.265 N 
HETATM   26  C5  UNL     1      23.989  32.979  33.000  1.00  0.00     0.303 C 
HETATM   27  O1  UNL     1      23.880  32.314  34.074  1.00  0.00    -0.263 OA
ATOM     28  H8  UNL     1      23.649  34.813  31.995  1.00  0.00     0.185 HD
BRANCH  26  29
HETATM   29  C6  UNL     1      24.623  32.301  31.896  1.00  0.00     0.208 A 
HETATM   30  N9  UNL     1      25.222  32.867  30.803  1.00  0.00    -0.264 N 
HETATM   31  N10 UNL     1      25.689  31.858  30.100  1.00  0.00    -0.218 N 
ATOM     32  H9  UNL     1      25.293  33.860  30.582  1.00  0.00     0.190 HD
HETATM   33  N11 UNL     1      25.411  30.705  30.696  1.00  0.00    -0.158 N 
ATOM     34  H10 UNL     1      26.194  31.949  29.219  1.00  0.00     0.210 HD
HETATM   35  N15 UNL     1      24.757  30.953  31.800  1.00  0.00    -0.255 N 
ATOM     36  H15 UNL     1      24.411  30.262  32.467  1.00  0.00     0.191 HD
BRANCH  33  37
HETATM   37  C7  UNL     1      25.782  29.408  30.219  1.00  0.00     0.214 A 
HETATM   38  N12 UNL     1      24.931  28.354  30.123  1.00  0.00    -0.219 N 
HETATM   39  O2  UNL     1      25.600  27.368  29.666  1.00  0.00    -0.153 OA
ATOM     40  H12 UNL     1      23.941  28.350  30.370  1.00  0.00     0.198 HD
HETATM   41  N13 UNL     1      26.851  27.689  29.447  1.00  0.00    -0.222 N 
HETATM   42  C8  UNL     1      27.017  28.999  29.789  1.00  0.00     0.171 A 
ATOM     43  H13 UNL     1      27.574  27.068  29.084  1.00  0.00     0.198 HD
BRANCH  42  44
HETATM   44  N14 UNL     1      28.099  29.689  29.719  1.00  0.00    -0.381 N 
ATOM     45 2H14 UNL     1      28.704  29.805  28.907  1.00  0.00     0.157 HD
ATOM     46 1H14 UNL     1      28.541  30.237  30.456  1.00  0.00     0.157 HD
ENDBRANCH  42  44
ENDBRANCH  33  37
ENDBRANCH  26  29
ENDBRANCH  24  25
ENDBRANCH   1  24
TORSDOF 10
ENDMDL
MODEL 2
REMARK VINA RESULT: -8.268279348      1.014      1.439
REMARK  10 active torsions:
REMARK  status: ('A' for Active; 'I' for Inactive)
REMARK       I    between atoms: C1_4  and  N3_6 
REMARK    1  A    between atoms: N3_6  and  N4_8 
REMARK    2  A    between atoms: N4_8  and  C2_10 
REMARK    3  A    between atoms: C3_13  and  C4_14 
REMARK    4  A    between atoms: C4_14  and  N6_15 
REMARK    5  A    between atoms: C4_14  and  N7_19 
REMARK    6  A    between atoms: N7_19  and  N8_20 
REMARK       I    between atoms: N8_20  and  C5_22 
REMARK    7  A    between atoms: C5_22  and  C6_24 
REMARK    8  A    between atoms: N11_29  and  C7_30 
REMARK    9  A    between atoms: C8_36  and  N14_37 
REMARK   10  A    between atoms: C9_42  and  N16_43 
ROOT
HETATM    1  C4  UNL     1      21.600  35.154  33.667  1.00  0.00     0.348 C 
ENDROOT
BRANCH   1   2
HETATM    2  C3  UNL     1      21.455  36.464  32.865  1.00  0.00     0.100 A 
HETATM    3  N5  UNL     1      21.092  36.410  31.592  1.00  0.00    -0.333 N 
HETATM    4  C2  UNL     1      20.971  37.545  30.915  1.00  0.00     0.166 A 
ATOM      5  H5  UNL     1      20.909  35.513  31.141  1.00  0.00     0.168 HD
HETATM    6  S1  UNL     1      21.364  38.727  32.053  1.00  0.00    -0.026 SA
HETATM    7  C9  UNL     1      21.685  37.680  33.418  1.00  0.00     0.173 A 
BRANCH   4   8
HETATM    8  N4  UNL     1      20.630  37.624  29.651  1.00  0.00    -0.277 N 
ATOM      9  H4  UNL     1      20.217  36.795  29.224  1.00  0.00     0.189 HD
BRANCH   8  10
HETATM   10  N3  UNL     1      20.783  38.720  28.864  1.00  0.00    -0.272 N 
HETATM   11  C1  UNL     1      19.986  38.877  27.693  1.00  0.00     0.200 C 
HETATM   12  N1  UNL     1      18.724  39.119  27.867  1.00  0.00    -0.372 N 
HETATM   13  N2  UNL     1      20.531  38.781  26.389  1.00  0.00    -0.062 NA
ATOM     14  H12 UNL     1      18.154  39.232  27.030  1.00  0.00     0.158 HD
ATOM     15  H11 UNL     1      18.331  39.189  28.806  1.00  0.00     0.158 HD
ATOM     16  H3  UNL     1      21.470  39.433  29.111  1.00  0.00     0.189 HD
ENDBRANCH   8  10
ENDBRANCH   4   8
BRANCH   7  17
HETATM   17  N16 UNL     1      22.109  38.137  34.704  1.00  0.00    -0.106 N 
HETATM   18  O3  UNL     1      21.242  38.117  35.638  1.00  0.00    -0.531 OA
HETATM   19  O4  UNL     1      23.314  38.602  35.084  1.00  0.00    -0.531 OA
ENDBRANCH   7  17
ENDBRANCH   1   2
BRANCH   1  20
HETATM   20  N6  UNL     1      20.768  35.151  34.828  1.00  0.00    -0.054 N 
ATOM     21  H63 UNL     1      20.681  34.214  35.221  1.00  0.00     0.276 HD
ATOM     22  H62 UNL     1      21.224  35.611  35.615  1.00  0.00     0.276 HD
ATOM     23  H61 UNL     1      19.853  35.560  34.637  1.00  0.00     0.276 HD
ENDBRANCH   1  20
BRANCH   1  24
HETATM   24  N7  UNL     1      22.996  34.931  33.895  1.00  0.00    -0.098 NA
BRANCH  24  25
HETATM   25  N8  UNL     1      23.626  34.314  32.834  1.00  0.00    -0.265 N 
HETATM   26  C5  UNL     1      24.007  32.969  32.979  1.00  0.00     0.303 C 
HETATM   27  O1  UNL     1      23.817  32.309  34.044  1.00  0.00    -0.263 OA
ATOM     28  H8  UNL     1      23.811  34.821  31.968  1.00  0.00     0.185 HD
BRANCH  26  29
HETATM   29  C6  UNL     1      24.646  32.258  31.898  1.00  0.00     0.208 A 
HETATM   30  N9  UNL     1      25.328  32.791  30.838  1.00  0.00    -0.264 N 
HETATM   31  N10 UNL     1      25.761  31.759  30.148  1.00  0.00    -0.218 N 
ATOM     32  H9  UNL     1      25.470  33.779  30.628  1.00  0.00     0.190 HD
HETATM   33  N11 UNL     1      25.386  30.622  30.722  1.00  0.00    -0.158 N 
ATOM     34  H10 UNL     1      26.309  31.822  29.290  1.00  0.00     0.210 HD
HETATM   35  N15 UNL     1      24.700  30.905  31.798  1.00  0.00    -0.255 N 
ATOM     36  H15 UNL     1      24.282  30.234  32.442  1.00  0.00     0.191 HD
BRANCH  33  37
HETATM   37  C7  UNL     1      25.696  29.307  30.251  1.00  0.00     0.214 A 
HETATM   38  N12 UNL     1      24.802  28.285  30.187  1.00  0.00    -0.219 N 
HETATM   39  O2  UNL     1      25.424  27.270  29.725  1.00  0.00    -0.153 OA
ATOM     40  H12 UNL     1      23.820  28.322  30.456  1.00  0.00     0.198 HD
HETATM   41  N13 UNL     1      26.680  27.540  29.474  1.00  0.00    -0.222 N 
HETATM   42  C8  UNL     1      26.903  28.846  29.797  1.00  0.00     0.171 A 
ATOM     43  H13 UNL     1      27.370  26.888  29.102  1.00  0.00     0.198 HD
BRANCH  42  44
HETATM   44  N14 UNL     1      28.009  29.493  29.695  1.00  0.00    -0.381 N 
ATOM     45 2H14 UNL     1      28.789  29.286  29.072  1.00  0.00     0.157 HD
ATOM     46 1H14 UNL     1      28.301  30.321  30.213  1.00  0.00     0.157 HD
ENDBRANCH  42  44
ENDBRANCH  33  37
ENDBRANCH  26  29
ENDBRANCH  24  25
ENDBRANCH   1  24
TORSDOF 10
ENDMDL
MODEL 3
REMARK VINA RESULT: -8.260611660      2.106      2.828
REMARK  10 active torsions:
REMARK  status: ('A' for Active; 'I' for Inactive)
REMARK       I    between atoms: C1_4  and  N3_6 
REMARK    1  A    between atoms: N3_6  and  N4_8 
REMARK    2  A    between atoms: N4_8  and  C2_10 
REMARK    3  A    between atoms: C3_13  and  C4_14 
REMARK    4  A    between atoms: C4_14  and  N6_15 
REMARK    5  A    between atoms: C4_14  and  N7_19 
REMARK    6  A    between atoms: N7_19  and  N8_20 
REMARK       I    between atoms: N8_20  and  C5_22 
REMARK    7  A    between atoms: C5_22  and  C6_24 
REMARK    8  A    between atoms: N11_29  and  C7_30 
REMARK    9  A    between atoms: C8_36  and  N14_37 
REMARK   10  A    between atoms: C9_42  and  N16_43 
ROOT
HETATM    1  C4  UNL     1      22.936  33.944  32.372  1.00  0.00     0.348 C 
ENDROOT
BRANCH   1   2
HETATM    2  C3  UNL     1      22.106  35.239  32.247  1.00  0.00     0.100 A 
HETATM    3  N5  UNL     1      21.958  35.804  31.058  1.00  0.00    -0.333 N 
HETATM    4  C2  UNL     1      21.242  36.918  30.967  1.00  0.00     0.166 A 
ATOM      5  H5  UNL     1      22.386  35.391  30.230  1.00  0.00     0.168 HD
HETATM    6  S1  UNL     1      20.752  37.204  32.555  1.00  0.00    -0.026 SA
HETATM    7  C9  UNL     1      21.517  35.826  33.317  1.00  0.00     0.173 A 
BRANCH   4   8
HETATM    8  N4  UNL     1      21.031  37.576  29.852  1.00  0.00    -0.277 N 
ATOM      9  H4  UNL     1      20.755  37.035  29.033  1.00  0.00     0.189 HD
BRANCH   8  10
HETATM   10  N3  UNL     1      21.151  38.921  29.701  1.00  0.00    -0.272 N 
HETATM   11  C1  UNL     1      22.251  39.611  30.287  1.00  0.00     0.200 C 
HETATM   12  N1  UNL     1      23.422  39.401  29.771  1.00  0.00    -0.372 N 
HETATM   13  N2  UNL     1      22.091  40.496  31.383  1.00  0.00    -0.062 NA
ATOM     14  H12 UNL     1      24.209  39.895  30.190  1.00  0.00     0.158 HD
ATOM     15  H11 UNL     1      23.537  38.765  28.982  1.00  0.00     0.158 HD
ATOM     16  H3  UNL     1      20.452  39.438  29.167  1.00  0.00     0.189 HD
ENDBRANCH   8  10
ENDBRANCH   4   8
BRANCH   7  17
HETATM   17  N16 UNL     1      21.472  35.551  34.719  1.00  0.00    -0.106 N 
HETATM   18  O3  UNL     1      22.537  35.770  35.385  1.00  0.00    -0.531 OA
HETATM   19  O4  UNL     1      20.452  35.078  35.458  1.00  0.00    -0.531 OA
ENDBRANCH   7  17
ENDBRANCH   1   2
BRANCH   1  20
HETATM   20  N6  UNL     1      24.061  34.119  33.235  1.00  0.00    -0.054 N 
ATOM     21  H63 UNL     1      24.386  35.085  33.230  1.00  0.00     0.276 HD
ATOM     22  H62 UNL     1      23.792  34.046  34.216  1.00  0.00     0.276 HD
ATOM     23  H61 UNL     1      24.815  33.472  33.007  1.00  0.00     0.276 HD
ENDBRANCH   1  20
BRANCH   1  24
HETATM   24  N7  UNL     1      23.225  33.479  31.049  1.00  0.00    -0.098 NA
BRANCH  24  25
HETATM   25  N8  UNL     1      23.843  32.245  31.031  1.00  0.00    -0.265 N 
HETATM   26  C5  UNL     1      25.059  32.121  30.337  1.00  0.00     0.303 C 
HETATM   27  O1  UNL     1      25.597  33.083  29.711  1.00  0.00    -0.263 OA
ATOM     28  H8  UNL     1      23.428  31.445  31.509  1.00  0.00     0.185 HD
BRANCH  26  29
HETATM   29  C6  UNL     1      25.768  30.866  30.303  1.00  0.00     0.208 A 
HETATM   30  N9  UNL     1      27.023  30.630  29.811  1.00  0.00    -0.264 N 
HETATM   31  N10 UNL     1      27.253  29.356  30.038  1.00  0.00    -0.218 N 
ATOM     32  H9  UNL     1      27.648  31.301  29.364  1.00  0.00     0.190 HD
HETATM   33  N11 UNL     1      26.213  28.793  30.641  1.00  0.00    -0.158 N 
ATOM     34  H10 UNL     1      28.112  28.866  29.785  1.00  0.00     0.210 HD
HETATM   35  N15 UNL     1      25.289  29.702  30.813  1.00  0.00    -0.255 N 
ATOM     36  H15 UNL     1      24.378  29.563  31.250  1.00  0.00     0.191 HD
BRANCH  33  37
HETATM   37  C7  UNL     1      26.125  27.425  31.050  1.00  0.00     0.214 A 
HETATM   38  N12 UNL     1      25.876  27.020  32.323  1.00  0.00    -0.219 N 
HETATM   39  O2  UNL     1      25.871  25.743  32.318  1.00  0.00    -0.153 OA
ATOM     40  H12 UNL     1      25.722  27.622  33.131  1.00  0.00     0.198 HD
HETATM   41  N13 UNL     1      26.102  25.259  31.123  1.00  0.00    -0.222 N 
HETATM   42  C8  UNL     1      26.271  26.309  30.269  1.00  0.00     0.171 A 
ATOM     43  H13 UNL     1      26.147  24.271  30.875  1.00  0.00     0.198 HD
BRANCH  42  44
HETATM   44  N14 UNL     1      26.514  26.253  29.008  1.00  0.00    -0.381 N 
ATOM     45 2H14 UNL     1      27.416  26.376  28.549  1.00  0.00     0.157 HD
ATOM     46 1H14 UNL     1      25.856  26.078  28.249  1.00  0.00     0.157 HD
ENDBRANCH  42  44
ENDBRANCH  33  37
ENDBRANCH  26  29
ENDBRANCH  24  25
ENDBRANCH   1  24
TORSDOF 10
ENDMDL
MODEL 4
REMARK VINA RESULT: -8.218285733      1.775      2.190
REMARK  10 active torsions:
REMARK  status: ('A' for Active; 'I' for Inactive)
REMARK       I    between atoms: C1_4  and  N3_6 
REMARK    1  A    between atoms: N3_6  and  N4_8 
REMARK    2  A    between atoms: N4_8  and  C2_10 
REMARK    3  A    between atoms: C3_13  and  C4_14 
REMARK    4  A    between atoms: C4_14  and  N6_15 
REMARK    5  A    between atoms: C4_14  and  N7_19 
REMARK    6  A    between atoms: N7_19  and  N8_20 
REMARK       I    between atoms: N8_20  and  C5_22 
REMARK    7  A    between atoms: C5_22  and  C6_24 
REMARK    8  A    between atoms: N11_29  and  C7_30 
REMARK    9  A    between atoms: C8_36  and  N14_37 
REMARK   10  A    between atoms: C9_42  and  N16_43 
ROOT
HETATM    1  C4  UNL     1      22.411  34.371  32.194  1.00  0.00     0.348 C 
ENDROOT
BRANCH   1   2
HETATM    2  C3  UNL     1      22.052  35.862  32.363  1.00  0.00     0.100 A 
HETATM    3  N5  UNL     1      22.081  36.662  31.308  1.00  0.00    -0.333 N 
HETATM    4  C2  UNL     1      21.770  37.942  31.469  1.00  0.00     0.166 A 
ATOM      5  H5  UNL     1      22.337  36.300  30.389  1.00  0.00     0.168 HD
HETATM    6  S1  UNL     1      21.424  38.060  33.116  1.00  0.00    -0.026 SA
HETATM    7  C9  UNL     1      21.704  36.390  33.562  1.00  0.00     0.173 A 
BRANCH   4   8
HETATM    8  N4  UNL     1      21.771  38.834  30.508  1.00  0.00    -0.277 N 
ATOM      9  H4  UNL     1      21.217  39.678  30.650  1.00  0.00     0.189 HD
BRANCH   8  10
HETATM   10  N3  UNL     1      22.451  38.724  29.337  1.00  0.00    -0.272 N 
HETATM   11  C1  UNL     1      21.888  37.998  28.248  1.00  0.00     0.200 C 
HETATM   12  N1  UNL     1      20.861  38.525  27.657  1.00  0.00    -0.372 N 
HETATM   13  N2  UNL     1      22.414  36.756  27.813  1.00  0.00    -0.062 NA
ATOM     14  H12 UNL     1      20.458  38.007  26.877  1.00  0.00     0.158 HD
ATOM     15  H11 UNL     1      20.482  39.419  27.969  1.00  0.00     0.158 HD
ATOM     16  H3  UNL     1      23.367  39.160  29.238  1.00  0.00     0.189 HD
ENDBRANCH   8  10
ENDBRANCH   4   8
BRANCH   7  17
HETATM   17  N16 UNL     1      21.592  35.880  34.893  1.00  0.00    -0.106 N 
HETATM   18  O3  UNL     1      22.623  35.974  35.636  1.00  0.00    -0.531 OA
HETATM   19  O4  UNL     1      20.537  35.298  35.491  1.00  0.00    -0.531 OA
ENDBRANCH   7  17
ENDBRANCH   1   2
BRANCH   1  20
HETATM   20  N6  UNL     1      21.582  33.533  33.001  1.00  0.00    -0.054 N 
ATOM     21  H63 UNL     1      21.908  33.508  33.967  1.00  0.00     0.276 HD
ATOM     22  H62 UNL     1      20.665  33.953  33.154  1.00  0.00     0.276 HD
ATOM     23  H61 UNL     1      21.501  32.594  32.612  1.00  0.00     0.276 HD
ENDBRANCH   1  20
BRANCH   1  24
HETATM   24  N7  UNL     1      23.822  34.234  32.389  1.00  0.00    -0.098 NA
BRANCH  24  25
HETATM   25  N8  UNL     1      24.371  33.193  31.668  1.00  0.00    -0.265 N 
HETATM   26  C5  UNL     1      24.530  31.952  32.309  1.00  0.00     0.303 C 
HETATM   27  O1  UNL     1      24.214  31.757  33.521  1.00  0.00    -0.263 OA
ATOM     28  H8  UNL     1      24.653  33.321  30.696  1.00  0.00     0.185 HD
BRANCH  26  29
HETATM   29  C6  UNL     1      25.071  30.817  31.604  1.00  0.00     0.208 A 
HETATM   30  N9  UNL     1      25.761  30.821  30.422  1.00  0.00    -0.264 N 
HETATM   31  N10 UNL     1      26.084  29.565  30.202  1.00  0.00    -0.218 N 
ATOM     32  H9  UNL     1      25.978  31.627  29.836  1.00  0.00     0.190 HD
HETATM   33  N11 UNL     1      25.634  28.789  31.180  1.00  0.00    -0.158 N 
ATOM     34  H10 UNL     1      26.608  29.234  29.392  1.00  0.00     0.210 HD
HETATM   35  N15 UNL     1      25.009  29.536  32.052  1.00  0.00    -0.255 N 
ATOM     36  H15 UNL     1      24.558  29.217  32.909  1.00  0.00     0.191 HD
BRANCH  33  37
HETATM   37  C7  UNL     1      25.818  27.373  31.274  1.00  0.00     0.214 A 
HETATM   38  N12 UNL     1      25.982  26.697  32.441  1.00  0.00    -0.219 N 
HETATM   39  O2  UNL     1      26.121  25.463  32.146  1.00  0.00    -0.153 OA
ATOM     40  H12 UNL     1      25.993  27.100  33.378  1.00  0.00     0.198 HD
HETATM   41  N13 UNL     1      26.061  25.261  30.854  1.00  0.00    -0.222 N 
HETATM   42  C8  UNL     1      25.865  26.468  30.248  1.00  0.00     0.171 A 
ATOM     43  H13 UNL     1      26.146  24.361  30.383  1.00  0.00     0.198 HD
BRANCH  42  44
HETATM   44  N14 UNL     1      25.751  26.695  28.988  1.00  0.00    -0.381 N 
ATOM     45 2H14 UNL     1      25.116  27.351  28.535  1.00  0.00     0.157 HD
ATOM     46 1H14 UNL     1      26.270  26.263  28.223  1.00  0.00     0.157 HD
ENDBRANCH  42  44
ENDBRANCH  33  37
ENDBRANCH  26  29
ENDBRANCH  24  25
ENDBRANCH   1  24
TORSDOF 10
ENDMDL
MODEL 5
REMARK VINA RESULT: -8.217795433      2.945      3.880
REMARK  10 active torsions:
REMARK  status: ('A' for Active; 'I' for Inactive)
REMARK       I    between atoms: C1_4  and  N3_6 
REMARK    1  A    between atoms: N3_6  and  N4_8 
REMARK    2  A    between atoms: N4_8  and  C2_10 
REMARK    3  A    between atoms: C3_13  and  C4_14 
REMARK    4  A    between atoms: C4_14  and  N6_15 
REMARK    5  A    between atoms: C4_14  and  N7_19 
REMARK    6  A    between atoms: N7_19  and  N8_20 
REMARK       I    between atoms: N8_20  and  C5_22 
REMARK    7  A    between atoms: C5_22  and  C6_24 
REMARK    8  A    between atoms: N11_29  and  C7_30 
REMARK    9  A    between atoms: C8_36  and  N14_37 
REMARK   10  A    between atoms: C9_42  and  N16_43 
ROOT
HETATM    1  C4  UNL     1      21.477  35.646  33.944  1.00  0.00     0.348 C 
ENDROOT
BRANCH   1   2
HETATM    2  C3  UNL     1      20.341  36.643  33.634  1.00  0.00     0.100 A 
HETATM    3  N5  UNL     1      19.100  36.196  33.511  1.00  0.00    -0.333 N 
HETATM    4  C2  UNL     1      18.133  37.066  33.244  1.00  0.00     0.166 A 
ATOM      5  H5  UNL     1      18.892  35.204  33.620  1.00  0.00     0.168 HD
HETATM    6  S1  UNL     1      18.943  38.543  33.159  1.00  0.00    -0.026 SA
HETATM    7  C9  UNL     1      20.566  37.970  33.481  1.00  0.00     0.173 A 
BRANCH   4   8
HETATM    8  N4  UNL     1      16.870  36.748  33.090  1.00  0.00    -0.277 N 
ATOM      9  H4  UNL     1      16.641  35.757  33.020  1.00  0.00     0.189 HD
BRANCH   8  10
HETATM   10  N3  UNL     1      15.842  37.633  33.017  1.00  0.00    -0.272 N 
HETATM   11  C1  UNL     1      14.934  37.585  31.919  1.00  0.00     0.200 C 
HETATM   12  N1  UNL     1      14.127  36.571  31.865  1.00  0.00    -0.372 N 
HETATM   13  N2  UNL     1      14.896  38.594  30.925  1.00  0.00    -0.062 NA
ATOM     14  H12 UNL     1      13.477  36.537  31.081  1.00  0.00     0.158 HD
ATOM     15  H11 UNL     1      14.154  35.845  32.581  1.00  0.00     0.158 HD
ATOM     16  H3  UNL     1      15.720  38.333  33.748  1.00  0.00     0.189 HD
ENDBRANCH   8  10
ENDBRANCH   4   8
BRANCH   7  17
HETATM   17  N16 UNL     1      21.726  38.805  33.504  1.00  0.00    -0.106 N 
HETATM   18  O3  UNL     1      22.067  39.352  32.404  1.00  0.00    -0.531 OA
HETATM   19  O4  UNL     1      22.536  39.102  34.537  1.00  0.00    -0.531 OA
ENDBRANCH   7  17
ENDBRANCH   1   2
BRANCH   1  20
HETATM   20  N6  UNL     1      22.427  36.196  34.858  1.00  0.00    -0.054 N 
ATOM     21  H63 UNL     1      22.201  35.950  35.821  1.00  0.00     0.276 HD
ATOM     22  H62 UNL     1      23.330  35.729  34.782  1.00  0.00     0.276 HD
ATOM     23  H61 UNL     1      22.520  37.205  34.744  1.00  0.00     0.276 HD
ENDBRANCH   1  20
BRANCH   1  24
HETATM   24  N7  UNL     1      22.004  35.178  32.697  1.00  0.00    -0.098 NA
BRANCH  24  25
HETATM   25  N8  UNL     1      22.431  33.867  32.747  1.00  0.00    -0.265 N 
HETATM   26  C5  UNL     1      23.798  33.622  32.960  1.00  0.00     0.303 C 
HETATM   27  O1  UNL     1      24.654  34.549  33.084  1.00  0.00    -0.263 OA
ATOM     28  H8  UNL     1      21.772  33.097  32.632  1.00  0.00     0.185 HD
BRANCH  26  29
HETATM   29  C6  UNL     1      24.305  32.275  33.049  1.00  0.00     0.208 A 
HETATM   30  N9  UNL     1      24.653  31.588  34.180  1.00  0.00    -0.264 N 
HETATM   31  N10 UNL     1      25.014  30.393  33.766  1.00  0.00    -0.218 N 
ATOM     32  H9  UNL     1      24.636  31.930  35.141  1.00  0.00     0.190 HD
HETATM   33  N11 UNL     1      24.908  30.305  32.445  1.00  0.00    -0.158 N 
ATOM     34  H10 UNL     1      25.332  29.639  34.374  1.00  0.00     0.210 HD
HETATM   35  N15 UNL     1      24.475  31.449  31.984  1.00  0.00    -0.255 N 
ATOM     36  H15 UNL     1      24.297  31.678  31.006  1.00  0.00     0.191 HD
BRANCH  33  37
HETATM   37  C7  UNL     1      25.202  29.146  31.660  1.00  0.00     0.214 A 
HETATM   38  N12 UNL     1      24.818  27.883  31.983  1.00  0.00    -0.219 N 
HETATM   39  O2  UNL     1      25.254  27.110  31.065  1.00  0.00    -0.153 OA
ATOM     40  H12 UNL     1      24.283  27.605  32.805  1.00  0.00     0.198 HD
HETATM   41  N13 UNL     1      25.908  27.769  30.142  1.00  0.00    -0.222 N 
HETATM   42  C8  UNL     1      25.901  29.090  30.483  1.00  0.00     0.171 A 
ATOM     43  H13 UNL     1      26.347  27.366  29.315  1.00  0.00     0.198 HD
BRANCH  42  44
HETATM   44  N14 UNL     1      26.436  30.062  29.834  1.00  0.00    -0.381 N 
ATOM     45 2H14 UNL     1      26.049  30.995  29.692  1.00  0.00     0.157 HD
ATOM     46 1H14 UNL     1      27.333  30.075  29.350  1.00  0.00     0.157 HD
ENDBRANCH  42  44
ENDBRANCH  33  37
ENDBRANCH  26  29
ENDBRANCH  24  25
ENDBRANCH   1  24
TORSDOF 10
ENDMDL
