MODEL 1
REMARK VINA RESULT: -9.683699826      0.000      0.000
REMARK  5 active torsions:
REMARK  status: ('A' for Active; 'I' for Inactive)
REMARK    1  A    between atoms: C4_4  and  C5_5 
REMARK    2  A    between atoms: C5_5  and  C6_6 
REMARK    3  A    between atoms: C16_19  and  O4_20 
REMARK    4  A    between atoms: C17_22  and  O5_23 
REMARK    5  A    between atoms: C18_25  and  O6_26 
ROOT
HETATM    1  C6  UNL     1      22.389   6.838  21.653  1.00  0.00    -0.008 A 
HETATM    2  C7  UNL     1      21.505   7.895  21.729  1.00  0.00     0.057 A 
HETATM    3  C8  UNL     1      20.886   8.395  22.962  1.00  0.00     0.077 C 
HETATM    4  O1  UNL     1      21.316   8.375  20.524  1.00  0.00    -0.310 OA
HETATM    5  C9  UNL     1      21.990   7.741  19.624  1.00  0.00     0.141 A 
HETATM    6  C10 UNL     1      22.691   6.747  20.312  1.00  0.00     0.065 A 
HETATM    7  C11 UNL     1      23.579   5.786  19.658  1.00  0.00     0.236 C 
HETATM    8  O2  UNL     1      23.767   4.747  20.332  1.00  0.00    -0.283 OA
HETATM    9  C12 UNL     1      24.249   5.879  18.373  1.00  0.00     0.236 C 
HETATM   10  O3  UNL     1      25.293   5.218  18.259  1.00  0.00    -0.283 OA
HETATM   11  C13 UNL     1      23.800   6.672  17.227  1.00  0.00     0.069 A 
HETATM   12  C14 UNL     1      22.803   7.631  17.140  1.00  0.00     0.037 A 
HETATM   13  C15 UNL     1      22.535   8.270  15.935  1.00  0.00     0.056 A 
HETATM   14  C16 UNL     1      23.249   7.967  14.806  1.00  0.00     0.102 A 
HETATM   15  C17 UNL     1      24.254   7.004  14.882  1.00  0.00     0.133 A 
HETATM   16  C18 UNL     1      24.509   6.380  16.081  1.00  0.00     0.117 A 
HETATM   17  C19 UNL     1      21.947   8.083  18.217  1.00  0.00     0.217 C 
HETATM   18  O7  UNL     1      21.045   8.885  17.866  1.00  0.00    -0.284 OA
ENDROOT
BRANCH   1  19
HETATM   19  C5  UNL     1      22.933   5.941  22.677  1.00  0.00     0.069 C 
BRANCH  19  20
HETATM   20  C4  UNL     1      22.036   4.800  23.027  1.00  0.00    -0.020 C 
HETATM   21  C2  UNL     1      21.422   4.726  24.200  1.00  0.00    -0.091 C 
HETATM   22  C1  UNL     1      21.604   5.793  25.231  1.00  0.00     0.042 C 
HETATM   23  C3  UNL     1      20.536   3.579  24.528  1.00  0.00     0.042 C 
ENDBRANCH  19  20
ENDBRANCH   1  19
BRANCH  16  24
HETATM   24  O6  UNL     1      25.518   5.421  16.137  1.00  0.00    -0.357 OA
ATOM     25  H6  UNL     1      25.278   4.501  16.165  1.00  0.00     0.217 HD
ENDBRANCH  16  24
BRANCH  14  26
HETATM   26  O4  UNL     1      23.011   8.583  13.592  1.00  0.00    -0.358 OA
ATOM     27  H4  UNL     1      23.639   9.169  13.187  1.00  0.00     0.217 HD
ENDBRANCH  14  26
BRANCH  15  28
HETATM   28  O5  UNL     1      24.974   6.693  13.761  1.00  0.00    -0.356 OA
ATOM     29  H5  UNL     1      25.084   5.782  13.514  1.00  0.00     0.218 HD
ENDBRANCH  15  28
TORSDOF 5
ENDMDL
MODEL 2
REMARK VINA RESULT: -9.681025603      3.292      6.934
REMARK  5 active torsions:
REMARK  status: ('A' for Active; 'I' for Inactive)
REMARK    1  A    between atoms: C4_4  and  C5_5 
REMARK    2  A    between atoms: C5_5  and  C6_6 
REMARK    3  A    between atoms: C16_19  and  O4_20 
REMARK    4  A    between atoms: C17_22  and  O5_23 
REMARK    5  A    between atoms: C18_25  and  O6_26 
ROOT
HETATM    1  C6  UNL     1      23.442   6.535  18.891  1.00  0.00    -0.008 A 
HETATM    2  C7  UNL     1      22.441   6.991  19.723  1.00  0.00     0.057 A 
HETATM    3  C8  UNL     1      21.915   8.362  19.745  1.00  0.00     0.077 C 
HETATM    4  O1  UNL     1      22.040   6.002  20.484  1.00  0.00    -0.310 OA
HETATM    5  C9  UNL     1      22.678   4.905  20.250  1.00  0.00     0.141 A 
HETATM    6  C10 UNL     1      23.586   5.209  19.233  1.00  0.00     0.065 A 
HETATM    7  C11 UNL     1      24.522   4.236  18.669  1.00  0.00     0.236 C 
HETATM    8  O2  UNL     1      25.510   4.766  18.109  1.00  0.00    -0.283 OA
HETATM    9  C12 UNL     1      24.457   2.785  18.676  1.00  0.00     0.236 C 
HETATM   10  O3  UNL     1      25.056   2.213  17.751  1.00  0.00    -0.283 OA
HETATM   11  C13 UNL     1      23.758   1.963  19.665  1.00  0.00     0.069 A 
HETATM   12  C14 UNL     1      22.871   2.329  20.664  1.00  0.00     0.037 A 
HETATM   13  C15 UNL     1      22.316   1.373  21.508  1.00  0.00     0.056 A 
HETATM   14  C16 UNL     1      22.634   0.047  21.371  1.00  0.00     0.102 A 
HETATM   15  C17 UNL     1      23.525  -0.332  20.369  1.00  0.00     0.133 A 
HETATM   16  C18 UNL     1      24.066   0.624  19.540  1.00  0.00     0.117 A 
HETATM   17  C19 UNL     1      22.416   3.671  20.963  1.00  0.00     0.217 C 
HETATM   18  O7  UNL     1      21.693   3.762  21.988  1.00  0.00    -0.284 OA
ENDROOT
BRANCH   1  19
HETATM   19  C5  UNL     1      24.245   7.208  17.865  1.00  0.00     0.069 C 
BRANCH  19  20
HETATM   20  C4  UNL     1      23.440   7.839  16.777  1.00  0.00    -0.020 C 
HETATM   21  C2  UNL     1      23.670   7.585  15.497  1.00  0.00    -0.091 C 
HETATM   22  C1  UNL     1      24.758   6.645  15.084  1.00  0.00     0.042 C 
HETATM   23  C3  UNL     1      22.859   8.228  14.432  1.00  0.00     0.042 C 
ENDBRANCH  19  20
ENDBRANCH   1  19
BRANCH  16  24
HETATM   24  O6  UNL     1      24.955   0.225  18.545  1.00  0.00    -0.357 OA
ATOM     25  H6  UNL     1      25.049  -0.701  18.356  1.00  0.00     0.217 HD
ENDBRANCH  16  24
BRANCH  14  26
HETATM   26  O4  UNL     1      22.102  -0.930  22.191  1.00  0.00    -0.358 OA
ATOM     27  H4  UNL     1      21.929  -1.812  21.884  1.00  0.00     0.217 HD
ENDBRANCH  14  26
BRANCH  15  28
HETATM   28  O5  UNL     1      23.851  -1.653  20.222  1.00  0.00    -0.356 OA
ATOM     29  H5  UNL     1      24.727  -1.890  19.943  1.00  0.00     0.218 HD
ENDBRANCH  15  28
TORSDOF 5
ENDMDL
MODEL 3
REMARK VINA RESULT: -9.632413040      2.424      6.578
REMARK  5 active torsions:
REMARK  status: ('A' for Active; 'I' for Inactive)
REMARK    1  A    between atoms: C4_4  and  C5_5 
REMARK    2  A    between atoms: C5_5  and  C6_6 
REMARK    3  A    between atoms: C16_19  and  O4_20 
REMARK    4  A    between atoms: C17_22  and  O5_23 
REMARK    5  A    between atoms: C18_25  and  O6_26 
ROOT
HETATM    1  C6  UNL     1      22.952   7.983  18.005  1.00  0.00    -0.008 A 
HETATM    2  C7  UNL     1      21.816   8.344  18.700  1.00  0.00     0.057 A 
HETATM    3  C8  UNL     1      20.989   9.523  18.416  1.00  0.00     0.077 C 
HETATM    4  O1  UNL     1      21.601   7.463  19.646  1.00  0.00    -0.310 OA
HETATM    5  C9  UNL     1      22.490   6.527  19.666  1.00  0.00     0.141 A 
HETATM    6  C10 UNL     1      23.373   6.828  18.627  1.00  0.00     0.065 A 
HETATM    7  C11 UNL     1      24.546   6.015  18.304  1.00  0.00     0.236 C 
HETATM    8  O2  UNL     1      25.423   6.641  17.664  1.00  0.00    -0.283 OA
HETATM    9  C12 UNL     1      24.817   4.624  18.620  1.00  0.00     0.236 C 
HETATM   10  O3  UNL     1      25.596   4.037  17.852  1.00  0.00    -0.283 OA
HETATM   11  C13 UNL     1      24.257   3.875  19.747  1.00  0.00     0.069 A 
HETATM   12  C14 UNL     1      23.241   4.213  20.626  1.00  0.00     0.037 A 
HETATM   13  C15 UNL     1      22.862   3.343  21.643  1.00  0.00     0.056 A 
HETATM   14  C16 UNL     1      23.486   2.133  21.800  1.00  0.00     0.102 A 
HETATM   15  C17 UNL     1      24.510   1.784  20.921  1.00  0.00     0.133 A 
HETATM   16  C18 UNL     1      24.873   2.654  19.918  1.00  0.00     0.117 A 
HETATM   17  C19 UNL     1      22.469   5.438  20.621  1.00  0.00     0.217 C 
HETATM   18  O7  UNL     1      21.673   5.559  21.587  1.00  0.00    -0.284 OA
ENDROOT
BRANCH   1  19
HETATM   19  C5  UNL     1      23.650   8.606  16.876  1.00  0.00     0.069 C 
BRANCH  19  20
HETATM   20  C4  UNL     1      22.888   8.568  15.593  1.00  0.00    -0.020 C 
HETATM   21  C2  UNL     1      23.354   7.944  14.519  1.00  0.00    -0.091 C 
HETATM   22  C1  UNL     1      24.676   7.246  14.550  1.00  0.00     0.042 C 
HETATM   23  C3  UNL     1      22.580   7.922  13.252  1.00  0.00     0.042 C 
ENDBRANCH  19  20
ENDBRANCH   1  19
BRANCH  16  24
HETATM   24  O6  UNL     1      25.899   2.286  19.050  1.00  0.00    -0.357 OA
ATOM     25  H6  UNL     1      26.619   1.763  19.383  1.00  0.00     0.217 HD
ENDBRANCH  16  24
BRANCH  14  26
HETATM   26  O4  UNL     1      23.136   1.244  22.798  1.00  0.00    -0.358 OA
ATOM     27  H4  UNL     1      23.767   0.664  23.207  1.00  0.00     0.217 HD
ENDBRANCH  14  26
BRANCH  15  28
HETATM   28  O5  UNL     1      25.140   0.579  21.067  1.00  0.00    -0.356 OA
ATOM     29  H5  UNL     1      24.891  -0.151  20.512  1.00  0.00     0.218 HD
ENDBRANCH  15  28
TORSDOF 5
ENDMDL
MODEL 4
REMARK VINA RESULT: -9.597984293      2.186      7.700
REMARK  5 active torsions:
REMARK  status: ('A' for Active; 'I' for Inactive)
REMARK    1  A    between atoms: C4_4  and  C5_5 
REMARK    2  A    between atoms: C5_5  and  C6_6 
REMARK    3  A    between atoms: C16_19  and  O4_20 
REMARK    4  A    between atoms: C17_22  and  O5_23 
REMARK    5  A    between atoms: C18_25  and  O6_26 
ROOT
HETATM    1  C6  UNL     1      24.098   6.259  18.465  1.00  0.00    -0.008 A 
HETATM    2  C7  UNL     1      24.581   4.999  18.178  1.00  0.00     0.057 A 
HETATM    3  C8  UNL     1      25.499   4.673  17.081  1.00  0.00     0.077 C 
HETATM    4  O1  UNL     1      24.088   4.150  19.047  1.00  0.00    -0.310 OA
HETATM    5  C9  UNL     1      23.307   4.714  19.906  1.00  0.00     0.141 A 
HETATM    6  C10 UNL     1      23.289   6.068  19.563  1.00  0.00     0.065 A 
HETATM    7  C11 UNL     1      22.509   7.074  20.285  1.00  0.00     0.236 C 
HETATM    8  O2  UNL     1      22.275   8.101  19.607  1.00  0.00    -0.283 OA
HETATM    9  C12 UNL     1      21.987   7.035  21.639  1.00  0.00     0.236 C 
HETATM   10  O3  UNL     1      21.810   8.137  22.182  1.00  0.00    -0.283 OA
HETATM   11  C13 UNL     1      21.662   5.826  22.399  1.00  0.00     0.069 A 
HETATM   12  C14 UNL     1      21.935   4.497  22.122  1.00  0.00     0.037 A 
HETATM   13  C15 UNL     1      21.525   3.490  22.990  1.00  0.00     0.056 A 
HETATM   14  C16 UNL     1      20.842   3.791  24.139  1.00  0.00     0.102 A 
HETATM   15  C17 UNL     1      20.562   5.125  24.428  1.00  0.00     0.133 A 
HETATM   16  C18 UNL     1      20.974   6.110  23.560  1.00  0.00     0.117 A 
HETATM   17  C19 UNL     1      22.640   3.985  20.965  1.00  0.00     0.217 C 
HETATM   18  O7  UNL     1      22.669   2.731  20.883  1.00  0.00    -0.284 OA
ENDROOT
BRANCH   1  19
HETATM   19  C5  UNL     1      24.308   7.559  17.818  1.00  0.00     0.069 C 
BRANCH  19  20
HETATM   20  C4  UNL     1      24.103   7.544  16.339  1.00  0.00    -0.020 C 
HETATM   21  C2  UNL     1      23.143   8.249  15.757  1.00  0.00    -0.091 C 
HETATM   22  C1  UNL     1      22.215   9.098  16.567  1.00  0.00     0.042 C 
HETATM   23  C3  UNL     1      22.956   8.216  14.284  1.00  0.00     0.042 C 
ENDBRANCH  19  20
ENDBRANCH   1  19
BRANCH  16  24
HETATM   24  O6  UNL     1      20.684   7.438  23.866  1.00  0.00    -0.357 OA
ATOM     25  H6  UNL     1      21.031   7.813  24.668  1.00  0.00     0.217 HD
ENDBRANCH  16  24
BRANCH  14  26
HETATM   26  O4  UNL     1      20.421   2.817  25.026  1.00  0.00    -0.358 OA
ATOM     27  H4  UNL     1      19.548   2.813  25.400  1.00  0.00     0.217 HD
ENDBRANCH  14  26
BRANCH  15  28
HETATM   28  O5  UNL     1      19.881   5.438  25.572  1.00  0.00    -0.356 OA
ATOM     29  H5  UNL     1      18.938   5.323  25.602  1.00  0.00     0.218 HD
ENDBRANCH  15  28
TORSDOF 5
ENDMDL
MODEL 5
REMARK VINA RESULT: -9.495048925      2.363      7.881
REMARK  5 active torsions:
REMARK  status: ('A' for Active; 'I' for Inactive)
REMARK    1  A    between atoms: C4_4  and  C5_5 
REMARK    2  A    between atoms: C5_5  and  C6_6 
REMARK    3  A    between atoms: C16_19  and  O4_20 
REMARK    4  A    between atoms: C17_22  and  O5_23 
REMARK    5  A    between atoms: C18_25  and  O6_26 
ROOT
HETATM    1  C6  UNL     1      23.549   6.539  19.086  1.00  0.00    -0.008 A 
HETATM    2  C7  UNL     1      24.036   5.254  18.960  1.00  0.00     0.057 A 
HETATM    3  C8  UNL     1      24.996   4.807  17.944  1.00  0.00     0.077 C 
HETATM    4  O1  UNL     1      23.503   4.507  19.896  1.00  0.00    -0.310 OA
HETATM    5  C9  UNL     1      22.691   5.163  20.654  1.00  0.00     0.141 A 
HETATM    6  C10 UNL     1      22.695   6.471  20.164  1.00  0.00     0.065 A 
HETATM    7  C11 UNL     1      21.892   7.551  20.738  1.00  0.00     0.236 C 
HETATM    8  O2  UNL     1      21.692   8.497  19.942  1.00  0.00    -0.283 OA
HETATM    9  C12 UNL     1      21.315   7.662  22.066  1.00  0.00     0.236 C 
HETATM   10  O3  UNL     1      21.122   8.818  22.476  1.00  0.00    -0.283 OA
HETATM   11  C13 UNL     1      20.952   6.546  22.940  1.00  0.00     0.069 A 
HETATM   12  C14 UNL     1      21.228   5.193  22.823  1.00  0.00     0.037 A 
HETATM   13  C15 UNL     1      20.778   4.290  23.779  1.00  0.00     0.056 A 
HETATM   14  C16 UNL     1      20.050   4.716  24.859  1.00  0.00     0.102 A 
HETATM   15  C17 UNL     1      19.766   6.074  24.987  1.00  0.00     0.133 A 
HETATM   16  C18 UNL     1      20.219   6.957  24.034  1.00  0.00     0.117 A 
HETATM   17  C19 UNL     1      21.976   4.557  21.759  1.00  0.00     0.217 C 
HETATM   18  O7  UNL     1      22.002   3.301  21.817  1.00  0.00    -0.284 OA
ENDROOT
BRANCH   1  19
HETATM   19  C5  UNL     1      23.793   7.759  18.310  1.00  0.00     0.069 C 
BRANCH  19  20
HETATM   20  C4  UNL     1      23.748   7.559  16.830  1.00  0.00    -0.020 C 
HETATM   21  C2  UNL     1      22.993   8.312  16.044  1.00  0.00    -0.091 C 
HETATM   22  C1  UNL     1      22.144   9.405  16.611  1.00  0.00     0.042 C 
HETATM   23  C3  UNL     1      22.961   8.092  14.575  1.00  0.00     0.042 C 
ENDBRANCH  19  20
ENDBRANCH   1  19
BRANCH  16  24
HETATM   24  O6  UNL     1      19.925   8.311  24.179  1.00  0.00    -0.357 OA
ATOM     25  H6  UNL     1      19.074   8.630  23.901  1.00  0.00     0.217 HD
ENDBRANCH  16  24
BRANCH  14  26
HETATM   26  O4  UNL     1      19.587   3.847  25.829  1.00  0.00    -0.358 OA
ATOM     27  H4  UNL     1      20.172   3.316  26.357  1.00  0.00     0.217 HD
ENDBRANCH  14  26
BRANCH  15  28
HETATM   28  O5  UNL     1      19.040   6.512  26.061  1.00  0.00    -0.356 OA
ATOM     29  H5  UNL     1      19.493   6.812  26.841  1.00  0.00     0.218 HD
ENDBRANCH  15  28
TORSDOF 5
ENDMDL
