MODEL 1
REMARK VINA RESULT: -6.766359526      0.000      0.000
REMARK  9 active torsions:
REMARK  status: ('A' for Active; 'I' for Inactive)
REMARK    1  A    between atoms: N1_2  and  C2_3 
REMARK    2  A    between atoms: N1_2  and  C4_9 
REMARK    3  A    between atoms: C2_3  and  C3_4 
REMARK    4  A    between atoms: C3_4  and  N2_5 
REMARK    5  A    between atoms: C4_9  and  C5_10 
REMARK    6  A    between atoms: C5_10  and  C6_11 
REMARK    7  A    between atoms: C6_11  and  N3_12 
REMARK    8  A    between atoms: N3_12  and  C7_14 
REMARK    9  A    between atoms: C10_19  and  N5_20 
ROOT
HETATM    1  N3  UNL     1       3.274  10.675   9.090  1.00  0.00    -0.376 N 
ATOM      2  H3  UNL     1       4.294  10.671   9.105  1.00  0.00     0.161 HD
ENDROOT
BRANCH   1   3
HETATM    3  C6  UNL     1       2.563  10.647  10.337  1.00  0.00     0.123 C 
BRANCH   3   4
HETATM    4  C5  UNL     1       3.605  10.265  11.405  1.00  0.00     0.050 C 
BRANCH   4   5
HETATM    5  C4  UNL     1       3.232  11.136  12.599  1.00  0.00     0.273 C 
BRANCH   5   6
HETATM    6  N1  UNL     1       3.719  10.659  13.848  1.00  0.00     0.085 N 
HETATM    7  C1  UNL     1       2.929   9.583  14.402  1.00  0.00     0.309 C 
BRANCH   6   8
HETATM    8  C2  UNL     1       3.808  11.789  14.755  1.00  0.00     0.299 C 
BRANCH   8   9
HETATM    9  C3  UNL     1       3.213  11.465  16.109  1.00  0.00     0.259 C 
BRANCH   9  10
HETATM   10  N2  UNL     1       3.147  12.679  16.891  1.00  0.00    -0.078 N 
ATOM     11  H23 UNL     1       2.377  13.284  16.608  1.00  0.00     0.274 HD
ATOM     12  H22 UNL     1       2.848  12.508  17.851  1.00  0.00     0.274 HD
ATOM     13  H21 UNL     1       4.051  13.151  16.843  1.00  0.00     0.274 HD
ENDBRANCH   9  10
ENDBRANCH   8   9
ENDBRANCH   6   8
ENDBRANCH   5   6
ENDBRANCH   4   5
ENDBRANCH   3   4
ENDBRANCH   1   3
BRANCH   1  14
HETATM   14  C7  UNL     1       2.678  10.706   7.966  1.00  0.00     0.118 A 
HETATM   15  C8  UNL     1       1.844   9.738   7.477  1.00  0.00     0.066 A 
HETATM   16  C9  UNL     1       1.250   9.903   6.227  1.00  0.00     0.110 A 
HETATM   17  N4  UNL     1       1.526  11.013   5.557  1.00  0.00    -0.202 N 
HETATM   18  C10 UNL     1       2.340  11.985   6.007  1.00  0.00     0.677 A 
ATOM     19  H4  UNL     1       1.093  11.139   4.642  1.00  0.00     0.183 HD
HETATM   20  N6  UNL     1       2.902  11.808   7.211  1.00  0.00    -0.177 N 
ATOM     21  H6  UNL     1       3.523  12.532   7.572  1.00  0.00     0.185 HD
BRANCH  18  22
HETATM   22  N5  UNL     1       2.582  13.056   5.318  1.00  0.00    -0.234 N 
ATOM     23  H52 UNL     1       2.152  13.945   5.573  1.00  0.00     0.174 HD
ATOM     24  H51 UNL     1       3.199  13.051   4.507  1.00  0.00     0.174 HD
ENDBRANCH  18  22
ENDBRANCH   1  14
TORSDOF 9
ENDMDL
MODEL 2
REMARK VINA RESULT: -6.504150673      1.635      2.818
REMARK  9 active torsions:
REMARK  status: ('A' for Active; 'I' for Inactive)
REMARK    1  A    between atoms: N1_2  and  C2_3 
REMARK    2  A    between atoms: N1_2  and  C4_9 
REMARK    3  A    between atoms: C2_3  and  C3_4 
REMARK    4  A    between atoms: C3_4  and  N2_5 
REMARK    5  A    between atoms: C4_9  and  C5_10 
REMARK    6  A    between atoms: C5_10  and  C6_11 
REMARK    7  A    between atoms: C6_11  and  N3_12 
REMARK    8  A    between atoms: N3_12  and  C7_14 
REMARK    9  A    between atoms: C10_19  and  N5_20 
ROOT
HETATM    1  N3  UNL     1       3.293  10.700   8.986  1.00  0.00    -0.376 N 
ATOM      2  H3  UNL     1       4.313  10.707   8.983  1.00  0.00     0.161 HD
ENDROOT
BRANCH   1   3
HETATM    3  C6  UNL     1       2.605  10.651  10.245  1.00  0.00     0.123 C 
BRANCH   3   4
HETATM    4  C5  UNL     1       3.662  10.228  11.284  1.00  0.00     0.050 C 
BRANCH   4   5
HETATM    5  C4  UNL     1       2.930  10.359  12.614  1.00  0.00     0.273 C 
BRANCH   5   6
HETATM    6  N1  UNL     1       2.867   9.155  13.370  1.00  0.00     0.085 N 
HETATM    7  C1  UNL     1       3.240   9.323  14.756  1.00  0.00     0.309 C 
BRANCH   6   8
HETATM    8  C2  UNL     1       3.691   8.164  12.703  1.00  0.00     0.299 C 
BRANCH   8   9
HETATM    9  C3  UNL     1       2.969   6.841  12.561  1.00  0.00     0.259 C 
BRANCH   9  10
HETATM   10  N2  UNL     1       2.944   6.471  11.164  1.00  0.00    -0.078 N 
ATOM     11  H23 UNL     1       2.630   5.511  11.021  1.00  0.00     0.274 HD
ATOM     12  H22 UNL     1       2.201   6.942  10.650  1.00  0.00     0.274 HD
ATOM     13  H21 UNL     1       3.866   6.643  10.762  1.00  0.00     0.274 HD
ENDBRANCH   9  10
ENDBRANCH   8   9
ENDBRANCH   6   8
ENDBRANCH   5   6
ENDBRANCH   4   5
ENDBRANCH   3   4
ENDBRANCH   1   3
BRANCH   1  14
HETATM   14  C7  UNL     1       2.678  10.736   7.874  1.00  0.00     0.118 A 
HETATM   15  C8  UNL     1       1.836   9.769   7.394  1.00  0.00     0.066 A 
HETATM   16  C9  UNL     1       1.219   9.939   6.156  1.00  0.00     0.110 A 
HETATM   17  N4  UNL     1       1.481  11.054   5.488  1.00  0.00    -0.202 N 
HETATM   18  C10 UNL     1       2.302  12.024   5.928  1.00  0.00     0.677 A 
ATOM     19  H4  UNL     1       1.032  11.184   4.581  1.00  0.00     0.183 HD
HETATM   20  N6  UNL     1       2.886  11.842   7.120  1.00  0.00    -0.177 N 
ATOM     21  H6  UNL     1       3.512  12.565   7.474  1.00  0.00     0.185 HD
BRANCH  18  22
HETATM   22  N5  UNL     1       2.529  13.100   5.240  1.00  0.00    -0.234 N 
ATOM     23  H52 UNL     1       1.756  13.655   4.875  1.00  0.00     0.174 HD
ATOM     24  H51 UNL     1       3.475  13.425   5.039  1.00  0.00     0.174 HD
ENDBRANCH  18  22
ENDBRANCH   1  14
TORSDOF 9
ENDMDL
MODEL 3
REMARK VINA RESULT: -6.326662335      7.151     11.693
REMARK  9 active torsions:
REMARK  status: ('A' for Active; 'I' for Inactive)
REMARK    1  A    between atoms: N1_2  and  C2_3 
REMARK    2  A    between atoms: N1_2  and  C4_9 
REMARK    3  A    between atoms: C2_3  and  C3_4 
REMARK    4  A    between atoms: C3_4  and  N2_5 
REMARK    5  A    between atoms: C4_9  and  C5_10 
REMARK    6  A    between atoms: C5_10  and  C6_11 
REMARK    7  A    between atoms: C6_11  and  N3_12 
REMARK    8  A    between atoms: N3_12  and  C7_14 
REMARK    9  A    between atoms: C10_19  and  N5_20 
ROOT
HETATM    1  N3  UNL     1       4.049  16.118  19.332  1.00  0.00    -0.376 N 
ATOM      2  H3  UNL     1       3.873  16.428  18.376  1.00  0.00     0.161 HD
ENDROOT
BRANCH   1   3
HETATM    3  C6  UNL     1       5.092  15.161  19.568  1.00  0.00     0.123 C 
BRANCH   3   4
HETATM    4  C5  UNL     1       4.457  13.779  19.316  1.00  0.00     0.050 C 
BRANCH   4   5
HETATM    5  C4  UNL     1       5.497  13.054  18.472  1.00  0.00     0.273 C 
BRANCH   5   6
HETATM    6  N1  UNL     1       4.987  11.946  17.738  1.00  0.00     0.085 N 
HETATM    7  C1  UNL     1       5.804  11.582  16.602  1.00  0.00     0.309 C 
BRANCH   6   8
HETATM    8  C2  UNL     1       3.624  12.256  17.348  1.00  0.00     0.299 C 
BRANCH   8   9
HETATM    9  C3  UNL     1       3.527  12.595  15.876  1.00  0.00     0.259 C 
BRANCH   9  10
HETATM   10  N2  UNL     1       3.205  13.997  15.741  1.00  0.00    -0.078 N 
ATOM     11  H23 UNL     1       2.275  14.148  15.351  1.00  0.00     0.274 HD
ATOM     12  H22 UNL     1       3.056  14.451  16.642  1.00  0.00     0.274 HD
ATOM     13  H21 UNL     1       3.936  14.451  15.193  1.00  0.00     0.274 HD
ENDBRANCH   9  10
ENDBRANCH   8   9
ENDBRANCH   6   8
ENDBRANCH   5   6
ENDBRANCH   4   5
ENDBRANCH   3   4
ENDBRANCH   1   3
BRANCH   1  14
HETATM   14  C7  UNL     1       3.336  16.594  20.271  1.00  0.00     0.118 A 
HETATM   15  C8  UNL     1       3.648  16.571  21.604  1.00  0.00     0.066 A 
HETATM   16  C9  UNL     1       2.775  17.137  22.530  1.00  0.00     0.110 A 
HETATM   17  N4  UNL     1       1.660  17.685  22.068  1.00  0.00    -0.202 N 
HETATM   18  C10 UNL     1       1.321  17.727  20.767  1.00  0.00     0.677 A 
ATOM     19  H4  UNL     1       1.018  18.102  22.742  1.00  0.00     0.183 HD
HETATM   20  N6  UNL     1       2.173  17.176  19.892  1.00  0.00    -0.177 N 
ATOM     21  H6  UNL     1       1.936  17.197  18.900  1.00  0.00     0.185 HD
BRANCH  18  22
HETATM   22  N5  UNL     1       0.219  18.274  20.359  1.00  0.00    -0.234 N 
ATOM     23  H52 UNL     1      -0.477  18.602  21.029  1.00  0.00     0.174 HD
ATOM     24  H51 UNL     1       0.007  18.394  19.369  1.00  0.00     0.174 HD
ENDBRANCH  18  22
ENDBRANCH   1  14
TORSDOF 9
ENDMDL
MODEL 4
REMARK VINA RESULT: -6.326078280      6.631     11.522
REMARK  9 active torsions:
REMARK  status: ('A' for Active; 'I' for Inactive)
REMARK    1  A    between atoms: N1_2  and  C2_3 
REMARK    2  A    between atoms: N1_2  and  C4_9 
REMARK    3  A    between atoms: C2_3  and  C3_4 
REMARK    4  A    between atoms: C3_4  and  N2_5 
REMARK    5  A    between atoms: C4_9  and  C5_10 
REMARK    6  A    between atoms: C5_10  and  C6_11 
REMARK    7  A    between atoms: C6_11  and  N3_12 
REMARK    8  A    between atoms: N3_12  and  C7_14 
REMARK    9  A    between atoms: C10_19  and  N5_20 
ROOT
HETATM    1  N3  UNL     1       4.240  16.319  19.282  1.00  0.00    -0.376 N 
ATOM      2  H3  UNL     1       4.353  16.974  18.508  1.00  0.00     0.161 HD
ENDROOT
BRANCH   1   3
HETATM    3  C6  UNL     1       5.020  15.115  19.289  1.00  0.00     0.123 C 
BRANCH   3   4
HETATM    4  C5  UNL     1       4.785  14.455  17.917  1.00  0.00     0.050 C 
BRANCH   4   5
HETATM    5  C4  UNL     1       4.351  13.037  18.269  1.00  0.00     0.273 C 
BRANCH   5   6
HETATM    6  N1  UNL     1       3.644  12.366  17.233  1.00  0.00     0.085 N 
HETATM    7  C1  UNL     1       3.956  10.957  17.140  1.00  0.00     0.309 C 
BRANCH   6   8
HETATM    8  C2  UNL     1       3.908  13.062  15.986  1.00  0.00     0.299 C 
BRANCH   8   9
HETATM    9  C3  UNL     1       4.633  12.176  14.995  1.00  0.00     0.259 C 
BRANCH   9  10
HETATM   10  N2  UNL     1       5.963  12.702  14.787  1.00  0.00    -0.078 N 
ATOM     11  H23 UNL     1       5.958  13.585  14.277  1.00  0.00     0.274 HD
ATOM     12  H22 UNL     1       6.388  13.040  15.651  1.00  0.00     0.274 HD
ATOM     13  H21 UNL     1       6.530  11.990  14.327  1.00  0.00     0.274 HD
ENDBRANCH   9  10
ENDBRANCH   8   9
ENDBRANCH   6   8
ENDBRANCH   5   6
ENDBRANCH   4   5
ENDBRANCH   3   4
ENDBRANCH   1   3
BRANCH   1  14
HETATM   14  C7  UNL     1       3.411  16.600  20.205  1.00  0.00     0.118 A 
HETATM   15  C8  UNL     1       3.592  16.364  21.541  1.00  0.00     0.066 A 
HETATM   16  C9  UNL     1       2.600  16.730  22.450  1.00  0.00     0.110 A 
HETATM   17  N4  UNL     1       1.506  17.302  21.967  1.00  0.00    -0.202 N 
HETATM   18  C10 UNL     1       1.295  17.549  20.662  1.00  0.00     0.677 A 
ATOM     19  H4  UNL     1       0.777  17.572  22.628  1.00  0.00     0.183 HD
HETATM   20  N6  UNL     1       2.259  17.190  19.804  1.00  0.00    -0.177 N 
ATOM     21  H6  UNL     1       2.121  17.368  18.809  1.00  0.00     0.185 HD
BRANCH  18  22
HETATM   22  N5  UNL     1       0.208  18.112  20.234  1.00  0.00    -0.234 N 
ATOM     23  H52 UNL     1      -0.430  18.569  20.885  1.00  0.00     0.174 HD
ATOM     24  H51 UNL     1      -0.047  18.119  19.247  1.00  0.00     0.174 HD
ENDBRANCH  18  22
ENDBRANCH   1  14
TORSDOF 9
ENDMDL
MODEL 5
REMARK VINA RESULT: -6.305706761      6.775     10.074
REMARK  9 active torsions:
REMARK  status: ('A' for Active; 'I' for Inactive)
REMARK    1  A    between atoms: N1_2  and  C2_3 
REMARK    2  A    between atoms: N1_2  and  C4_9 
REMARK    3  A    between atoms: C2_3  and  C3_4 
REMARK    4  A    between atoms: C3_4  and  N2_5 
REMARK    5  A    between atoms: C4_9  and  C5_10 
REMARK    6  A    between atoms: C5_10  and  C6_11 
REMARK    7  A    between atoms: C6_11  and  N3_12 
REMARK    8  A    between atoms: N3_12  and  C7_14 
REMARK    9  A    between atoms: C10_19  and  N5_20 
ROOT
HETATM    1  N3  UNL     1       3.922  13.405  19.229  1.00  0.00    -0.376 N 
ATOM      2  H3  UNL     1       2.995  13.190  19.597  1.00  0.00     0.161 HD
ENDROOT
BRANCH   1   3
HETATM    3  C6  UNL     1       4.782  14.274  19.981  1.00  0.00     0.123 C 
BRANCH   3   4
HETATM    4  C5  UNL     1       4.099  14.456  21.350  1.00  0.00     0.050 C 
BRANCH   4   5
HETATM    5  C4  UNL     1       3.123  15.602  21.116  1.00  0.00     0.273 C 
BRANCH   5   6
HETATM    6  N1  UNL     1       3.606  16.877  21.524  1.00  0.00     0.085 N 
HETATM    7  C1  UNL     1       3.897  16.958  22.937  1.00  0.00     0.309 C 
BRANCH   6   8
HETATM    8  C2  UNL     1       2.636  17.876  21.112  1.00  0.00     0.299 C 
BRANCH   8   9
HETATM    9  C3  UNL     1       1.334  17.242  20.671  1.00  0.00     0.259 C 
BRANCH   9  10
HETATM   10  N2  UNL     1       0.370  18.287  20.414  1.00  0.00    -0.078 N 
ATOM     11  H23 UNL     1      -0.482  17.933  19.979  1.00  0.00     0.274 HD
ATOM     12  H22 UNL     1      -0.048  18.651  21.270  1.00  0.00     0.274 HD
ATOM     13  H21 UNL     1       0.817  19.017  19.857  1.00  0.00     0.274 HD
ENDBRANCH   9  10
ENDBRANCH   8   9
ENDBRANCH   6   8
ENDBRANCH   5   6
ENDBRANCH   4   5
ENDBRANCH   3   4
ENDBRANCH   1   3
BRANCH   1  14
HETATM   14  C7  UNL     1       4.274  12.892  18.119  1.00  0.00     0.118 A 
HETATM   15  C8  UNL     1       5.511  12.384  17.829  1.00  0.00     0.066 A 
HETATM   16  C9  UNL     1       5.760  11.844  16.569  1.00  0.00     0.110 A 
HETATM   17  N4  UNL     1       4.765  11.846  15.692  1.00  0.00    -0.202 N 
HETATM   18  C10 UNL     1       3.538  12.337  15.942  1.00  0.00     0.677 A 
ATOM     19  H4  UNL     1       4.942  11.451  14.768  1.00  0.00     0.183 HD
HETATM   20  N6  UNL     1       3.319  12.852  17.159  1.00  0.00    -0.177 N 
ATOM     21  H6  UNL     1       2.395  13.229  17.371  1.00  0.00     0.185 HD
BRANCH  18  22
HETATM   22  N5  UNL     1       2.594  12.318  15.054  1.00  0.00    -0.234 N 
ATOM     23  H52 UNL     1       2.056  11.469  14.886  1.00  0.00     0.174 HD
ATOM     24  H51 UNL     1       2.359  13.139  14.495  1.00  0.00     0.174 HD
ENDBRANCH  18  22
ENDBRANCH   1  14
TORSDOF 9
ENDMDL
