MODEL 1
REMARK VINA RESULT: -9.200487697      0.000      0.000
REMARK  10 active torsions:
REMARK  status: ('A' for Active; 'I' for Inactive)
REMARK    1  A    between atoms: O1_2  and  C2_3 
REMARK    2  A    between atoms: C2_3  and  C3_5 
REMARK    3  A    between atoms: C6_17  and  C7_18 
REMARK    4  A    between atoms: C7_18  and  O3_19 
REMARK    5  A    between atoms: O3_19  and  C8_20 
REMARK    6  A    between atoms: C8_20  and  C9_22 
REMARK    7  A    between atoms: C9_22  and  N5_23 
REMARK    8  A    between atoms: C9_22  and  C12_38 
REMARK       I    between atoms: N5_23  and  C10_25 
REMARK       I    between atoms: C10_25  and  N6_27 
REMARK       I    between atoms: N6_27  and  C11_29 
REMARK    9  A    between atoms: N8_31  and  N9_33 
REMARK   10  A    between atoms: N9_33  and  N10_35 
ROOT
HETATM    1  C8  UNL     1       4.703  16.201  24.814  1.00  0.00     0.282 C 
HETATM    2  O4  UNL     1       4.702  15.334  25.707  1.00  0.00    -0.263 OA
ENDROOT
BRANCH   1   3
HETATM    3  O3  UNL     1       4.656  15.866  23.492  1.00  0.00    -0.314 OA
BRANCH   3   4
HETATM    4  C7  UNL     1       3.532  15.403  22.782  1.00  0.00     0.238 C 
BRANCH   4   5
HETATM    5  C6  UNL     1       3.768  15.461  21.320  1.00  0.00     0.068 A 
HETATM    6  C3  UNL     1       3.482  16.648  20.653  1.00  0.00     0.135 A 
HETATM    7  N1  UNL     1       3.730  16.655  19.343  1.00  0.00    -0.332 N 
HETATM    8  C4  UNL     1       4.236  15.587  18.641  1.00  0.00     0.159 A 
ATOM      9  H1  UNL     1       3.531  17.511  18.827  1.00  0.00     0.168 HD
HETATM   10  N2  UNL     1       4.490  15.580  17.316  1.00  0.00    -0.295 N 
HETATM   11  C5  UNL     1       4.506  14.444  19.307  1.00  0.00     0.158 A 
HETATM   12  S1  UNL     1       5.079  14.047  17.027  1.00  0.00     0.070 SA
ATOM     13  H2  UNL     1       4.354  16.337  16.646  1.00  0.00     0.177 HD
HETATM   14  N3  UNL     1       4.999  13.428  18.573  1.00  0.00    -0.295 N 
ATOM     15  H3  UNL     1       5.263  12.496  18.890  1.00  0.00     0.177 HD
HETATM   16  N4  UNL     1       4.260  14.410  20.660  1.00  0.00    -0.338 N 
ATOM     17  H4  UNL     1       4.459  13.554  21.177  1.00  0.00     0.167 HD
BRANCH   6  18
HETATM   18  C2  UNL     1       2.947  17.822  21.336  1.00  0.00     0.311 C 
HETATM   19  O2  UNL     1       3.565  18.878  21.562  1.00  0.00    -0.258 OA
BRANCH  18  20
HETATM   20  O1  UNL     1       1.628  17.771  21.781  1.00  0.00    -0.321 OA
HETATM   21  C1  UNL     1       0.516  17.795  20.911  1.00  0.00     0.213 C 
ENDBRANCH  18  20
ENDBRANCH   6  18
ENDBRANCH   4   5
ENDBRANCH   3   4
ENDBRANCH   1   3
BRANCH   1  22
HETATM   22  C9  UNL     1       4.758  17.656  25.180  1.00  0.00     0.189 C 
BRANCH  22  23
HETATM   23  N5  UNL     1       3.838  18.390  24.344  1.00  0.00    -0.329 N 
HETATM   24  C10 UNL     1       2.878  19.248  24.921  1.00  0.00     0.323 C 
HETATM   25  O5  UNL     1       2.810  19.386  26.166  1.00  0.00    -0.247 OA
HETATM   26  N6  UNL     1       1.964  19.980  24.117  1.00  0.00    -0.282 N 
HETATM   27  C11 UNL     1       0.988  20.851  24.664  1.00  0.00     0.212 C 
ATOM     28  H6  UNL     1       2.012  19.874  23.104  1.00  0.00     0.173 HD
HETATM   29  N7  UNL     1       0.880  21.033  26.074  1.00  0.00    -0.062 NA
HETATM   30  N8  UNL     1       0.175  21.498  23.917  1.00  0.00    -0.259 N 
ATOM     31  H8  UNL     1      -0.516  22.117  24.340  1.00  0.00     0.191 HD
ATOM     32  H5  UNL     1       3.882  18.287  23.330  1.00  0.00     0.165 HD
BRANCH  30  33
HETATM   33  N9  UNL     1       0.225  21.364  22.515  1.00  0.00    -0.247 N 
ATOM     34  H9  UNL     1       0.965  20.802  22.094  1.00  0.00     0.207 HD
BRANCH  33  35
HETATM   35  N10 UNL     1      -0.721  21.988  21.686  1.00  0.00    -0.331 N 
ATOM     36 2H10 UNL     1      -1.144  22.859  22.007  1.00  0.00     0.178 HD
ATOM     37 1H10 UNL     1      -0.984  21.588  20.786  1.00  0.00     0.178 HD
ENDBRANCH  33  35
ENDBRANCH  30  33
ENDBRANCH  22  23
BRANCH  22  38
HETATM   38  C12 UNL     1       6.166  18.180  25.039  1.00  0.00     0.010 C 
HETATM   39  C13 UNL     1       7.160  17.432  25.887  1.00  0.00     0.012 C 
HETATM   40  C14 UNL     1       6.219  19.633  25.410  1.00  0.00     0.012 C 
ENDBRANCH  22  38
ENDBRANCH   1  22
TORSDOF 10
ENDMDL
MODEL 2
REMARK VINA RESULT: -8.571229696      1.628      2.093
REMARK  10 active torsions:
REMARK  status: ('A' for Active; 'I' for Inactive)
REMARK    1  A    between atoms: O1_2  and  C2_3 
REMARK    2  A    between atoms: C2_3  and  C3_5 
REMARK    3  A    between atoms: C6_17  and  C7_18 
REMARK    4  A    between atoms: C7_18  and  O3_19 
REMARK    5  A    between atoms: O3_19  and  C8_20 
REMARK    6  A    between atoms: C8_20  and  C9_22 
REMARK    7  A    between atoms: C9_22  and  N5_23 
REMARK    8  A    between atoms: C9_22  and  C12_38 
REMARK       I    between atoms: N5_23  and  C10_25 
REMARK       I    between atoms: C10_25  and  N6_27 
REMARK       I    between atoms: N6_27  and  C11_29 
REMARK    9  A    between atoms: N8_31  and  N9_33 
REMARK   10  A    between atoms: N9_33  and  N10_35 
ROOT
HETATM    1  C8  UNL     1       5.001  16.491  25.399  1.00  0.00     0.282 C 
HETATM    2  O4  UNL     1       4.942  15.882  26.483  1.00  0.00    -0.263 OA
ENDROOT
BRANCH   1   3
HETATM    3  O3  UNL     1       5.055  15.826  24.208  1.00  0.00    -0.314 OA
BRANCH   3   4
HETATM    4  C7  UNL     1       4.026  15.064  23.624  1.00  0.00     0.238 C 
BRANCH   4   5
HETATM    5  C6  UNL     1       3.630  15.627  22.311  1.00  0.00     0.068 A 
HETATM    6  C3  UNL     1       2.318  16.063  22.150  1.00  0.00     0.135 A 
HETATM    7  N1  UNL     1       2.018  16.578  20.958  1.00  0.00    -0.332 N 
HETATM    8  C4  UNL     1       2.905  16.697  19.915  1.00  0.00     0.159 A 
ATOM      9  H1  UNL     1       1.064  16.907  20.809  1.00  0.00     0.168 HD
HETATM   10  N2  UNL     1       2.614  17.216  18.704  1.00  0.00    -0.295 N 
HETATM   11  C5  UNL     1       4.173  16.267  20.092  1.00  0.00     0.158 A 
HETATM   12  S1  UNL     1       4.049  17.104  17.862  1.00  0.00     0.070 SA
ATOM     13  H2  UNL     1       1.723  17.589  18.378  1.00  0.00     0.177 HD
HETATM   14  N3  UNL     1       5.002  16.406  19.039  1.00  0.00    -0.295 N 
ATOM     15  H3  UNL     1       5.985  16.145  18.977  1.00  0.00     0.177 HD
HETATM   16  N4  UNL     1       4.510  15.731  21.314  1.00  0.00    -0.338 N 
ATOM     17  H4  UNL     1       5.464  15.402  21.462  1.00  0.00     0.167 HD
BRANCH   6  18
HETATM   18  C2  UNL     1       1.324  15.970  23.215  1.00  0.00     0.311 C 
HETATM   19  O2  UNL     1       0.472  15.072  23.340  1.00  0.00    -0.258 OA
BRANCH  18  20
HETATM   20  O1  UNL     1       1.315  16.970  24.185  1.00  0.00    -0.321 OA
HETATM   21  C1  UNL     1       0.903  16.750  25.518  1.00  0.00     0.213 C 
ENDBRANCH  18  20
ENDBRANCH   6  18
ENDBRANCH   4   5
ENDBRANCH   3   4
ENDBRANCH   1   3
BRANCH   1  22
HETATM   22  C9  UNL     1       5.014  17.992  25.381  1.00  0.00     0.189 C 
BRANCH  22  23
HETATM   23  N5  UNL     1       4.122  18.461  24.347  1.00  0.00    -0.329 N 
HETATM   24  C10 UNL     1       3.054  19.326  24.664  1.00  0.00     0.323 C 
HETATM   25  O5  UNL     1       2.863  19.700  25.847  1.00  0.00    -0.247 OA
HETATM   26  N6  UNL     1       2.165  19.799  23.664  1.00  0.00    -0.282 N 
HETATM   27  C11 UNL     1       1.081  20.669  23.948  1.00  0.00     0.212 C 
ATOM     28  H6  UNL     1       2.312  19.501  22.700  1.00  0.00     0.173 HD
HETATM   29  N7  UNL     1       0.833  21.115  25.279  1.00  0.00    -0.062 NA
HETATM   30  N8  UNL     1       0.294  21.081  23.027  1.00  0.00    -0.259 N 
ATOM     31  H8  UNL     1      -0.476  21.706  23.264  1.00  0.00     0.191 HD
ATOM     32  H5  UNL     1       4.265  18.165  23.381  1.00  0.00     0.165 HD
BRANCH  30  33
HETATM   33  N9  UNL     1       0.481  20.679  21.690  1.00  0.00    -0.247 N 
ATOM     34  H9  UNL     1       0.866  21.344  21.018  1.00  0.00     0.207 HD
BRANCH  33  35
HETATM   35  N10 UNL     1       0.147  19.385  21.261  1.00  0.00    -0.331 N 
ATOM     36 2H10 UNL     1       0.669  18.984  20.481  1.00  0.00     0.178 HD
ATOM     37 1H10 UNL     1      -0.595  18.850  21.712  1.00  0.00     0.178 HD
ENDBRANCH  33  35
ENDBRANCH  30  33
ENDBRANCH  22  23
BRANCH  22  38
HETATM   38  C12 UNL     1       6.418  18.502  25.167  1.00  0.00     0.010 C 
HETATM   39  C13 UNL     1       7.471  17.576  25.716  1.00  0.00     0.012 C 
HETATM   40  C14 UNL     1       6.585  19.849  25.807  1.00  0.00     0.012 C 
ENDBRANCH  22  38
ENDBRANCH   1  22
TORSDOF 10
ENDMDL
MODEL 3
REMARK VINA RESULT: -8.519862502      4.402      8.423
REMARK  10 active torsions:
REMARK  status: ('A' for Active; 'I' for Inactive)
REMARK    1  A    between atoms: O1_2  and  C2_3 
REMARK    2  A    between atoms: C2_3  and  C3_5 
REMARK    3  A    between atoms: C6_17  and  C7_18 
REMARK    4  A    between atoms: C7_18  and  O3_19 
REMARK    5  A    between atoms: O3_19  and  C8_20 
REMARK    6  A    between atoms: C8_20  and  C9_22 
REMARK    7  A    between atoms: C9_22  and  N5_23 
REMARK    8  A    between atoms: C9_22  and  C12_38 
REMARK       I    between atoms: N5_23  and  C10_25 
REMARK       I    between atoms: C10_25  and  N6_27 
REMARK       I    between atoms: N6_27  and  C11_29 
REMARK    9  A    between atoms: N8_31  and  N9_33 
REMARK   10  A    between atoms: N9_33  and  N10_35 
ROOT
HETATM    1  C8  UNL     1       4.945  18.104  25.518  1.00  0.00     0.282 C 
HETATM    2  O4  UNL     1       5.019  19.339  25.385  1.00  0.00    -0.263 OA
ENDROOT
BRANCH   1   3
HETATM    3  O3  UNL     1       5.942  17.387  26.112  1.00  0.00    -0.314 OA
BRANCH   3   4
HETATM    4  C7  UNL     1       7.265  17.248  25.654  1.00  0.00     0.238 C 
BRANCH   4   5
HETATM    5  C6  UNL     1       8.196  18.066  26.467  1.00  0.00     0.068 A 
HETATM    6  C3  UNL     1       9.510  17.629  26.601  1.00  0.00     0.135 A 
HETATM    7  N1  UNL     1      10.313  18.410  27.326  1.00  0.00    -0.332 N 
HETATM    8  C4  UNL     1       9.922  19.582  27.927  1.00  0.00     0.159 A 
ATOM      9  H1  UNL     1      11.282  18.116  27.442  1.00  0.00     0.168 HD
HETATM   10  N2  UNL     1      10.724  20.381  28.663  1.00  0.00    -0.295 N 
HETATM   11  C5  UNL     1       8.643  19.988  27.785  1.00  0.00     0.158 A 
HETATM   12  S1  UNL     1       9.726  21.634  29.128  1.00  0.00     0.070 SA
ATOM     13  H2  UNL     1      11.710  20.248  28.884  1.00  0.00     0.177 HD
HETATM   14  N3  UNL     1       8.312  21.143  28.394  1.00  0.00    -0.295 N 
ATOM     15  H3  UNL     1       7.406  21.610  28.403  1.00  0.00     0.177 HD
HETATM   16  N4  UNL     1       7.793  19.201  27.041  1.00  0.00    -0.338 N 
ATOM     17  H4  UNL     1       6.824  19.494  26.925  1.00  0.00     0.167 HD
BRANCH   6  18
HETATM   18  C2  UNL     1       9.994  16.396  25.987  1.00  0.00     0.311 C 
HETATM   19  O2  UNL     1      10.567  16.306  24.887  1.00  0.00    -0.258 OA
BRANCH  18  20
HETATM   20  O1  UNL     1       9.803  15.204  26.682  1.00  0.00    -0.321 OA
HETATM   21  C1  UNL     1      10.547  14.849  27.829  1.00  0.00     0.213 C 
ENDBRANCH  18  20
ENDBRANCH   6  18
ENDBRANCH   4   5
ENDBRANCH   3   4
ENDBRANCH   1   3
BRANCH   1  22
HETATM   22  C9  UNL     1       3.736  17.367  25.017  1.00  0.00     0.189 C 
BRANCH  22  23
HETATM   23  N5  UNL     1       3.810  17.257  23.579  1.00  0.00    -0.329 N 
HETATM   24  C10 UNL     1       3.994  15.999  22.969  1.00  0.00     0.323 C 
HETATM   25  O5  UNL     1       4.095  14.959  23.664  1.00  0.00    -0.247 OA
HETATM   26  N6  UNL     1       4.069  15.867  21.557  1.00  0.00    -0.282 N 
HETATM   27  C11 UNL     1       4.253  14.619  20.910  1.00  0.00     0.212 C 
ATOM     28  H6  UNL     1       3.987  16.707  20.984  1.00  0.00     0.173 HD
HETATM   29  N7  UNL     1       4.372  13.416  21.667  1.00  0.00    -0.062 NA
HETATM   30  N8  UNL     1       4.318  14.528  19.636  1.00  0.00    -0.259 N 
ATOM     31  H8  UNL     1       4.450  13.615  19.201  1.00  0.00     0.191 HD
ATOM     32  H5  UNL     1       3.729  18.094  23.002  1.00  0.00     0.165 HD
BRANCH  30  33
HETATM   33  N9  UNL     1       4.208  15.677  18.828  1.00  0.00    -0.247 N 
ATOM     34  H9  UNL     1       3.579  16.428  19.110  1.00  0.00     0.207 HD
BRANCH  33  35
HETATM   35  N10 UNL     1       4.946  15.809  17.641  1.00  0.00    -0.331 N 
ATOM     36 2H10 UNL     1       5.515  15.020  17.334  1.00  0.00     0.178 HD
ATOM     37 1H10 UNL     1       4.922  16.669  17.092  1.00  0.00     0.178 HD
ENDBRANCH  33  35
ENDBRANCH  30  33
ENDBRANCH  22  23
BRANCH  22  38
HETATM   38  C12 UNL     1       2.474  18.074  25.450  1.00  0.00     0.010 C 
HETATM   39  C13 UNL     1       1.526  17.179  26.202  1.00  0.00     0.012 C 
HETATM   40  C14 UNL     1       1.757  18.633  24.256  1.00  0.00     0.012 C 
ENDBRANCH  22  38
ENDBRANCH   1  22
TORSDOF 10
ENDMDL
MODEL 4
REMARK VINA RESULT: -8.511047029      4.422      8.237
REMARK  10 active torsions:
REMARK  status: ('A' for Active; 'I' for Inactive)
REMARK    1  A    between atoms: O1_2  and  C2_3 
REMARK    2  A    between atoms: C2_3  and  C3_5 
REMARK    3  A    between atoms: C6_17  and  C7_18 
REMARK    4  A    between atoms: C7_18  and  O3_19 
REMARK    5  A    between atoms: O3_19  and  C8_20 
REMARK    6  A    between atoms: C8_20  and  C9_22 
REMARK    7  A    between atoms: C9_22  and  N5_23 
REMARK    8  A    between atoms: C9_22  and  C12_38 
REMARK       I    between atoms: N5_23  and  C10_25 
REMARK       I    between atoms: C10_25  and  N6_27 
REMARK       I    between atoms: N6_27  and  C11_29 
REMARK    9  A    between atoms: N8_31  and  N9_33 
REMARK   10  A    between atoms: N9_33  and  N10_35 
ROOT
HETATM    1  C8  UNL     1       5.612  17.191  25.415  1.00  0.00     0.282 C 
HETATM    2  O4  UNL     1       6.515  16.402  25.081  1.00  0.00    -0.263 OA
ENDROOT
BRANCH   1   3
HETATM    3  O3  UNL     1       5.866  18.275  26.204  1.00  0.00    -0.314 OA
BRANCH   3   4
HETATM    4  C7  UNL     1       7.041  19.050  26.214  1.00  0.00     0.238 C 
BRANCH   4   5
HETATM    5  C6  UNL     1       8.041  18.483  27.150  1.00  0.00     0.068 A 
HETATM    6  C3  UNL     1       8.580  19.318  28.123  1.00  0.00     0.135 A 
HETATM    7  N1  UNL     1       9.460  18.755  28.952  1.00  0.00    -0.332 N 
HETATM    8  C4  UNL     1       9.849  17.438  28.897  1.00  0.00     0.159 A 
ATOM      9  H1  UNL     1       9.873  19.343  29.676  1.00  0.00     0.168 HD
HETATM   10  N2  UNL     1      10.738  16.857  29.729  1.00  0.00    -0.295 N 
HETATM   11  C5  UNL     1       9.314  16.645  27.945  1.00  0.00     0.158 A 
HETATM   12  S1  UNL     1      10.814  15.278  29.197  1.00  0.00     0.070 SA
ATOM     13  H2  UNL     1      11.246  17.284  30.503  1.00  0.00     0.177 HD
HETATM   14  N3  UNL     1       9.728  15.363  27.934  1.00  0.00    -0.295 N 
ATOM     15  H3  UNL     1       9.444  14.617  27.301  1.00  0.00     0.177 HD
HETATM   16  N4  UNL     1       8.402  17.200  27.076  1.00  0.00    -0.338 N 
ATOM     17  H4  UNL     1       7.990  16.613  26.352  1.00  0.00     0.167 HD
BRANCH   6  18
HETATM   18  C2  UNL     1       8.211  20.726  28.241  1.00  0.00     0.311 C 
HETATM   19  O2  UNL     1       8.816  21.683  27.727  1.00  0.00    -0.258 OA
BRANCH  18  20
HETATM   20  O1  UNL     1       7.083  21.041  28.996  1.00  0.00    -0.321 OA
HETATM   21  C1  UNL     1       6.417  22.283  28.908  1.00  0.00     0.213 C 
ENDBRANCH  18  20
ENDBRANCH   6  18
ENDBRANCH   4   5
ENDBRANCH   3   4
ENDBRANCH   1   3
BRANCH   1  22
HETATM   22  C9  UNL     1       4.203  16.960  24.949  1.00  0.00     0.189 C 
BRANCH  22  23
HETATM   23  N5  UNL     1       4.180  16.935  23.506  1.00  0.00    -0.329 N 
HETATM   24  C10 UNL     1       4.141  15.706  22.815  1.00  0.00     0.323 C 
HETATM   25  O5  UNL     1       4.125  14.619  23.443  1.00  0.00    -0.247 OA
HETATM   26  N6  UNL     1       4.117  15.657  21.396  1.00  0.00    -0.282 N 
HETATM   27  C11 UNL     1       4.077  14.440  20.670  1.00  0.00     0.212 C 
ATOM     28  H6  UNL     1       4.128  16.535  20.878  1.00  0.00     0.173 HD
HETATM   29  N7  UNL     1       4.059  13.186  21.348  1.00  0.00    -0.062 NA
HETATM   30  N8  UNL     1       4.056  14.424  19.391  1.00  0.00    -0.259 N 
ATOM     31  H8  UNL     1       4.027  13.532  18.897  1.00  0.00     0.191 HD
ATOM     32  H5  UNL     1       4.192  17.810  22.983  1.00  0.00     0.165 HD
BRANCH  30  33
HETATM   33  N9  UNL     1       4.073  15.626  18.657  1.00  0.00    -0.247 N 
ATOM     34  H9  UNL     1       3.437  16.380  18.919  1.00  0.00     0.207 HD
BRANCH  33  35
HETATM   35  N10 UNL     1       4.946  15.810  17.573  1.00  0.00    -0.331 N 
ATOM     36 2H10 UNL     1       5.700  15.135  17.440  1.00  0.00     0.178 HD
ATOM     37 1H10 UNL     1       4.838  16.594  16.930  1.00  0.00     0.178 HD
ENDBRANCH  33  35
ENDBRANCH  30  33
ENDBRANCH  22  23
BRANCH  22  38
HETATM   38  C12 UNL     1       3.289  18.030  25.495  1.00  0.00     0.010 C 
HETATM   39  C13 UNL     1       2.009  17.477  26.063  1.00  0.00     0.012 C 
HETATM   40  C14 UNL     1       2.947  19.018  24.419  1.00  0.00     0.012 C 
ENDBRANCH  22  38
ENDBRANCH   1  22
TORSDOF 10
ENDMDL
MODEL 5
REMARK VINA RESULT: -8.427274720      8.478     11.785
REMARK  10 active torsions:
REMARK  status: ('A' for Active; 'I' for Inactive)
REMARK    1  A    between atoms: O1_2  and  C2_3 
REMARK    2  A    between atoms: C2_3  and  C3_5 
REMARK    3  A    between atoms: C6_17  and  C7_18 
REMARK    4  A    between atoms: C7_18  and  O3_19 
REMARK    5  A    between atoms: O3_19  and  C8_20 
REMARK    6  A    between atoms: C8_20  and  C9_22 
REMARK    7  A    between atoms: C9_22  and  N5_23 
REMARK    8  A    between atoms: C9_22  and  C12_38 
REMARK       I    between atoms: N5_23  and  C10_25 
REMARK       I    between atoms: C10_25  and  N6_27 
REMARK       I    between atoms: N6_27  and  C11_29 
REMARK    9  A    between atoms: N8_31  and  N9_33 
REMARK   10  A    between atoms: N9_33  and  N10_35 
ROOT
HETATM    1  C8  UNL     1      10.246  15.607  28.448  1.00  0.00     0.282 C 
HETATM    2  O4  UNL     1       9.173  15.096  28.816  1.00  0.00    -0.263 OA
ENDROOT
BRANCH   1   3
HETATM    3  O3  UNL     1      11.419  15.356  29.098  1.00  0.00    -0.314 OA
BRANCH   3   4
HETATM    4  C7  UNL     1      11.621  15.348  30.491  1.00  0.00     0.238 C 
BRANCH   4   5
HETATM    5  C6  UNL     1      12.009  16.693  30.978  1.00  0.00     0.068 A 
HETATM    6  C3  UNL     1      12.316  16.842  32.326  1.00  0.00     0.135 A 
HETATM    7  N1  UNL     1      12.678  18.067  32.710  1.00  0.00    -0.332 N 
HETATM    8  C4  UNL     1      12.760  19.152  31.871  1.00  0.00     0.159 A 
ATOM      9  H1  UNL     1      12.909  18.207  33.693  1.00  0.00     0.168 HD
HETATM   10  N2  UNL     1      13.124  20.397  32.246  1.00  0.00    -0.295 N 
HETATM   11  C5  UNL     1      12.457  18.987  30.566  1.00  0.00     0.158 A 
HETATM   12  S1  UNL     1      13.043  21.282  30.835  1.00  0.00     0.070 SA
ATOM     13  H2  UNL     1      13.386  20.721  33.177  1.00  0.00     0.177 HD
HETATM   14  N3  UNL     1      12.553  20.081  29.788  1.00  0.00    -0.295 N 
ATOM     15  H3  UNL     1      12.369  20.158  28.788  1.00  0.00     0.177 HD
HETATM   16  N4  UNL     1      12.081  17.732  30.143  1.00  0.00    -0.338 N 
ATOM     17  H4  UNL     1      11.850  17.592  29.160  1.00  0.00     0.167 HD
BRANCH   6  18
HETATM   18  C2  UNL     1      12.254  15.732  33.273  1.00  0.00     0.311 C 
HETATM   19  O2  UNL     1      13.193  14.970  33.564  1.00  0.00    -0.258 OA
BRANCH  18  20
HETATM   20  O1  UNL     1      11.041  15.490  33.913  1.00  0.00    -0.321 OA
HETATM   21  C1  UNL     1      10.182  16.520  34.358  1.00  0.00     0.213 C 
ENDBRANCH  18  20
ENDBRANCH   6  18
ENDBRANCH   4   5
ENDBRANCH   3   4
ENDBRANCH   1   3
BRANCH   1  22
HETATM   22  C9  UNL     1      10.270  16.527  27.261  1.00  0.00     0.189 C 
BRANCH  22  23
HETATM   23  N5  UNL     1       9.303  17.580  27.458  1.00  0.00    -0.329 N 
HETATM   24  C10 UNL     1       9.726  18.916  27.618  1.00  0.00     0.323 C 
HETATM   25  O5  UNL     1      10.946  19.208  27.592  1.00  0.00    -0.247 OA
HETATM   26  N6  UNL     1       8.793  19.968  27.813  1.00  0.00    -0.282 N 
HETATM   27  C11 UNL     1       9.183  21.322  27.977  1.00  0.00     0.212 C 
ATOM     28  H6  UNL     1       7.799  19.740  27.835  1.00  0.00     0.173 HD
HETATM   29  N7  UNL     1      10.560  21.691  27.953  1.00  0.00    -0.062 NA
HETATM   30  N8  UNL     1       8.321  22.250  28.152  1.00  0.00    -0.259 N 
ATOM     31  H8  UNL     1       8.633  23.214  28.266  1.00  0.00     0.191 HD
ATOM     32  H5  UNL     1       8.308  17.357  27.481  1.00  0.00     0.165 HD
BRANCH  30  33
HETATM   33  N9  UNL     1       6.944  21.955  28.187  1.00  0.00    -0.247 N 
ATOM     34  H9  UNL     1       6.612  21.075  27.792  1.00  0.00     0.207 HD
BRANCH  33  35
HETATM   35  N10 UNL     1       6.019  22.846  28.753  1.00  0.00    -0.331 N 
ATOM     36 2H10 UNL     1       6.369  23.716  29.154  1.00  0.00     0.178 HD
ATOM     37 1H10 UNL     1       5.020  22.638  28.768  1.00  0.00     0.178 HD
ENDBRANCH  33  35
ENDBRANCH  30  33
ENDBRANCH  22  23
BRANCH  22  38
HETATM   38  C12 UNL     1       9.991  15.755  25.993  1.00  0.00     0.010 C 
HETATM   39  C13 UNL     1      10.841  14.520  25.857  1.00  0.00     0.012 C 
HETATM   40  C14 UNL     1      10.220  16.627  24.794  1.00  0.00     0.012 C 
ENDBRANCH  22  38
ENDBRANCH   1  22
TORSDOF 10
ENDMDL
