MODEL 1
REMARK VINA RESULT: -9.388006034      0.000      0.000
REMARK  9 active torsions:
REMARK  status: ('A' for Active; 'I' for Inactive)
REMARK    1  A    between atoms: N1_1  and  C1_4 
REMARK    2  A    between atoms: C2_9  and  S1_10 
REMARK    3  A    between atoms: S1_10  and  S2_11 
REMARK    4  A    between atoms: S2_11  and  N4_12 
REMARK    5  A    between atoms: N5_15  and  S3_16 
REMARK    6  A    between atoms: S3_16  and  O3_19 
REMARK    7  A    between atoms: O3_19  and  N6_20 
REMARK       I    between atoms: N6_20  and  C5_22 
REMARK    8  A    between atoms: N8_24  and  O4_26 
REMARK    9  A    between atoms: C8_31  and  N9_32 
ROOT
HETATM    1  N4  UNL     1       3.575  17.371  24.466  1.00  0.00    -0.247 NA
HETATM    2  C3  UNL     1       2.861  18.119  23.485  1.00  0.00     0.119 C 
HETATM    3  C4  UNL     1       2.742  19.590  23.826  1.00  0.00     0.125 C 
HETATM    4  N5  UNL     1       2.386  19.724  25.204  1.00  0.00    -0.184 NA
HETATM    5  C6  UNL     1       1.912  18.482  25.784  1.00  0.00     0.125 C 
HETATM    6  C7  UNL     1       3.048  17.485  25.782  1.00  0.00     0.119 C 
ENDROOT
BRANCH   1   7
HETATM    7  S2  UNL     1       3.700  15.704  23.912  1.00  0.00    -0.001 SA
BRANCH   7   8
HETATM    8  S1  UNL     1       2.385  15.316  22.290  1.00  0.00    -0.014 SA
BRANCH   8   9
HETATM    9  C2  UNL     1       3.228  15.447  20.722  1.00  0.00     0.140 A 
HETATM   10  N3  UNL     1       3.656  14.403  20.000  1.00  0.00    -0.286 N 
HETATM   11  N2  UNL     1       4.273  14.430  18.857  1.00  0.00    -0.282 N 
ATOM     12  H3  UNL     1       3.477  13.479  20.393  1.00  0.00     0.188 HD
HETATM   13  C1  UNL     1       4.625  15.500  18.136  1.00  0.00     0.147 A 
ATOM     14  H2  UNL     1       4.520  13.523  18.461  1.00  0.00     0.188 HD
HETATM   15  C8  UNL     1       4.373  16.817  18.515  1.00  0.00     0.115 A 
HETATM   16  S4  UNL     1       3.561  16.955  20.008  1.00  0.00    -0.042 SA
BRANCH  13  17
HETATM   17  N1  UNL     1       5.250  15.378  16.988  1.00  0.00    -0.382 N 
ATOM     18  H12 UNL     1       4.673  15.009  16.232  1.00  0.00     0.157 HD
ATOM     19  H11 UNL     1       6.232  15.638  16.887  1.00  0.00     0.157 HD
ENDBRANCH  13  17
BRANCH  15  20
HETATM   20  N9  UNL     1       4.734  17.829  17.780  1.00  0.00    -0.390 N 
ATOM     21  H92 UNL     1       4.322  18.060  16.876  1.00  0.00     0.157 HD
ATOM     22  H91 UNL     1       5.473  18.471  18.069  1.00  0.00     0.157 HD
ENDBRANCH  15  20
ENDBRANCH   8   9
ENDBRANCH   7   8
ENDBRANCH   1   7
BRANCH   4  23
HETATM   23  S3  UNL     1       1.096  20.878  25.421  1.00  0.00     0.360 S 
HETATM   24  O1  UNL     1       1.443  22.136  24.669  1.00  0.00    -0.179 OA
HETATM   25  O2  UNL     1       0.941  21.184  26.876  1.00  0.00    -0.179 OA
BRANCH  23  26
HETATM   26  O3  UNL     1      -0.290  20.148  24.784  1.00  0.00    -0.136 OA
BRANCH  26  27
HETATM   27  N6  UNL     1      -0.358  20.341  23.440  1.00  0.00    -0.218 N 
HETATM   28  C5  UNL     1      -1.371  21.188  22.947  1.00  0.00     0.233 C 
HETATM   29  N7  UNL     1      -2.579  21.332  23.654  1.00  0.00    -0.060 NA
HETATM   30  N8  UNL     1      -1.187  21.824  21.855  1.00  0.00    -0.239 N 
ATOM     31  H8  UNL     1      -0.298  21.692  21.374  1.00  0.00     0.197 HD
ATOM     32  H6  UNL     1       0.302  19.887  22.808  1.00  0.00     0.198 HD
BRANCH  30  33
HETATM   33  O4  UNL     1      -2.091  22.664  21.289  1.00  0.00    -0.287 OA
ATOM     34  H4  UNL     1      -1.868  23.417  20.755  1.00  0.00     0.244 HD
ENDBRANCH  30  33
ENDBRANCH  26  27
ENDBRANCH  23  26
ENDBRANCH   4  23
TORSDOF 9
ENDMDL
MODEL 2
REMARK VINA RESULT: -9.057903559      4.099      6.545
REMARK  9 active torsions:
REMARK  status: ('A' for Active; 'I' for Inactive)
REMARK    1  A    between atoms: N1_1  and  C1_4 
REMARK    2  A    between atoms: C2_9  and  S1_10 
REMARK    3  A    between atoms: S1_10  and  S2_11 
REMARK    4  A    between atoms: S2_11  and  N4_12 
REMARK    5  A    between atoms: N5_15  and  S3_16 
REMARK    6  A    between atoms: S3_16  and  O3_19 
REMARK    7  A    between atoms: O3_19  and  N6_20 
REMARK       I    between atoms: N6_20  and  C5_22 
REMARK    8  A    between atoms: N8_24  and  O4_26 
REMARK    9  A    between atoms: C8_31  and  N9_32 
ROOT
HETATM    1  N4  UNL     1       1.382  19.261  25.060  1.00  0.00    -0.247 NA
HETATM    2  C3  UNL     1       1.308  17.855  24.836  1.00  0.00     0.119 C 
HETATM    3  C4  UNL     1       2.245  17.059  25.720  1.00  0.00     0.125 C 
HETATM    4  N5  UNL     1       3.523  17.697  25.744  1.00  0.00    -0.184 NA
HETATM    5  C6  UNL     1       3.676  18.682  24.691  1.00  0.00     0.125 C 
HETATM    6  C7  UNL     1       2.691  19.802  24.931  1.00  0.00     0.119 C 
ENDROOT
BRANCH   1   7
HETATM    7  S2  UNL     1       0.199  20.053  24.024  1.00  0.00    -0.001 SA
BRANCH   7   8
HETATM    8  S1  UNL     1       0.696  19.851  21.970  1.00  0.00    -0.014 SA
BRANCH   8   9
HETATM    9  C2  UNL     1       1.334  18.223  21.610  1.00  0.00     0.140 A 
HETATM   10  N3  UNL     1       0.577  17.129  21.449  1.00  0.00    -0.286 N 
HETATM   11  N2  UNL     1       0.977  15.921  21.188  1.00  0.00    -0.282 N 
ATOM     12  H3  UNL     1      -0.430  17.259  21.543  1.00  0.00     0.188 HD
HETATM   13  C1  UNL     1       2.231  15.487  21.019  1.00  0.00     0.147 A 
ATOM     14  H2  UNL     1       0.245  15.217  21.100  1.00  0.00     0.188 HD
HETATM   15  C8  UNL     1       3.359  16.301  21.101  1.00  0.00     0.115 A 
HETATM   16  S4  UNL     1       3.002  17.933  21.442  1.00  0.00    -0.042 SA
BRANCH  13  17
HETATM   17  N1  UNL     1       2.491  14.227  20.757  1.00  0.00    -0.382 N 
ATOM     18  H12 UNL     1       1.760  13.578  21.048  1.00  0.00     0.157 HD
ATOM     19  H11 UNL     1       3.358  13.946  20.299  1.00  0.00     0.157 HD
ENDBRANCH  13  17
BRANCH  15  20
HETATM   20  N9  UNL     1       4.562  15.833  20.929  1.00  0.00    -0.390 N 
ATOM     21  H92 UNL     1       4.814  15.138  20.226  1.00  0.00     0.157 HD
ATOM     22  H91 UNL     1       5.348  16.140  21.501  1.00  0.00     0.157 HD
ENDBRANCH  15  20
ENDBRANCH   8   9
ENDBRANCH   7   8
ENDBRANCH   1   7
BRANCH   4  23
HETATM   23  S3  UNL     1       4.816  16.547  25.517  1.00  0.00     0.360 S 
HETATM   24  O1  UNL     1       5.309  16.650  24.097  1.00  0.00    -0.179 OA
HETATM   25  O2  UNL     1       4.306  15.167  25.777  1.00  0.00    -0.179 OA
BRANCH  23  26
HETATM   26  O3  UNL     1       6.024  16.986  26.616  1.00  0.00    -0.136 OA
BRANCH  26  27
HETATM   27  N6  UNL     1       6.985  17.725  26.002  1.00  0.00    -0.218 N 
HETATM   28  C5  UNL     1       8.303  17.227  26.010  1.00  0.00     0.233 C 
HETATM   29  N7  UNL     1       8.739  16.394  27.057  1.00  0.00    -0.060 NA
HETATM   30  N8  UNL     1       9.102  17.535  25.062  1.00  0.00    -0.239 N 
ATOM     31  H8  UNL     1       8.747  18.140  24.322  1.00  0.00     0.197 HD
ATOM     32  H6  UNL     1       6.760  18.611  25.550  1.00  0.00     0.198 HD
BRANCH  30  33
HETATM   33  O4  UNL     1      10.388  17.114  24.968  1.00  0.00    -0.287 OA
ATOM     34  H4  UNL     1      11.090  17.607  24.559  1.00  0.00     0.244 HD
ENDBRANCH  30  33
ENDBRANCH  26  27
ENDBRANCH  23  26
ENDBRANCH   4  23
TORSDOF 9
ENDMDL
MODEL 3
REMARK VINA RESULT: -8.966877634      8.382     11.415
REMARK  9 active torsions:
REMARK  status: ('A' for Active; 'I' for Inactive)
REMARK    1  A    between atoms: N1_1  and  C1_4 
REMARK    2  A    between atoms: C2_9  and  S1_10 
REMARK    3  A    between atoms: S1_10  and  S2_11 
REMARK    4  A    between atoms: S2_11  and  N4_12 
REMARK    5  A    between atoms: N5_15  and  S3_16 
REMARK    6  A    between atoms: S3_16  and  O3_19 
REMARK    7  A    between atoms: O3_19  and  N6_20 
REMARK       I    between atoms: N6_20  and  C5_22 
REMARK    8  A    between atoms: N8_24  and  O4_26 
REMARK    9  A    between atoms: C8_31  and  N9_32 
ROOT
HETATM    1  N4  UNL     1      10.527  18.840  28.593  1.00  0.00    -0.247 NA
HETATM    2  C3  UNL     1       9.659  19.726  27.890  1.00  0.00     0.119 C 
HETATM    3  C4  UNL     1       8.265  19.168  27.696  1.00  0.00     0.125 C 
HETATM    4  N5  UNL     1       8.360  17.805  27.277  1.00  0.00    -0.184 NA
HETATM    5  C6  UNL     1       9.693  17.447  26.832  1.00  0.00     0.125 C 
HETATM    6  C7  UNL     1      10.637  17.548  28.007  1.00  0.00     0.119 C 
ENDROOT
BRANCH   1   7
HETATM    7  S2  UNL     1      12.081  19.637  28.810  1.00  0.00    -0.001 SA
BRANCH   7   8
HETATM    8  S1  UNL     1      12.418  20.161  30.840  1.00  0.00    -0.014 SA
BRANCH   8   9
HETATM    9  C2  UNL     1      11.620  19.014  31.951  1.00  0.00     0.140 A 
HETATM   10  N3  UNL     1      12.260  18.267  32.860  1.00  0.00    -0.286 N 
HETATM   11  N2  UNL     1      11.741  17.417  33.695  1.00  0.00    -0.282 N 
ATOM     12  H3  UNL     1      13.273  18.378  32.903  1.00  0.00     0.188 HD
HETATM   13  C1  UNL     1      10.452  17.089  33.841  1.00  0.00     0.147 A 
ATOM     14  H2  UNL     1      12.397  16.941  34.314  1.00  0.00     0.188 HD
HETATM   15  C8  UNL     1       9.415  17.633  33.087  1.00  0.00     0.115 A 
HETATM   16  S4  UNL     1       9.935  18.777  31.934  1.00  0.00    -0.042 SA
BRANCH  13  17
HETATM   17  N1  UNL     1      10.068  16.205  34.733  1.00  0.00    -0.382 N 
ATOM     18  H12 UNL     1      10.243  16.479  35.699  1.00  0.00     0.157 HD
ATOM     19  H11 UNL     1       9.631  15.326  34.456  1.00  0.00     0.157 HD
ENDBRANCH  13  17
BRANCH  15  20
HETATM   20  N9  UNL     1       8.174  17.282  33.264  1.00  0.00    -0.390 N 
ATOM     21  H92 UNL     1       7.725  17.200  34.177  1.00  0.00     0.157 HD
ATOM     22  H91 UNL     1       7.557  17.062  32.483  1.00  0.00     0.157 HD
ENDBRANCH  15  20
ENDBRANCH   8   9
ENDBRANCH   7   8
ENDBRANCH   1   7
BRANCH   4  23
HETATM   23  S3  UNL     1       7.299  17.475  25.931  1.00  0.00     0.360 S 
HETATM   24  O1  UNL     1       7.924  16.402  25.078  1.00  0.00    -0.179 OA
HETATM   25  O2  UNL     1       7.114  18.719  25.126  1.00  0.00    -0.179 OA
BRANCH  23  26
HETATM   26  O3  UNL     1       5.843  16.945  26.610  1.00  0.00    -0.136 OA
BRANCH  26  27
HETATM   27  N6  UNL     1       4.799  17.231  25.788  1.00  0.00    -0.218 N 
HETATM   28  C5  UNL     1       3.950  16.172  25.409  1.00  0.00     0.233 C 
HETATM   29  N7  UNL     1       4.445  14.857  25.343  1.00  0.00    -0.060 NA
HETATM   30  N8  UNL     1       2.727  16.412  25.126  1.00  0.00    -0.239 N 
ATOM     31  H8  UNL     1       2.408  17.379  25.187  1.00  0.00     0.197 HD
ATOM     32  H6  UNL     1       4.635  18.182  25.456  1.00  0.00     0.198 HD
BRANCH  30  33
HETATM   33  O4  UNL     1       1.823  15.473  24.750  1.00  0.00    -0.287 OA
ATOM     34  H4  UNL     1       1.227  15.560  24.016  1.00  0.00     0.244 HD
ENDBRANCH  30  33
ENDBRANCH  26  27
ENDBRANCH  23  26
ENDBRANCH   4  23
TORSDOF 9
ENDMDL
MODEL 4
REMARK VINA RESULT: -8.687232910      4.770      7.035
REMARK  9 active torsions:
REMARK  status: ('A' for Active; 'I' for Inactive)
REMARK    1  A    between atoms: N1_1  and  C1_4 
REMARK    2  A    between atoms: C2_9  and  S1_10 
REMARK    3  A    between atoms: S1_10  and  S2_11 
REMARK    4  A    between atoms: S2_11  and  N4_12 
REMARK    5  A    between atoms: N5_15  and  S3_16 
REMARK    6  A    between atoms: S3_16  and  O3_19 
REMARK    7  A    between atoms: O3_19  and  N6_20 
REMARK       I    between atoms: N6_20  and  C5_22 
REMARK    8  A    between atoms: N8_24  and  O4_26 
REMARK    9  A    between atoms: C8_31  and  N9_32 
ROOT
HETATM    1  N4  UNL     1       2.768  16.751  24.945  1.00  0.00    -0.247 NA
HETATM    2  C3  UNL     1       3.918  15.927  24.771  1.00  0.00     0.119 C 
HETATM    3  C4  UNL     1       4.981  16.154  25.825  1.00  0.00     0.125 C 
HETATM    4  N5  UNL     1       5.151  17.559  26.023  1.00  0.00    -0.184 NA
HETATM    5  C6  UNL     1       4.551  18.351  24.967  1.00  0.00     0.125 C 
HETATM    6  C7  UNL     1       3.054  18.143  25.001  1.00  0.00     0.119 C 
ENDROOT
BRANCH   1   7
HETATM    7  S2  UNL     1       1.592  16.336  23.702  1.00  0.00    -0.001 SA
BRANCH   7   8
HETATM    8  S1  UNL     1       1.726  17.637  22.029  1.00  0.00    -0.014 SA
BRANCH   8   9
HETATM    9  C2  UNL     1       2.760  16.947  20.748  1.00  0.00     0.140 A 
HETATM   10  N3  UNL     1       2.862  17.441  19.506  1.00  0.00    -0.286 N 
HETATM   11  N2  UNL     1       3.593  16.989  18.532  1.00  0.00    -0.282 N 
ATOM     12  H3  UNL     1       2.301  18.267  19.302  1.00  0.00     0.188 HD
HETATM   13  C1  UNL     1       4.411  15.930  18.539  1.00  0.00     0.147 A 
ATOM     14  H2  UNL     1       3.536  17.504  17.654  1.00  0.00     0.188 HD
HETATM   15  C8  UNL     1       4.618  15.108  19.644  1.00  0.00     0.115 A 
HETATM   16  S4  UNL     1       3.722  15.570  21.019  1.00  0.00    -0.042 SA
BRANCH  13  17
HETATM   17  N1  UNL     1       5.094  15.586  17.472  1.00  0.00    -0.382 N 
ATOM     18  H12 UNL     1       5.285  16.354  16.828  1.00  0.00     0.157 HD
ATOM     19  H11 UNL     1       5.399  14.623  17.322  1.00  0.00     0.157 HD
ENDBRANCH  13  17
BRANCH  15  20
HETATM   20  N9  UNL     1       5.425  14.087  19.603  1.00  0.00    -0.390 N 
ATOM     21  H92 UNL     1       6.441  14.154  19.666  1.00  0.00     0.157 HD
ATOM     22  H91 UNL     1       5.084  13.131  19.503  1.00  0.00     0.157 HD
ENDBRANCH  15  20
ENDBRANCH   8   9
ENDBRANCH   7   8
ENDBRANCH   1   7
BRANCH   4  23
HETATM   23  S3  UNL     1       6.840  18.000  26.053  1.00  0.00     0.360 S 
HETATM   24  O1  UNL     1       7.230  18.315  27.473  1.00  0.00    -0.179 OA
HETATM   25  O2  UNL     1       7.056  19.201  25.189  1.00  0.00    -0.179 OA
BRANCH  23  26
HETATM   26  O3  UNL     1       7.680  16.652  25.473  1.00  0.00    -0.136 OA
BRANCH  26  27
HETATM   27  N6  UNL     1       8.954  16.989  25.138  1.00  0.00    -0.218 N 
HETATM   28  C5  UNL     1       9.934  15.977  25.178  1.00  0.00     0.233 C 
HETATM   29  N7  UNL     1       9.794  14.891  26.062  1.00  0.00    -0.060 NA
HETATM   30  N8  UNL     1      10.951  16.050  24.409  1.00  0.00    -0.239 N 
ATOM     31  H8  UNL     1      11.014  16.853  23.783  1.00  0.00     0.197 HD
ATOM     32  H6  UNL     1       9.192  17.943  24.865  1.00  0.00     0.198 HD
BRANCH  30  33
HETATM   33  O4  UNL     1      11.953  15.137  24.364  1.00  0.00    -0.287 OA
ATOM     34  H4  UNL     1      12.728  15.210  23.820  1.00  0.00     0.244 HD
ENDBRANCH  30  33
ENDBRANCH  26  27
ENDBRANCH  23  26
ENDBRANCH   4  23
TORSDOF 9
ENDMDL
MODEL 5
REMARK VINA RESULT: -8.623196879      3.923      6.246
REMARK  9 active torsions:
REMARK  status: ('A' for Active; 'I' for Inactive)
REMARK    1  A    between atoms: N1_1  and  C1_4 
REMARK    2  A    between atoms: C2_9  and  S1_10 
REMARK    3  A    between atoms: S1_10  and  S2_11 
REMARK    4  A    between atoms: S2_11  and  N4_12 
REMARK    5  A    between atoms: N5_15  and  S3_16 
REMARK    6  A    between atoms: S3_16  and  O3_19 
REMARK    7  A    between atoms: O3_19  and  N6_20 
REMARK       I    between atoms: N6_20  and  C5_22 
REMARK    8  A    between atoms: N8_24  and  O4_26 
REMARK    9  A    between atoms: C8_31  and  N9_32 
ROOT
HETATM    1  N4  UNL     1       1.736  19.501  23.347  1.00  0.00    -0.247 NA
HETATM    2  C3  UNL     1       1.361  18.324  24.058  1.00  0.00     0.119 C 
HETATM    3  C4  UNL     1       2.272  18.017  25.228  1.00  0.00     0.125 C 
HETATM    4  N5  UNL     1       3.631  18.184  24.820  1.00  0.00    -0.184 NA
HETATM    5  C6  UNL     1       3.779  18.252  23.379  1.00  0.00     0.125 C 
HETATM    6  C7  UNL     1       3.079  19.495  22.880  1.00  0.00     0.119 C 
ENDROOT
BRANCH   1   7
HETATM    7  S2  UNL     1       0.559  19.777  22.066  1.00  0.00    -0.001 SA
BRANCH   7   8
HETATM    8  S1  UNL     1       0.208  18.016  20.932  1.00  0.00    -0.014 SA
BRANCH   8   9
HETATM    9  C2  UNL     1       1.721  17.117  20.638  1.00  0.00     0.140 A 
HETATM   10  N3  UNL     1       2.551  17.343  19.610  1.00  0.00    -0.286 N 
HETATM   11  N2  UNL     1       3.663  16.727  19.340  1.00  0.00    -0.282 N 
ATOM     12  H3  UNL     1       2.278  18.084  18.964  1.00  0.00     0.188 HD
HETATM   13  C1  UNL     1       4.238  15.729  20.020  1.00  0.00     0.147 A 
ATOM     14  H2  UNL     1       4.158  17.044  18.506  1.00  0.00     0.188 HD
HETATM   15  C8  UNL     1       3.710  15.166  21.179  1.00  0.00     0.115 A 
HETATM   16  S4  UNL     1       2.237  15.869  21.673  1.00  0.00    -0.042 SA
BRANCH  13  17
HETATM   17  N1  UNL     1       5.372  15.197  19.627  1.00  0.00    -0.382 N 
ATOM     18  H12 UNL     1       6.187  15.795  19.765  1.00  0.00     0.157 HD
ATOM     19  H11 UNL     1       5.409  14.261  19.222  1.00  0.00     0.157 HD
ENDBRANCH  13  17
BRANCH  15  20
HETATM   20  N9  UNL     1       4.306  14.194  21.808  1.00  0.00    -0.390 N 
ATOM     21  H92 UNL     1       5.300  14.182  22.038  1.00  0.00     0.157 HD
ATOM     22  H91 UNL     1       3.804  13.362  22.119  1.00  0.00     0.157 HD
ENDBRANCH  15  20
ENDBRANCH   8   9
ENDBRANCH   7   8
ENDBRANCH   1   7
BRANCH   4  23
HETATM   23  S3  UNL     1       4.624  16.848  25.342  1.00  0.00     0.360 S 
HETATM   24  O1  UNL     1       5.384  16.319  24.154  1.00  0.00    -0.179 OA
HETATM   25  O2  UNL     1       3.755  15.772  25.907  1.00  0.00    -0.179 OA
BRANCH  23  26
HETATM   26  O3  UNL     1       5.675  17.480  26.507  1.00  0.00    -0.136 OA
BRANCH  26  27
HETATM   27  N6  UNL     1       6.732  18.096  25.915  1.00  0.00    -0.218 N 
HETATM   28  C5  UNL     1       8.006  17.512  26.070  1.00  0.00     0.233 C 
HETATM   29  N7  UNL     1       8.298  16.746  27.214  1.00  0.00    -0.060 NA
HETATM   30  N8  UNL     1       8.894  17.682  25.168  1.00  0.00    -0.239 N 
ATOM     31  H8  UNL     1       8.641  18.243  24.355  1.00  0.00     0.197 HD
ATOM     32  H6  UNL     1       6.609  18.953  25.375  1.00  0.00     0.198 HD
BRANCH  30  33
HETATM   33  O4  UNL     1      10.149  17.169  25.214  1.00  0.00    -0.287 OA
ATOM     34  H4  UNL     1      10.843  17.381  24.601  1.00  0.00     0.244 HD
ENDBRANCH  30  33
ENDBRANCH  26  27
ENDBRANCH  23  26
ENDBRANCH   4  23
TORSDOF 9
ENDMDL
