MODEL 1
REMARK VINA RESULT: -8.990448394      0.000      0.000
REMARK  15 active torsions:
REMARK  status: ('A' for Active; 'I' for Inactive)
REMARK    1  A    between atoms: C2_2  and  N1_3 
REMARK    2  A    between atoms: N1_3  and  C3_4 
REMARK       I    between atoms: N1_3  and  C5_6 
REMARK    3  A    between atoms: C5_6  and  C6_8 
REMARK    4  A    between atoms: C6_8  and  N2_9 
REMARK    5  A    between atoms: C6_8  and  C22_32 
REMARK       I    between atoms: N2_9  and  C7_11 
REMARK    6  A    between atoms: C7_11  and  C8_13 
REMARK       I    between atoms: N3_16  and  C11_17 
REMARK    7  A    between atoms: C11_17  and  C12_19 
REMARK    8  A    between atoms: C12_19  and  C13_20 
REMARK    9  A    between atoms: C12_19  and  N4_24 
REMARK   10  A    between atoms: C13_20  and  C14_21 
REMARK       I    between atoms: N4_24  and  C17_26 
REMARK   11  A    between atoms: C17_26  and  C18_28 
REMARK       I    between atoms: C22_32  and  N5_34 
REMARK   12  A    between atoms: N5_34  and  C23_36 
REMARK   13  A    between atoms: C23_36  and  C24_37 
REMARK   14  A    between atoms: C23_36  and  C31_44 
REMARK   15  A    between atoms: C24_37  and  C25_38 
ROOT
HETATM    1  C6  UNL     1      -7.150  18.147 -19.339  1.00  0.00     0.269 C 
ENDROOT
BRANCH   1   2
HETATM    2  C5  UNL     1      -5.827  18.513 -19.772  1.00  0.00     0.252 C 
HETATM    3  N1  UNL     1      -5.109  17.951 -20.882  1.00  0.00    -0.351 N 
HETATM    4  O1  UNL     1      -5.135  19.412 -19.187  1.00  0.00    -0.270 OA
BRANCH   3   5
HETATM    5  C2  UNL     1      -3.670  18.059 -20.979  1.00  0.00     0.121 C 
HETATM    6  C1  UNL     1      -2.979  16.940 -20.243  1.00  0.00     0.026 C 
ENDBRANCH   3   5
BRANCH   3   7
HETATM    7  C3  UNL     1      -5.871  17.381 -21.981  1.00  0.00     0.121 C 
HETATM    8  C4  UNL     1      -5.055  17.728 -23.248  1.00  0.00     0.026 C 
ENDBRANCH   3   7
ENDBRANCH   1   2
BRANCH   1   9
HETATM    9  N2  UNL     1      -7.954  19.114 -18.730  1.00  0.00    -0.338 N 
HETATM   10  C7  UNL     1      -9.398  19.165 -18.644  1.00  0.00     0.241 C 
HETATM   11  O2  UNL     1     -10.079  18.177 -19.079  1.00  0.00    -0.271 OA
ATOM     12  H2  UNL     1      -7.456  19.887 -18.288  1.00  0.00     0.163 HD
BRANCH  10  13
HETATM   13  C8  UNL     1      -9.977  20.334 -18.107  1.00  0.00     0.180 C 
HETATM   14  C9  UNL     1      -9.479  21.127 -16.976  1.00  0.00     0.055 C 
HETATM   15  C10 UNL     1     -10.789  21.939 -17.377  1.00  0.00     0.129 C 
HETATM   16  N3  UNL     1     -11.294  20.498 -17.611  1.00  0.00    -0.337 N 
HETATM   17  C11 UNL     1     -12.548  20.039 -17.171  1.00  0.00     0.243 C 
HETATM   18  O3  UNL     1     -12.768  18.897 -16.808  1.00  0.00    -0.271 OA
BRANCH  17  19
HETATM   19  C12 UNL     1     -13.715  21.051 -17.166  1.00  0.00     0.177 C 
BRANCH  19  20
HETATM   20  C13 UNL     1     -14.379  20.844 -18.476  1.00  0.00     0.038 C 
BRANCH  20  21
HETATM   21  C14 UNL     1     -14.224  21.755 -19.591  1.00  0.00    -0.020 C 
HETATM   22  C15 UNL     1     -12.982  21.700 -20.439  1.00  0.00     0.009 C 
HETATM   23  C16 UNL     1     -14.082  23.182 -18.908  1.00  0.00     0.009 C 
ENDBRANCH  20  21
ENDBRANCH  19  20
BRANCH  19  24
HETATM   24  N4  UNL     1     -14.473  21.061 -15.986  1.00  0.00    -0.347 N 
HETATM   25  C17 UNL     1     -14.092  21.490 -14.698  1.00  0.00     0.226 C 
HETATM   26  O4  UNL     1     -12.948  21.962 -14.442  1.00  0.00    -0.273 OA
ATOM     27  H4  UNL     1     -15.428  20.711 -16.071  1.00  0.00     0.163 HD
BRANCH  25  28
HETATM   28  C18 UNL     1     -15.016  21.414 -13.534  1.00  0.00     0.030 C 
HETATM   29  C19 UNL     1     -15.565  22.777 -13.145  1.00  0.00     0.024 C 
HETATM   30  C20 UNL     1     -14.362  20.838 -12.296  1.00  0.00     0.024 C 
HETATM   31  C21 UNL     1     -16.159  20.462 -13.866  1.00  0.00     0.024 C 
ENDBRANCH  25  28
ENDBRANCH  19  24
ENDBRANCH  17  19
ENDBRANCH  10  13
ENDBRANCH   1   9
BRANCH   1  32
HETATM   32  C22 UNL     1      -6.989  16.930 -18.413  1.00  0.00     0.250 C 
HETATM   33  O5  UNL     1      -7.535  15.893 -18.789  1.00  0.00    -0.271 OA
HETATM   34  N5  UNL     1      -6.270  17.128 -17.275  1.00  0.00    -0.347 N 
ATOM     35  H5  UNL     1      -6.015  18.107 -17.146  1.00  0.00     0.163 HD
BRANCH  34  36
HETATM   36  C23 UNL     1      -5.765  16.266 -16.174  1.00  0.00     0.154 C 
BRANCH  36  37
HETATM   37  C24 UNL     1      -6.296  16.861 -14.919  1.00  0.00     0.037 C 
BRANCH  37  38
HETATM   38  C25 UNL     1      -7.768  17.019 -14.765  1.00  0.00    -0.012 C 
HETATM   39  C26 UNL     1      -8.292  18.293 -14.201  1.00  0.00     0.005 C 
HETATM   40  C27 UNL     1      -9.742  18.405 -14.766  1.00  0.00     0.000 C 
HETATM   41  C28 UNL     1     -10.464  17.118 -14.571  1.00  0.00     0.000 C 
HETATM   42  C29 UNL     1      -9.789  16.147 -13.631  1.00  0.00     0.000 C 
HETATM   43  C30 UNL     1      -8.340  15.897 -13.882  1.00  0.00     0.005 C 
ENDBRANCH  37  38
ENDBRANCH  36  37
BRANCH  36  44
HETATM   44  C31 UNL     1      -4.338  16.224 -16.385  1.00  0.00     0.145 C 
HETATM   45  C32 UNL     1      -3.348  17.143 -15.818  1.00  0.00     0.093 C 
HETATM   46  O6  UNL     1      -3.892  15.322 -17.089  1.00  0.00    -0.296 OA
ENDBRANCH  36  44
ENDBRANCH  34  36
ENDBRANCH   1  32
TORSDOF 15
ENDMDL
MODEL 2
REMARK VINA RESULT: -8.953672420      1.038      1.416
REMARK  15 active torsions:
REMARK  status: ('A' for Active; 'I' for Inactive)
REMARK    1  A    between atoms: C2_2  and  N1_3 
REMARK    2  A    between atoms: N1_3  and  C3_4 
REMARK       I    between atoms: N1_3  and  C5_6 
REMARK    3  A    between atoms: C5_6  and  C6_8 
REMARK    4  A    between atoms: C6_8  and  N2_9 
REMARK    5  A    between atoms: C6_8  and  C22_32 
REMARK       I    between atoms: N2_9  and  C7_11 
REMARK    6  A    between atoms: C7_11  and  C8_13 
REMARK       I    between atoms: N3_16  and  C11_17 
REMARK    7  A    between atoms: C11_17  and  C12_19 
REMARK    8  A    between atoms: C12_19  and  C13_20 
REMARK    9  A    between atoms: C12_19  and  N4_24 
REMARK   10  A    between atoms: C13_20  and  C14_21 
REMARK       I    between atoms: N4_24  and  C17_26 
REMARK   11  A    between atoms: C17_26  and  C18_28 
REMARK       I    between atoms: C22_32  and  N5_34 
REMARK   12  A    between atoms: N5_34  and  C23_36 
REMARK   13  A    between atoms: C23_36  and  C24_37 
REMARK   14  A    between atoms: C23_36  and  C31_44 
REMARK   15  A    between atoms: C24_37  and  C25_38 
ROOT
HETATM    1  C6  UNL     1      -7.894  17.447 -19.232  1.00  0.00     0.269 C 
ENDROOT
BRANCH   1   2
HETATM    2  C5  UNL     1      -6.822  17.711 -20.156  1.00  0.00     0.252 C 
HETATM    3  N1  UNL     1      -6.935  17.807 -21.584  1.00  0.00    -0.351 N 
HETATM    4  O1  UNL     1      -5.618  17.895 -19.777  1.00  0.00    -0.270 OA
BRANCH   3   5
HETATM    5  C2  UNL     1      -5.782  17.645 -22.442  1.00  0.00     0.121 C 
HETATM    6  C1  UNL     1      -5.890  16.402 -23.288  1.00  0.00     0.026 C 
ENDBRANCH   3   5
BRANCH   3   7
HETATM    7  C3  UNL     1      -8.214  18.203 -22.152  1.00  0.00     0.121 C 
HETATM    8  C4  UNL     1      -8.240  19.745 -22.027  1.00  0.00     0.026 C 
ENDBRANCH   3   7
ENDBRANCH   1   2
BRANCH   1   9
HETATM    9  N2  UNL     1      -8.521  18.522 -18.597  1.00  0.00    -0.338 N 
HETATM   10  C7  UNL     1      -9.844  19.063 -18.829  1.00  0.00     0.241 C 
HETATM   11  O2  UNL     1     -10.624  18.461 -19.641  1.00  0.00    -0.271 OA
ATOM     12  H2  UNL     1      -7.973  18.989 -17.874  1.00  0.00     0.163 HD
BRANCH  10  13
HETATM   13  C8  UNL     1     -10.185  20.257 -18.161  1.00  0.00     0.180 C 
HETATM   14  C9  UNL     1      -9.539  20.817 -16.968  1.00  0.00     0.055 C 
HETATM   15  C10 UNL     1     -10.672  21.900 -17.249  1.00  0.00     0.129 C 
HETATM   16  N3  UNL     1     -11.444  20.614 -17.616  1.00  0.00    -0.337 N 
HETATM   17  C11 UNL     1     -12.760  20.357 -17.192  1.00  0.00     0.243 C 
HETATM   18  O3  UNL     1     -13.191  19.244 -16.942  1.00  0.00    -0.271 OA
BRANCH  17  19
HETATM   19  C12 UNL     1     -13.712  21.565 -17.054  1.00  0.00     0.177 C 
BRANCH  19  20
HETATM   20  C13 UNL     1     -14.324  21.700 -18.398  1.00  0.00     0.038 C 
BRANCH  20  21
HETATM   21  C14 UNL     1     -13.809  22.595 -19.412  1.00  0.00    -0.020 C 
HETATM   22  C15 UNL     1     -14.752  23.473 -20.189  1.00  0.00     0.009 C 
HETATM   23  C16 UNL     1     -13.268  21.624 -20.546  1.00  0.00     0.009 C 
ENDBRANCH  20  21
ENDBRANCH  19  20
BRANCH  19  24
HETATM   24  N4  UNL     1     -14.524  21.538 -15.910  1.00  0.00    -0.347 N 
HETATM   25  C17 UNL     1     -14.138  21.596 -14.555  1.00  0.00     0.226 C 
HETATM   26  O4  UNL     1     -12.933  21.701 -14.188  1.00  0.00    -0.273 OA
ATOM     27  H4  UNL     1     -15.527  21.468 -16.081  1.00  0.00     0.163 HD
BRANCH  25  28
HETATM   28  C18 UNL     1     -15.129  21.535 -13.447  1.00  0.00     0.030 C 
HETATM   29  C19 UNL     1     -15.691  22.905 -13.101  1.00  0.00     0.024 C 
HETATM   30  C20 UNL     1     -14.554  20.964 -12.169  1.00  0.00     0.024 C 
HETATM   31  C21 UNL     1     -16.257  20.589 -13.840  1.00  0.00     0.024 C 
ENDBRANCH  25  28
ENDBRANCH  19  24
ENDBRANCH  17  19
ENDBRANCH  10  13
ENDBRANCH   1   9
BRANCH   1  32
HETATM   32  C22 UNL     1      -7.342  16.462 -18.188  1.00  0.00     0.250 C 
HETATM   33  O5  UNL     1      -7.601  15.274 -18.381  1.00  0.00    -0.271 OA
HETATM   34  N5  UNL     1      -6.636  17.005 -17.159  1.00  0.00    -0.347 N 
ATOM     35  H5  UNL     1      -6.656  18.024 -17.174  1.00  0.00     0.163 HD
BRANCH  34  36
HETATM   36  C23 UNL     1      -5.843  16.476 -16.020  1.00  0.00     0.154 C 
BRANCH  36  37
HETATM   37  C24 UNL     1      -6.438  17.079 -14.798  1.00  0.00     0.037 C 
BRANCH  37  38
HETATM   38  C25 UNL     1      -7.919  17.099 -14.655  1.00  0.00    -0.012 C 
HETATM   39  C26 UNL     1      -8.560  18.299 -14.049  1.00  0.00     0.005 C 
HETATM   40  C27 UNL     1     -10.009  18.304 -14.626  1.00  0.00     0.000 C 
HETATM   41  C28 UNL     1     -10.615  16.951 -14.489  1.00  0.00     0.000 C 
HETATM   42  C29 UNL     1      -9.864  16.008 -13.578  1.00  0.00     0.000 C 
HETATM   43  C30 UNL     1      -8.396  15.898 -13.821  1.00  0.00     0.005 C 
ENDBRANCH  37  38
ENDBRANCH  36  37
BRANCH  36  44
HETATM   44  C31 UNL     1      -4.476  16.788 -16.365  1.00  0.00     0.145 C 
HETATM   45  C32 UNL     1      -3.662  16.118 -17.382  1.00  0.00     0.093 C 
HETATM   46  O6  UNL     1      -3.936  17.716 -15.771  1.00  0.00    -0.296 OA
ENDBRANCH  36  44
ENDBRANCH  34  36
ENDBRANCH   1  32
TORSDOF 15
ENDMDL
MODEL 3
REMARK VINA RESULT: -8.894761485      2.288     10.190
REMARK  15 active torsions:
REMARK  status: ('A' for Active; 'I' for Inactive)
REMARK    1  A    between atoms: C2_2  and  N1_3 
REMARK    2  A    between atoms: N1_3  and  C3_4 
REMARK       I    between atoms: N1_3  and  C5_6 
REMARK    3  A    between atoms: C5_6  and  C6_8 
REMARK    4  A    between atoms: C6_8  and  N2_9 
REMARK    5  A    between atoms: C6_8  and  C22_32 
REMARK       I    between atoms: N2_9  and  C7_11 
REMARK    6  A    between atoms: C7_11  and  C8_13 
REMARK       I    between atoms: N3_16  and  C11_17 
REMARK    7  A    between atoms: C11_17  and  C12_19 
REMARK    8  A    between atoms: C12_19  and  C13_20 
REMARK    9  A    between atoms: C12_19  and  N4_24 
REMARK   10  A    between atoms: C13_20  and  C14_21 
REMARK       I    between atoms: N4_24  and  C17_26 
REMARK   11  A    between atoms: C17_26  and  C18_28 
REMARK       I    between atoms: C22_32  and  N5_34 
REMARK   12  A    between atoms: N5_34  and  C23_36 
REMARK   13  A    between atoms: C23_36  and  C24_37 
REMARK   14  A    between atoms: C23_36  and  C31_44 
REMARK   15  A    between atoms: C24_37  and  C25_38 
ROOT
HETATM    1  C6  UNL     1     -12.865  19.938 -16.000  1.00  0.00     0.269 C 
ENDROOT
BRANCH   1   2
HETATM    2  C5  UNL     1     -13.526  21.054 -15.376  1.00  0.00     0.252 C 
HETATM    3  N1  UNL     1     -14.944  21.252 -15.269  1.00  0.00    -0.351 N 
HETATM    4  O1  UNL     1     -12.886  22.016 -14.834  1.00  0.00    -0.270 OA
BRANCH   3   5
HETATM    5  C2  UNL     1     -15.504  22.564 -15.026  1.00  0.00     0.121 C 
HETATM    6  C1  UNL     1     -16.449  22.976 -16.126  1.00  0.00     0.026 C 
ENDBRANCH   3   5
BRANCH   3   7
HETATM    7  C3  UNL     1     -15.808  20.083 -15.279  1.00  0.00     0.121 C 
HETATM    8  C4  UNL     1     -16.493  20.088 -13.892  1.00  0.00     0.026 C 
ENDBRANCH   3   7
ENDBRANCH   1   2
BRANCH   1   9
HETATM    9  N2  UNL     1     -11.557  19.628 -15.620  1.00  0.00    -0.338 N 
HETATM   10  C7  UNL     1     -10.864  18.360 -15.714  1.00  0.00     0.241 C 
HETATM   11  O2  UNL     1     -11.440  17.382 -16.299  1.00  0.00    -0.271 OA
ATOM     12  H2  UNL     1     -11.017  20.398 -15.224  1.00  0.00     0.163 HD
BRANCH  10  13
HETATM   13  C8  UNL     1      -9.590  18.268 -15.116  1.00  0.00     0.180 C 
HETATM   14  C9  UNL     1      -8.760  19.378 -14.632  1.00  0.00     0.055 C 
HETATM   15  C10 UNL     1      -7.834  18.126 -14.299  1.00  0.00     0.129 C 
HETATM   16  N3  UNL     1      -8.425  17.662 -15.649  1.00  0.00    -0.337 N 
HETATM   17  C11 UNL     1      -7.652  17.088 -16.673  1.00  0.00     0.243 C 
HETATM   18  O3  UNL     1      -7.879  17.232 -17.862  1.00  0.00    -0.271 OA
BRANCH  17  19
HETATM   19  C12 UNL     1      -6.452  16.211 -16.253  1.00  0.00     0.177 C 
BRANCH  19  20
HETATM   20  C13 UNL     1      -7.015  14.842 -16.166  1.00  0.00     0.038 C 
BRANCH  20  21
HETATM   21  C14 UNL     1      -6.988  14.055 -14.952  1.00  0.00    -0.020 C 
HETATM   22  C15 UNL     1      -7.592  14.602 -13.687  1.00  0.00     0.009 C 
HETATM   23  C16 UNL     1      -5.448  13.988 -14.569  1.00  0.00     0.009 C 
ENDBRANCH  20  21
ENDBRANCH  19  20
BRANCH  19  24
HETATM   24  N4  UNL     1      -5.276  16.444 -16.983  1.00  0.00    -0.347 N 
HETATM   25  C17 UNL     1      -4.083  17.062 -16.556  1.00  0.00     0.226 C 
HETATM   26  O4  UNL     1      -3.916  17.496 -15.381  1.00  0.00    -0.273 OA
ATOM     27  H4  UNL     1      -5.287  16.123 -17.951  1.00  0.00     0.163 HD
BRANCH  25  28
HETATM   28  C18 UNL     1      -2.923  17.254 -17.468  1.00  0.00     0.030 C 
HETATM   29  C19 UNL     1      -2.849  16.180 -18.541  1.00  0.00     0.024 C 
HETATM   30  C20 UNL     1      -1.593  17.239 -16.744  1.00  0.00     0.024 C 
HETATM   31  C21 UNL     1      -3.016  18.633 -18.110  1.00  0.00     0.024 C 
ENDBRANCH  25  28
ENDBRANCH  19  24
ENDBRANCH  17  19
ENDBRANCH  10  13
ENDBRANCH   1   9
BRANCH   1  32
HETATM   32  C22 UNL     1     -12.937  20.174 -17.517  1.00  0.00     0.250 C 
HETATM   33  O5  UNL     1     -13.366  19.236 -18.188  1.00  0.00    -0.271 OA
HETATM   34  N5  UNL     1     -12.512  21.389 -17.959  1.00  0.00    -0.347 N 
ATOM     35  H5  UNL     1     -12.103  21.950 -17.211  1.00  0.00     0.163 HD
BRANCH  34  36
HETATM   36  C23 UNL     1     -12.497  22.099 -19.265  1.00  0.00     0.154 C 
BRANCH  36  37
HETATM   37  C24 UNL     1     -13.881  21.994 -19.797  1.00  0.00     0.037 C 
BRANCH  37  38
HETATM   38  C25 UNL     1     -14.748  23.204 -19.788  1.00  0.00    -0.012 C 
HETATM   39  C26 UNL     1     -15.026  23.891 -21.079  1.00  0.00     0.005 C 
HETATM   40  C27 UNL     1     -16.384  24.622 -20.851  1.00  0.00     0.000 C 
HETATM   41  C28 UNL     1     -16.347  25.375 -19.567  1.00  0.00     0.000 C 
HETATM   42  C29 UNL     1     -14.971  25.527 -18.961  1.00  0.00     0.000 C 
HETATM   43  C30 UNL     1     -14.163  24.278 -18.854  1.00  0.00     0.005 C 
ENDBRANCH  37  38
ENDBRANCH  36  37
BRANCH  36  44
HETATM   44  C31 UNL     1     -11.414  21.479 -19.991  1.00  0.00     0.145 C 
HETATM   45  C32 UNL     1      -9.983  21.721 -19.793  1.00  0.00     0.093 C 
HETATM   46  O6  UNL     1     -11.704  20.651 -20.850  1.00  0.00    -0.296 OA
ENDBRANCH  36  44
ENDBRANCH  34  36
ENDBRANCH   1  32
TORSDOF 15
ENDMDL
MODEL 4
REMARK VINA RESULT: -8.736367260      1.437      3.218
REMARK  15 active torsions:
REMARK  status: ('A' for Active; 'I' for Inactive)
REMARK    1  A    between atoms: C2_2  and  N1_3 
REMARK    2  A    between atoms: N1_3  and  C3_4 
REMARK       I    between atoms: N1_3  and  C5_6 
REMARK    3  A    between atoms: C5_6  and  C6_8 
REMARK    4  A    between atoms: C6_8  and  N2_9 
REMARK    5  A    between atoms: C6_8  and  C22_32 
REMARK       I    between atoms: N2_9  and  C7_11 
REMARK    6  A    between atoms: C7_11  and  C8_13 
REMARK       I    between atoms: N3_16  and  C11_17 
REMARK    7  A    between atoms: C11_17  and  C12_19 
REMARK    8  A    between atoms: C12_19  and  C13_20 
REMARK    9  A    between atoms: C12_19  and  N4_24 
REMARK   10  A    between atoms: C13_20  and  C14_21 
REMARK       I    between atoms: N4_24  and  C17_26 
REMARK   11  A    between atoms: C17_26  and  C18_28 
REMARK       I    between atoms: C22_32  and  N5_34 
REMARK   12  A    between atoms: N5_34  and  C23_36 
REMARK   13  A    between atoms: C23_36  and  C24_37 
REMARK   14  A    between atoms: C23_36  and  C31_44 
REMARK   15  A    between atoms: C24_37  and  C25_38 
ROOT
HETATM    1  C6  UNL     1      -8.066  17.386 -19.103  1.00  0.00     0.269 C 
ENDROOT
BRANCH   1   2
HETATM    2  C5  UNL     1      -7.016  17.623 -20.059  1.00  0.00     0.252 C 
HETATM    3  N1  UNL     1      -7.174  17.755 -21.480  1.00  0.00    -0.351 N 
HETATM    4  O1  UNL     1      -5.792  17.746 -19.720  1.00  0.00    -0.270 OA
BRANCH   3   5
HETATM    5  C2  UNL     1      -6.059  17.561 -22.381  1.00  0.00     0.121 C 
HETATM    6  C1  UNL     1      -6.260  16.353 -23.261  1.00  0.00     0.026 C 
ENDBRANCH   3   5
BRANCH   3   7
HETATM    7  C3  UNL     1      -8.452  18.219 -21.995  1.00  0.00     0.121 C 
HETATM    8  C4  UNL     1      -8.377  19.761 -21.903  1.00  0.00     0.026 C 
ENDBRANCH   3   7
ENDBRANCH   1   2
BRANCH   1   9
HETATM    9  N2  UNL     1      -8.665  18.480 -18.471  1.00  0.00    -0.338 N 
HETATM   10  C7  UNL     1     -10.003  19.004 -18.646  1.00  0.00     0.241 C 
HETATM   11  O2  UNL     1     -10.823  18.369 -19.392  1.00  0.00    -0.271 OA
ATOM     12  H2  UNL     1      -8.081  18.974 -17.797  1.00  0.00     0.163 HD
BRANCH  10  13
HETATM   13  C8  UNL     1     -10.316  20.218 -18.001  1.00  0.00     0.180 C 
HETATM   14  C9  UNL     1      -9.518  20.906 -16.978  1.00  0.00     0.055 C 
HETATM   15  C10 UNL     1     -10.764  21.888 -17.117  1.00  0.00     0.129 C 
HETATM   16  N3  UNL     1     -11.485  20.530 -17.263  1.00  0.00    -0.337 N 
HETATM   17  C11 UNL     1     -12.683  20.218 -16.597  1.00  0.00     0.243 C 
HETATM   18  O3  UNL     1     -12.977  19.101 -16.208  1.00  0.00    -0.271 OA
BRANCH  17  19
HETATM   19  C12 UNL     1     -13.688  21.367 -16.364  1.00  0.00     0.177 C 
BRANCH  19  20
HETATM   20  C13 UNL     1     -13.245  21.985 -15.091  1.00  0.00     0.038 C 
BRANCH  20  21
HETATM   21  C14 UNL     1     -13.944  21.798 -13.838  1.00  0.00    -0.020 C 
HETATM   22  C15 UNL     1     -13.367  20.893 -12.783  1.00  0.00     0.009 C 
HETATM   23  C16 UNL     1     -15.264  21.013 -14.246  1.00  0.00     0.009 C 
ENDBRANCH  20  21
ENDBRANCH  19  20
BRANCH  19  24
HETATM   24  N4  UNL     1     -13.928  22.169 -17.491  1.00  0.00    -0.347 N 
HETATM   25  C17 UNL     1     -15.056  22.962 -17.783  1.00  0.00     0.226 C 
HETATM   26  O4  UNL     1     -16.047  23.061 -17.004  1.00  0.00    -0.273 OA
ATOM     27  H4  UNL     1     -13.186  22.179 -18.191  1.00  0.00     0.163 HD
BRANCH  25  28
HETATM   28  C18 UNL     1     -15.167  23.744 -19.044  1.00  0.00     0.030 C 
HETATM   29  C19 UNL     1     -16.611  23.936 -19.478  1.00  0.00     0.024 C 
HETATM   30  C20 UNL     1     -14.444  23.099 -20.206  1.00  0.00     0.024 C 
HETATM   31  C21 UNL     1     -14.493  25.098 -18.851  1.00  0.00     0.024 C 
ENDBRANCH  25  28
ENDBRANCH  19  24
ENDBRANCH  17  19
ENDBRANCH  10  13
ENDBRANCH   1   9
BRANCH   1  32
HETATM   32  C22 UNL     1      -7.498  16.413 -18.057  1.00  0.00     0.250 C 
HETATM   33  O5  UNL     1      -7.859  15.241 -18.162  1.00  0.00    -0.271 OA
HETATM   34  N5  UNL     1      -6.666  16.949 -17.123  1.00  0.00    -0.347 N 
ATOM     35  H5  UNL     1      -6.613  17.964 -17.192  1.00  0.00     0.163 HD
BRANCH  34  36
HETATM   36  C23 UNL     1      -5.816  16.415 -16.028  1.00  0.00     0.154 C 
BRANCH  36  37
HETATM   37  C24 UNL     1      -6.384  16.967 -14.769  1.00  0.00     0.037 C 
BRANCH  37  38
HETATM   38  C25 UNL     1      -7.862  17.070 -14.633  1.00  0.00    -0.012 C 
HETATM   39  C26 UNL     1      -8.439  18.309 -14.041  1.00  0.00     0.005 C 
HETATM   40  C27 UNL     1      -9.883  18.387 -14.623  1.00  0.00     0.000 C 
HETATM   41  C28 UNL     1     -10.563  17.071 -14.476  1.00  0.00     0.000 C 
HETATM   42  C29 UNL     1      -9.868  16.098 -13.553  1.00  0.00     0.000 C 
HETATM   43  C30 UNL     1      -8.407  15.905 -13.789  1.00  0.00     0.005 C 
ENDBRANCH  37  38
ENDBRANCH  36  37
BRANCH  36  44
HETATM   44  C31 UNL     1      -4.473  16.777 -16.413  1.00  0.00     0.145 C 
HETATM   45  C32 UNL     1      -3.643  16.101 -17.412  1.00  0.00     0.093 C 
HETATM   46  O6  UNL     1      -3.971  17.759 -15.873  1.00  0.00    -0.296 OA
ENDBRANCH  36  44
ENDBRANCH  34  36
ENDBRANCH   1  32
TORSDOF 15
ENDMDL
MODEL 5
REMARK VINA RESULT: -8.706909539      2.198      9.923
REMARK  15 active torsions:
REMARK  status: ('A' for Active; 'I' for Inactive)
REMARK    1  A    between atoms: C2_2  and  N1_3 
REMARK    2  A    between atoms: N1_3  and  C3_4 
REMARK       I    between atoms: N1_3  and  C5_6 
REMARK    3  A    between atoms: C5_6  and  C6_8 
REMARK    4  A    between atoms: C6_8  and  N2_9 
REMARK    5  A    between atoms: C6_8  and  C22_32 
REMARK       I    between atoms: N2_9  and  C7_11 
REMARK    6  A    between atoms: C7_11  and  C8_13 
REMARK       I    between atoms: N3_16  and  C11_17 
REMARK    7  A    between atoms: C11_17  and  C12_19 
REMARK    8  A    between atoms: C12_19  and  C13_20 
REMARK    9  A    between atoms: C12_19  and  N4_24 
REMARK   10  A    between atoms: C13_20  and  C14_21 
REMARK       I    between atoms: N4_24  and  C17_26 
REMARK   11  A    between atoms: C17_26  and  C18_28 
REMARK       I    between atoms: C22_32  and  N5_34 
REMARK   12  A    between atoms: N5_34  and  C23_36 
REMARK   13  A    between atoms: C23_36  and  C24_37 
REMARK   14  A    between atoms: C23_36  and  C31_44 
REMARK   15  A    between atoms: C24_37  and  C25_38 
ROOT
HETATM    1  C6  UNL     1     -13.030  19.919 -16.041  1.00  0.00     0.269 C 
ENDROOT
BRANCH   1   2
HETATM    2  C5  UNL     1     -13.648  21.114 -15.530  1.00  0.00     0.252 C 
HETATM    3  N1  UNL     1     -15.057  21.351 -15.392  1.00  0.00    -0.351 N 
HETATM    4  O1  UNL     1     -12.972  22.121 -15.132  1.00  0.00    -0.270 OA
BRANCH   3   5
HETATM    5  C2  UNL     1     -15.587  22.693 -15.285  1.00  0.00     0.121 C 
HETATM    6  C1  UNL     1     -16.699  22.930 -16.275  1.00  0.00     0.026 C 
ENDBRANCH   3   5
BRANCH   3   7
HETATM    7  C3  UNL     1     -15.938  20.206 -15.227  1.00  0.00     0.121 C 
HETATM    8  C4  UNL     1     -16.331  20.223 -13.731  1.00  0.00     0.026 C 
ENDBRANCH   3   7
ENDBRANCH   1   2
BRANCH   1   9
HETATM    9  N2  UNL     1     -11.709  19.635 -15.685  1.00  0.00    -0.338 N 
HETATM   10  C7  UNL     1     -11.037  18.353 -15.654  1.00  0.00     0.241 C 
HETATM   11  O2  UNL     1     -11.651  17.321 -16.090  1.00  0.00    -0.271 OA
ATOM     12  H2  UNL     1     -11.143  20.438 -15.409  1.00  0.00     0.163 HD
BRANCH  10  13
HETATM   13  C8  UNL     1      -9.738  18.312 -15.106  1.00  0.00     0.180 C 
HETATM   14  C9  UNL     1      -8.841  19.451 -14.875  1.00  0.00     0.055 C 
HETATM   15  C10 UNL     1      -7.949  18.239 -14.355  1.00  0.00     0.129 C 
HETATM   16  N3  UNL     1      -8.627  17.562 -15.567  1.00  0.00    -0.337 N 
HETATM   17  C11 UNL     1      -7.931  16.773 -16.499  1.00  0.00     0.243 C 
HETATM   18  O3  UNL     1      -8.214  16.704 -17.682  1.00  0.00    -0.271 OA
BRANCH  17  19
HETATM   19  C12 UNL     1      -6.746  15.932 -15.975  1.00  0.00     0.177 C 
BRANCH  19  20
HETATM   20  C13 UNL     1      -7.333  14.593 -15.727  1.00  0.00     0.038 C 
BRANCH  20  21
HETATM   21  C14 UNL     1      -7.366  13.977 -14.417  1.00  0.00    -0.020 C 
HETATM   22  C15 UNL     1      -7.774  14.787 -13.217  1.00  0.00     0.009 C 
HETATM   23  C16 UNL     1      -5.841  13.672 -14.095  1.00  0.00     0.009 C 
ENDBRANCH  20  21
ENDBRANCH  19  20
BRANCH  19  24
HETATM   24  N4  UNL     1      -5.567  16.056 -16.726  1.00  0.00    -0.347 N 
HETATM   25  C17 UNL     1      -4.426  16.837 -16.450  1.00  0.00     0.226 C 
HETATM   26  O4  UNL     1      -4.319  17.555 -15.416  1.00  0.00    -0.273 OA
ATOM     27  H4  UNL     1      -5.531  15.508 -17.586  1.00  0.00     0.163 HD
BRANCH  25  28
HETATM   28  C18 UNL     1      -3.255  16.876 -17.367  1.00  0.00     0.030 C 
HETATM   29  C19 UNL     1      -2.649  18.266 -17.469  1.00  0.00     0.024 C 
HETATM   30  C20 UNL     1      -3.593  16.444 -18.778  1.00  0.00     0.024 C 
HETATM   31  C21 UNL     1      -2.208  15.881 -16.881  1.00  0.00     0.024 C 
ENDBRANCH  25  28
ENDBRANCH  19  24
ENDBRANCH  17  19
ENDBRANCH  10  13
ENDBRANCH   1   9
BRANCH   1  32
HETATM   32  C22 UNL     1     -13.168  19.971 -17.572  1.00  0.00     0.250 C 
HETATM   33  O5  UNL     1     -13.550  18.934 -18.112  1.00  0.00    -0.271 OA
HETATM   34  N5  UNL     1     -12.848  21.153 -18.166  1.00  0.00    -0.347 N 
ATOM     35  H5  UNL     1     -12.457  21.823 -17.505  1.00  0.00     0.163 HD
BRANCH  34  36
HETATM   36  C23 UNL     1     -12.927  21.704 -19.544  1.00  0.00     0.154 C 
BRANCH  36  37
HETATM   37  C24 UNL     1     -11.521  21.906 -19.981  1.00  0.00     0.037 C 
BRANCH  37  38
HETATM   38  C25 UNL     1     -10.750  20.737 -20.485  1.00  0.00    -0.012 C 
HETATM   39  C26 UNL     1     -10.037  19.876 -19.501  1.00  0.00     0.005 C 
HETATM   40  C27 UNL     1      -9.923  18.488 -20.204  1.00  0.00     0.000 C 
HETATM   41  C28 UNL     1      -9.413  18.662 -21.592  1.00  0.00     0.000 C 
HETATM   42  C29 UNL     1      -8.840  20.027 -21.892  1.00  0.00     0.000 C 
HETATM   43  C30 UNL     1      -9.687  21.191 -21.500  1.00  0.00     0.005 C 
ENDBRANCH  37  38
ENDBRANCH  36  37
BRANCH  36  44
HETATM   44  C31 UNL     1     -13.797  22.849 -19.417  1.00  0.00     0.145 C 
HETATM   45  C32 UNL     1     -14.663  23.403 -20.460  1.00  0.00     0.093 C 
HETATM   46  O6  UNL     1     -13.842  23.413 -18.327  1.00  0.00    -0.296 OA
ENDBRANCH  36  44
ENDBRANCH  34  36
ENDBRANCH   1  32
TORSDOF 15
ENDMDL
