MODEL 1
REMARK VINA RESULT: -9.280283831      0.000      0.000
REMARK  18 active torsions:
REMARK  status: ('A' for Active; 'I' for Inactive)
REMARK    1  A    between atoms: C2_2  and  C4_4 
REMARK    2  A    between atoms: C4_4  and  C5_5 
REMARK    3  A    between atoms: C5_5  and  N1_6 
REMARK    4  A    between atoms: C5_5  and  C7_10 
REMARK    5  A    between atoms: N1_6  and  C6_8 
REMARK       I    between atoms: C7_10  and  N2_12 
REMARK    6  A    between atoms: C13_18  and  C14_19 
REMARK       I    between atoms: C14_19  and  N3_21 
REMARK    7  A    between atoms: N3_21  and  C15_23 
REMARK    8  A    between atoms: C15_23  and  C16_24 
REMARK    9  A    between atoms: C15_23  and  C23_31 
REMARK   10  A    between atoms: C16_24  and  C17_25 
REMARK   11  A    between atoms: C23_31  and  C24_32 
REMARK   12  A    between atoms: C23_31  and  C30_46 
REMARK   13  A    between atoms: C24_32  and  C25_33 
REMARK   14  A    between atoms: C25_33  and  O4_34 
REMARK   15  A    between atoms: C25_33  and  N4_36 
REMARK   16  A    between atoms: N4_36  and  C26_38 
REMARK   17  A    between atoms: C26_38  and  O5_39 
REMARK   18  A    between atoms: C26_38  and  C27_41 
REMARK       I    between atoms: C27_41  and  N5_43 
ROOT
HETATM    1  C15 UNL     1     -12.989  22.724 -17.050  1.00  0.00     0.089 C 
ENDROOT
BRANCH   1   2
HETATM    2  N3  UNL     1     -12.177  21.522 -17.059  1.00  0.00    -0.354 N 
HETATM    3  C14 UNL     1     -10.833  21.435 -16.647  1.00  0.00     0.241 C 
HETATM    4  O3  UNL     1     -10.232  22.453 -16.252  1.00  0.00    -0.271 OA
ATOM      5  H3  UNL     1     -12.617  20.665 -17.393  1.00  0.00     0.162 HD
BRANCH   3   6
HETATM    6  C13 UNL     1     -10.097  20.145 -16.665  1.00  0.00     0.183 C 
HETATM    7  N2  UNL     1     -10.975  19.052 -17.000  1.00  0.00    -0.336 N 
HETATM    8  C7  UNL     1     -11.161  18.284 -18.169  1.00  0.00     0.243 C 
HETATM    9  C8  UNL     1     -11.800  18.845 -15.797  1.00  0.00     0.132 C 
HETATM   10  O2  UNL     1     -12.136  17.444 -18.152  1.00  0.00    -0.271 OA
HETATM   11  C9  UNL     1     -10.917  19.224 -14.657  1.00  0.00     0.010 C 
HETATM   12  C10 UNL     1     -10.078  18.051 -14.190  1.00  0.00     0.007 C 
HETATM   13  C12 UNL     1      -9.657  19.795 -15.284  1.00  0.00     0.023 C 
HETATM   14  C11 UNL     1      -8.991  18.437 -15.150  1.00  0.00     0.008 C 
BRANCH   8  15
HETATM   15  C5  UNL     1     -10.346  18.365 -19.398  1.00  0.00     0.176 C 
BRANCH  15  16
HETATM   16  C4  UNL     1     -10.671  19.602 -20.248  1.00  0.00     0.038 C 
BRANCH  16  17
HETATM   17  C2  UNL     1      -9.333  20.295 -20.471  1.00  0.00    -0.020 C 
HETATM   18  C1  UNL     1      -9.408  21.738 -20.005  1.00  0.00     0.009 C 
HETATM   19  C3  UNL     1      -8.917  20.313 -21.914  1.00  0.00     0.009 C 
ENDBRANCH  16  17
ENDBRANCH  15  16
BRANCH  15  20
HETATM   20  N1  UNL     1      -8.931  18.379 -19.104  1.00  0.00    -0.355 N 
ATOM     21  H1  UNL     1      -8.465  19.281 -19.200  1.00  0.00     0.162 HD
BRANCH  20  22
HETATM   22  C6  UNL     1      -8.122  17.309 -18.703  1.00  0.00     0.349 C 
HETATM   23  O1  UNL     1      -7.688  16.480 -19.539  1.00  0.00    -0.284 OA
ENDBRANCH  20  22
ENDBRANCH  15  20
ENDBRANCH   8  15
ENDBRANCH   3   6
ENDBRANCH   1   2
BRANCH   1  24
HETATM   24  C16 UNL     1     -13.986  22.867 -16.026  1.00  0.00     0.030 C 
BRANCH  24  25
HETATM   25  C17 UNL     1     -14.298  21.699 -15.122  1.00  0.00    -0.013 C 
HETATM   26  C18 UNL     1     -15.712  21.524 -14.710  1.00  0.00     0.005 C 
HETATM   27  C19 UNL     1     -15.776  20.262 -13.826  1.00  0.00     0.000 C 
HETATM   28  C20 UNL     1     -15.088  20.582 -12.538  1.00  0.00     0.000 C 
HETATM   29  C21 UNL     1     -13.626  20.856 -12.838  1.00  0.00     0.000 C 
HETATM   30  C22 UNL     1     -13.454  21.926 -13.859  1.00  0.00     0.005 C 
ENDBRANCH  24  25
ENDBRANCH   1  24
BRANCH   1  31
HETATM   31  C23 UNL     1     -13.509  22.922 -18.531  1.00  0.00     0.019 C 
BRANCH  31  32
HETATM   32  C24 UNL     1     -14.882  23.538 -18.285  1.00  0.00     0.091 C 
BRANCH  32  33
HETATM   33  C25 UNL     1     -15.183  24.818 -18.881  1.00  0.00     0.117 C 
BRANCH  33  34
HETATM   34  O4  UNL     1     -14.344  25.804 -18.618  1.00  0.00    -0.349 OA
ATOM     35  H4  UNL     1     -14.217  26.020 -17.702  1.00  0.00     0.219 HD
ENDBRANCH  33  34
BRANCH  33  36
HETATM   36  N4  UNL     1     -16.238  25.190 -19.711  1.00  0.00    -0.317 N 
ATOM     37  H4  UNL     1     -15.964  25.149 -20.692  1.00  0.00     0.170 HD
BRANCH  36  38
HETATM   38  C26 UNL     1     -17.547  25.598 -19.577  1.00  0.00     0.211 C 
BRANCH  38  39
HETATM   39  O5  UNL     1     -18.297  25.262 -20.617  1.00  0.00    -0.342 OA
ATOM     40  H5  UNL     1     -19.095  24.812 -20.365  1.00  0.00     0.219 HD
ENDBRANCH  38  39
BRANCH  38  41
HETATM   41  C27 UNL     1     -18.294  26.303 -18.585  1.00  0.00     0.293 C 
HETATM   42  O6  UNL     1     -18.594  27.509 -18.735  1.00  0.00    -0.264 OA
HETATM   43  N5  UNL     1     -18.748  25.682 -17.360  1.00  0.00    -0.354 N 
HETATM   44  C28 UNL     1     -19.511  26.538 -16.437  1.00  0.00     0.152 C 
HETATM   45  C29 UNL     1     -18.501  24.310 -17.003  1.00  0.00     0.152 C 
ENDBRANCH  38  41
ENDBRANCH  36  38
ENDBRANCH  33  36
ENDBRANCH  32  33
ENDBRANCH  31  32
BRANCH  31  46
HETATM   46  C30 UNL     1     -13.583  21.547 -19.094  1.00  0.00    -0.016 C 
HETATM   47  C31 UNL     1     -14.798  20.762 -18.695  1.00  0.00     0.010 C 
HETATM   48  C32 UNL     1     -13.432  21.394 -20.596  1.00  0.00     0.010 C 
ENDBRANCH  31  46
ENDBRANCH   1  31
TORSDOF 18
ENDMDL
MODEL 2
REMARK VINA RESULT: -9.238286684      2.544      9.477
REMARK  18 active torsions:
REMARK  status: ('A' for Active; 'I' for Inactive)
REMARK    1  A    between atoms: C2_2  and  C4_4 
REMARK    2  A    between atoms: C4_4  and  C5_5 
REMARK    3  A    between atoms: C5_5  and  N1_6 
REMARK    4  A    between atoms: C5_5  and  C7_10 
REMARK    5  A    between atoms: N1_6  and  C6_8 
REMARK       I    between atoms: C7_10  and  N2_12 
REMARK    6  A    between atoms: C13_18  and  C14_19 
REMARK       I    between atoms: C14_19  and  N3_21 
REMARK    7  A    between atoms: N3_21  and  C15_23 
REMARK    8  A    between atoms: C15_23  and  C16_24 
REMARK    9  A    between atoms: C15_23  and  C23_31 
REMARK   10  A    between atoms: C16_24  and  C17_25 
REMARK   11  A    between atoms: C23_31  and  C24_32 
REMARK   12  A    between atoms: C23_31  and  C30_46 
REMARK   13  A    between atoms: C24_32  and  C25_33 
REMARK   14  A    between atoms: C25_33  and  O4_34 
REMARK   15  A    between atoms: C25_33  and  N4_36 
REMARK   16  A    between atoms: N4_36  and  C26_38 
REMARK   17  A    between atoms: C26_38  and  O5_39 
REMARK   18  A    between atoms: C26_38  and  C27_41 
REMARK       I    between atoms: C27_41  and  N5_43 
ROOT
HETATM    1  C15 UNL     1     -10.790  20.164 -17.094  1.00  0.00     0.089 C 
ENDROOT
BRANCH   1   2
HETATM    2  N3  UNL     1     -11.663  21.322 -17.086  1.00  0.00    -0.354 N 
HETATM    3  C14 UNL     1     -13.001  21.340 -16.648  1.00  0.00     0.241 C 
HETATM    4  O3  UNL     1     -13.541  20.292 -16.242  1.00  0.00    -0.271 OA
ATOM      5  H3  UNL     1     -11.273  22.201 -17.427  1.00  0.00     0.162 HD
BRANCH   3   6
HETATM    6  C13 UNL     1     -13.802  22.591 -16.650  1.00  0.00     0.183 C 
HETATM    7  N2  UNL     1     -15.214  22.303 -16.670  1.00  0.00    -0.336 N 
HETATM    8  C7  UNL     1     -16.225  22.356 -15.688  1.00  0.00     0.243 C 
HETATM    9  C8  UNL     1     -15.487  21.838 -18.041  1.00  0.00     0.132 C 
HETATM   10  O2  UNL     1     -17.382  21.909 -16.034  1.00  0.00    -0.271 OA
HETATM   11  C9  UNL     1     -14.512  22.573 -18.896  1.00  0.00     0.010 C 
HETATM   12  C10 UNL     1     -15.056  23.920 -19.328  1.00  0.00     0.007 C 
HETATM   13  C12 UNL     1     -13.601  23.319 -17.937  1.00  0.00     0.023 C 
HETATM   14  C11 UNL     1     -14.457  24.560 -18.109  1.00  0.00     0.008 C 
BRANCH   8  15
HETATM   15  C5  UNL     1     -16.073  22.870 -14.311  1.00  0.00     0.176 C 
BRANCH  15  16
HETATM   16  C4  UNL     1     -14.626  22.788 -13.803  1.00  0.00     0.038 C 
BRANCH  16  17
HETATM   17  C2  UNL     1     -14.607  21.608 -12.841  1.00  0.00    -0.020 C 
HETATM   18  C1  UNL     1     -13.232  20.965 -12.829  1.00  0.00     0.009 C 
HETATM   19  C3  UNL     1     -15.596  20.539 -13.209  1.00  0.00     0.009 C 
ENDBRANCH  16  17
ENDBRANCH  15  16
BRANCH  15  20
HETATM   20  N1  UNL     1     -16.513  24.241 -14.199  1.00  0.00    -0.355 N 
ATOM     21  H1  UNL     1     -16.041  24.913 -14.805  1.00  0.00     0.162 HD
BRANCH  20  22
HETATM   22  C6  UNL     1     -17.507  24.762 -13.362  1.00  0.00     0.349 C 
HETATM   23  O1  UNL     1     -18.623  24.198 -13.257  1.00  0.00    -0.284 OA
ENDBRANCH  20  22
ENDBRANCH  15  20
ENDBRANCH   8  15
ENDBRANCH   3   6
ENDBRANCH   1   2
BRANCH   1  24
HETATM   24  C16 UNL     1      -9.585  20.210 -16.314  1.00  0.00     0.030 C 
BRANCH  24  25
HETATM   25  C17 UNL     1      -9.452  19.328 -15.097  1.00  0.00    -0.013 C 
HETATM   26  C18 UNL     1      -8.293  18.403 -15.057  1.00  0.00     0.005 C 
HETATM   27  C19 UNL     1      -8.363  17.643 -13.717  1.00  0.00     0.000 C 
HETATM   28  C20 UNL     1      -9.533  16.715 -13.789  1.00  0.00     0.000 C 
HETATM   29  C21 UNL     1     -10.793  17.550 -13.905  1.00  0.00     0.000 C 
HETATM   30  C22 UNL     1     -10.738  18.490 -15.059  1.00  0.00     0.005 C 
ENDBRANCH  24  25
ENDBRANCH   1  24
BRANCH   1  31
HETATM   31  C23 UNL     1     -10.597  19.762 -18.612  1.00  0.00     0.019 C 
BRANCH  31  32
HETATM   32  C24 UNL     1      -9.187  19.182 -18.590  1.00  0.00     0.091 C 
BRANCH  32  33
HETATM   33  C25 UNL     1      -9.014  17.772 -18.853  1.00  0.00     0.117 C 
BRANCH  33  34
HETATM   34  O4  UNL     1      -8.886  17.420 -20.120  1.00  0.00    -0.349 OA
ATOM     35  H4  UNL     1      -8.059  17.631 -20.538  1.00  0.00     0.219 HD
ENDBRANCH  33  34
BRANCH  33  36
HETATM   36  N4  UNL     1      -8.957  16.699 -17.968  1.00  0.00    -0.317 N 
ATOM     37  H4  UNL     1      -9.757  16.703 -17.335  1.00  0.00     0.170 HD
BRANCH  36  38
HETATM   38  C26 UNL     1      -8.123  15.634 -17.706  1.00  0.00     0.211 C 
BRANCH  38  39
HETATM   39  O5  UNL     1      -8.080  14.760 -18.702  1.00  0.00    -0.342 OA
ATOM     40  H5  UNL     1      -7.543  14.002 -18.503  1.00  0.00     0.219 HD
ENDBRANCH  38  39
BRANCH  38  41
HETATM   41  C27 UNL     1      -7.292  15.240 -16.614  1.00  0.00     0.293 C 
HETATM   42  O6  UNL     1      -7.697  14.429 -15.751  1.00  0.00    -0.264 OA
HETATM   43  N5  UNL     1      -5.948  15.744 -16.432  1.00  0.00    -0.354 N 
HETATM   44  C28 UNL     1      -5.215  15.241 -15.259  1.00  0.00     0.152 C 
HETATM   45  C29 UNL     1      -5.306  16.685 -17.311  1.00  0.00     0.152 C 
ENDBRANCH  38  41
ENDBRANCH  36  38
ENDBRANCH  33  36
ENDBRANCH  32  33
ENDBRANCH  31  32
BRANCH  31  46
HETATM   46  C30 UNL     1     -10.684  21.046 -19.358  1.00  0.00    -0.016 C 
HETATM   47  C31 UNL     1      -9.374  21.581 -19.856  1.00  0.00     0.010 C 
HETATM   48  C32 UNL     1     -11.660  21.120 -20.517  1.00  0.00     0.010 C 
ENDBRANCH  31  46
ENDBRANCH   1  31
TORSDOF 18
ENDMDL
MODEL 3
REMARK VINA RESULT: -9.114892669      2.714      9.542
REMARK  18 active torsions:
REMARK  status: ('A' for Active; 'I' for Inactive)
REMARK    1  A    between atoms: C2_2  and  C4_4 
REMARK    2  A    between atoms: C4_4  and  C5_5 
REMARK    3  A    between atoms: C5_5  and  N1_6 
REMARK    4  A    between atoms: C5_5  and  C7_10 
REMARK    5  A    between atoms: N1_6  and  C6_8 
REMARK       I    between atoms: C7_10  and  N2_12 
REMARK    6  A    between atoms: C13_18  and  C14_19 
REMARK       I    between atoms: C14_19  and  N3_21 
REMARK    7  A    between atoms: N3_21  and  C15_23 
REMARK    8  A    between atoms: C15_23  and  C16_24 
REMARK    9  A    between atoms: C15_23  and  C23_31 
REMARK   10  A    between atoms: C16_24  and  C17_25 
REMARK   11  A    between atoms: C23_31  and  C24_32 
REMARK   12  A    between atoms: C23_31  and  C30_46 
REMARK   13  A    between atoms: C24_32  and  C25_33 
REMARK   14  A    between atoms: C25_33  and  O4_34 
REMARK   15  A    between atoms: C25_33  and  N4_36 
REMARK   16  A    between atoms: N4_36  and  C26_38 
REMARK   17  A    between atoms: C26_38  and  O5_39 
REMARK   18  A    between atoms: C26_38  and  C27_41 
REMARK       I    between atoms: C27_41  and  N5_43 
ROOT
HETATM    1  C15 UNL     1     -10.737  20.117 -17.147  1.00  0.00     0.089 C 
ENDROOT
BRANCH   1   2
HETATM    2  N3  UNL     1     -11.599  21.283 -17.181  1.00  0.00    -0.354 N 
HETATM    3  C14 UNL     1     -12.832  21.413 -16.514  1.00  0.00     0.241 C 
HETATM    4  O3  UNL     1     -13.281  20.466 -15.838  1.00  0.00    -0.271 OA
ATOM      5  H3  UNL     1     -11.285  22.079 -17.737  1.00  0.00     0.162 HD
BRANCH   3   6
HETATM    6  C13 UNL     1     -13.626  22.666 -16.586  1.00  0.00     0.183 C 
HETATM    7  N2  UNL     1     -15.033  22.399 -16.424  1.00  0.00    -0.336 N 
HETATM    8  C7  UNL     1     -15.936  22.587 -15.356  1.00  0.00     0.243 C 
HETATM    9  C8  UNL     1     -15.450  21.773 -17.691  1.00  0.00     0.132 C 
HETATM   10  O2  UNL     1     -17.123  22.118 -15.523  1.00  0.00    -0.271 OA
HETATM   11  C9  UNL     1     -14.569  22.384 -18.727  1.00  0.00     0.010 C 
HETATM   12  C10 UNL     1     -15.152  23.676 -19.263  1.00  0.00     0.007 C 
HETATM   13  C12 UNL     1     -13.560  23.228 -17.967  1.00  0.00     0.023 C 
HETATM   14  C11 UNL     1     -14.427  24.451 -18.201  1.00  0.00     0.008 C 
BRANCH   8  15
HETATM   15  C5  UNL     1     -15.638  23.263 -14.077  1.00  0.00     0.176 C 
BRANCH  15  16
HETATM   16  C4  UNL     1     -16.902  23.586 -13.267  1.00  0.00     0.038 C 
BRANCH  16  17
HETATM   17  C2  UNL     1     -16.994  25.106 -13.260  1.00  0.00    -0.020 C 
HETATM   18  C1  UNL     1     -17.139  25.614 -11.837  1.00  0.00     0.009 C 
HETATM   19  C3  UNL     1     -18.167  25.625 -14.041  1.00  0.00     0.009 C 
ENDBRANCH  16  17
ENDBRANCH  15  16
BRANCH  15  20
HETATM   20  N1  UNL     1     -14.760  22.473 -13.245  1.00  0.00    -0.355 N 
ATOM     21  H1  UNL     1     -13.908  22.936 -12.929  1.00  0.00     0.162 HD
BRANCH  20  22
HETATM   22  C6  UNL     1     -14.934  21.151 -12.818  1.00  0.00     0.349 C 
HETATM   23  O1  UNL     1     -14.635  20.805 -11.649  1.00  0.00    -0.284 OA
ENDBRANCH  20  22
ENDBRANCH  15  20
ENDBRANCH   8  15
ENDBRANCH   3   6
ENDBRANCH   1   2
BRANCH   1  24
HETATM   24  C16 UNL     1      -9.550  20.168 -16.341  1.00  0.00     0.030 C 
BRANCH  24  25
HETATM   25  C17 UNL     1      -9.424  19.257 -15.143  1.00  0.00    -0.013 C 
HETATM   26  C18 UNL     1      -8.229  18.381 -15.085  1.00  0.00     0.005 C 
HETATM   27  C19 UNL     1      -8.315  17.580 -13.770  1.00  0.00     0.000 C 
HETATM   28  C20 UNL     1      -9.441  16.607 -13.911  1.00  0.00     0.000 C 
HETATM   29  C21 UNL     1     -10.730  17.392 -14.052  1.00  0.00     0.000 C 
HETATM   30  C22 UNL     1     -10.674  18.366 -15.177  1.00  0.00     0.005 C 
ENDBRANCH  24  25
ENDBRANCH   1  24
BRANCH   1  31
HETATM   31  C23 UNL     1     -10.513  19.685 -18.653  1.00  0.00     0.019 C 
BRANCH  31  32
HETATM   32  C24 UNL     1      -9.097  19.121 -18.593  1.00  0.00     0.091 C 
BRANCH  32  33
HETATM   33  C25 UNL     1      -8.903  17.712 -18.845  1.00  0.00     0.117 C 
BRANCH  33  34
HETATM   34  O4  UNL     1      -8.764  17.352 -20.108  1.00  0.00    -0.349 OA
ATOM     35  H4  UNL     1      -8.305  16.536 -20.269  1.00  0.00     0.219 HD
ENDBRANCH  33  34
BRANCH  33  36
HETATM   36  N4  UNL     1      -8.833  16.647 -17.950  1.00  0.00    -0.317 N 
ATOM     37  H4  UNL     1      -9.611  16.671 -17.291  1.00  0.00     0.170 HD
BRANCH  36  38
HETATM   38  C26 UNL     1      -8.009  15.570 -17.705  1.00  0.00     0.211 C 
BRANCH  38  39
HETATM   39  O5  UNL     1      -8.021  14.681 -18.688  1.00  0.00    -0.342 OA
ATOM     40  H5  UNL     1      -7.589  13.868 -18.454  1.00  0.00     0.219 HD
ENDBRANCH  38  39
BRANCH  38  41
HETATM   41  C27 UNL     1      -7.141  15.178 -16.641  1.00  0.00     0.293 C 
HETATM   42  O6  UNL     1      -7.481  14.296 -15.820  1.00  0.00    -0.264 OA
HETATM   43  N5  UNL     1      -5.834  15.763 -16.442  1.00  0.00    -0.354 N 
HETATM   44  C28 UNL     1      -5.056  15.252 -15.301  1.00  0.00     0.152 C 
HETATM   45  C29 UNL     1      -5.267  16.791 -17.273  1.00  0.00     0.152 C 
ENDBRANCH  38  41
ENDBRANCH  36  38
ENDBRANCH  33  36
ENDBRANCH  32  33
ENDBRANCH  31  32
BRANCH  31  46
HETATM   46  C30 UNL     1     -10.600  20.951 -19.428  1.00  0.00    -0.016 C 
HETATM   47  C31 UNL     1      -9.291  21.469 -19.947  1.00  0.00     0.010 C 
HETATM   48  C32 UNL     1     -11.584  21.003 -20.581  1.00  0.00     0.010 C 
ENDBRANCH  31  46
ENDBRANCH   1  31
TORSDOF 18
ENDMDL
MODEL 4
REMARK VINA RESULT: -8.991752878      1.045      1.838
REMARK  18 active torsions:
REMARK  status: ('A' for Active; 'I' for Inactive)
REMARK    1  A    between atoms: C2_2  and  C4_4 
REMARK    2  A    between atoms: C4_4  and  C5_5 
REMARK    3  A    between atoms: C5_5  and  N1_6 
REMARK    4  A    between atoms: C5_5  and  C7_10 
REMARK    5  A    between atoms: N1_6  and  C6_8 
REMARK       I    between atoms: C7_10  and  N2_12 
REMARK    6  A    between atoms: C13_18  and  C14_19 
REMARK       I    between atoms: C14_19  and  N3_21 
REMARK    7  A    between atoms: N3_21  and  C15_23 
REMARK    8  A    between atoms: C15_23  and  C16_24 
REMARK    9  A    between atoms: C15_23  and  C23_31 
REMARK   10  A    between atoms: C16_24  and  C17_25 
REMARK   11  A    between atoms: C23_31  and  C24_32 
REMARK   12  A    between atoms: C23_31  and  C30_46 
REMARK   13  A    between atoms: C24_32  and  C25_33 
REMARK   14  A    between atoms: C25_33  and  O4_34 
REMARK   15  A    between atoms: C25_33  and  N4_36 
REMARK   16  A    between atoms: N4_36  and  C26_38 
REMARK   17  A    between atoms: C26_38  and  O5_39 
REMARK   18  A    between atoms: C26_38  and  C27_41 
REMARK       I    between atoms: C27_41  and  N5_43 
ROOT
HETATM    1  C15 UNL     1     -12.920  22.830 -16.957  1.00  0.00     0.089 C 
ENDROOT
BRANCH   1   2
HETATM    2  N3  UNL     1     -12.051  21.669 -16.916  1.00  0.00    -0.354 N 
HETATM    3  C14 UNL     1     -10.710  21.661 -16.489  1.00  0.00     0.241 C 
HETATM    4  O3  UNL     1     -10.162  22.720 -16.125  1.00  0.00    -0.271 OA
ATOM      5  H3  UNL     1     -12.447  20.781 -17.223  1.00  0.00     0.162 HD
BRANCH   3   6
HETATM    6  C13 UNL     1      -9.914  20.407 -16.455  1.00  0.00     0.183 C 
HETATM    7  N2  UNL     1     -10.563  19.360 -17.202  1.00  0.00    -0.336 N 
HETATM    8  C7  UNL     1     -10.320  18.781 -18.466  1.00  0.00     0.243 C 
HETATM    9  C8  UNL     1     -11.703  18.947 -16.366  1.00  0.00     0.132 C 
HETATM   10  O2  UNL     1     -11.189  17.925 -18.878  1.00  0.00    -0.271 OA
HETATM   11  C9  UNL     1     -11.248  19.163 -14.963  1.00  0.00     0.010 C 
HETATM   12  C10 UNL     1     -10.513  17.952 -14.424  1.00  0.00     0.007 C 
HETATM   13  C12 UNL     1      -9.899  19.855 -15.069  1.00  0.00     0.023 C 
HETATM   14  C11 UNL     1      -9.212  18.510 -14.924  1.00  0.00     0.008 C 
BRANCH   8  15
HETATM   15  C5  UNL     1      -9.172  19.073 -19.348  1.00  0.00     0.176 C 
BRANCH  15  16
HETATM   16  C4  UNL     1      -8.330  17.827 -19.659  1.00  0.00     0.038 C 
BRANCH  16  17
HETATM   17  C2  UNL     1      -7.641  17.474 -18.347  1.00  0.00    -0.020 C 
HETATM   18  C1  UNL     1      -6.137  17.431 -18.543  1.00  0.00     0.009 C 
HETATM   19  C3  UNL     1      -8.059  16.135 -17.809  1.00  0.00     0.009 C 
ENDBRANCH  16  17
ENDBRANCH  15  16
BRANCH  15  20
HETATM   20  N1  UNL     1      -9.593  19.656 -20.601  1.00  0.00    -0.355 N 
ATOM     21  H1  UNL     1     -10.482  20.155 -20.585  1.00  0.00     0.162 HD
BRANCH  20  22
HETATM   22  C6  UNL     1      -8.931  19.620 -21.834  1.00  0.00     0.349 C 
HETATM   23  O1  UNL     1      -8.759  20.667 -22.505  1.00  0.00    -0.284 OA
ENDBRANCH  20  22
ENDBRANCH  15  20
ENDBRANCH   8  15
ENDBRANCH   3   6
ENDBRANCH   1   2
BRANCH   1  24
HETATM   24  C16 UNL     1     -13.948  22.950 -15.962  1.00  0.00     0.030 C 
BRANCH  24  25
HETATM   25  C17 UNL     1     -14.287  21.762 -15.094  1.00  0.00    -0.013 C 
HETATM   26  C18 UNL     1     -15.715  21.569 -14.743  1.00  0.00     0.005 C 
HETATM   27  C19 UNL     1     -15.804  20.290 -13.887  1.00  0.00     0.000 C 
HETATM   28  C20 UNL     1     -15.170  20.588 -12.567  1.00  0.00     0.000 C 
HETATM   29  C21 UNL     1     -13.700  20.877 -12.803  1.00  0.00     0.000 C 
HETATM   30  C22 UNL     1     -13.496  21.969 -13.794  1.00  0.00     0.005 C 
ENDBRANCH  24  25
ENDBRANCH   1  24
BRANCH   1  31
HETATM   31  C23 UNL     1     -13.410  22.968 -18.455  1.00  0.00     0.019 C 
BRANCH  31  32
HETATM   32  C24 UNL     1     -14.820  23.514 -18.257  1.00  0.00     0.091 C 
BRANCH  32  33
HETATM   33  C25 UNL     1     -15.163  24.779 -18.864  1.00  0.00     0.117 C 
BRANCH  33  34
HETATM   34  O4  UNL     1     -14.356  25.794 -18.610  1.00  0.00    -0.349 OA
ATOM     35  H4  UNL     1     -14.769  26.625 -18.410  1.00  0.00     0.219 HD
ENDBRANCH  33  34
BRANCH  33  36
HETATM   36  N4  UNL     1     -16.230  25.110 -19.695  1.00  0.00    -0.317 N 
ATOM     37  H4  UNL     1     -15.978  25.000 -20.677  1.00  0.00     0.170 HD
BRANCH  36  38
HETATM   38  C26 UNL     1     -17.532  25.544 -19.563  1.00  0.00     0.211 C 
BRANCH  38  39
HETATM   39  O5  UNL     1     -18.281  25.244 -20.615  1.00  0.00    -0.342 OA
ATOM     40  H5  UNL     1     -18.840  24.491 -20.465  1.00  0.00     0.219 HD
ENDBRANCH  38  39
BRANCH  38  41
HETATM   41  C27 UNL     1     -18.271  26.245 -18.563  1.00  0.00     0.293 C 
HETATM   42  O6  UNL     1     -18.566  27.454 -18.704  1.00  0.00    -0.264 OA
HETATM   43  N5  UNL     1     -18.721  25.619 -17.340  1.00  0.00    -0.354 N 
HETATM   44  C28 UNL     1     -19.475  26.472 -16.407  1.00  0.00     0.152 C 
HETATM   45  C29 UNL     1     -18.478  24.244 -16.992  1.00  0.00     0.152 C 
ENDBRANCH  38  41
ENDBRANCH  36  38
ENDBRANCH  33  36
ENDBRANCH  32  33
ENDBRANCH  31  32
BRANCH  31  46
HETATM   46  C30 UNL     1     -13.396  21.579 -18.987  1.00  0.00    -0.016 C 
HETATM   47  C31 UNL     1     -14.715  20.865 -18.935  1.00  0.00     0.010 C 
HETATM   48  C32 UNL     1     -12.834  21.367 -20.380  1.00  0.00     0.010 C 
ENDBRANCH  31  46
ENDBRANCH   1  31
TORSDOF 18
ENDMDL
MODEL 5
REMARK VINA RESULT: -8.991634814      1.055      1.688
REMARK  18 active torsions:
REMARK  status: ('A' for Active; 'I' for Inactive)
REMARK    1  A    between atoms: C2_2  and  C4_4 
REMARK    2  A    between atoms: C4_4  and  C5_5 
REMARK    3  A    between atoms: C5_5  and  N1_6 
REMARK    4  A    between atoms: C5_5  and  C7_10 
REMARK    5  A    between atoms: N1_6  and  C6_8 
REMARK       I    between atoms: C7_10  and  N2_12 
REMARK    6  A    between atoms: C13_18  and  C14_19 
REMARK       I    between atoms: C14_19  and  N3_21 
REMARK    7  A    between atoms: N3_21  and  C15_23 
REMARK    8  A    between atoms: C15_23  and  C16_24 
REMARK    9  A    between atoms: C15_23  and  C23_31 
REMARK   10  A    between atoms: C16_24  and  C17_25 
REMARK   11  A    between atoms: C23_31  and  C24_32 
REMARK   12  A    between atoms: C23_31  and  C30_46 
REMARK   13  A    between atoms: C24_32  and  C25_33 
REMARK   14  A    between atoms: C25_33  and  O4_34 
REMARK   15  A    between atoms: C25_33  and  N4_36 
REMARK   16  A    between atoms: N4_36  and  C26_38 
REMARK   17  A    between atoms: C26_38  and  O5_39 
REMARK   18  A    between atoms: C26_38  and  C27_41 
REMARK       I    between atoms: C27_41  and  N5_43 
ROOT
HETATM    1  C15 UNL     1     -13.126  22.830 -16.948  1.00  0.00     0.089 C 
ENDROOT
BRANCH   1   2
HETATM    2  N3  UNL     1     -12.228  21.692 -16.923  1.00  0.00    -0.354 N 
HETATM    3  C14 UNL     1     -10.883  21.715 -16.505  1.00  0.00     0.241 C 
HETATM    4  O3  UNL     1     -10.361  22.784 -16.135  1.00  0.00    -0.271 OA
ATOM      5  H3  UNL     1     -12.602  20.796 -17.236  1.00  0.00     0.162 HD
BRANCH   3   6
HETATM    6  C13 UNL     1     -10.055  20.482 -16.487  1.00  0.00     0.183 C 
HETATM    7  N2  UNL     1     -10.708  19.408 -17.192  1.00  0.00    -0.336 N 
HETATM    8  C7  UNL     1     -10.504  18.817 -18.457  1.00  0.00     0.243 C 
HETATM    9  C8  UNL     1     -11.802  18.979 -16.303  1.00  0.00     0.132 C 
HETATM   10  O2  UNL     1     -11.367  17.933 -18.821  1.00  0.00    -0.271 OA
HETATM   11  C9  UNL     1     -11.294  19.227 -14.924  1.00  0.00     0.010 C 
HETATM   12  C10 UNL     1     -10.506  18.042 -14.400  1.00  0.00     0.007 C 
HETATM   13  C12 UNL     1      -9.969  19.950 -15.096  1.00  0.00     0.023 C 
HETATM   14  C11 UNL     1      -9.242  18.625 -14.962  1.00  0.00     0.008 C 
BRANCH   8  15
HETATM   15  C5  UNL     1      -9.401  19.124 -19.391  1.00  0.00     0.176 C 
BRANCH  15  16
HETATM   16  C4  UNL     1      -8.786  17.864 -20.018  1.00  0.00     0.038 C 
BRANCH  16  17
HETATM   17  C2  UNL     1      -7.545  18.352 -20.755  1.00  0.00    -0.020 C 
HETATM   18  C1  UNL     1      -7.057  17.285 -21.718  1.00  0.00     0.009 C 
HETATM   19  C3  UNL     1      -6.406  18.674 -19.831  1.00  0.00     0.009 C 
ENDBRANCH  16  17
ENDBRANCH  15  16
BRANCH  15  20
HETATM   20  N1  UNL     1      -9.830  19.996 -20.459  1.00  0.00    -0.355 N 
ATOM     21  H1  UNL     1     -10.204  19.535 -21.289  1.00  0.00     0.162 HD
BRANCH  20  22
HETATM   22  C6  UNL     1      -9.797  21.395 -20.496  1.00  0.00     0.349 C 
HETATM   23  O1  UNL     1      -9.278  22.054 -19.563  1.00  0.00    -0.284 OA
ENDBRANCH  20  22
ENDBRANCH  15  20
ENDBRANCH   8  15
ENDBRANCH   3   6
ENDBRANCH   1   2
BRANCH   1  24
HETATM   24  C16 UNL     1     -14.187  22.886 -15.981  1.00  0.00     0.030 C 
BRANCH  24  25
HETATM   25  C17 UNL     1     -14.402  21.721 -15.045  1.00  0.00    -0.013 C 
HETATM   26  C18 UNL     1     -15.787  21.484 -14.571  1.00  0.00     0.005 C 
HETATM   27  C19 UNL     1     -15.751  20.238 -13.663  1.00  0.00     0.000 C 
HETATM   28  C20 UNL     1     -15.027  20.617 -12.411  1.00  0.00     0.000 C 
HETATM   29  C21 UNL     1     -13.595  20.956 -12.778  1.00  0.00     0.000 C 
HETATM   30  C22 UNL     1     -13.519  22.014 -13.823  1.00  0.00     0.005 C 
ENDBRANCH  24  25
ENDBRANCH   1  24
BRANCH   1  31
HETATM   31  C23 UNL     1     -13.575  23.012 -18.454  1.00  0.00     0.019 C 
BRANCH  31  32
HETATM   32  C24 UNL     1     -14.969  23.604 -18.280  1.00  0.00     0.091 C 
BRANCH  32  33
HETATM   33  C25 UNL     1     -15.252  24.893 -18.870  1.00  0.00     0.117 C 
BRANCH  33  34
HETATM   34  O4  UNL     1     -14.397  25.864 -18.603  1.00  0.00    -0.349 OA
ATOM     35  H4  UNL     1     -14.764  26.733 -18.491  1.00  0.00     0.219 HD
ENDBRANCH  33  34
BRANCH  33  36
HETATM   36  N4  UNL     1     -16.302  25.285 -19.695  1.00  0.00    -0.317 N 
ATOM     37  H4  UNL     1     -16.020  25.280 -20.675  1.00  0.00     0.170 HD
BRANCH  36  38
HETATM   38  C26 UNL     1     -17.617  25.677 -19.560  1.00  0.00     0.211 C 
BRANCH  38  39
HETATM   39  O5  UNL     1     -18.372  25.298 -20.581  1.00  0.00    -0.342 OA
ATOM     40  H5  UNL     1     -19.029  25.944 -20.812  1.00  0.00     0.219 HD
ENDBRANCH  38  39
BRANCH  38  41
HETATM   41  C27 UNL     1     -18.364  26.399 -18.581  1.00  0.00     0.293 C 
HETATM   42  O6  UNL     1     -18.672  27.600 -18.757  1.00  0.00    -0.264 OA
HETATM   43  N5  UNL     1     -18.809  25.803 -17.340  1.00  0.00    -0.354 N 
HETATM   44  C28 UNL     1     -19.573  26.676 -16.433  1.00  0.00     0.152 C 
HETATM   45  C29 UNL     1     -18.551  24.442 -16.953  1.00  0.00     0.152 C 
ENDBRANCH  38  41
ENDBRANCH  36  38
ENDBRANCH  33  36
ENDBRANCH  32  33
ENDBRANCH  31  32
BRANCH  31  46
HETATM   46  C30 UNL     1     -13.597  21.633 -19.012  1.00  0.00    -0.016 C 
HETATM   47  C31 UNL     1     -14.826  20.836 -18.686  1.00  0.00     0.010 C 
HETATM   48  C32 UNL     1     -13.348  21.473 -20.499  1.00  0.00     0.010 C 
ENDBRANCH  31  46
ENDBRANCH   1  31
TORSDOF 18
ENDMDL
