MODEL 1
REMARK VINA RESULT: -7.549451063      0.000      0.000
REMARK  3 active torsions:
REMARK  status: ('A' for Active; 'I' for Inactive)
REMARK       I    between atoms: N1_3  and  C3_5 
REMARK    1  A    between atoms: C3_5  and  C4_7 
REMARK    2  A    between atoms: C4_7  and  N2_9 
REMARK       I    between atoms: N2_9  and  C6_11 
REMARK    3  A    between atoms: C6_11  and  C7_13 
REMARK       I    between atoms: N3_18  and  C11_19 
ROOT
HETATM    1  C1  UNL     1      13.101   9.242  55.968  1.00  0.00     0.037 C 
HETATM    2  C2  UNL     1      13.606   9.835  56.888  1.00  0.00     0.002 C 
HETATM    3  N1  UNL     1      14.190  10.533  57.942  1.00  0.00    -0.285 N 
ATOM      4  H1  UNL     1      13.805  10.427  58.881  1.00  0.00     0.179 HD
HETATM    5  C3  UNL     1      15.303  11.385  57.746  1.00  0.00     0.251 C 
HETATM    6  O1  UNL     1      15.757  11.499  56.584  1.00  0.00    -0.270 OA
ENDROOT
BRANCH   5   7
HETATM    7  C4  UNL     1      15.959  12.146  58.829  1.00  0.00     0.173 C 
HETATM    8  C5  UNL     1      17.214  11.446  59.326  1.00  0.00     0.042 C 
BRANCH   7   9
HETATM    9  N2  UNL     1      15.076  12.395  59.937  1.00  0.00    -0.346 N 
HETATM   10  C6  UNL     1      14.283  13.563  60.008  1.00  0.00     0.243 C 
HETATM   11  O2  UNL     1      14.371  14.392  59.064  1.00  0.00    -0.271 OA
ATOM     12  H2  UNL     1      15.020  11.710  60.691  1.00  0.00     0.163 HD
BRANCH  10  13
HETATM   13  C7  UNL     1      13.364  13.809  61.173  1.00  0.00     0.202 C 
HETATM   14  C8  UNL     1      11.923  13.779  60.744  1.00  0.00     0.202 C 
HETATM   15  O3  UNL     1      11.392  15.030  60.491  1.00  0.00    -0.387 OA
HETATM   16  C9  UNL     1      11.598  15.942  61.508  1.00  0.00     0.187 C 
HETATM   17  C10 UNL     1      13.103  16.246  61.482  1.00  0.00     0.152 C 
HETATM   18  N3  UNL     1      13.733  15.011  61.863  1.00  0.00    -0.338 N 
HETATM   19  C11 UNL     1      14.687  15.058  62.910  1.00  0.00     0.184 C 
HETATM   20  N4  UNL     1      14.902  13.997  63.648  1.00  0.00    -0.374 N 
HETATM   21  N5  UNL     1      15.441  16.213  63.212  1.00  0.00    -0.064 NA
ATOM     22  H42 UNL     1      14.357  13.163  63.430  1.00  0.00     0.158 HD
ATOM     23  H41 UNL     1      15.589  14.031  64.401  1.00  0.00     0.158 HD
ENDBRANCH  10  13
ENDBRANCH   7   9
ENDBRANCH   5   7
TORSDOF 3
ENDMDL
MODEL 2
REMARK VINA RESULT: -7.193298713      1.476      1.930
REMARK  3 active torsions:
REMARK  status: ('A' for Active; 'I' for Inactive)
REMARK       I    between atoms: N1_3  and  C3_5 
REMARK    1  A    between atoms: C3_5  and  C4_7 
REMARK    2  A    between atoms: C4_7  and  N2_9 
REMARK       I    between atoms: N2_9  and  C6_11 
REMARK    3  A    between atoms: C6_11  and  C7_13 
REMARK       I    between atoms: N3_18  and  C11_19 
ROOT
HETATM    1  C1  UNL     1      13.879   9.882  54.911  1.00  0.00     0.037 C 
HETATM    2  C2  UNL     1      14.240  10.313  55.977  1.00  0.00     0.002 C 
HETATM    3  N1  UNL     1      14.657  10.826  57.203  1.00  0.00    -0.285 N 
ATOM      4  H1  UNL     1      14.248  10.455  58.060  1.00  0.00     0.179 HD
HETATM    5  C3  UNL     1      15.632  11.848  57.290  1.00  0.00     0.251 C 
HETATM    6  O1  UNL     1      16.119  12.287  56.222  1.00  0.00    -0.270 OA
ENDROOT
BRANCH   5   7
HETATM    7  C4  UNL     1      16.109  12.425  58.564  1.00  0.00     0.173 C 
HETATM    8  C5  UNL     1      17.234  11.599  59.168  1.00  0.00     0.042 C 
BRANCH   7   9
HETATM    9  N2  UNL     1      15.052  12.575  59.527  1.00  0.00    -0.346 N 
HETATM   10  C6  UNL     1      14.984  13.694  60.388  1.00  0.00     0.243 C 
HETATM   11  O2  UNL     1      15.885  14.568  60.290  1.00  0.00    -0.271 OA
ATOM     12  H2  UNL     1      14.332  11.855  59.590  1.00  0.00     0.163 HD
BRANCH  10  13
HETATM   13  C7  UNL     1      13.871  13.837  61.390  1.00  0.00     0.202 C 
HETATM   14  C8  UNL     1      13.211  12.513  61.662  1.00  0.00     0.202 C 
HETATM   15  O3  UNL     1      12.065  12.301  60.918  1.00  0.00    -0.387 OA
HETATM   16  C9  UNL     1      11.158  13.340  60.980  1.00  0.00     0.187 C 
HETATM   17  C10 UNL     1      11.808  14.493  60.202  1.00  0.00     0.152 C 
HETATM   18  N3  UNL     1      12.954  14.863  60.986  1.00  0.00    -0.338 N 
HETATM   19  C11 UNL     1      13.109  16.233  61.315  1.00  0.00     0.184 C 
HETATM   20  N4  UNL     1      13.765  16.576  62.395  1.00  0.00    -0.374 N 
HETATM   21  N5  UNL     1      12.582  17.278  60.524  1.00  0.00    -0.064 NA
ATOM     22  H42 UNL     1      14.145  15.822  62.966  1.00  0.00     0.158 HD
ATOM     23  H41 UNL     1      13.876  17.563  62.632  1.00  0.00     0.158 HD
ENDBRANCH  10  13
ENDBRANCH   7   9
ENDBRANCH   5   7
TORSDOF 3
ENDMDL
MODEL 3
REMARK VINA RESULT: -7.045441799      2.229      6.791
REMARK  3 active torsions:
REMARK  status: ('A' for Active; 'I' for Inactive)
REMARK       I    between atoms: N1_3  and  C3_5 
REMARK    1  A    between atoms: C3_5  and  C4_7 
REMARK    2  A    between atoms: C4_7  and  N2_9 
REMARK       I    between atoms: N2_9  and  C6_11 
REMARK    3  A    between atoms: C6_11  and  C7_13 
REMARK       I    between atoms: N3_18  and  C11_19 
ROOT
HETATM    1  C1  UNL     1      14.986  17.166  65.920  1.00  0.00     0.037 C 
HETATM    2  C2  UNL     1      14.544  17.139  64.799  1.00  0.00     0.002 C 
HETATM    3  N1  UNL     1      14.024  17.096  63.508  1.00  0.00    -0.285 N 
ATOM      4  H1  UNL     1      13.683  17.957  63.081  1.00  0.00     0.179 HD
HETATM    5  C3  UNL     1      13.959  15.889  62.771  1.00  0.00     0.251 C 
HETATM    6  O1  UNL     1      14.384  14.845  63.317  1.00  0.00    -0.270 OA
ENDROOT
BRANCH   5   7
HETATM    7  C4  UNL     1      13.418  15.790  61.399  1.00  0.00     0.173 C 
HETATM    8  C5  UNL     1      12.021  16.384  61.303  1.00  0.00     0.042 C 
BRANCH   7   9
HETATM    9  N2  UNL     1      13.400  14.436  60.915  1.00  0.00    -0.346 N 
HETATM   10  C6  UNL     1      14.351  13.969  59.979  1.00  0.00     0.243 C 
HETATM   11  O2  UNL     1      15.226  14.779  59.575  1.00  0.00    -0.271 OA
ATOM     12  H2  UNL     1      12.682  13.797  61.255  1.00  0.00     0.163 HD
BRANCH  10  13
HETATM   13  C7  UNL     1      14.319  12.550  59.481  1.00  0.00     0.202 C 
HETATM   14  C8  UNL     1      14.590  11.577  60.596  1.00  0.00     0.202 C 
HETATM   15  O3  UNL     1      15.908  11.169  60.670  1.00  0.00    -0.387 OA
HETATM   16  C9  UNL     1      16.423  10.719  59.471  1.00  0.00     0.187 C 
HETATM   17  C10 UNL     1      16.547  11.969  58.587  1.00  0.00     0.152 C 
HETATM   18  N3  UNL     1      15.192  12.389  58.355  1.00  0.00    -0.338 N 
HETATM   19  C11 UNL     1      14.799  12.619  57.012  1.00  0.00     0.184 C 
HETATM   20  N4  UNL     1      13.542  12.485  56.667  1.00  0.00    -0.374 N 
HETATM   21  N5  UNL     1      15.706  12.995  55.999  1.00  0.00    -0.064 NA
ATOM     22  H42 UNL     1      12.886  12.214  57.400  1.00  0.00     0.158 HD
ATOM     23  H41 UNL     1      13.259  12.651  55.701  1.00  0.00     0.158 HD
ENDBRANCH  10  13
ENDBRANCH   7   9
ENDBRANCH   5   7
TORSDOF 3
ENDMDL
MODEL 4
REMARK VINA RESULT: -6.851089403      2.321      3.117
REMARK  3 active torsions:
REMARK  status: ('A' for Active; 'I' for Inactive)
REMARK       I    between atoms: N1_3  and  C3_5 
REMARK    1  A    between atoms: C3_5  and  C4_7 
REMARK    2  A    between atoms: C4_7  and  N2_9 
REMARK       I    between atoms: N2_9  and  C6_11 
REMARK    3  A    between atoms: C6_11  and  C7_13 
REMARK       I    between atoms: N3_18  and  C11_19 
ROOT
HETATM    1  C1  UNL     1      15.053   8.146  53.513  1.00  0.00     0.037 C 
HETATM    2  C2  UNL     1      15.115   9.221  54.053  1.00  0.00     0.002 C 
HETATM    3  N1  UNL     1      15.187  10.457  54.692  1.00  0.00    -0.285 N 
ATOM      4  H1  UNL     1      15.876  11.139  54.377  1.00  0.00     0.179 HD
HETATM    5  C3  UNL     1      14.328  10.791  55.766  1.00  0.00     0.251 C 
HETATM    6  O1  UNL     1      13.490   9.936  56.135  1.00  0.00    -0.270 OA
ENDROOT
BRANCH   5   7
HETATM    7  C4  UNL     1      14.363  12.087  56.476  1.00  0.00     0.173 C 
HETATM    8  C5  UNL     1      15.317  13.066  55.810  1.00  0.00     0.042 C 
BRANCH   7   9
HETATM    9  N2  UNL     1      14.711  11.942  57.863  1.00  0.00    -0.346 N 
HETATM   10  C6  UNL     1      13.778  12.190  58.895  1.00  0.00     0.243 C 
HETATM   11  O2  UNL     1      12.616  12.547  58.564  1.00  0.00    -0.271 OA
ATOM     12  H2  UNL     1      15.658  11.653  58.109  1.00  0.00     0.163 HD
BRANCH  10  13
HETATM   13  C7  UNL     1      14.158  12.035  60.342  1.00  0.00     0.202 C 
HETATM   14  C8  UNL     1      12.960  12.184  61.238  1.00  0.00     0.202 C 
HETATM   15  O3  UNL     1      12.810  13.455  61.759  1.00  0.00    -0.387 OA
HETATM   16  C9  UNL     1      13.951  13.953  62.356  1.00  0.00     0.187 C 
HETATM   17  C10 UNL     1      14.930  14.218  61.202  1.00  0.00     0.152 C 
HETATM   18  N3  UNL     1      15.239  12.915  60.678  1.00  0.00    -0.338 N 
HETATM   19  C11 UNL     1      16.608  12.578  60.526  1.00  0.00     0.184 C 
HETATM   20  N4  UNL     1      16.981  11.323  60.571  1.00  0.00    -0.374 N 
HETATM   21  N5  UNL     1      17.619  13.542  60.324  1.00  0.00    -0.064 NA
ATOM     22  H42 UNL     1      16.250  10.627  60.717  1.00  0.00     0.158 HD
ATOM     23  H41 UNL     1      17.966  11.081  60.462  1.00  0.00     0.158 HD
ENDBRANCH  10  13
ENDBRANCH   7   9
ENDBRANCH   5   7
TORSDOF 3
ENDMDL
MODEL 5
REMARK VINA RESULT: -6.848668637      1.213      1.278
REMARK  3 active torsions:
REMARK  status: ('A' for Active; 'I' for Inactive)
REMARK       I    between atoms: N1_3  and  C3_5 
REMARK    1  A    between atoms: C3_5  and  C4_7 
REMARK    2  A    between atoms: C4_7  and  N2_9 
REMARK       I    between atoms: N2_9  and  C6_11 
REMARK    3  A    between atoms: C6_11  and  C7_13 
REMARK       I    between atoms: N3_18  and  C11_19 
ROOT
HETATM    1  C1  UNL     1      12.463   8.826  56.075  1.00  0.00     0.037 C 
HETATM    2  C2  UNL     1      13.112   9.611  56.718  1.00  0.00     0.002 C 
HETATM    3  N1  UNL     1      13.853  10.529  57.458  1.00  0.00    -0.285 N 
ATOM      4  H1  UNL     1      14.257  10.238  58.348  1.00  0.00     0.179 HD
HETATM    5  C3  UNL     1      14.060  11.855  57.009  1.00  0.00     0.251 C 
HETATM    6  O1  UNL     1      13.553  12.189  55.913  1.00  0.00    -0.270 OA
ENDROOT
BRANCH   5   7
HETATM    7  C4  UNL     1      14.837  12.866  57.756  1.00  0.00     0.173 C 
HETATM    8  C5  UNL     1      16.144  12.292  58.281  1.00  0.00     0.042 C 
BRANCH   7   9
HETATM    9  N2  UNL     1      14.090  13.438  58.843  1.00  0.00    -0.346 N 
HETATM   10  C6  UNL     1      13.873  12.732  60.048  1.00  0.00     0.243 C 
HETATM   11  O2  UNL     1      14.355  11.573  60.147  1.00  0.00    -0.271 OA
ATOM     12  H2  UNL     1      13.708  14.378  58.742  1.00  0.00     0.163 HD
BRANCH  10  13
HETATM   13  C7  UNL     1      13.089  13.345  61.177  1.00  0.00     0.202 C 
HETATM   14  C8  UNL     1      11.648  13.542  60.794  1.00  0.00     0.202 C 
HETATM   15  O3  UNL     1      11.362  14.818  60.346  1.00  0.00    -0.387 OA
HETATM   16  C9  UNL     1      11.803  15.819  61.189  1.00  0.00     0.187 C 
HETATM   17  C10 UNL     1      13.334  15.800  61.076  1.00  0.00     0.152 C 
HETATM   18  N3  UNL     1      13.728  14.541  61.645  1.00  0.00    -0.338 N 
HETATM   19  C11 UNL     1      14.732  14.559  62.646  1.00  0.00     0.184 C 
HETATM   20  N4  UNL     1      14.775  13.609  63.547  1.00  0.00    -0.374 N 
HETATM   21  N5  UNL     1      15.715  15.568  62.729  1.00  0.00    -0.064 NA
ATOM     22  H42 UNL     1      14.064  12.880  63.486  1.00  0.00     0.158 HD
ATOM     23  H41 UNL     1      15.497  13.622  64.267  1.00  0.00     0.158 HD
ENDBRANCH  10  13
ENDBRANCH   7   9
ENDBRANCH   5   7
TORSDOF 3
ENDMDL
