MODEL 1
REMARK VINA RESULT: -9.324384606      0.000      0.000
REMARK  3 active torsions:
REMARK  status: ('A' for Active; 'I' for Inactive)
REMARK    1  A    between atoms: C2_2  and  C3_3 
REMARK    2  A    between atoms: C3_3  and  C4_4 
REMARK    3  A    between atoms: C9_9  and  N1_10 
ROOT
HETATM    1  C4  UNL     1     -19.876  38.355  -1.356  1.00  0.00    -0.038 C 
HETATM    2  C5  UNL     1     -21.165  37.752  -0.976  1.00  0.00     0.015 C 
HETATM    3  C6  UNL     1     -20.185  39.695  -2.021  1.00  0.00     0.010 C 
HETATM    4  C7  UNL     1     -21.079  39.496  -3.194  1.00  0.00     0.003 C 
HETATM    5  C8  UNL     1     -20.770  38.315  -4.027  1.00  0.00     0.039 C 
HETATM    6  C9  UNL     1     -19.347  37.786  -3.780  1.00  0.00     0.128 C 
HETATM    7  C10 UNL     1     -19.225  36.601  -4.688  1.00  0.00     0.039 C 
HETATM    8  C11 UNL     1     -17.952  35.989  -4.970  1.00  0.00     0.008 C 
HETATM    9  C12 UNL     1     -16.758  36.164  -4.119  1.00  0.00    -0.006 C 
HETATM   10  C13 UNL     1     -16.821  35.677  -2.714  1.00  0.00    -0.010 C 
HETATM   11  C14 UNL     1     -15.837  34.531  -2.412  1.00  0.00     0.005 C 
HETATM   12  C15 UNL     1     -14.431  34.807  -2.819  1.00  0.00     0.006 C 
HETATM   13  C16 UNL     1     -14.426  35.854  -3.855  1.00  0.00    -0.006 A 
HETATM   14  C17 UNL     1     -14.383  35.830  -5.268  1.00  0.00    -0.009 A 
HETATM   15  C18 UNL     1     -13.505  34.769  -5.935  1.00  0.00     0.011 C 
HETATM   16  C19 UNL     1     -15.624  35.421  -4.755  1.00  0.00    -0.002 A 
HETATM   17  C20 UNL     1     -18.147  35.127  -2.300  1.00  0.00     0.005 C 
HETATM   18  C21 UNL     1     -19.210  36.069  -1.943  1.00  0.00     0.008 C 
HETATM   19  C22 UNL     1     -19.065  37.501  -2.347  1.00  0.00     0.029 C 
ENDROOT
BRANCH   1  20
HETATM   20  C3  UNL     1     -19.014  38.590  -0.153  1.00  0.00     0.009 C 
BRANCH  20  21
HETATM   21  C2  UNL     1     -19.568  38.398   1.193  1.00  0.00    -0.004 C 
HETATM   22  C1  UNL     1     -18.683  37.852   2.269  1.00  0.00     0.005 C 
ENDBRANCH  20  21
ENDBRANCH   1  20
BRANCH   6  23
HETATM   23  N1  UNL     1     -18.524  38.904  -4.199  1.00  0.00    -0.070 N 
ATOM     24  H13 UNL     1     -17.761  38.663  -4.832  1.00  0.00     0.275 HD
ATOM     25  H12 UNL     1     -18.978  39.558  -4.836  1.00  0.00     0.275 HD
ATOM     26  H11 UNL     1     -18.231  39.306  -3.308  1.00  0.00     0.275 HD
ENDBRANCH   6  23
TORSDOF 3
ENDMDL
MODEL 2
REMARK VINA RESULT: -9.258600111      1.663      2.544
REMARK  3 active torsions:
REMARK  status: ('A' for Active; 'I' for Inactive)
REMARK    1  A    between atoms: C2_2  and  C3_3 
REMARK    2  A    between atoms: C3_3  and  C4_4 
REMARK    3  A    between atoms: C9_9  and  N1_10 
ROOT
HETATM    1  C4  UNL     1     -18.477  36.994   1.270  1.00  0.00    -0.038 C 
HETATM    2  C5  UNL     1     -19.421  36.123   1.991  1.00  0.00     0.015 C 
HETATM    3  C6  UNL     1     -19.152  38.355   1.111  1.00  0.00     0.010 C 
HETATM    4  C7  UNL     1     -20.445  38.209   0.388  1.00  0.00     0.003 C 
HETATM    5  C8  UNL     1     -20.428  37.259  -0.744  1.00  0.00     0.039 C 
HETATM    6  C9  UNL     1     -19.000  36.947  -1.220  1.00  0.00     0.128 C 
HETATM    7  C10 UNL     1     -19.184  35.974  -2.344  1.00  0.00     0.039 C 
HETATM    8  C11 UNL     1     -18.111  35.646  -3.247  1.00  0.00     0.008 C 
HETATM    9  C12 UNL     1     -16.687  35.875  -2.936  1.00  0.00    -0.006 C 
HETATM   10  C13 UNL     1     -16.097  35.151  -1.777  1.00  0.00    -0.010 C 
HETATM   11  C14 UNL     1     -14.988  34.156  -2.168  1.00  0.00     0.005 C 
HETATM   12  C15 UNL     1     -13.922  34.734  -3.034  1.00  0.00     0.006 C 
HETATM   13  C16 UNL     1     -14.452  35.928  -3.716  1.00  0.00    -0.006 A 
HETATM   14  C17 UNL     1     -15.020  36.154  -4.990  1.00  0.00    -0.009 A 
HETATM   15  C18 UNL     1     -14.431  35.389  -6.178  1.00  0.00     0.011 C 
HETATM   16  C19 UNL     1     -15.880  35.457  -4.127  1.00  0.00    -0.002 A 
HETATM   17  C20 UNL     1     -17.064  34.320  -1.000  1.00  0.00     0.005 C 
HETATM   18  C21 UNL     1     -17.943  34.990  -0.039  1.00  0.00     0.008 C 
HETATM   19  C22 UNL     1     -18.105  36.474  -0.130  1.00  0.00     0.029 C 
ENDROOT
BRANCH   1  20
HETATM   20  C3  UNL     1     -17.203  37.164   2.041  1.00  0.00     0.009 C 
BRANCH  20  21
HETATM   21  C2  UNL     1     -17.127  36.716   3.438  1.00  0.00    -0.004 C 
HETATM   22  C1  UNL     1     -16.330  35.494   3.764  1.00  0.00     0.005 C 
ENDBRANCH  20  21
ENDBRANCH   1  20
BRANCH   6  23
HETATM   23  N1  UNL     1     -18.533  38.245  -1.670  1.00  0.00    -0.070 N 
ATOM     24  H13 UNL     1     -19.211  38.782  -2.211  1.00  0.00     0.275 HD
ATOM     25  H12 UNL     1     -18.422  38.941  -0.932  1.00  0.00     0.275 HD
ATOM     26  H11 UNL     1     -17.676  38.007  -2.169  1.00  0.00     0.275 HD
ENDBRANCH   6  23
TORSDOF 3
ENDMDL
MODEL 3
REMARK VINA RESULT: -9.023041353      1.170      1.339
REMARK  3 active torsions:
REMARK  status: ('A' for Active; 'I' for Inactive)
REMARK    1  A    between atoms: C2_2  and  C3_3 
REMARK    2  A    between atoms: C3_3  and  C4_4 
REMARK    3  A    between atoms: C9_9  and  N1_10 
ROOT
HETATM    1  C4  UNL     1     -20.100  38.784  -2.665  1.00  0.00    -0.038 C 
HETATM    2  C5  UNL     1     -21.496  38.319  -2.716  1.00  0.00     0.015 C 
HETATM    3  C6  UNL     1     -20.045  40.125  -3.394  1.00  0.00     0.010 C 
HETATM    4  C7  UNL     1     -20.536  39.974  -4.791  1.00  0.00     0.003 C 
HETATM    5  C8  UNL     1     -20.097  38.742  -5.481  1.00  0.00     0.039 C 
HETATM    6  C9  UNL     1     -18.888  38.089  -4.792  1.00  0.00     0.128 C 
HETATM    7  C10 UNL     1     -18.603  36.870  -5.613  1.00  0.00     0.039 C 
HETATM    8  C11 UNL     1     -17.374  36.131  -5.473  1.00  0.00     0.008 C 
HETATM    9  C12 UNL     1     -16.501  36.220  -4.286  1.00  0.00    -0.006 C 
HETATM   10  C13 UNL     1     -17.056  35.786  -2.974  1.00  0.00    -0.010 C 
HETATM   11  C14 UNL     1     -16.339  34.563  -2.373  1.00  0.00     0.005 C 
HETATM   12  C15 UNL     1     -14.856  34.691  -2.309  1.00  0.00     0.006 C 
HETATM   13  C16 UNL     1     -14.417  35.698  -3.290  1.00  0.00    -0.006 A 
HETATM   14  C17 UNL     1     -13.930  35.625  -4.615  1.00  0.00    -0.009 A 
HETATM   15  C18 UNL     1     -12.996  34.464  -4.967  1.00  0.00     0.011 C 
HETATM   16  C19 UNL     1     -15.304  35.352  -4.525  1.00  0.00    -0.002 A 
HETATM   17  C20 UNL     1     -18.492  35.378  -3.005  1.00  0.00     0.005 C 
HETATM   18  C21 UNL     1     -19.514  36.427  -3.006  1.00  0.00     0.008 C 
HETATM   19  C22 UNL     1     -19.106  37.826  -3.344  1.00  0.00     0.029 C 
ENDROOT
BRANCH   1  20
HETATM   20  C3  UNL     1     -19.646  38.976  -1.249  1.00  0.00     0.009 C 
BRANCH  20  21
HETATM   21  C2  UNL     1     -20.549  38.644  -0.139  1.00  0.00    -0.004 C 
HETATM   22  C1  UNL     1     -21.189  39.755   0.630  1.00  0.00     0.005 C 
ENDBRANCH  20  21
ENDBRANCH   1  20
BRANCH   6  23
HETATM   23  N1  UNL     1     -17.866  39.111  -4.927  1.00  0.00    -0.070 N 
ATOM     24  H13 UNL     1     -17.137  38.902  -5.609  1.00  0.00     0.275 HD
ATOM     25  H12 UNL     1     -18.176  39.973  -5.374  1.00  0.00     0.275 HD
ATOM     26  H11 UNL     1     -17.538  39.219  -3.967  1.00  0.00     0.275 HD
ENDBRANCH   6  23
TORSDOF 3
ENDMDL
MODEL 4
REMARK VINA RESULT: -8.814793189      1.685      6.101
REMARK  3 active torsions:
REMARK  status: ('A' for Active; 'I' for Inactive)
REMARK    1  A    between atoms: C2_2  and  C3_3 
REMARK    2  A    between atoms: C3_3  and  C4_4 
REMARK    3  A    between atoms: C9_9  and  N1_10 
ROOT
HETATM    1  C4  UNL     1     -16.932  36.141  -6.695  1.00  0.00    -0.038 C 
HETATM    2  C5  UNL     1     -16.997  34.841  -7.383  1.00  0.00     0.015 C 
HETATM    3  C6  UNL     1     -15.499  36.652  -6.829  1.00  0.00     0.010 C 
HETATM    4  C7  UNL     1     -14.544  35.665  -6.255  1.00  0.00     0.003 C 
HETATM    5  C8  UNL     1     -14.982  35.024  -4.997  1.00  0.00     0.039 C 
HETATM    6  C9  UNL     1     -16.112  35.807  -4.309  1.00  0.00     0.128 C 
HETATM    7  C10 UNL     1     -16.426  35.011  -3.080  1.00  0.00     0.039 C 
HETATM    8  C11 UNL     1     -17.232  35.546  -2.014  1.00  0.00     0.008 C 
HETATM    9  C12 UNL     1     -18.144  36.695  -2.180  1.00  0.00    -0.006 C 
HETATM   10  C13 UNL     1     -19.278  36.557  -3.135  1.00  0.00    -0.010 C 
HETATM   11  C14 UNL     1     -20.663  36.626  -2.464  1.00  0.00     0.005 C 
HETATM   12  C15 UNL     1     -20.856  37.805  -1.574  1.00  0.00     0.006 C 
HETATM   13  C16 UNL     1     -19.537  38.310  -1.153  1.00  0.00    -0.006 A 
HETATM   14  C17 UNL     1     -18.734  38.108  -0.007  1.00  0.00    -0.009 A 
HETATM   15  C18 UNL     1     -19.441  38.001   1.347  1.00  0.00     0.011 C 
HETATM   16  C19 UNL     1     -18.767  36.988  -0.850  1.00  0.00    -0.002 A 
HETATM   17  C20 UNL     1     -19.310  35.267  -3.887  1.00  0.00     0.005 C 
HETATM   18  C21 UNL     1     -18.419  35.111  -5.039  1.00  0.00     0.008 C 
HETATM   19  C22 UNL     1     -17.278  36.064  -5.197  1.00  0.00     0.029 C 
ENDROOT
BRANCH   1  20
HETATM   20  C3  UNL     1     -17.867  37.131  -7.322  1.00  0.00     0.009 C 
BRANCH  20  21
HETATM   21  C2  UNL     1     -18.494  38.171  -6.497  1.00  0.00    -0.004 C 
HETATM   22  C1  UNL     1     -19.986  38.242  -6.431  1.00  0.00     0.005 C 
ENDBRANCH  20  21
ENDBRANCH   1  20
BRANCH   6  23
HETATM   23  N1  UNL     1     -15.472  37.075  -4.010  1.00  0.00    -0.070 N 
ATOM     24  H13 UNL     1     -14.584  37.002  -3.514  1.00  0.00     0.275 HD
ATOM     25  H12 UNL     1     -15.094  37.567  -4.819  1.00  0.00     0.275 HD
ATOM     26  H11 UNL     1     -16.205  37.576  -3.507  1.00  0.00     0.275 HD
ENDBRANCH   6  23
TORSDOF 3
ENDMDL
MODEL 5
REMARK VINA RESULT: -8.647642883      1.881      5.553
REMARK  3 active torsions:
REMARK  status: ('A' for Active; 'I' for Inactive)
REMARK    1  A    between atoms: C2_2  and  C3_3 
REMARK    2  A    between atoms: C3_3  and  C4_4 
REMARK    3  A    between atoms: C9_9  and  N1_10 
ROOT
HETATM    1  C4  UNL     1     -18.460  37.518  -6.020  1.00  0.00    -0.038 C 
HETATM    2  C5  UNL     1     -19.233  36.706  -6.974  1.00  0.00     0.015 C 
HETATM    3  C6  UNL     1     -16.993  37.430  -6.439  1.00  0.00     0.010 C 
HETATM    4  C7  UNL     1     -16.547  36.011  -6.459  1.00  0.00     0.003 C 
HETATM    5  C8  UNL     1     -17.044  35.179  -5.343  1.00  0.00     0.039 C 
HETATM    6  C9  UNL     1     -17.552  36.028  -4.167  1.00  0.00     0.128 C 
HETATM    7  C10 UNL     1     -18.020  35.027  -3.156  1.00  0.00     0.039 C 
HETATM    8  C11 UNL     1     -18.309  35.401  -1.795  1.00  0.00     0.008 C 
HETATM    9  C12 UNL     1     -18.581  36.788  -1.372  1.00  0.00    -0.006 C 
HETATM   10  C13 UNL     1     -19.772  37.474  -1.943  1.00  0.00    -0.010 C 
HETATM   11  C14 UNL     1     -20.842  37.831  -0.894  1.00  0.00     0.005 C 
HETATM   12  C15 UNL     1     -20.319  38.568   0.291  1.00  0.00     0.006 C 
HETATM   13  C16 UNL     1     -18.873  38.315   0.414  1.00  0.00    -0.006 A 
HETATM   14  C17 UNL     1     -18.102  37.403   1.171  1.00  0.00    -0.009 A 
HETATM   15  C18 UNL     1     -18.566  37.090   2.596  1.00  0.00     0.011 C 
HETATM   16  C19 UNL     1     -18.786  36.787   0.112  1.00  0.00    -0.002 A 
HETATM   17  C20 UNL     1     -20.522  36.682  -2.962  1.00  0.00     0.005 C 
HETATM   18  C21 UNL     1     -19.994  36.626  -4.327  1.00  0.00     0.008 C 
HETATM   19  C22 UNL     1     -18.575  37.034  -4.564  1.00  0.00     0.029 C 
ENDROOT
BRANCH   1  20
HETATM   20  C3  UNL     1     -18.895  38.952  -6.054  1.00  0.00     0.009 C 
BRANCH  20  21
HETATM   21  C2  UNL     1     -18.646  39.821  -4.897  1.00  0.00    -0.004 C 
HETATM   22  C1  UNL     1     -19.806  40.484  -4.225  1.00  0.00     0.005 C 
ENDBRANCH  20  21
ENDBRANCH   1  20
BRANCH   6  23
HETATM   23  N1  UNL     1     -16.352  36.730  -3.751  1.00  0.00    -0.070 N 
ATOM     24  H13 UNL     1     -16.343  37.024  -2.774  1.00  0.00     0.275 HD
ATOM     25  H12 UNL     1     -15.515  36.151  -3.688  1.00  0.00     0.275 HD
ATOM     26  H11 UNL     1     -16.298  37.490  -4.429  1.00  0.00     0.275 HD
ENDBRANCH   6  23
TORSDOF 3
ENDMDL
