MODEL 1
REMARK VINA RESULT: -9.116487057      0.000      0.000
REMARK  13 active torsions:
REMARK  status: ('A' for Active; 'I' for Inactive)
REMARK    1  A    between atoms: N1_1  and  C1_5 
REMARK    2  A    between atoms: C1_5  and  C2_6 
REMARK    3  A    between atoms: C2_6  and  C3_7 
REMARK    4  A    between atoms: C3_7  and  C4_8 
REMARK    5  A    between atoms: N2_9  and  C5_11 
REMARK    6  A    between atoms: C5_11  and  C6_12 
REMARK    7  A    between atoms: C5_11  and  N5_32 
REMARK    8  A    between atoms: C6_12  and  N3_13 
REMARK    9  A    between atoms: C10_17  and  N4_18 
REMARK       I    between atoms: N4_18  and  C11_20 
REMARK   10  A    between atoms: C11_20  and  C12_22 
REMARK   11  A    between atoms: C12_22  and  C13_23 
REMARK   12  A    between atoms: N5_32  and  C20_34 
REMARK   13  A    between atoms: C20_34  and  C21_35 
ROOT
HETATM    1  C5  UNL     1      45.418  47.376  45.051  1.00  0.00     0.220 C 
ENDROOT
BRANCH   1   2
HETATM    2  N2  UNL     1      44.813  48.612  45.394  1.00  0.00    -0.378 N 
HETATM    3  C4  UNL     1      44.320  49.580  44.571  1.00  0.00     0.058 C 
ATOM      4  H2  UNL     1      44.736  48.802  46.393  1.00  0.00     0.161 HD
BRANCH   3   5
HETATM    5  C3  UNL     1      45.275  50.467  43.868  1.00  0.00     0.046 C 
BRANCH   5   6
HETATM    6  C2  UNL     1      44.818  51.937  43.870  1.00  0.00     0.032 C 
BRANCH   6   7
HETATM    7  C1  UNL     1      45.601  52.687  44.896  1.00  0.00     0.230 C 
BRANCH   7   8
HETATM    8  N1  UNL     1      44.775  53.811  45.349  1.00  0.00    -0.079 N 
ATOM      9  H13 UNL     1      43.985  53.998  44.732  1.00  0.00     0.274 HD
ATOM     10  H12 UNL     1      44.240  53.597  46.191  1.00  0.00     0.274 HD
ATOM     11  H11 UNL     1      45.388  54.618  45.463  1.00  0.00     0.274 HD
ENDBRANCH   7   8
ENDBRANCH   6   7
ENDBRANCH   5   6
ENDBRANCH   3   5
ENDBRANCH   1   2
BRANCH   1  12
HETATM   12  C6  UNL     1      45.225  46.322  46.019  1.00  0.00     0.113 C 
BRANCH  12  13
HETATM   13  N3  UNL     1      46.139  45.943  47.029  1.00  0.00    -0.326 N 
HETATM   14  C7  UNL     1      47.372  46.633  47.346  1.00  0.00     0.131 C 
HETATM   15  C8  UNL     1      48.432  45.731  47.864  1.00  0.00     0.023 C 
HETATM   16  C9  UNL     1      48.019  44.652  48.784  1.00  0.00     0.036 C 
HETATM   17  C10 UNL     1      46.553  44.642  49.128  1.00  0.00     0.177 C 
HETATM   18  C19 UNL     1      45.815  44.796  47.847  1.00  0.00     0.246 C 
HETATM   19  O2  UNL     1      44.939  43.982  47.463  1.00  0.00    -0.271 OA
BRANCH  17  20
HETATM   20  N4  UNL     1      46.284  43.359  49.765  1.00  0.00    -0.347 N 
HETATM   21  C11 UNL     1      45.347  43.214  50.817  1.00  0.00     0.228 C 
HETATM   22  O1  UNL     1      44.741  44.246  51.194  1.00  0.00    -0.273 OA
ATOM     23  H4  UNL     1      46.790  42.535  49.442  1.00  0.00     0.163 HD
BRANCH  21  24
HETATM   24  C12 UNL     1      45.059  41.924  51.478  1.00  0.00     0.050 C 
HETATM   25  C14 UNL     1      43.607  41.528  51.312  1.00  0.00     0.020 C 
HETATM   26  C15 UNL     1      43.383  40.625  50.125  1.00  0.00     0.001 C 
HETATM   27  C16 UNL     1      44.110  39.307  50.277  1.00  0.00     0.000 C 
HETATM   28  C17 UNL     1      45.294  39.491  51.219  1.00  0.00     0.001 C 
HETATM   29  C18 UNL     1      45.917  40.822  50.921  1.00  0.00     0.020 C 
BRANCH  24  30
HETATM   30  C13 UNL     1      45.280  42.035  52.993  1.00  0.00     0.105 C 
HETATM   31  S1  UNL     1      47.033  42.250  53.362  1.00  0.00    -0.096 SA
ENDBRANCH  24  30
ENDBRANCH  21  24
ENDBRANCH  17  20
ENDBRANCH  12  13
ENDBRANCH   1  12
BRANCH   1  32
HETATM   32  N5  UNL     1      45.197  47.169  43.653  1.00  0.00    -0.377 N 
ATOM     33  H5  UNL     1      44.260  47.004  43.287  1.00  0.00     0.161 HD
BRANCH  32  34
HETATM   34  C20 UNL     1      46.296  47.199  42.815  1.00  0.00     0.062 C 
BRANCH  34  35
HETATM   35  C21 UNL     1      46.013  46.752  41.385  1.00  0.00     0.024 C 
HETATM   36  C22 UNL     1      44.579  46.412  41.163  1.00  0.00     0.010 C 
HETATM   37  C23 UNL     1      44.398  45.875  39.761  1.00  0.00     0.001 C 
HETATM   38  C24 UNL     1      45.455  46.353  38.796  1.00  0.00     0.000 C 
HETATM   39  C25 UNL     1      45.851  47.764  39.088  1.00  0.00     0.001 C 
HETATM   40  C26 UNL     1      46.427  47.854  40.468  1.00  0.00     0.010 C 
ENDBRANCH  34  35
ENDBRANCH  32  34
ENDBRANCH   1  32
TORSDOF 13
ENDMDL
MODEL 2
REMARK VINA RESULT: -9.063788267      3.046      5.678
REMARK  13 active torsions:
REMARK  status: ('A' for Active; 'I' for Inactive)
REMARK    1  A    between atoms: N1_1  and  C1_5 
REMARK    2  A    between atoms: C1_5  and  C2_6 
REMARK    3  A    between atoms: C2_6  and  C3_7 
REMARK    4  A    between atoms: C3_7  and  C4_8 
REMARK    5  A    between atoms: N2_9  and  C5_11 
REMARK    6  A    between atoms: C5_11  and  C6_12 
REMARK    7  A    between atoms: C5_11  and  N5_32 
REMARK    8  A    between atoms: C6_12  and  N3_13 
REMARK    9  A    between atoms: C10_17  and  N4_18 
REMARK       I    between atoms: N4_18  and  C11_20 
REMARK   10  A    between atoms: C11_20  and  C12_22 
REMARK   11  A    between atoms: C12_22  and  C13_23 
REMARK   12  A    between atoms: N5_32  and  C20_34 
REMARK   13  A    between atoms: C20_34  and  C21_35 
ROOT
HETATM    1  C5  UNL     1      45.708  48.702  40.215  1.00  0.00     0.220 C 
ENDROOT
BRANCH   1   2
HETATM    2  N2  UNL     1      46.154  47.843  39.180  1.00  0.00    -0.378 N 
HETATM    3  C4  UNL     1      45.457  46.889  38.500  1.00  0.00     0.058 C 
ATOM      4  H2  UNL     1      47.131  47.953  38.906  1.00  0.00     0.161 HD
BRANCH   3   5
HETATM    5  C3  UNL     1      45.170  45.603  39.176  1.00  0.00     0.046 C 
BRANCH   5   6
HETATM    6  C2  UNL     1      43.759  45.567  39.788  1.00  0.00     0.032 C 
BRANCH   6   7
HETATM    7  C1  UNL     1      42.830  46.346  38.916  1.00  0.00     0.230 C 
BRANCH   7   8
HETATM    8  N1  UNL     1      41.631  46.650  39.703  1.00  0.00    -0.079 N 
ATOM      9  H13 UNL     1      41.229  45.825  40.149  1.00  0.00     0.274 HD
ATOM     10  H12 UNL     1      41.837  47.175  40.554  1.00  0.00     0.274 HD
ATOM     11  H11 UNL     1      40.973  47.130  39.090  1.00  0.00     0.274 HD
ENDBRANCH   7   8
ENDBRANCH   6   7
ENDBRANCH   5   6
ENDBRANCH   3   5
ENDBRANCH   1   2
BRANCH   1  12
HETATM   12  C6  UNL     1      46.353  48.494  41.491  1.00  0.00     0.113 C 
BRANCH  12  13
HETATM   13  N3  UNL     1      45.710  48.447  42.749  1.00  0.00    -0.326 N 
HETATM   14  C7  UNL     1      44.538  49.211  43.122  1.00  0.00     0.131 C 
HETATM   15  C8  UNL     1      44.492  49.547  44.567  1.00  0.00     0.023 C 
HETATM   16  C9  UNL     1      44.940  48.513  45.522  1.00  0.00     0.036 C 
HETATM   17  C10 UNL     1      45.343  47.206  44.893  1.00  0.00     0.177 C 
HETATM   18  C19 UNL     1      46.230  47.539  43.748  1.00  0.00     0.246 C 
HETATM   19  O2  UNL     1      47.387  47.068  43.622  1.00  0.00    -0.271 OA
BRANCH  17  20
HETATM   20  N4  UNL     1      46.039  46.446  45.923  1.00  0.00    -0.347 N 
HETATM   21  C11 UNL     1      45.360  45.606  46.839  1.00  0.00     0.228 C 
HETATM   22  O1  UNL     1      44.112  45.533  46.736  1.00  0.00    -0.273 OA
ATOM     23  H4  UNL     1      47.055  46.522  45.987  1.00  0.00     0.163 HD
BRANCH  21  24
HETATM   24  C12 UNL     1      46.046  44.826  47.891  1.00  0.00     0.050 C 
HETATM   25  C14 UNL     1      45.410  45.045  49.246  1.00  0.00     0.020 C 
HETATM   26  C15 UNL     1      44.370  44.002  49.575  1.00  0.00     0.001 C 
HETATM   27  C16 UNL     1      44.975  42.618  49.670  1.00  0.00     0.000 C 
HETATM   28  C17 UNL     1      46.252  42.569  48.842  1.00  0.00     0.001 C 
HETATM   29  C18 UNL     1      46.018  43.354  47.586  1.00  0.00     0.020 C 
BRANCH  24  30
HETATM   30  C13 UNL     1      47.501  45.294  48.044  1.00  0.00     0.105 C 
HETATM   31  S1  UNL     1      47.743  46.094  49.643  1.00  0.00    -0.096 SA
ENDBRANCH  24  30
ENDBRANCH  21  24
ENDBRANCH  17  20
ENDBRANCH  12  13
ENDBRANCH   1  12
BRANCH   1  32
HETATM   32  N5  UNL     1      45.558  50.008  39.649  1.00  0.00    -0.377 N 
ATOM     33  H5  UNL     1      46.369  50.549  39.351  1.00  0.00     0.161 HD
BRANCH  32  34
HETATM   34  C20 UNL     1      44.277  50.510  39.519  1.00  0.00     0.062 C 
BRANCH  34  35
HETATM   35  C21 UNL     1      43.606  50.194  38.187  1.00  0.00     0.024 C 
HETATM   36  C22 UNL     1      42.132  50.015  38.317  1.00  0.00     0.010 C 
HETATM   37  C23 UNL     1      41.555  49.597  36.983  1.00  0.00     0.001 C 
HETATM   38  C24 UNL     1      42.392  50.033  35.806  1.00  0.00     0.000 C 
HETATM   39  C25 UNL     1      43.005  51.374  36.049  1.00  0.00     0.001 C 
HETATM   40  C26 UNL     1      43.906  51.310  37.244  1.00  0.00     0.010 C 
ENDBRANCH  34  35
ENDBRANCH  32  34
ENDBRANCH   1  32
TORSDOF 13
ENDMDL
MODEL 3
REMARK VINA RESULT: -8.856241366      1.178      1.662
REMARK  13 active torsions:
REMARK  status: ('A' for Active; 'I' for Inactive)
REMARK    1  A    between atoms: N1_1  and  C1_5 
REMARK    2  A    between atoms: C1_5  and  C2_6 
REMARK    3  A    between atoms: C2_6  and  C3_7 
REMARK    4  A    between atoms: C3_7  and  C4_8 
REMARK    5  A    between atoms: N2_9  and  C5_11 
REMARK    6  A    between atoms: C5_11  and  C6_12 
REMARK    7  A    between atoms: C5_11  and  N5_32 
REMARK    8  A    between atoms: C6_12  and  N3_13 
REMARK    9  A    between atoms: C10_17  and  N4_18 
REMARK       I    between atoms: N4_18  and  C11_20 
REMARK   10  A    between atoms: C11_20  and  C12_22 
REMARK   11  A    between atoms: C12_22  and  C13_23 
REMARK   12  A    between atoms: N5_32  and  C20_34 
REMARK   13  A    between atoms: C20_34  and  C21_35 
ROOT
HETATM    1  C5  UNL     1      45.437  47.361  45.106  1.00  0.00     0.220 C 
ENDROOT
BRANCH   1   2
HETATM    2  N2  UNL     1      44.883  48.610  45.481  1.00  0.00    -0.378 N 
HETATM    3  C4  UNL     1      44.375  49.594  44.686  1.00  0.00     0.058 C 
ATOM      4  H2  UNL     1      44.861  48.800  46.483  1.00  0.00     0.161 HD
BRANCH   3   5
HETATM    5  C3  UNL     1      45.317  50.458  43.937  1.00  0.00     0.046 C 
BRANCH   5   6
HETATM    6  C2  UNL     1      44.836  51.918  43.860  1.00  0.00     0.032 C 
BRANCH   6   7
HETATM    7  C1  UNL     1      45.655  52.748  44.793  1.00  0.00     0.230 C 
BRANCH   7   8
HETATM    8  N1  UNL     1      44.794  53.819  45.305  1.00  0.00    -0.079 N 
ATOM      9  H13 UNL     1      44.336  53.575  46.183  1.00  0.00     0.274 HD
ATOM     10  H12 UNL     1      45.322  54.623  45.648  1.00  0.00     0.274 HD
ATOM     11  H11 UNL     1      44.134  54.063  44.567  1.00  0.00     0.274 HD
ENDBRANCH   7   8
ENDBRANCH   6   7
ENDBRANCH   5   6
ENDBRANCH   3   5
ENDBRANCH   1   2
BRANCH   1  12
HETATM   12  C6  UNL     1      45.192  46.288  46.041  1.00  0.00     0.113 C 
BRANCH  12  13
HETATM   13  N3  UNL     1      46.070  45.858  47.062  1.00  0.00    -0.326 N 
HETATM   14  C7  UNL     1      47.267  46.553  47.487  1.00  0.00     0.131 C 
HETATM   15  C8  UNL     1      48.329  45.642  47.986  1.00  0.00     0.023 C 
HETATM   16  C9  UNL     1      47.907  44.488  48.804  1.00  0.00     0.036 C 
HETATM   17  C10 UNL     1      46.428  44.414  49.077  1.00  0.00     0.177 C 
HETATM   18  C19 UNL     1      45.743  44.644  47.778  1.00  0.00     0.246 C 
HETATM   19  O2  UNL     1      44.909  43.839  47.295  1.00  0.00    -0.271 OA
BRANCH  17  20
HETATM   20  N4  UNL     1      46.168  43.081  49.605  1.00  0.00    -0.347 N 
HETATM   21  C11 UNL     1      45.050  42.793  50.426  1.00  0.00     0.228 C 
HETATM   22  O1  UNL     1      44.273  43.740  50.693  1.00  0.00    -0.273 OA
ATOM     23  H4  UNL     1      46.815  42.327  49.374  1.00  0.00     0.163 HD
BRANCH  21  24
HETATM   24  C12 UNL     1      44.768  41.449  50.973  1.00  0.00     0.050 C 
HETATM   25  C14 UNL     1      46.016  40.593  51.012  1.00  0.00     0.020 C 
HETATM   26  C15 UNL     1      46.720  40.655  52.345  1.00  0.00     0.001 C 
HETATM   27  C16 UNL     1      45.859  40.105  53.461  1.00  0.00     0.000 C 
HETATM   28  C17 UNL     1      44.392  40.221  53.069  1.00  0.00     0.001 C 
HETATM   29  C18 UNL     1      44.206  41.532  52.365  1.00  0.00     0.020 C 
BRANCH  24  30
HETATM   30  C13 UNL     1      43.786  40.694  50.064  1.00  0.00     0.105 C 
HETATM   31  S1  UNL     1      44.680  39.613  48.929  1.00  0.00    -0.096 SA
ENDBRANCH  24  30
ENDBRANCH  21  24
ENDBRANCH  17  20
ENDBRANCH  12  13
ENDBRANCH   1  12
BRANCH   1  32
HETATM   32  N5  UNL     1      45.219  47.203  43.701  1.00  0.00    -0.377 N 
ATOM     33  H5  UNL     1      44.281  47.061  43.327  1.00  0.00     0.161 HD
BRANCH  32  34
HETATM   34  C20 UNL     1      46.320  47.250  42.867  1.00  0.00     0.062 C 
BRANCH  34  35
HETATM   35  C21 UNL     1      46.048  46.805  41.435  1.00  0.00     0.024 C 
HETATM   36  C22 UNL     1      44.636  46.379  41.225  1.00  0.00     0.010 C 
HETATM   37  C23 UNL     1      44.472  45.850  39.818  1.00  0.00     0.001 C 
HETATM   38  C24 UNL     1      45.485  46.407  38.847  1.00  0.00     0.000 C 
HETATM   39  C25 UNL     1      45.794  47.836  39.154  1.00  0.00     0.001 C 
HETATM   40  C26 UNL     1      46.380  47.943  40.529  1.00  0.00     0.010 C 
ENDBRANCH  34  35
ENDBRANCH  32  34
ENDBRANCH   1  32
TORSDOF 13
ENDMDL
MODEL 4
REMARK VINA RESULT: -8.792541028      3.162     10.782
REMARK  13 active torsions:
REMARK  status: ('A' for Active; 'I' for Inactive)
REMARK    1  A    between atoms: N1_1  and  C1_5 
REMARK    2  A    between atoms: C1_5  and  C2_6 
REMARK    3  A    between atoms: C2_6  and  C3_7 
REMARK    4  A    between atoms: C3_7  and  C4_8 
REMARK    5  A    between atoms: N2_9  and  C5_11 
REMARK    6  A    between atoms: C5_11  and  C6_12 
REMARK    7  A    between atoms: C5_11  and  N5_32 
REMARK    8  A    between atoms: C6_12  and  N3_13 
REMARK    9  A    between atoms: C10_17  and  N4_18 
REMARK       I    between atoms: N4_18  and  C11_20 
REMARK   10  A    between atoms: C11_20  and  C12_22 
REMARK   11  A    between atoms: C12_22  and  C13_23 
REMARK   12  A    between atoms: N5_32  and  C20_34 
REMARK   13  A    between atoms: C20_34  and  C21_35 
ROOT
HETATM    1  C5  UNL     1      44.834  43.237  50.303  1.00  0.00     0.220 C 
ENDROOT
BRANCH   1   2
HETATM    2  N2  UNL     1      43.560  42.683  50.585  1.00  0.00    -0.378 N 
HETATM    3  C4  UNL     1      43.252  41.435  51.039  1.00  0.00     0.058 C 
ATOM      4  H2  UNL     1      42.765  43.302  50.426  1.00  0.00     0.161 HD
BRANCH   3   5
HETATM    5  C3  UNL     1      43.319  40.298  50.092  1.00  0.00     0.046 C 
BRANCH   5   6
HETATM    6  C2  UNL     1      44.267  39.188  50.579  1.00  0.00     0.032 C 
BRANCH   6   7
HETATM    7  C1  UNL     1      45.027  38.651  49.411  1.00  0.00     0.230 C 
BRANCH   7   8
HETATM    8  N1  UNL     1      44.855  39.593  48.300  1.00  0.00    -0.079 N 
ATOM      9  H13 UNL     1      43.960  39.486  47.823  1.00  0.00     0.274 HD
ATOM     10  H12 UNL     1      44.726  40.556  48.612  1.00  0.00     0.274 HD
ATOM     11  H11 UNL     1      45.653  39.482  47.675  1.00  0.00     0.274 HD
ENDBRANCH   7   8
ENDBRANCH   6   7
ENDBRANCH   5   6
ENDBRANCH   3   5
ENDBRANCH   1   2
BRANCH   1  12
HETATM   12  C6  UNL     1      45.157  43.323  48.898  1.00  0.00     0.113 C 
BRANCH  12  13
HETATM   13  N3  UNL     1      45.930  44.333  48.283  1.00  0.00    -0.326 N 
HETATM   14  C7  UNL     1      47.340  44.570  48.516  1.00  0.00     0.131 C 
HETATM   15  C8  UNL     1      47.728  45.996  48.367  1.00  0.00     0.023 C 
HETATM   16  C9  UNL     1      47.098  46.762  47.272  1.00  0.00     0.036 C 
HETATM   17  C10 UNL     1      46.166  45.966  46.398  1.00  0.00     0.177 C 
HETATM   18  C19 UNL     1      45.287  45.189  47.310  1.00  0.00     0.246 C 
HETATM   19  O2  UNL     1      44.033  45.250  47.264  1.00  0.00    -0.271 OA
BRANCH  17  20
HETATM   20  N4  UNL     1      45.417  46.929  45.602  1.00  0.00    -0.347 N 
HETATM   21  C11 UNL     1      45.923  47.479  44.399  1.00  0.00     0.228 C 
HETATM   22  O1  UNL     1      47.062  47.105  44.030  1.00  0.00    -0.273 OA
ATOM     23  H4  UNL     1      44.493  47.218  45.924  1.00  0.00     0.163 HD
BRANCH  21  24
HETATM   24  C12 UNL     1      45.181  48.457  43.576  1.00  0.00     0.050 C 
HETATM   25  C14 UNL     1      44.447  49.462  44.438  1.00  0.00     0.020 C 
HETATM   26  C15 UNL     1      45.246  50.720  44.671  1.00  0.00     0.001 C 
HETATM   27  C16 UNL     1      45.511  51.464  43.381  1.00  0.00     0.000 C 
HETATM   28  C17 UNL     1      45.454  50.485  42.215  1.00  0.00     0.001 C 
HETATM   29  C18 UNL     1      46.103  49.207  42.655  1.00  0.00     0.020 C 
BRANCH  24  30
HETATM   30  C13 UNL     1      44.091  47.752  42.756  1.00  0.00     0.105 C 
HETATM   31  S1  UNL     1      44.828  46.807  41.407  1.00  0.00    -0.096 SA
ENDBRANCH  24  30
ENDBRANCH  21  24
ENDBRANCH  17  20
ENDBRANCH  12  13
ENDBRANCH   1  12
BRANCH   1  32
HETATM   32  N5  UNL     1      45.022  44.343  51.191  1.00  0.00    -0.377 N 
ATOM     33  H5  UNL     1      44.406  45.155  51.158  1.00  0.00     0.161 HD
BRANCH  32  34
HETATM   34  C20 UNL     1      46.066  44.276  52.094  1.00  0.00     0.062 C 
BRANCH  34  35
HETATM   35  C21 UNL     1      45.656  43.870  53.505  1.00  0.00     0.024 C 
HETATM   36  C22 UNL     1      45.766  42.402  53.735  1.00  0.00     0.010 C 
HETATM   37  C23 UNL     1      45.241  42.065  55.112  1.00  0.00     0.001 C 
HETATM   38  C24 UNL     1      45.318  43.220  56.081  1.00  0.00     0.000 C 
HETATM   39  C25 UNL     1      46.550  44.033  55.851  1.00  0.00     0.001 C 
HETATM   40  C26 UNL     1      46.527  44.607  54.467  1.00  0.00     0.010 C 
ENDBRANCH  34  35
ENDBRANCH  32  34
ENDBRANCH   1  32
TORSDOF 13
ENDMDL
MODEL 5
REMARK VINA RESULT: -8.763880555      3.319     10.183
REMARK  13 active torsions:
REMARK  status: ('A' for Active; 'I' for Inactive)
REMARK    1  A    between atoms: N1_1  and  C1_5 
REMARK    2  A    between atoms: C1_5  and  C2_6 
REMARK    3  A    between atoms: C2_6  and  C3_7 
REMARK    4  A    between atoms: C3_7  and  C4_8 
REMARK    5  A    between atoms: N2_9  and  C5_11 
REMARK    6  A    between atoms: C5_11  and  C6_12 
REMARK    7  A    between atoms: C5_11  and  N5_32 
REMARK    8  A    between atoms: C6_12  and  N3_13 
REMARK    9  A    between atoms: C10_17  and  N4_18 
REMARK       I    between atoms: N4_18  and  C11_20 
REMARK   10  A    between atoms: C11_20  and  C12_22 
REMARK   11  A    between atoms: C12_22  and  C13_23 
REMARK   12  A    between atoms: N5_32  and  C20_34 
REMARK   13  A    between atoms: C20_34  and  C21_35 
ROOT
HETATM    1  C5  UNL     1      44.908  43.117  50.372  1.00  0.00     0.220 C 
ENDROOT
BRANCH   1   2
HETATM    2  N2  UNL     1      43.594  42.648  50.624  1.00  0.00    -0.378 N 
HETATM    3  C4  UNL     1      43.192  41.420  51.055  1.00  0.00     0.058 C 
ATOM      4  H2  UNL     1      42.847  43.323  50.461  1.00  0.00     0.161 HD
BRANCH   3   5
HETATM    5  C3  UNL     1      43.198  40.293  50.094  1.00  0.00     0.046 C 
BRANCH   5   6
HETATM    6  C2  UNL     1      44.299  39.264  50.406  1.00  0.00     0.032 C 
BRANCH   6   7
HETATM    7  C1  UNL     1      45.448  39.485  49.477  1.00  0.00     0.230 C 
BRANCH   7   8
HETATM    8  N1  UNL     1      44.926  39.437  48.108  1.00  0.00    -0.079 N 
ATOM      9  H13 UNL     1      43.914  39.552  48.064  1.00  0.00     0.274 HD
ATOM     10  H12 UNL     1      45.179  40.258  47.557  1.00  0.00     0.274 HD
ATOM     11  H11 UNL     1      45.244  38.564  47.687  1.00  0.00     0.274 HD
ENDBRANCH   7   8
ENDBRANCH   6   7
ENDBRANCH   5   6
ENDBRANCH   3   5
ENDBRANCH   1   2
BRANCH   1  12
HETATM   12  C6  UNL     1      45.261  43.199  48.974  1.00  0.00     0.113 C 
BRANCH  12  13
HETATM   13  N3  UNL     1      46.048  44.207  48.373  1.00  0.00    -0.326 N 
HETATM   14  C7  UNL     1      47.479  44.363  48.533  1.00  0.00     0.131 C 
HETATM   15  C8  UNL     1      47.929  45.775  48.444  1.00  0.00     0.023 C 
HETATM   16  C9  UNL     1      47.277  46.635  47.436  1.00  0.00     0.036 C 
HETATM   17  C10 UNL     1      46.257  45.938  46.576  1.00  0.00     0.177 C 
HETATM   18  C19 UNL     1      45.394  45.150  47.493  1.00  0.00     0.246 C 
HETATM   19  O2  UNL     1      44.144  45.272  47.527  1.00  0.00    -0.271 OA
BRANCH  17  20
HETATM   20  N4  UNL     1      45.513  46.983  45.884  1.00  0.00    -0.347 N 
HETATM   21  C11 UNL     1      45.934  47.524  44.645  1.00  0.00     0.228 C 
HETATM   22  O1  UNL     1      46.992  47.068  44.148  1.00  0.00    -0.273 OA
ATOM     23  H4  UNL     1      44.656  47.338  46.309  1.00  0.00     0.163 HD
BRANCH  21  24
HETATM   24  C12 UNL     1      45.195  48.583  43.926  1.00  0.00     0.050 C 
HETATM   25  C14 UNL     1      46.061  49.252  42.881  1.00  0.00     0.020 C 
HETATM   26  C15 UNL     1      45.903  48.635  41.514  1.00  0.00     0.001 C 
HETATM   27  C16 UNL     1      44.495  48.797  40.985  1.00  0.00     0.000 C 
HETATM   28  C17 UNL     1      43.533  48.961  42.155  1.00  0.00     0.001 C 
HETATM   29  C18 UNL     1      43.973  48.031  43.246  1.00  0.00     0.020 C 
BRANCH  24  30
HETATM   30  C13 UNL     1      44.786  49.704  44.894  1.00  0.00     0.105 C 
HETATM   31  S1  UNL     1      45.283  51.312  44.244  1.00  0.00    -0.096 SA
ENDBRANCH  24  30
ENDBRANCH  21  24
ENDBRANCH  17  20
ENDBRANCH  12  13
ENDBRANCH   1  12
BRANCH   1  32
HETATM   32  N5  UNL     1      45.156  44.195  51.279  1.00  0.00    -0.377 N 
ATOM     33  H5  UNL     1      44.613  45.057  51.233  1.00  0.00     0.161 HD
BRANCH  32  34
HETATM   34  C20 UNL     1      46.156  44.032  52.219  1.00  0.00     0.062 C 
BRANCH  34  35
HETATM   35  C21 UNL     1      47.138  45.195  52.308  1.00  0.00     0.024 C 
HETATM   36  C22 UNL     1      47.132  45.849  53.646  1.00  0.00     0.010 C 
HETATM   37  C23 UNL     1      48.044  47.055  53.623  1.00  0.00     0.001 C 
HETATM   38  C24 UNL     1      49.130  46.963  52.579  1.00  0.00     0.000 C 
HETATM   39  C25 UNL     1      49.623  45.560  52.437  1.00  0.00     0.001 C 
HETATM   40  C26 UNL     1      48.500  44.671  51.999  1.00  0.00     0.010 C 
ENDBRANCH  34  35
ENDBRANCH  32  34
ENDBRANCH   1  32
TORSDOF 13
ENDMDL
