MODEL 1
REMARK VINA RESULT: -6.250378298      0.000      0.000
REMARK  3 active torsions:
REMARK  status: ('A' for Active; 'I' for Inactive)
REMARK    1  A    between atoms: C2_2  and  C3_3 
REMARK    2  A    between atoms: C3_3  and  N1_4 
REMARK    3  A    between atoms: N1_4  and  C4_7 
ROOT
HETATM    1  C4  UNL     1      -4.758   2.847  14.812  1.00  0.00     0.332 C 
HETATM    2  O1  UNL     1      -6.016   3.390  14.580  1.00  0.00    -0.356 OA
HETATM    3  C5  UNL     1      -5.817   4.507  13.773  1.00  0.00     0.203 C 
HETATM    4  C6  UNL     1      -4.578   4.236  12.945  1.00  0.00     0.158 C 
HETATM    5  O2  UNL     1      -4.854   4.374  11.628  1.00  0.00    -0.378 OA
HETATM    6  C7  UNL     1      -4.030   3.763  10.730  1.00  0.00     0.229 C 
HETATM    7  C8  UNL     1      -4.244   2.275  10.729  1.00  0.00     0.289 C 
HETATM    8  O3  UNL     1      -5.318   1.988  11.552  1.00  0.00    -0.329 OA
HETATM    9  C9  UNL     1      -4.426   1.750  12.586  1.00  0.00     0.277 C 
HETATM   10  O4  UNL     1      -3.414   1.619  11.633  1.00  0.00    -0.329 OA
HETATM   11  C10 UNL     1      -4.115   2.920  13.440  1.00  0.00     0.128 C 
ENDROOT
BRANCH   1  12
HETATM   12  N1  UNL     1      -4.831   1.523  15.341  1.00  0.00    -0.048 N 
ATOM     13  H12 UNL     1      -4.114   0.932  14.921  1.00  0.00     0.280 HD
ATOM     14  H11 UNL     1      -5.669   1.050  15.000  1.00  0.00     0.280 HD
BRANCH  12  15
HETATM   15  C3  UNL     1      -4.764   1.451  16.768  1.00  0.00     0.235 C 
BRANCH  15  16
HETATM   16  C2  UNL     1      -5.850   0.554  17.345  1.00  0.00     0.023 C 
HETATM   17  C1  UNL     1      -7.199   1.189  17.164  1.00  0.00     0.007 C 
ENDBRANCH  15  16
ENDBRANCH  12  15
ENDBRANCH   1  12
TORSDOF 3
ENDMDL
MODEL 2
REMARK VINA RESULT: -6.026836230      2.533      3.649
REMARK  3 active torsions:
REMARK  status: ('A' for Active; 'I' for Inactive)
REMARK    1  A    between atoms: C2_2  and  C3_3 
REMARK    2  A    between atoms: C3_3  and  N1_4 
REMARK    3  A    between atoms: N1_4  and  C4_7 
ROOT
HETATM    1  C4  UNL     1      -3.912   3.403  12.625  1.00  0.00     0.332 C 
HETATM    2  O1  UNL     1      -3.622   4.004  11.405  1.00  0.00    -0.356 OA
HETATM    3  C5  UNL     1      -2.402   3.478  10.990  1.00  0.00     0.203 C 
HETATM    4  C6  UNL     1      -2.307   2.080  11.566  1.00  0.00     0.158 C 
HETATM    5  O2  UNL     1      -2.076   1.181  10.582  1.00  0.00    -0.378 OA
HETATM    6  C7  UNL     1      -2.391  -0.124  10.815  1.00  0.00     0.229 C 
HETATM    7  C8  UNL     1      -3.880  -0.330  10.802  1.00  0.00     0.289 C 
HETATM    8  O3  UNL     1      -4.481   0.855  10.419  1.00  0.00    -0.329 OA
HETATM    9  C9  UNL     1      -4.646   1.172  11.758  1.00  0.00     0.277 C 
HETATM   10  O4  UNL     1      -4.448  -0.177  12.063  1.00  0.00    -0.329 OA
HETATM   11  C10 UNL     1      -3.545   1.954  12.368  1.00  0.00     0.128 C 
ENDROOT
BRANCH   1  12
HETATM   12  N1  UNL     1      -5.274   3.590  13.007  1.00  0.00    -0.048 N 
ATOM     13  H12 UNL     1      -5.826   2.765  12.771  1.00  0.00     0.280 HD
ATOM     14  H11 UNL     1      -5.722   4.278  12.402  1.00  0.00     0.280 HD
BRANCH  12  15
HETATM   15  C3  UNL     1      -5.461   3.940  14.381  1.00  0.00     0.235 C 
BRANCH  15  16
HETATM   16  C2  UNL     1      -5.705   5.431  14.563  1.00  0.00     0.023 C 
HETATM   17  C1  UNL     1      -6.580   5.952  13.460  1.00  0.00     0.007 C 
ENDBRANCH  15  16
ENDBRANCH  12  15
ENDBRANCH   1  12
TORSDOF 3
ENDMDL
MODEL 3
REMARK VINA RESULT: -5.980983970      1.511      2.400
REMARK  3 active torsions:
REMARK  status: ('A' for Active; 'I' for Inactive)
REMARK    1  A    between atoms: C2_2  and  C3_3 
REMARK    2  A    between atoms: C3_3  and  N1_4 
REMARK    3  A    between atoms: N1_4  and  C4_7 
ROOT
HETATM    1  C4  UNL     1      -4.609   1.722  14.001  1.00  0.00     0.332 C 
HETATM    2  O1  UNL     1      -3.860   0.703  13.424  1.00  0.00    -0.356 OA
HETATM    3  C5  UNL     1      -4.253   0.636  12.090  1.00  0.00     0.203 C 
HETATM    4  C6  UNL     1      -4.687   2.031  11.689  1.00  0.00     0.158 C 
HETATM    5  O2  UNL     1      -4.003   2.439  10.595  1.00  0.00    -0.378 OA
HETATM    6  C7  UNL     1      -3.922   3.778  10.350  1.00  0.00     0.229 C 
HETATM    7  C8  UNL     1      -2.987   4.447  11.318  1.00  0.00     0.289 C 
HETATM    8  O3  UNL     1      -2.382   3.470  12.087  1.00  0.00    -0.329 OA
HETATM    9  C9  UNL     1      -3.353   3.670  13.055  1.00  0.00     0.277 C 
HETATM   10  O4  UNL     1      -3.640   4.900  12.459  1.00  0.00    -0.329 OA
HETATM   11  C10 UNL     1      -4.552   2.806  12.942  1.00  0.00     0.128 C 
ENDROOT
BRANCH   1  12
HETATM   12  N1  UNL     1      -4.085   2.126  15.265  1.00  0.00    -0.048 N 
ATOM     13  H12 UNL     1      -4.092   3.144  15.344  1.00  0.00     0.280 HD
ATOM     14  H11 UNL     1      -3.081   1.955  15.305  1.00  0.00     0.280 HD
BRANCH  12  15
HETATM   15  C3  UNL     1      -4.737   1.535  16.393  1.00  0.00     0.235 C 
BRANCH  15  16
HETATM   16  C2  UNL     1      -6.153   2.063  16.575  1.00  0.00     0.023 C 
HETATM   17  C1  UNL     1      -7.014   1.021  17.229  1.00  0.00     0.007 C 
ENDBRANCH  15  16
ENDBRANCH  12  15
ENDBRANCH   1  12
TORSDOF 3
ENDMDL
MODEL 4
REMARK VINA RESULT: -5.951756635      2.205      3.502
REMARK  3 active torsions:
REMARK  status: ('A' for Active; 'I' for Inactive)
REMARK    1  A    between atoms: C2_2  and  C3_3 
REMARK    2  A    between atoms: C3_3  and  N1_4 
REMARK    3  A    between atoms: N1_4  and  C4_7 
ROOT
HETATM    1  C4  UNL     1      -3.304   3.477  12.336  1.00  0.00     0.332 C 
HETATM    2  O1  UNL     1      -2.957   3.911  11.062  1.00  0.00    -0.356 OA
HETATM    3  C5  UNL     1      -1.880   3.126  10.660  1.00  0.00     0.203 C 
HETATM    4  C6  UNL     1      -2.031   1.787  11.351  1.00  0.00     0.158 C 
HETATM    5  O2  UNL     1      -2.020   0.786  10.441  1.00  0.00    -0.378 OA
HETATM    6  C7  UNL     1      -2.570  -0.411  10.794  1.00  0.00     0.229 C 
HETATM    7  C8  UNL     1      -4.069  -0.323  10.840  1.00  0.00     0.289 C 
HETATM    8  O3  UNL     1      -4.448   0.923  10.373  1.00  0.00    -0.329 OA
HETATM    9  C9  UNL     1      -4.490   1.371  11.684  1.00  0.00     0.277 C 
HETATM   10  O4  UNL     1      -4.542   0.037  12.098  1.00  0.00    -0.329 OA
HETATM   11  C10 UNL     1      -3.234   1.968  12.194  1.00  0.00     0.128 C 
ENDROOT
BRANCH   1  12
HETATM   12  N1  UNL     1      -4.587   3.956  12.738  1.00  0.00    -0.048 N 
ATOM     13  H12 UNL     1      -5.313   3.286  12.482  1.00  0.00     0.280 HD
ATOM     14  H11 UNL     1      -4.869   4.747  12.159  1.00  0.00     0.280 HD
BRANCH  12  15
HETATM   15  C3  UNL     1      -4.686   4.293  14.124  1.00  0.00     0.235 C 
BRANCH  15  16
HETATM   16  C2  UNL     1      -5.687   3.410  14.857  1.00  0.00     0.023 C 
HETATM   17  C1  UNL     1      -4.984   2.242  15.487  1.00  0.00     0.007 C 
ENDBRANCH  15  16
ENDBRANCH  12  15
ENDBRANCH   1  12
TORSDOF 3
ENDMDL
MODEL 5
REMARK VINA RESULT: -5.937102616      2.335      4.644
REMARK  3 active torsions:
REMARK  status: ('A' for Active; 'I' for Inactive)
REMARK    1  A    between atoms: C2_2  and  C3_3 
REMARK    2  A    between atoms: C3_3  and  N1_4 
REMARK    3  A    between atoms: N1_4  and  C4_7 
ROOT
HETATM    1  C4  UNL     1      -3.989   2.418  13.069  1.00  0.00     0.332 C 
HETATM    2  O1  UNL     1      -3.401   3.485  13.738  1.00  0.00    -0.356 OA
HETATM    3  C5  UNL     1      -4.405   4.066  14.508  1.00  0.00     0.203 C 
HETATM    4  C6  UNL     1      -5.381   2.963  14.862  1.00  0.00     0.158 C 
HETATM    5  O2  UNL     1      -5.549   2.897  16.202  1.00  0.00    -0.378 OA
HETATM    6  C7  UNL     1      -6.018   1.733  16.735  1.00  0.00     0.229 C 
HETATM    7  C8  UNL     1      -4.963   0.664  16.707  1.00  0.00     0.289 C 
HETATM    8  O3  UNL     1      -3.780   1.229  16.266  1.00  0.00    -0.329 OA
HETATM    9  C9  UNL     1      -4.088   0.808  14.983  1.00  0.00     0.277 C 
HETATM   10  O4  UNL     1      -5.003  -0.091  15.538  1.00  0.00    -0.329 OA
HETATM   11  C10 UNL     1      -4.836   1.782  14.154  1.00  0.00     0.128 C 
ENDROOT
BRANCH   1  12
HETATM   12  N1  UNL     1      -3.019   1.535  12.506  1.00  0.00    -0.048 N 
ATOM     13  H12 UNL     1      -2.806   0.780  13.159  1.00  0.00     0.280 HD
ATOM     14  H11 UNL     1      -2.108   1.989  12.461  1.00  0.00     0.280 HD
BRANCH  12  15
HETATM   15  C3  UNL     1      -3.375   1.003  11.227  1.00  0.00     0.235 C 
BRANCH  15  16
HETATM   16  C2  UNL     1      -2.870  -0.422  11.041  1.00  0.00     0.023 C 
HETATM   17  C1  UNL     1      -3.824  -1.395  11.671  1.00  0.00     0.007 C 
ENDBRANCH  15  16
ENDBRANCH  12  15
ENDBRANCH   1  12
TORSDOF 3
ENDMDL
