MODEL 1
REMARK VINA RESULT: -5.711008206      0.000      0.000
REMARK  5 active torsions:
REMARK  status: ('A' for Active; 'I' for Inactive)
REMARK    1  A    between atoms: S1_2  and  C2_3 
REMARK    2  A    between atoms: C4_5  and  N1_6 
REMARK    3  A    between atoms: N3_10  and  O1_11 
REMARK    4  A    between atoms: C7_15  and  C8_16 
REMARK    5  A    between atoms: C8_16  and  O3_17 
ROOT
HETATM    1  C2  UNL     1      -4.789   6.150  13.140  1.00  0.00     0.082 C 
HETATM    2  C3  UNL     1      -5.105   5.615  14.546  1.00  0.00     0.072 C 
HETATM    3  C4  UNL     1      -5.820   4.336  14.145  1.00  0.00     0.231 C 
HETATM    4  O2  UNL     1      -5.435   4.011  12.873  1.00  0.00    -0.358 OA
HETATM    5  C7  UNL     1      -4.400   4.839  12.486  1.00  0.00     0.161 C 
ENDROOT
BRANCH   3   6
HETATM    6  N1  UNL     1      -5.565   3.241  15.028  1.00  0.00    -0.307 N 
HETATM    7  C5  UNL     1      -6.372   2.762  15.987  1.00  0.00     0.205 A 
HETATM    8  N2  UNL     1      -5.731   1.735  16.564  1.00  0.00    -0.269 N 
HETATM    9  N3  UNL     1      -4.560   1.580  15.981  1.00  0.00    -0.158 N 
ATOM     10  H2  UNL     1      -6.092   1.167  17.331  1.00  0.00     0.190 HD
HETATM   11  C6  UNL     1      -4.447   2.499  15.036  1.00  0.00     0.239 A 
BRANCH   9  12
HETATM   12  O1  UNL     1      -3.636   0.619  16.318  1.00  0.00    -0.267 OA
ATOM     13  H1  UNL     1      -3.456  -0.163  15.810  1.00  0.00     0.247 HD
ENDBRANCH   9  12
ENDBRANCH   3   6
BRANCH   1  14
HETATM   14  S1  UNL     1      -6.368   6.765  12.485  1.00  0.00    -0.166 SA
HETATM   15  C1  UNL     1      -6.051   8.350  11.680  1.00  0.00     0.090 C 
ENDBRANCH   1  14
BRANCH   5  16
HETATM   16  C8  UNL     1      -4.271   4.957  10.994  1.00  0.00     0.197 C 
BRANCH  16  17
HETATM   17  O3  UNL     1      -4.600   3.779  10.344  1.00  0.00    -0.398 OA
ATOM     18  H3  UNL     1      -4.198   3.716   9.485  1.00  0.00     0.209 HD
ENDBRANCH  16  17
ENDBRANCH   5  16
TORSDOF 5
ENDMDL
MODEL 2
REMARK VINA RESULT: -5.700645569      1.955      2.115
REMARK  5 active torsions:
REMARK  status: ('A' for Active; 'I' for Inactive)
REMARK    1  A    between atoms: S1_2  and  C2_3 
REMARK    2  A    between atoms: C4_5  and  N1_6 
REMARK    3  A    between atoms: N3_10  and  O1_11 
REMARK    4  A    between atoms: C7_15  and  C8_16 
REMARK    5  A    between atoms: C8_16  and  O3_17 
ROOT
HETATM    1  C2  UNL     1      -3.289   3.868  13.325  1.00  0.00     0.082 C 
HETATM    2  C3  UNL     1      -3.675   3.788  14.812  1.00  0.00     0.072 C 
HETATM    3  C4  UNL     1      -5.150   3.466  14.644  1.00  0.00     0.231 C 
HETATM    4  O2  UNL     1      -5.333   2.929  13.399  1.00  0.00    -0.358 OA
HETATM    5  C7  UNL     1      -4.101   2.692  12.822  1.00  0.00     0.161 C 
ENDROOT
BRANCH   3   6
HETATM    6  N1  UNL     1      -5.655   2.574  15.641  1.00  0.00    -0.307 N 
HETATM    7  C5  UNL     1      -6.735   2.747  16.417  1.00  0.00     0.205 A 
HETATM    8  N2  UNL     1      -6.831   1.664  17.202  1.00  0.00    -0.269 N 
HETATM    9  N3  UNL     1      -5.840   0.842  16.923  1.00  0.00    -0.158 N 
ATOM     10  H2  UNL     1      -7.556   1.502  17.903  1.00  0.00     0.190 HD
HETATM   11  C6  UNL     1      -5.111   1.390  15.965  1.00  0.00     0.239 A 
BRANCH   9  12
HETATM   12  O1  UNL     1      -5.627  -0.370  17.537  1.00  0.00    -0.267 OA
ATOM     13  H1  UNL     1      -4.790  -0.669  17.871  1.00  0.00     0.247 HD
ENDBRANCH   9  12
ENDBRANCH   3   6
BRANCH   1  14
HETATM   14  S1  UNL     1      -3.974   5.440  12.727  1.00  0.00    -0.166 SA
HETATM   15  C1  UNL     1      -3.351   6.756  13.796  1.00  0.00     0.090 C 
ENDBRANCH   1  14
BRANCH   5  16
HETATM   16  C8  UNL     1      -4.159   2.632  11.322  1.00  0.00     0.197 C 
BRANCH  16  17
HETATM   17  O3  UNL     1      -5.231   1.882  10.867  1.00  0.00    -0.398 OA
ATOM     18  H3  UNL     1      -5.756   2.353  10.230  1.00  0.00     0.209 HD
ENDBRANCH  16  17
ENDBRANCH   5  16
TORSDOF 5
ENDMDL
MODEL 3
REMARK VINA RESULT: -5.636064745      1.575      1.882
REMARK  5 active torsions:
REMARK  status: ('A' for Active; 'I' for Inactive)
REMARK    1  A    between atoms: S1_2  and  C2_3 
REMARK    2  A    between atoms: C4_5  and  N1_6 
REMARK    3  A    between atoms: N3_10  and  O1_11 
REMARK    4  A    between atoms: C7_15  and  C8_16 
REMARK    5  A    between atoms: C8_16  and  O3_17 
ROOT
HETATM    1  C2  UNL     1      -3.496   4.691  13.069  1.00  0.00     0.082 C 
HETATM    2  C3  UNL     1      -3.713   4.188  14.506  1.00  0.00     0.072 C 
HETATM    3  C4  UNL     1      -4.859   3.229  14.238  1.00  0.00     0.231 C 
HETATM    4  O2  UNL     1      -4.833   2.887  12.914  1.00  0.00    -0.358 OA
HETATM    5  C7  UNL     1      -3.673   3.372  12.343  1.00  0.00     0.161 C 
ENDROOT
BRANCH   3   6
HETATM    6  N1  UNL     1      -4.818   2.052  15.049  1.00  0.00    -0.307 N 
HETATM    7  C5  UNL     1      -4.222   0.884  14.761  1.00  0.00     0.205 A 
HETATM    8  N2  UNL     1      -4.436   0.067  15.802  1.00  0.00    -0.269 N 
HETATM    9  N3  UNL     1      -5.143   0.707  16.710  1.00  0.00    -0.158 N 
ATOM     10  H2  UNL     1      -4.104  -0.895  15.878  1.00  0.00     0.190 HD
HETATM   11  C6  UNL     1      -5.384   1.927  16.259  1.00  0.00     0.239 A 
BRANCH   9  12
HETATM   12  O1  UNL     1      -5.547   0.173  17.912  1.00  0.00    -0.267 OA
ATOM     13  H1  UNL     1      -5.915   0.671  18.631  1.00  0.00     0.247 HD
ENDBRANCH   9  12
ENDBRANCH   3   6
BRANCH   1  14
HETATM   14  S1  UNL     1      -4.884   5.814  12.731  1.00  0.00    -0.166 SA
HETATM   15  C1  UNL     1      -4.194   7.415  12.259  1.00  0.00     0.090 C 
ENDBRANCH   1  14
BRANCH   5  16
HETATM   16  C8  UNL     1      -3.780   3.544  10.855  1.00  0.00     0.197 C 
BRANCH  16  17
HETATM   17  O3  UNL     1      -4.604   2.594  10.274  1.00  0.00    -0.398 OA
ATOM     18  H3  UNL     1      -4.468   1.728  10.639  1.00  0.00     0.209 HD
ENDBRANCH  16  17
ENDBRANCH   5  16
TORSDOF 5
ENDMDL
MODEL 4
REMARK VINA RESULT: -5.540529987      2.087      2.513
REMARK  5 active torsions:
REMARK  status: ('A' for Active; 'I' for Inactive)
REMARK    1  A    between atoms: S1_2  and  C2_3 
REMARK    2  A    between atoms: C4_5  and  N1_6 
REMARK    3  A    between atoms: N3_10  and  O1_11 
REMARK    4  A    between atoms: C7_15  and  C8_16 
REMARK    5  A    between atoms: C8_16  and  O3_17 
ROOT
HETATM    1  C2  UNL     1      -4.395   5.150  13.397  1.00  0.00     0.082 C 
HETATM    2  C3  UNL     1      -5.591   4.301  13.857  1.00  0.00     0.072 C 
HETATM    3  C4  UNL     1      -4.843   3.025  14.201  1.00  0.00     0.231 C 
HETATM    4  O2  UNL     1      -3.532   3.344  14.426  1.00  0.00    -0.358 OA
HETATM    5  C7  UNL     1      -3.397   4.718  14.453  1.00  0.00     0.161 C 
ENDROOT
BRANCH   3   6
HETATM    6  N1  UNL     1      -5.381   2.338  15.334  1.00  0.00    -0.307 N 
HETATM    7  C5  UNL     1      -6.354   2.759  16.156  1.00  0.00     0.205 A 
HETATM    8  N2  UNL     1      -6.535   1.798  17.074  1.00  0.00    -0.269 N 
HETATM    9  N3  UNL     1      -5.699   0.810  16.831  1.00  0.00    -0.158 N 
ATOM     10  H2  UNL     1      -7.211   1.829  17.838  1.00  0.00     0.190 HD
HETATM   11  C6  UNL     1      -4.985   1.130  15.764  1.00  0.00     0.239 A 
BRANCH   9  12
HETATM   12  O1  UNL     1      -5.608  -0.344  17.574  1.00  0.00    -0.267 OA
ATOM     13  H1  UNL     1      -6.224  -0.605  18.248  1.00  0.00     0.247 HD
ENDBRANCH   9  12
ENDBRANCH   3   6
BRANCH   1  14
HETATM   14  S1  UNL     1      -3.937   4.503  11.762  1.00  0.00    -0.166 SA
HETATM   15  C1  UNL     1      -4.470   5.706  10.525  1.00  0.00     0.090 C 
ENDBRANCH   1  14
BRANCH   5  16
HETATM   16  C8  UNL     1      -2.000   5.176  14.147  1.00  0.00     0.197 C 
BRANCH  16  17
HETATM   17  O3  UNL     1      -1.113   4.118  14.037  1.00  0.00    -0.398 OA
ATOM     18  H3  UNL     1      -0.227   4.365  14.276  1.00  0.00     0.209 HD
ENDBRANCH  16  17
ENDBRANCH   5  16
TORSDOF 5
ENDMDL
MODEL 5
REMARK VINA RESULT: -5.488545642      2.131      2.437
REMARK  5 active torsions:
REMARK  status: ('A' for Active; 'I' for Inactive)
REMARK    1  A    between atoms: S1_2  and  C2_3 
REMARK    2  A    between atoms: C4_5  and  N1_6 
REMARK    3  A    between atoms: N3_10  and  O1_11 
REMARK    4  A    between atoms: C7_15  and  C8_16 
REMARK    5  A    between atoms: C8_16  and  O3_17 
ROOT
HETATM    1  C2  UNL     1      -4.166   5.316  14.111  1.00  0.00     0.082 C 
HETATM    2  C3  UNL     1      -5.149   4.316  14.743  1.00  0.00     0.072 C 
HETATM    3  C4  UNL     1      -4.613   3.044  14.109  1.00  0.00     0.231 C 
HETATM    4  O2  UNL     1      -3.319   3.267  13.726  1.00  0.00    -0.358 OA
HETATM    5  C7  UNL     1      -2.903   4.487  14.222  1.00  0.00     0.161 C 
ENDROOT
BRANCH   3   6
HETATM    6  N1  UNL     1      -4.678   1.907  14.974  1.00  0.00    -0.307 N 
HETATM    7  C5  UNL     1      -4.211   0.672  14.733  1.00  0.00     0.205 A 
HETATM    8  N2  UNL     1      -4.489  -0.071  15.815  1.00  0.00    -0.269 N 
HETATM    9  N3  UNL     1      -5.111   0.679  16.701  1.00  0.00    -0.158 N 
ATOM     10  H2  UNL     1      -4.257  -1.057  15.932  1.00  0.00     0.190 HD
HETATM   11  C6  UNL     1      -5.233   1.896  16.196  1.00  0.00     0.239 A 
BRANCH   9  12
HETATM   12  O1  UNL     1      -5.546   0.245  17.931  1.00  0.00    -0.267 OA
ATOM     13  H1  UNL     1      -6.289  -0.330  18.073  1.00  0.00     0.247 HD
ENDBRANCH   9  12
ENDBRANCH   3   6
BRANCH   1  14
HETATM   14  S1  UNL     1      -4.688   5.484  12.379  1.00  0.00    -0.166 SA
HETATM   15  C1  UNL     1      -6.034   6.687  12.323  1.00  0.00     0.090 C 
ENDBRANCH   1  14
BRANCH   5  16
HETATM   16  C8  UNL     1      -1.758   5.075  13.447  1.00  0.00     0.197 C 
BRANCH  16  17
HETATM   17  O3  UNL     1      -0.806   4.125  13.115  1.00  0.00    -0.398 OA
ATOM     18  H3  UNL     1      -0.068   4.502  12.649  1.00  0.00     0.209 HD
ENDBRANCH  16  17
ENDBRANCH   5  16
TORSDOF 5
ENDMDL
