MODEL 1
REMARK VINA RESULT: -7.999675236      0.000      0.000
REMARK  6 active torsions:
REMARK  status: ('A' for Active; 'I' for Inactive)
REMARK    1  A    between atoms: C4_4  and  C5_5 
REMARK    2  A    between atoms: C5_5  and  C6_6 
REMARK    3  A    between atoms: C9_11  and  C10_12 
REMARK    4  A    between atoms: C10_12  and  O2_14 
REMARK    5  A    between atoms: O2_14  and  C11_15 
REMARK    6  A    between atoms: C13_17  and  O3_18 
ROOT
HETATM    1  C1  UNL     1      -7.287   8.205  11.654  1.00  0.00     0.018 C 
HETATM    2  C2  UNL     1      -6.141   7.826  11.792  1.00  0.00    -0.074 C 
HETATM    3  C3  UNL     1      -4.788   7.374  11.966  1.00  0.00     0.060 A 
HETATM    4  C4  UNL     1      -4.339   6.305  12.750  1.00  0.00     0.098 A 
HETATM    5  O4  UNL     1      -3.040   6.207  12.652  1.00  0.00    -0.301 OA
HETATM    6  C14 UNL     1      -2.560   7.144  11.848  1.00  0.00     0.129 A 
HETATM    7 BR1  UNL     1      -0.731   7.436  11.369  1.00  0.00    -0.022 Br
HETATM    8  C15 UNL     1      -3.636   7.887  11.406  1.00  0.00     0.001 A 
HETATM    9  C16 UNL     1      -3.578   9.059  10.471  1.00  0.00     0.053 C 
ENDROOT
BRANCH   4  10
HETATM   10  C5  UNL     1      -5.278   5.493  13.519  1.00  0.00     0.071 C 
BRANCH  10  11
HETATM   11  C6  UNL     1      -5.055   4.204  13.761  1.00  0.00     0.070 A 
HETATM   12  N1  UNL     1      -4.668   3.274  12.887  1.00  0.00    -0.354 N 
HETATM   13  C7  UNL     1      -4.543   2.063  13.510  1.00  0.00     0.042 A 
ATOM     14  H1  UNL     1      -4.490   3.442  11.896  1.00  0.00     0.166 HD
HETATM   15  C8  UNL     1      -4.175   0.961  12.892  1.00  0.00     0.044 C 
HETATM   16  C9  UNL     1      -4.860   2.204  14.842  1.00  0.00     0.100 A 
HETATM   17  C13 UNL     1      -5.181   3.553  14.990  1.00  0.00     0.111 A 
BRANCH  16  18
HETATM   18  C10 UNL     1      -4.873   1.199  15.894  1.00  0.00     0.298 C 
HETATM   19  O1  UNL     1      -3.839   0.870  16.516  1.00  0.00    -0.259 OA
BRANCH  18  20
HETATM   20  O2  UNL     1      -6.033   0.539  16.281  1.00  0.00    -0.318 OA
BRANCH  20  21
HETATM   21  C11 UNL     1      -7.052   1.184  17.023  1.00  0.00     0.174 C 
HETATM   22  C12 UNL     1      -6.489   1.855  18.245  1.00  0.00     0.034 C 
ENDBRANCH  20  21
ENDBRANCH  18  20
ENDBRANCH  16  18
BRANCH  17  23
HETATM   23  O3  UNL     1      -5.563   4.204  16.121  1.00  0.00    -0.357 OA
ATOM     24  H3  UNL     1      -4.964   4.364  16.841  1.00  0.00     0.217 HD
ENDBRANCH  17  23
ENDBRANCH  10  11
ENDBRANCH   4  10
TORSDOF 6
ENDMDL
MODEL 2
REMARK VINA RESULT: -7.780611787      2.612      3.528
REMARK  6 active torsions:
REMARK  status: ('A' for Active; 'I' for Inactive)
REMARK    1  A    between atoms: C4_4  and  C5_5 
REMARK    2  A    between atoms: C5_5  and  C6_6 
REMARK    3  A    between atoms: C9_11  and  C10_12 
REMARK    4  A    between atoms: C10_12  and  O2_14 
REMARK    5  A    between atoms: O2_14  and  C11_15 
REMARK    6  A    between atoms: C13_17  and  O3_18 
ROOT
HETATM    1  C1  UNL     1      -0.731   3.787  11.591  1.00  0.00     0.018 C 
HETATM    2  C2  UNL     1      -1.780   4.118  11.074  1.00  0.00    -0.074 C 
HETATM    3  C3  UNL     1      -3.022   4.499  10.462  1.00  0.00     0.060 A 
HETATM    4  C4  UNL     1      -4.250   3.831  10.533  1.00  0.00     0.098 A 
HETATM    5  O4  UNL     1      -5.145   4.486   9.844  1.00  0.00    -0.301 OA
HETATM    6  C14 UNL     1      -4.613   5.571   9.299  1.00  0.00     0.129 A 
HETATM    7 BR1  UNL     1      -5.492   6.868   8.202  1.00  0.00    -0.022 Br
HETATM    8  C15 UNL     1      -3.284   5.600   9.672  1.00  0.00     0.001 A 
HETATM    9  C16 UNL     1      -2.281   6.649   9.291  1.00  0.00     0.053 C 
ENDROOT
BRANCH   4  10
HETATM   10  C5  UNL     1      -4.386   2.592  11.294  1.00  0.00     0.071 C 
BRANCH  10  11
HETATM   11  C6  UNL     1      -4.609   2.595  12.604  1.00  0.00     0.070 A 
HETATM   12  N1  UNL     1      -4.931   3.643  13.366  1.00  0.00    -0.354 N 
HETATM   13  C7  UNL     1      -5.081   3.253  14.667  1.00  0.00     0.042 A 
ATOM     14  H1  UNL     1      -5.047   4.597  13.025  1.00  0.00     0.166 HD
HETATM   15  C8  UNL     1      -5.397   4.077  15.643  1.00  0.00     0.044 C 
HETATM   16  C9  UNL     1      -4.851   1.899  14.764  1.00  0.00     0.100 A 
HETATM   17  C13 UNL     1      -4.555   1.495  13.462  1.00  0.00     0.111 A 
BRANCH  16  18
HETATM   18  C10 UNL     1      -4.894   1.042  15.940  1.00  0.00     0.298 C 
HETATM   19  O1  UNL     1      -3.874   0.779  16.612  1.00  0.00    -0.259 OA
BRANCH  18  20
HETATM   20  O2  UNL     1      -6.072   0.460  16.395  1.00  0.00    -0.318 OA
BRANCH  20  21
HETATM   21  C11 UNL     1      -7.064   1.206  17.076  1.00  0.00     0.174 C 
HETATM   22  C12 UNL     1      -6.475   1.949  18.243  1.00  0.00     0.034 C 
ENDBRANCH  20  21
ENDBRANCH  18  20
ENDBRANCH  16  18
BRANCH  17  23
HETATM   23  O3  UNL     1      -4.252   0.245  13.021  1.00  0.00    -0.357 OA
ATOM     24  H3  UNL     1      -4.909  -0.437  12.939  1.00  0.00     0.217 HD
ENDBRANCH  17  23
ENDBRANCH  10  11
ENDBRANCH   4  10
TORSDOF 6
ENDMDL
MODEL 3
REMARK VINA RESULT: -7.635681736      1.591      2.086
REMARK  6 active torsions:
REMARK  status: ('A' for Active; 'I' for Inactive)
REMARK    1  A    between atoms: C4_4  and  C5_5 
REMARK    2  A    between atoms: C5_5  and  C6_6 
REMARK    3  A    between atoms: C9_11  and  C10_12 
REMARK    4  A    between atoms: C10_12  and  O2_14 
REMARK    5  A    between atoms: O2_14  and  C11_15 
REMARK    6  A    between atoms: C13_17  and  O3_18 
ROOT
HETATM    1  C1  UNL     1      -1.968   7.839  14.179  1.00  0.00     0.018 C 
HETATM    2  C2  UNL     1      -2.756   7.511  13.313  1.00  0.00    -0.074 C 
HETATM    3  C3  UNL     1      -3.688   7.113  12.296  1.00  0.00     0.060 A 
HETATM    4  C4  UNL     1      -4.770   6.234  12.424  1.00  0.00     0.098 A 
HETATM    5  O4  UNL     1      -5.383   6.124  11.277  1.00  0.00    -0.301 OA
HETATM    6  C14 UNL     1      -4.792   6.874  10.358  1.00  0.00     0.129 A 
HETATM    7 BR1  UNL     1      -5.295   7.071   8.523  1.00  0.00    -0.022 Br
HETATM    8  C15 UNL     1      -3.728   7.504  10.973  1.00  0.00     0.001 A 
HETATM    9  C16 UNL     1      -2.768   8.456  10.323  1.00  0.00     0.053 C 
ENDROOT
BRANCH   4  10
HETATM   10  C5  UNL     1      -5.067   5.595  13.703  1.00  0.00     0.071 C 
BRANCH  10  11
HETATM   11  C6  UNL     1      -4.916   4.286  13.884  1.00  0.00     0.070 A 
HETATM   12  N1  UNL     1      -4.596   3.376  12.963  1.00  0.00    -0.354 N 
HETATM   13  C7  UNL     1      -4.533   2.132  13.529  1.00  0.00     0.042 A 
ATOM     14  H1  UNL     1      -4.423   3.578  11.978  1.00  0.00     0.166 HD
HETATM   15  C8  UNL     1      -4.239   1.040  12.857  1.00  0.00     0.044 C 
HETATM   16  C9  UNL     1      -4.822   2.231  14.871  1.00  0.00     0.100 A 
HETATM   17  C13 UNL     1      -5.062   3.588  15.085  1.00  0.00     0.111 A 
BRANCH  16  18
HETATM   18  C10 UNL     1      -4.879   1.181  15.878  1.00  0.00     0.298 C 
HETATM   19  O1  UNL     1      -3.858   0.768  16.470  1.00  0.00    -0.259 OA
BRANCH  18  20
HETATM   20  O2  UNL     1      -6.070   0.570  16.251  1.00  0.00    -0.318 OA
BRANCH  20  21
HETATM   21  C11 UNL     1      -7.050   1.241  17.022  1.00  0.00     0.174 C 
HETATM   22  C12 UNL     1      -6.441   1.867  18.245  1.00  0.00     0.034 C 
ENDBRANCH  20  21
ENDBRANCH  18  20
ENDBRANCH  16  18
BRANCH  17  23
HETATM   23  O3  UNL     1      -5.390   4.208  16.250  1.00  0.00    -0.357 OA
ATOM     24  H3  UNL     1      -5.093   3.890  17.095  1.00  0.00     0.217 HD
ENDBRANCH  17  23
ENDBRANCH  10  11
ENDBRANCH   4  10
TORSDOF 6
ENDMDL
MODEL 4
REMARK VINA RESULT: -7.603134433      2.389      3.120
REMARK  6 active torsions:
REMARK  status: ('A' for Active; 'I' for Inactive)
REMARK    1  A    between atoms: C4_4  and  C5_5 
REMARK    2  A    between atoms: C5_5  and  C6_6 
REMARK    3  A    between atoms: C9_11  and  C10_12 
REMARK    4  A    between atoms: C10_12  and  O2_14 
REMARK    5  A    between atoms: O2_14  and  C11_15 
REMARK    6  A    between atoms: C13_17  and  O3_18 
ROOT
HETATM    1  C1  UNL     1      -2.611   4.174   8.313  1.00  0.00     0.018 C 
HETATM    2  C2  UNL     1      -3.324   4.824   9.052  1.00  0.00    -0.074 C 
HETATM    3  C3  UNL     1      -4.170   5.583   9.930  1.00  0.00     0.060 A 
HETATM    4  C4  UNL     1      -4.598   5.235  11.217  1.00  0.00     0.098 A 
HETATM    5  O4  UNL     1      -5.358   6.182  11.696  1.00  0.00    -0.301 OA
HETATM    6  C14 UNL     1      -5.483   7.168  10.821  1.00  0.00     0.129 A 
HETATM    7 BR1  UNL     1      -6.482   8.786  11.031  1.00  0.00    -0.022 Br
HETATM    8  C15 UNL     1      -4.747   6.816   9.707  1.00  0.00     0.001 A 
HETATM    9  C16 UNL     1      -4.593   7.629   8.456  1.00  0.00     0.053 C 
ENDROOT
BRANCH   4  10
HETATM   10  C5  UNL     1      -4.191   3.971  11.825  1.00  0.00     0.071 C 
BRANCH  10  11
HETATM   11  C6  UNL     1      -4.532   3.650  13.069  1.00  0.00     0.070 A 
HETATM   12  N1  UNL     1      -5.080   4.448  13.987  1.00  0.00    -0.354 N 
HETATM   13  C7  UNL     1      -5.288   3.759  15.150  1.00  0.00     0.042 A 
ATOM     14  H1  UNL     1      -5.310   5.432  13.843  1.00  0.00     0.166 HD
HETATM   15  C8  UNL     1      -5.816   4.295  16.230  1.00  0.00     0.044 C 
HETATM   16  C9  UNL     1      -4.862   2.460  14.989  1.00  0.00     0.100 A 
HETATM   17  C13 UNL     1      -4.388   2.401  13.678  1.00  0.00     0.111 A 
BRANCH  16  18
HETATM   18  C10 UNL     1      -4.881   1.362  15.944  1.00  0.00     0.298 C 
HETATM   19  O1  UNL     1      -3.858   0.998  16.563  1.00  0.00    -0.259 OA
BRANCH  18  20
HETATM   20  O2  UNL     1      -6.036   0.647  16.234  1.00  0.00    -0.318 OA
BRANCH  20  21
HETATM   21  C11 UNL     1      -7.058   1.174  17.061  1.00  0.00     0.174 C 
HETATM   22  C12 UNL     1      -6.482   1.805  18.297  1.00  0.00     0.034 C 
ENDBRANCH  20  21
ENDBRANCH  18  20
ENDBRANCH  16  18
BRANCH  17  23
HETATM   23  O3  UNL     1      -3.857   1.333  13.026  1.00  0.00    -0.357 OA
ATOM     24  H3  UNL     1      -3.178   0.791  13.410  1.00  0.00     0.217 HD
ENDBRANCH  17  23
ENDBRANCH  10  11
ENDBRANCH   4  10
TORSDOF 6
ENDMDL
MODEL 5
REMARK VINA RESULT: -7.581021963      2.405      2.903
REMARK  6 active torsions:
REMARK  status: ('A' for Active; 'I' for Inactive)
REMARK    1  A    between atoms: C4_4  and  C5_5 
REMARK    2  A    between atoms: C5_5  and  C6_6 
REMARK    3  A    between atoms: C9_11  and  C10_12 
REMARK    4  A    between atoms: C10_12  and  O2_14 
REMARK    5  A    between atoms: O2_14  and  C11_15 
REMARK    6  A    between atoms: C13_17  and  O3_18 
ROOT
HETATM    1  C1  UNL     1      -5.294   5.994   9.056  1.00  0.00     0.018 C 
HETATM    2  C2  UNL     1      -4.310   5.468   9.539  1.00  0.00    -0.074 C 
HETATM    3  C3  UNL     1      -3.154   4.844  10.119  1.00  0.00     0.060 A 
HETATM    4  C4  UNL     1      -3.123   3.769  11.016  1.00  0.00     0.098 A 
HETATM    5  O4  UNL     1      -1.884   3.487  11.317  1.00  0.00    -0.301 OA
HETATM    6  C14 UNL     1      -1.052   4.301  10.684  1.00  0.00     0.129 A 
HETATM    7 BR1  UNL     1       0.858   4.310  10.777  1.00  0.00    -0.022 Br
HETATM    8  C15 UNL     1      -1.824   5.160   9.927  1.00  0.00     0.001 A 
HETATM    9  C16 UNL     1      -1.317   6.257   9.039  1.00  0.00     0.053 C 
ENDROOT
BRANCH   4  10
HETATM   10  C5  UNL     1      -4.358   3.140  11.475  1.00  0.00     0.071 C 
BRANCH  10  11
HETATM   11  C6  UNL     1      -4.639   3.010  12.768  1.00  0.00     0.070 A 
HETATM   12  N1  UNL     1      -5.134   3.942  13.584  1.00  0.00    -0.354 N 
HETATM   13  C7  UNL     1      -5.289   3.434  14.844  1.00  0.00     0.042 A 
ATOM     14  H1  UNL     1      -5.363   4.897  13.308  1.00  0.00     0.166 HD
HETATM   15  C8  UNL     1      -5.758   4.129  15.858  1.00  0.00     0.044 C 
HETATM   16  C9  UNL     1      -4.882   2.119  14.855  1.00  0.00     0.100 A 
HETATM   17  C13 UNL     1      -4.475   1.862  13.545  1.00  0.00     0.111 A 
BRANCH  16  18
HETATM   18  C10 UNL     1      -4.861   1.172  15.961  1.00  0.00     0.298 C 
HETATM   19  O1  UNL     1      -3.817   0.911  16.597  1.00  0.00    -0.259 OA
BRANCH  18  20
HETATM   20  O2  UNL     1      -6.000   0.498  16.385  1.00  0.00    -0.318 OA
BRANCH  20  21
HETATM   21  C11 UNL     1      -7.040   1.149  17.091  1.00  0.00     0.174 C 
HETATM   22  C12 UNL     1      -6.505   1.880  18.290  1.00  0.00     0.034 C 
ENDBRANCH  20  21
ENDBRANCH  18  20
ENDBRANCH  16  18
BRANCH  17  23
HETATM   23  O3  UNL     1      -3.986   0.702  13.032  1.00  0.00    -0.357 OA
ATOM     24  H3  UNL     1      -3.141   0.350  13.288  1.00  0.00     0.217 HD
ENDBRANCH  17  23
ENDBRANCH  10  11
ENDBRANCH   4  10
TORSDOF 6
ENDMDL
