MODEL 1
REMARK VINA RESULT: -8.024288902      0.000      0.000
REMARK  6 active torsions:
REMARK  status: ('A' for Active; 'I' for Inactive)
REMARK    1  A    between atoms: C2_2  and  C3_4 
REMARK    2  A    between atoms: C9_12  and  N3_13 
REMARK    3  A    between atoms: N3_13  and  C10_14 
REMARK    4  A    between atoms: C11_17  and  C12_18 
REMARK    5  A    between atoms: C15_21  and  C16_22 
REMARK    6  A    between atoms: C16_22  and  C17_23 
ROOT
HETATM    1  C3  UNL     1       0.898   3.469  23.996  1.00  0.00     0.101 A 
HETATM    2  C4  UNL     1       1.186   2.870  25.192  1.00  0.00     0.063 A 
HETATM    3  C5  UNL     1       2.150   1.855  25.164  1.00  0.00     0.073 A 
HETATM    4  C6  UNL     1       2.497   1.227  26.392  1.00  0.00     0.101 C 
HETATM    5  N1  UNL     1       2.770   0.673  27.386  1.00  0.00    -0.191 NA
HETATM    6  C7  UNL     1       2.734   1.521  23.987  1.00  0.00     0.131 A 
HETATM    7  C8  UNL     1       3.728   0.462  23.971  1.00  0.00     0.106 C 
HETATM    8  N2  UNL     1       4.530  -0.354  23.975  1.00  0.00    -0.191 NA
HETATM    9  C9  UNL     1       2.403   2.157  22.768  1.00  0.00     0.247 A 
HETATM   10  O3  UNL     1       1.463   3.127  22.897  1.00  0.00    -0.280 OA
ENDROOT
BRANCH   1  11
HETATM   11  C2  UNL     1      -0.113   4.536  24.021  1.00  0.00     0.058 C 
HETATM   12  C1  UNL     1      -1.395   4.216  23.811  1.00  0.00     0.039 C 
HETATM   13 CL1  UNL     1       0.363   6.186  24.437  1.00  0.00    -0.082 Cl
ENDBRANCH   1  11
BRANCH   9  14
HETATM   14  N3  UNL     1       2.907   1.845  21.758  1.00  0.00    -0.354 NA
BRANCH  14  15
HETATM   15  C10 UNL     1       3.506   1.622  20.582  1.00  0.00     0.226 A 
HETATM   16  N4  UNL     1       4.286   2.337  19.775  1.00  0.00    -0.327 N 
HETATM   17  C11 UNL     1       4.818   1.830  18.721  1.00  0.00     0.029 A 
ATOM     18  H4  UNL     1       4.466   3.316  19.999  1.00  0.00     0.169 HD
HETATM   19  C15 UNL     1       4.541   0.507  18.433  1.00  0.00     0.020 A 
HETATM   20  S1  UNL     1       3.531   0.078  19.735  1.00  0.00    -0.041 SA
BRANCH  17  21
HETATM   21  C12 UNL     1       5.948   2.570  17.990  1.00  0.00     0.028 C 
HETATM   22  C13 UNL     1       5.546   3.538  16.958  1.00  0.00     0.016 C 
HETATM   23  C14 UNL     1       6.633   3.500  19.083  1.00  0.00     0.016 C 
ENDBRANCH  17  21
BRANCH  19  24
HETATM   24  C16 UNL     1       4.852  -0.328  17.231  1.00  0.00     0.161 C 
BRANCH  24  25
HETATM   25  C17 UNL     1       3.657  -0.266  16.367  1.00  0.00     0.177 C 
HETATM   26  O1  UNL     1       3.088  -1.169  15.777  1.00  0.00    -0.648 OA
HETATM   27  O2  UNL     1       3.132   1.062  16.218  1.00  0.00    -0.648 OA
ENDBRANCH  24  25
ENDBRANCH  19  24
ENDBRANCH  14  15
ENDBRANCH   9  14
TORSDOF 6
ENDMDL
MODEL 2
REMARK VINA RESULT: -7.973336185      5.861      7.911
REMARK  6 active torsions:
REMARK  status: ('A' for Active; 'I' for Inactive)
REMARK    1  A    between atoms: C2_2  and  C3_4 
REMARK    2  A    between atoms: C9_12  and  N3_13 
REMARK    3  A    between atoms: N3_13  and  C10_14 
REMARK    4  A    between atoms: C11_17  and  C12_18 
REMARK    5  A    between atoms: C15_21  and  C16_22 
REMARK    6  A    between atoms: C16_22  and  C17_23 
ROOT
HETATM    1  C3  UNL     1       3.828   0.130  23.143  1.00  0.00     0.101 A 
HETATM    2  C4  UNL     1       4.305   0.833  22.071  1.00  0.00     0.063 A 
HETATM    3  C5  UNL     1       4.968   0.093  21.085  1.00  0.00     0.073 A 
HETATM    4  C6  UNL     1       5.454   0.785  19.942  1.00  0.00     0.101 C 
HETATM    5  N1  UNL     1       5.894   1.341  19.011  1.00  0.00    -0.191 NA
HETATM    6  C7  UNL     1       5.106  -1.247  21.236  1.00  0.00     0.131 A 
HETATM    7  C8  UNL     1       5.802  -2.002  20.208  1.00  0.00     0.106 C 
HETATM    8  N2  UNL     1       6.326  -2.592  19.379  1.00  0.00    -0.191 NA
HETATM    9  C9  UNL     1       4.606  -1.939  22.364  1.00  0.00     0.247 A 
HETATM   10  O3  UNL     1       3.978  -1.138  23.261  1.00  0.00    -0.280 OA
ENDROOT
BRANCH   1  11
HETATM   11  C2  UNL     1       3.131   0.903  24.181  1.00  0.00     0.058 C 
HETATM   12  C1  UNL     1       3.376   0.627  25.466  1.00  0.00     0.039 C 
HETATM   13 CL1  UNL     1       2.080   2.246  23.716  1.00  0.00    -0.082 Cl
ENDBRANCH   1  11
BRANCH   9  14
HETATM   14  N3  UNL     1       4.747  -3.096  22.485  1.00  0.00    -0.354 NA
BRANCH  14  15
HETATM   15  C10 UNL     1       4.897  -4.426  22.488  1.00  0.00     0.226 A 
HETATM   16  N4  UNL     1       5.253  -5.328  23.400  1.00  0.00    -0.327 N 
HETATM   17  C11 UNL     1       5.220  -6.589  23.155  1.00  0.00     0.029 A 
ATOM     18  H4  UNL     1       5.561  -5.009  24.318  1.00  0.00     0.169 HD
HETATM   19  C15 UNL     1       4.816  -6.990  21.896  1.00  0.00     0.020 A 
HETATM   20  S1  UNL     1       4.490  -5.494  21.150  1.00  0.00    -0.041 SA
BRANCH  17  21
HETATM   21  C12 UNL     1       5.330  -7.605  24.301  1.00  0.00     0.028 C 
HETATM   22  C13 UNL     1       6.599  -8.339  24.415  1.00  0.00     0.016 C 
HETATM   23  C14 UNL     1       5.309  -6.748  25.641  1.00  0.00     0.016 C 
ENDBRANCH  17  21
BRANCH  19  24
HETATM   24  C16 UNL     1       4.820  -8.334  21.238  1.00  0.00     0.161 C 
BRANCH  24  25
HETATM   25  C17 UNL     1       3.410  -8.765  21.175  1.00  0.00     0.177 C 
HETATM   26  O1  UNL     1       2.530  -8.643  22.012  1.00  0.00    -0.648 OA
HETATM   27  O2  UNL     1       3.073  -9.426  19.945  1.00  0.00    -0.648 OA
ENDBRANCH  24  25
ENDBRANCH  19  24
ENDBRANCH  14  15
ENDBRANCH   9  14
TORSDOF 6
ENDMDL
MODEL 3
REMARK VINA RESULT: -7.899502649      4.754      8.229
REMARK  6 active torsions:
REMARK  status: ('A' for Active; 'I' for Inactive)
REMARK    1  A    between atoms: C2_2  and  C3_4 
REMARK    2  A    between atoms: C9_12  and  N3_13 
REMARK    3  A    between atoms: N3_13  and  C10_14 
REMARK    4  A    between atoms: C11_17  and  C12_18 
REMARK    5  A    between atoms: C15_21  and  C16_22 
REMARK    6  A    between atoms: C16_22  and  C17_23 
ROOT
HETATM    1  C3  UNL     1       9.645   3.481  19.919  1.00  0.00     0.101 A 
HETATM    2  C4  UNL     1      10.418   3.096  18.859  1.00  0.00     0.063 A 
HETATM    3  C5  UNL     1      10.190   1.809  18.355  1.00  0.00     0.073 A 
HETATM    4  C6  UNL     1      10.956   1.382  17.236  1.00  0.00     0.101 C 
HETATM    5  N1  UNL     1      11.601   0.998  16.338  1.00  0.00    -0.191 NA
HETATM    6  C7  UNL     1       9.243   1.027  18.928  1.00  0.00     0.131 A 
HETATM    7  C8  UNL     1       9.020  -0.308  18.401  1.00  0.00     0.106 C 
HETATM    8  N2  UNL     1       8.833  -1.347  17.959  1.00  0.00    -0.191 NA
HETATM    9  C9  UNL     1       8.468   1.457  20.030  1.00  0.00     0.247 A 
HETATM   10  O3  UNL     1       8.759   2.716  20.444  1.00  0.00    -0.280 OA
ENDROOT
BRANCH   1  11
HETATM   11  C2  UNL     1       9.881   4.831  20.450  1.00  0.00     0.058 C 
HETATM   12  C1  UNL     1      10.973   5.497  20.060  1.00  0.00     0.039 C 
HETATM   13 CL1  UNL     1       8.671   5.587  21.492  1.00  0.00    -0.082 Cl
ENDBRANCH   1  11
BRANCH   9  14
HETATM   14  N3  UNL     1       7.663   0.762  20.523  1.00  0.00    -0.354 NA
BRANCH  14  15
HETATM   15  C10 UNL     1       6.659   0.075  21.081  1.00  0.00     0.226 A 
HETATM   16  N4  UNL     1       5.761   0.330  22.029  1.00  0.00    -0.327 N 
HETATM   17  C11 UNL     1       4.820  -0.497  22.312  1.00  0.00     0.029 A 
ATOM     18  H4  UNL     1       5.822   1.207  22.547  1.00  0.00     0.169 HD
HETATM   19  C15 UNL     1       4.773  -1.685  21.606  1.00  0.00     0.020 A 
HETATM   20  S1  UNL     1       6.103  -1.511  20.556  1.00  0.00    -0.041 SA
BRANCH  17  21
HETATM   21  C12 UNL     1       3.629  -0.053  23.174  1.00  0.00     0.028 C 
HETATM   22  C13 UNL     1       3.914   0.269  24.580  1.00  0.00     0.016 C 
HETATM   23  C14 UNL     1       3.171   1.352  22.587  1.00  0.00     0.016 C 
ENDBRANCH  17  21
BRANCH  19  24
HETATM   24  C16 UNL     1       3.934  -2.910  21.788  1.00  0.00     0.161 C 
BRANCH  24  25
HETATM   25  C17 UNL     1       4.872  -4.048  21.838  1.00  0.00     0.177 C 
HETATM   26  O1  UNL     1       5.639  -4.374  22.729  1.00  0.00    -0.648 OA
HETATM   27  O2  UNL     1       4.858  -4.849  20.645  1.00  0.00    -0.648 OA
ENDBRANCH  24  25
ENDBRANCH  19  24
ENDBRANCH  14  15
ENDBRANCH   9  14
TORSDOF 6
ENDMDL
MODEL 4
REMARK VINA RESULT: -7.881827094      4.253      6.008
REMARK  6 active torsions:
REMARK  status: ('A' for Active; 'I' for Inactive)
REMARK    1  A    between atoms: C2_2  and  C3_4 
REMARK    2  A    between atoms: C9_12  and  N3_13 
REMARK    3  A    between atoms: N3_13  and  C10_14 
REMARK    4  A    between atoms: C11_17  and  C12_18 
REMARK    5  A    between atoms: C15_21  and  C16_22 
REMARK    6  A    between atoms: C16_22  and  C17_23 
ROOT
HETATM    1  C3  UNL     1       4.133   0.457  23.145  1.00  0.00     0.101 A 
HETATM    2  C4  UNL     1       4.167  -0.908  23.077  1.00  0.00     0.063 A 
HETATM    3  C5  UNL     1       5.134  -1.467  22.232  1.00  0.00     0.073 A 
HETATM    4  C6  UNL     1       5.217  -2.885  22.155  1.00  0.00     0.101 C 
HETATM    5  N1  UNL     1       5.278  -4.048  22.049  1.00  0.00    -0.191 NA
HETATM    6  C7  UNL     1       5.967  -0.652  21.540  1.00  0.00     0.131 A 
HETATM    7  C8  UNL     1       6.962  -1.244  20.663  1.00  0.00     0.106 C 
HETATM    8  N2  UNL     1       7.761  -1.721  19.998  1.00  0.00    -0.191 NA
HETATM    9  C9  UNL     1       5.897   0.758  21.631  1.00  0.00     0.247 A 
HETATM   10  O3  UNL     1       4.932   1.204  22.474  1.00  0.00    -0.280 OA
ENDROOT
BRANCH   1  11
HETATM   11  C2  UNL     1       3.120   1.048  24.030  1.00  0.00     0.058 C 
HETATM   12  C1  UNL     1       3.149   0.751  25.334  1.00  0.00     0.039 C 
HETATM   13 CL1  UNL     1       1.964   2.217  23.383  1.00  0.00    -0.082 Cl
ENDBRANCH   1  11
BRANCH   9  14
HETATM   14  N3  UNL     1       6.615   1.448  21.014  1.00  0.00    -0.354 NA
BRANCH  14  15
HETATM   15  C10 UNL     1       7.539   2.164  20.362  1.00  0.00     0.226 A 
HETATM   16  N4  UNL     1       7.989   2.198  19.109  1.00  0.00    -0.327 N 
HETATM   17  C11 UNL     1       8.840   3.076  18.718  1.00  0.00     0.029 A 
ATOM     18  H4  UNL     1       7.649   1.506  18.442  1.00  0.00     0.169 HD
HETATM   19  C15 UNL     1       9.297   3.990  19.649  1.00  0.00     0.020 A 
HETATM   20  S1  UNL     1       8.437   3.518  21.041  1.00  0.00    -0.041 SA
BRANCH  17  21
HETATM   21  C12 UNL     1       9.101   3.290  17.220  1.00  0.00     0.028 C 
HETATM   22  C13 UNL     1       9.833   2.226  16.518  1.00  0.00     0.016 C 
HETATM   23  C14 UNL     1       7.673   3.241  16.521  1.00  0.00     0.016 C 
ENDBRANCH  17  21
BRANCH  19  24
HETATM   24  C16 UNL     1      10.384   5.015  19.576  1.00  0.00     0.161 C 
BRANCH  24  25
HETATM   25  C17 UNL     1      10.085   6.008  20.626  1.00  0.00     0.177 C 
HETATM   26  O1  UNL     1       9.252   6.899  20.628  1.00  0.00    -0.648 OA
HETATM   27  O2  UNL     1      10.924   5.878  21.785  1.00  0.00    -0.648 OA
ENDBRANCH  24  25
ENDBRANCH  19  24
ENDBRANCH  14  15
ENDBRANCH   9  14
TORSDOF 6
ENDMDL
MODEL 5
REMARK VINA RESULT: -7.783555940      5.099      8.504
REMARK  6 active torsions:
REMARK  status: ('A' for Active; 'I' for Inactive)
REMARK    1  A    between atoms: C2_2  and  C3_4 
REMARK    2  A    between atoms: C9_12  and  N3_13 
REMARK    3  A    between atoms: N3_13  and  C10_14 
REMARK    4  A    between atoms: C11_17  and  C12_18 
REMARK    5  A    between atoms: C15_21  and  C16_22 
REMARK    6  A    between atoms: C16_22  and  C17_23 
ROOT
HETATM    1  C3  UNL     1      10.366   2.667  18.262  1.00  0.00     0.101 A 
HETATM    2  C4  UNL     1      10.983   3.811  18.690  1.00  0.00     0.063 A 
HETATM    3  C5  UNL     1      10.421   4.442  19.807  1.00  0.00     0.073 A 
HETATM    4  C6  UNL     1      11.050   5.618  20.299  1.00  0.00     0.101 C 
HETATM    5  N1  UNL     1      11.531   6.607  20.697  1.00  0.00    -0.191 NA
HETATM    6  C7  UNL     1       9.321   3.907  20.393  1.00  0.00     0.131 A 
HETATM    7  C8  UNL     1       8.745   4.574  21.547  1.00  0.00     0.106 C 
HETATM    8  N2  UNL     1       8.316   5.092  22.472  1.00  0.00    -0.191 NA
HETATM    9  C9  UNL     1       8.706   2.726  19.915  1.00  0.00     0.247 A 
HETATM   10  O3  UNL     1       9.323   2.188  18.834  1.00  0.00    -0.280 OA
ENDROOT
BRANCH   1  11
HETATM   11  C2  UNL     1      10.953   2.002  17.090  1.00  0.00     0.058 C 
HETATM   12  C1  UNL     1      11.280   2.740  16.024  1.00  0.00     0.039 C 
HETATM   13 CL1  UNL     1      11.319   0.274  17.155  1.00  0.00    -0.082 Cl
ENDBRANCH   1  11
BRANCH   9  14
HETATM   14  N3  UNL     1       7.747   2.286  20.425  1.00  0.00    -0.354 NA
BRANCH  14  15
HETATM   15  C10 UNL     1       6.712   1.661  21.000  1.00  0.00     0.226 A 
HETATM   16  N4  UNL     1       5.388   1.793  20.945  1.00  0.00    -0.327 N 
HETATM   17  C11 UNL     1       4.600   0.973  21.543  1.00  0.00     0.029 A 
ATOM     18  H4  UNL     1       4.989   2.567  20.415  1.00  0.00     0.169 HD
HETATM   19  C15 UNL     1       5.171  -0.056  22.268  1.00  0.00     0.020 A 
HETATM   20  S1  UNL     1       6.831   0.229  22.017  1.00  0.00    -0.041 SA
BRANCH  17  21
HETATM   21  C12 UNL     1       3.101   0.959  21.213  1.00  0.00     0.028 C 
HETATM   22  C13 UNL     1       2.316   2.121  21.653  1.00  0.00     0.016 C 
HETATM   23  C14 UNL     1       3.006   1.063  19.628  1.00  0.00     0.016 C 
ENDBRANCH  17  21
BRANCH  19  24
HETATM   24  C16 UNL     1       4.569  -1.063  23.195  1.00  0.00     0.161 C 
BRANCH  24  25
HETATM   25  C17 UNL     1       4.545  -2.340  22.456  1.00  0.00     0.177 C 
HETATM   26  O1  UNL     1       3.628  -2.853  21.836  1.00  0.00    -0.648 OA
HETATM   27  O2  UNL     1       5.792  -3.052  22.512  1.00  0.00    -0.648 OA
ENDBRANCH  24  25
ENDBRANCH  19  24
ENDBRANCH  14  15
ENDBRANCH   9  14
TORSDOF 6
ENDMDL
