MODEL 1
REMARK VINA RESULT: -5.697570510      0.000      0.000
REMARK  13 active torsions:
REMARK  status: ('A' for Active; 'I' for Inactive)
REMARK    1  A    between atoms: N1_1  and  C1_4 
REMARK    2  A    between atoms: C4_10  and  C5_11 
REMARK    3  A    between atoms: C5_11  and  N3_12 
REMARK    4  A    between atoms: C7_14  and  C8_15 
REMARK    5  A    between atoms: C8_15  and  N4_16 
REMARK    6  A    between atoms: C8_15  and  C9_20 
REMARK    7  A    between atoms: C9_20  and  N5_21 
REMARK    8  A    between atoms: N7_29  and  C11_30 
REMARK    9  A    between atoms: C11_30  and  C12_31 
REMARK   10  A    between atoms: C12_31  and  O2_32 
REMARK   11  A    between atoms: O2_32  and  C13_33 
REMARK   12  A    between atoms: C13_33  and  C14_34 
REMARK   13  A    between atoms: C14_34  and  N8_35 
ROOT
HETATM    1  N3  UNL     1      27.551  -1.623   1.880  1.00  0.00    -0.295 N 
HETATM    2  C6  UNL     1      28.585  -0.826   2.366  1.00  0.00     0.123 A 
HETATM    3  C7  UNL     1      28.454  -0.720   3.721  1.00  0.00     0.036 A 
HETATM    4  C10 UNL     1      27.352  -1.442   4.066  1.00  0.00     0.125 A 
HETATM    5  N6  UNL     1      26.884  -1.604   5.255  1.00  0.00    -0.384 N 
ATOM      6  H61 UNL     1      26.059  -2.145   5.513  1.00  0.00     0.157 HD
ATOM      7  H62 UNL     1      27.264  -1.211   6.116  1.00  0.00     0.157 HD
HETATM    8  N7  UNL     1      26.837  -1.976   2.898  1.00  0.00    -0.272 N 
ENDROOT
BRANCH   1   9
HETATM    9  C5  UNL     1      27.537  -1.881   0.445  1.00  0.00     0.189 C 
BRANCH   9  10
HETATM   10  C4  UNL     1      28.490  -2.899   0.018  1.00  0.00    -0.004 A 
HETATM   11  C3  UNL     1      29.810  -2.930  -0.295  1.00  0.00     0.086 A 
HETATM   12  C2  UNL     1      30.745  -1.942  -0.469  1.00  0.00     0.274 A 
HETATM   13  C20 UNL     1      30.245  -4.237  -0.489  1.00  0.00     0.137 A 
HETATM   14  N2  UNL     1      31.993  -2.290  -0.804  1.00  0.00    -0.155 N 
HETATM   15  O1  UNL     1      30.372  -0.772  -0.309  1.00  0.00    -0.267 OA
HETATM   16  C1  UNL     1      32.404  -3.568  -0.986  1.00  0.00     0.680 A 
ATOM     17  H2  UNL     1      32.679  -1.545  -0.931  1.00  0.00     0.187 HD
HETATM   18  N10 UNL     1      31.507  -4.552  -0.824  1.00  0.00    -0.176 N 
ATOM     19  H10 UNL     1      31.779  -5.527  -0.953  1.00  0.00     0.186 HD
HETATM   20  N9  UNL     1      29.148  -5.013  -0.292  1.00  0.00    -0.350 N 
HETATM   21  C19 UNL     1      28.097  -4.254   0.006  1.00  0.00     0.099 A 
ATOM     22  H9  UNL     1      29.133  -6.030  -0.363  1.00  0.00     0.166 HD
BRANCH  16  23
HETATM   23  N1  UNL     1      33.643  -3.831  -1.300  1.00  0.00    -0.234 N 
ATOM     24  H12 UNL     1      34.404  -3.226  -0.991  1.00  0.00     0.174 HD
ATOM     25  H11 UNL     1      33.874  -4.644  -1.870  1.00  0.00     0.174 HD
ENDBRANCH  16  23
ENDBRANCH   9  10
ENDBRANCH   1   9
BRANCH   8  26
HETATM   26  C11 UNL     1      25.682  -2.868   2.943  1.00  0.00     0.177 C 
BRANCH  26  27
HETATM   27  C12 UNL     1      26.158  -4.299   3.085  1.00  0.00     0.189 C 
BRANCH  27  28
HETATM   28  O2  UNL     1      26.498  -4.588   4.368  1.00  0.00    -0.388 OA
BRANCH  28  29
HETATM   29  C13 UNL     1      27.710  -5.144   4.627  1.00  0.00     0.187 C 
BRANCH  29  30
HETATM   30  C14 UNL     1      28.349  -5.478   3.282  1.00  0.00     0.148 C 
BRANCH  30  31
HETATM   31  N8  UNL     1      29.737  -5.197   3.238  1.00  0.00    -0.387 N 
HETATM   32  C15 UNL     1      30.166  -3.903   3.591  1.00  0.00     0.084 C 
HETATM   33  C16 UNL     1      31.497  -3.596   2.944  1.00  0.00     0.212 C 
HETATM   34  O3  UNL     1      32.053  -4.695   2.292  1.00  0.00    -0.385 OA
HETATM   35  C17 UNL     1      32.051  -5.801   3.104  1.00  0.00     0.187 C 
HETATM   36  C18 UNL     1      30.639  -6.249   3.499  1.00  0.00     0.148 C 
ENDBRANCH  30  31
ENDBRANCH  29  30
ENDBRANCH  28  29
ENDBRANCH  27  28
ENDBRANCH  26  27
ENDBRANCH   8  26
BRANCH   3  37
HETATM   37  C8  UNL     1      29.367   0.071   4.617  1.00  0.00     0.246 C 
BRANCH  37  38
HETATM   38  N4  UNL     1      28.822   1.422   4.708  1.00  0.00    -0.069 N 
ATOM     39  H43 UNL     1      28.487   1.778   3.813  1.00  0.00     0.275 HD
ATOM     40  H42 UNL     1      27.934   1.462   5.208  1.00  0.00     0.275 HD
ATOM     41  H41 UNL     1      29.542   2.012   5.127  1.00  0.00     0.275 HD
ENDBRANCH  37  38
BRANCH  37  42
HETATM   42  C9  UNL     1      30.758   0.168   4.023  1.00  0.00     0.267 C 
BRANCH  42  43
HETATM   43  N5  UNL     1      30.820   1.395   3.262  1.00  0.00    -0.077 N 
ATOM     44  H53 UNL     1      29.947   1.923   3.287  1.00  0.00     0.274 HD
ATOM     45  H52 UNL     1      31.415   2.102   3.694  1.00  0.00     0.274 HD
ATOM     46  H51 UNL     1      31.113   1.153   2.316  1.00  0.00     0.274 HD
ENDBRANCH  42  43
ENDBRANCH  37  42
ENDBRANCH   3  37
TORSDOF 13
ENDMDL
MODEL 2
REMARK VINA RESULT: -5.659697399      1.300      1.635
REMARK  13 active torsions:
REMARK  status: ('A' for Active; 'I' for Inactive)
REMARK    1  A    between atoms: N1_1  and  C1_4 
REMARK    2  A    between atoms: C4_10  and  C5_11 
REMARK    3  A    between atoms: C5_11  and  N3_12 
REMARK    4  A    between atoms: C7_14  and  C8_15 
REMARK    5  A    between atoms: C8_15  and  N4_16 
REMARK    6  A    between atoms: C8_15  and  C9_20 
REMARK    7  A    between atoms: C9_20  and  N5_21 
REMARK    8  A    between atoms: N7_29  and  C11_30 
REMARK    9  A    between atoms: C11_30  and  C12_31 
REMARK   10  A    between atoms: C12_31  and  O2_32 
REMARK   11  A    between atoms: O2_32  and  C13_33 
REMARK   12  A    between atoms: C13_33  and  C14_34 
REMARK   13  A    between atoms: C14_34  and  N8_35 
ROOT
HETATM    1  N3  UNL     1      27.570  -1.605   1.956  1.00  0.00    -0.295 N 
HETATM    2  C6  UNL     1      28.512  -0.736   2.501  1.00  0.00     0.123 A 
HETATM    3  C7  UNL     1      28.356  -0.719   3.858  1.00  0.00     0.036 A 
HETATM    4  C10 UNL     1      27.331  -1.567   4.146  1.00  0.00     0.125 A 
HETATM    5  N6  UNL     1      26.869  -1.842   5.317  1.00  0.00    -0.384 N 
ATOM      6  H61 UNL     1      26.101  -2.478   5.532  1.00  0.00     0.157 HD
ATOM      7  H62 UNL     1      27.198  -1.461   6.204  1.00  0.00     0.157 HD
HETATM    8  N7  UNL     1      26.885  -2.085   2.942  1.00  0.00    -0.272 N 
ENDROOT
BRANCH   1   9
HETATM    9  C5  UNL     1      27.597  -1.783   0.509  1.00  0.00     0.189 C 
BRANCH   9  10
HETATM   10  C4  UNL     1      28.525  -2.815   0.058  1.00  0.00    -0.004 A 
HETATM   11  C3  UNL     1      29.843  -2.871  -0.258  1.00  0.00     0.086 A 
HETATM   12  C2  UNL     1      30.801  -1.903  -0.412  1.00  0.00     0.274 A 
HETATM   13  C20 UNL     1      30.246  -4.184  -0.482  1.00  0.00     0.137 A 
HETATM   14  N2  UNL     1      32.041  -2.273  -0.757  1.00  0.00    -0.155 N 
HETATM   15  O1  UNL     1      30.457  -0.727  -0.225  1.00  0.00    -0.267 OA
HETATM   16  C1  UNL     1      32.420  -3.557  -0.968  1.00  0.00     0.680 A 
ATOM     17  H2  UNL     1      32.744  -1.543  -0.868  1.00  0.00     0.187 HD
HETATM   18  N10 UNL     1      31.499  -4.522  -0.826  1.00  0.00    -0.176 N 
ATOM     19  H10 UNL     1      31.747  -5.500  -0.977  1.00  0.00     0.186 HD
HETATM   20  N9  UNL     1      29.131  -4.937  -0.300  1.00  0.00    -0.350 N 
HETATM   21  C19 UNL     1      28.099  -4.159   0.017  1.00  0.00     0.099 A 
ATOM     22  H9  UNL     1      29.090  -5.951  -0.393  1.00  0.00     0.166 HD
BRANCH  16  23
HETATM   23  N1  UNL     1      33.652  -3.842  -1.289  1.00  0.00    -0.234 N 
ATOM     24  H12 UNL     1      34.386  -3.135  -1.243  1.00  0.00     0.174 HD
ATOM     25  H11 UNL     1      33.904  -4.779  -1.603  1.00  0.00     0.174 HD
ENDBRANCH  16  23
ENDBRANCH   9  10
ENDBRANCH   1   9
BRANCH   8  26
HETATM   26  C11 UNL     1      25.827  -3.092   2.920  1.00  0.00     0.177 C 
BRANCH  26  27
HETATM   27  C12 UNL     1      26.440  -4.468   3.079  1.00  0.00     0.189 C 
BRANCH  27  28
HETATM   28  O2  UNL     1      26.551  -4.818   4.387  1.00  0.00    -0.388 OA
BRANCH  28  29
HETATM   29  C13 UNL     1      27.733  -5.302   4.849  1.00  0.00     0.187 C 
BRANCH  29  30
HETATM   30  C14 UNL     1      28.673  -5.414   3.652  1.00  0.00     0.148 C 
BRANCH  30  31
HETATM   31  N8  UNL     1      29.320  -6.672   3.567  1.00  0.00    -0.387 N 
HETATM   32  C15 UNL     1      30.111  -6.939   2.434  1.00  0.00     0.084 C 
HETATM   33  C16 UNL     1      30.217  -8.428   2.205  1.00  0.00     0.212 C 
HETATM   34  O3  UNL     1      29.652  -9.180   3.234  1.00  0.00    -0.385 OA
HETATM   35  C17 UNL     1      30.102  -8.753   4.458  1.00  0.00     0.187 C 
HETATM   36  C18 UNL     1      29.710  -7.304   4.766  1.00  0.00     0.148 C 
ENDBRANCH  30  31
ENDBRANCH  29  30
ENDBRANCH  28  29
ENDBRANCH  27  28
ENDBRANCH  26  27
ENDBRANCH   8  26
BRANCH   3  37
HETATM   37  C8  UNL     1      29.173   0.110   4.810  1.00  0.00     0.246 C 
BRANCH  37  38
HETATM   38  N4  UNL     1      28.538   1.421   4.901  1.00  0.00    -0.069 N 
ATOM     39  H43 UNL     1      28.968   2.116   4.291  1.00  0.00     0.275 HD
ATOM     40  H42 UNL     1      27.605   1.441   4.488  1.00  0.00     0.275 HD
ATOM     41  H41 UNL     1      28.545   1.694   5.884  1.00  0.00     0.275 HD
ENDBRANCH  37  38
BRANCH  37  42
HETATM   42  C9  UNL     1      30.581   0.310   4.283  1.00  0.00     0.267 C 
BRANCH  42  43
HETATM   43  N5  UNL     1      31.254   1.220   5.181  1.00  0.00    -0.077 N 
ATOM     44  H53 UNL     1      32.267   1.226   5.056  1.00  0.00     0.274 HD
ATOM     45  H52 UNL     1      31.087   2.200   4.953  1.00  0.00     0.274 HD
ATOM     46  H51 UNL     1      30.971   0.979   6.130  1.00  0.00     0.274 HD
ENDBRANCH  42  43
ENDBRANCH  37  42
ENDBRANCH   3  37
TORSDOF 13
ENDMDL
MODEL 3
REMARK VINA RESULT: -5.647792158      2.612      7.154
REMARK  13 active torsions:
REMARK  status: ('A' for Active; 'I' for Inactive)
REMARK    1  A    between atoms: N1_1  and  C1_4 
REMARK    2  A    between atoms: C4_10  and  C5_11 
REMARK    3  A    between atoms: C5_11  and  N3_12 
REMARK    4  A    between atoms: C7_14  and  C8_15 
REMARK    5  A    between atoms: C8_15  and  N4_16 
REMARK    6  A    between atoms: C8_15  and  C9_20 
REMARK    7  A    between atoms: C9_20  and  N5_21 
REMARK    8  A    between atoms: N7_29  and  C11_30 
REMARK    9  A    between atoms: C11_30  and  C12_31 
REMARK   10  A    between atoms: C12_31  and  O2_32 
REMARK   11  A    between atoms: O2_32  and  C13_33 
REMARK   12  A    between atoms: C13_33  and  C14_34 
REMARK   13  A    between atoms: C14_34  and  N8_35 
ROOT
HETATM    1  N3  UNL     1      29.873  -6.215   4.564  1.00  0.00    -0.295 N 
HETATM    2  C6  UNL     1      29.718  -7.144   5.590  1.00  0.00     0.123 A 
HETATM    3  C7  UNL     1      29.939  -8.393   5.086  1.00  0.00     0.036 A 
HETATM    4  C10 UNL     1      30.228  -8.237   3.764  1.00  0.00     0.125 A 
HETATM    5  N6  UNL     1      30.506  -9.173   2.924  1.00  0.00    -0.384 N 
ATOM      6  H61 UNL     1      30.722  -9.056   1.934  1.00  0.00     0.157 HD
ATOM      7  H62 UNL     1      30.546 -10.173   3.121  1.00  0.00     0.157 HD
HETATM    8  N7  UNL     1      30.174  -6.880   3.497  1.00  0.00    -0.272 N 
ENDROOT
BRANCH   1   9
HETATM    9  C5  UNL     1      29.704  -4.810   4.915  1.00  0.00     0.189 C 
BRANCH   9  10
HETATM   10  C4  UNL     1      28.851  -4.069   3.993  1.00  0.00    -0.004 A 
HETATM   11  C3  UNL     1      27.541  -4.092   3.643  1.00  0.00     0.086 A 
HETATM   12  C2  UNL     1      26.518  -4.955   3.938  1.00  0.00     0.274 A 
HETATM   13  C20 UNL     1      27.231  -3.027   2.803  1.00  0.00     0.137 A 
HETATM   14  N2  UNL     1      25.308  -4.723   3.414  1.00  0.00    -0.155 N 
HETATM   15  O1  UNL     1      26.778  -5.915   4.677  1.00  0.00    -0.267 OA
HETATM   16  C1  UNL     1      25.019  -3.678   2.601  1.00  0.00     0.680 A 
ATOM     17  H2  UNL     1      24.556  -5.373   3.642  1.00  0.00     0.187 HD
HETATM   18  N10 UNL     1      26.005  -2.820   2.295  1.00  0.00    -0.176 N 
ATOM     19  H10 UNL     1      25.826  -2.022   1.685  1.00  0.00     0.186 HD
HETATM   20  N9  UNL     1      28.395  -2.348   2.641  1.00  0.00    -0.350 N 
HETATM   21  C19 UNL     1      29.370  -2.938   3.327  1.00  0.00     0.099 A 
ATOM     22  H9  UNL     1      28.506  -1.507   2.074  1.00  0.00     0.166 HD
BRANCH  16  23
HETATM   23  N1  UNL     1      23.811  -3.509   2.139  1.00  0.00    -0.234 N 
ATOM     24  H12 UNL     1      23.361  -4.221   1.564  1.00  0.00     0.174 HD
ATOM     25  H11 UNL     1      23.293  -2.652   2.337  1.00  0.00     0.174 HD
ENDBRANCH  16  23
ENDBRANCH   9  10
ENDBRANCH   1   9
BRANCH   8  26
HETATM   26  C11 UNL     1      30.509  -6.378   2.167  1.00  0.00     0.177 C 
BRANCH  26  27
HETATM   27  C12 UNL     1      31.928  -5.849   2.173  1.00  0.00     0.189 C 
BRANCH  27  28
HETATM   28  O2  UNL     1      32.355  -5.547   0.919  1.00  0.00    -0.388 OA
BRANCH  28  29
HETATM   29  C13 UNL     1      32.384  -4.249   0.519  1.00  0.00     0.187 C 
BRANCH  29  30
HETATM   30  C14 UNL     1      31.612  -4.166  -0.794  1.00  0.00     0.148 C 
BRANCH  30  31
HETATM   31  N8  UNL     1      30.471  -3.329  -0.719  1.00  0.00    -0.387 N 
HETATM   32  C15 UNL     1      29.241  -3.909  -0.357  1.00  0.00     0.084 C 
HETATM   33  C16 UNL     1      28.093  -3.083  -0.889  1.00  0.00     0.212 C 
HETATM   34  O3  UNL     1      28.505  -1.883  -1.464  1.00  0.00    -0.385 OA
HETATM   35  C17 UNL     1      29.362  -1.208  -0.631  1.00  0.00     0.187 C 
HETATM   36  C18 UNL     1      30.657  -1.979  -0.355  1.00  0.00     0.148 C 
ENDBRANCH  30  31
ENDBRANCH  29  30
ENDBRANCH  28  29
ENDBRANCH  27  28
ENDBRANCH  26  27
ENDBRANCH   8  26
BRANCH   3  37
HETATM   37  C8  UNL     1      29.852  -9.671   5.874  1.00  0.00     0.246 C 
BRANCH  37  38
HETATM   38  N4  UNL     1      28.544 -10.259   5.605  1.00  0.00    -0.069 N 
ATOM     39  H43 UNL     1      28.502 -10.749   4.712  1.00  0.00     0.275 HD
ATOM     40  H42 UNL     1      28.334 -11.057   6.205  1.00  0.00     0.275 HD
ATOM     41  H41 UNL     1      27.854  -9.511   5.682  1.00  0.00     0.275 HD
ENDBRANCH  37  38
BRANCH  37  42
HETATM   42  C9  UNL     1      29.943  -9.396   7.363  1.00  0.00     0.267 C 
BRANCH  42  43
HETATM   43  N5  UNL     1      28.728  -9.889   7.969  1.00  0.00    -0.077 N 
ATOM     44  H53 UNL     1      28.712  -9.771   8.983  1.00  0.00     0.274 HD
ATOM     45  H52 UNL     1      27.914  -9.311   7.756  1.00  0.00     0.274 HD
ATOM     46  H51 UNL     1      28.613 -10.859   7.678  1.00  0.00     0.274 HD
ENDBRANCH  42  43
ENDBRANCH  37  42
ENDBRANCH   3  37
TORSDOF 13
ENDMDL
MODEL 4
REMARK VINA RESULT: -5.641148329      2.546      6.260
REMARK  13 active torsions:
REMARK  status: ('A' for Active; 'I' for Inactive)
REMARK    1  A    between atoms: N1_1  and  C1_4 
REMARK    2  A    between atoms: C4_10  and  C5_11 
REMARK    3  A    between atoms: C5_11  and  N3_12 
REMARK    4  A    between atoms: C7_14  and  C8_15 
REMARK    5  A    between atoms: C8_15  and  N4_16 
REMARK    6  A    between atoms: C8_15  and  C9_20 
REMARK    7  A    between atoms: C9_20  and  N5_21 
REMARK    8  A    between atoms: N7_29  and  C11_30 
REMARK    9  A    between atoms: C11_30  and  C12_31 
REMARK   10  A    between atoms: C12_31  and  O2_32 
REMARK   11  A    between atoms: O2_32  and  C13_33 
REMARK   12  A    between atoms: C13_33  and  C14_34 
REMARK   13  A    between atoms: C14_34  and  N8_35 
ROOT
HETATM    1  N3  UNL     1      28.606  -2.800   2.417  1.00  0.00    -0.295 N 
HETATM    2  C6  UNL     1      29.517  -2.440   1.427  1.00  0.00     0.123 A 
HETATM    3  C7  UNL     1      29.161  -3.057   0.261  1.00  0.00     0.036 A 
HETATM    4  C10 UNL     1      28.044  -3.789   0.530  1.00  0.00     0.125 A 
HETATM    5  N6  UNL     1      27.386  -4.517  -0.305  1.00  0.00    -0.384 N 
ATOM      6  H61 UNL     1      26.550  -5.065  -0.103  1.00  0.00     0.157 HD
ATOM      7  H62 UNL     1      27.606  -4.660  -1.290  1.00  0.00     0.157 HD
HETATM    8  N7  UNL     1      27.746  -3.594   1.867  1.00  0.00    -0.272 N 
ENDROOT
BRANCH   1   9
HETATM    9  C5  UNL     1      28.801  -2.213   3.737  1.00  0.00     0.189 C 
BRANCH   9  10
HETATM   10  C4  UNL     1      28.287  -0.854   3.861  1.00  0.00    -0.004 A 
HETATM   11  C3  UNL     1      27.172  -0.274   4.373  1.00  0.00     0.086 A 
HETATM   12  C2  UNL     1      25.999  -0.791   4.859  1.00  0.00     0.274 A 
HETATM   13  C20 UNL     1      27.280   1.112   4.359  1.00  0.00     0.137 A 
HETATM   14  N2  UNL     1      25.051   0.053   5.285  1.00  0.00    -0.155 N 
HETATM   15  O1  UNL     1      25.882  -2.025   4.870  1.00  0.00    -0.267 OA
HETATM   16  C1  UNL     1      25.172   1.402   5.269  1.00  0.00     0.680 A 
ATOM     17  H2  UNL     1      24.183  -0.345   5.645  1.00  0.00     0.187 HD
HETATM   18  N10 UNL     1      26.310   1.932   4.796  1.00  0.00    -0.176 N 
ATOM     19  H10 UNL     1      26.437   2.944   4.767  1.00  0.00     0.186 HD
HETATM   20  N9  UNL     1      28.496   1.372   3.815  1.00  0.00    -0.350 N 
HETATM   21  C19 UNL     1      29.114   0.234   3.509  1.00  0.00     0.099 A 
ATOM     22  H9  UNL     1      28.881   2.304   3.663  1.00  0.00     0.166 HD
BRANCH  16  23
HETATM   23  N1  UNL     1      24.209   2.162   5.715  1.00  0.00    -0.234 N 
ATOM     24  H12 UNL     1      23.246   1.826   5.749  1.00  0.00     0.174 HD
ATOM     25  H11 UNL     1      24.400   3.113   6.030  1.00  0.00     0.174 HD
ENDBRANCH  16  23
ENDBRANCH   9  10
ENDBRANCH   1   9
BRANCH   8  26
HETATM   26  C11 UNL     1      26.549  -4.196   2.450  1.00  0.00     0.177 C 
BRANCH  26  27
HETATM   27  C12 UNL     1      26.952  -5.115   3.584  1.00  0.00     0.189 C 
BRANCH  27  28
HETATM   28  O2  UNL     1      28.038  -5.864   3.261  1.00  0.00    -0.388 OA
BRANCH  28  29
HETATM   29  C13 UNL     1      29.069  -5.957   4.140  1.00  0.00     0.187 C 
BRANCH  29  30
HETATM   30  C14 UNL     1      29.870  -7.200   3.764  1.00  0.00     0.148 C 
BRANCH  30  31
HETATM   31  N8  UNL     1      29.506  -8.346   4.513  1.00  0.00    -0.387 N 
HETATM   32  C15 UNL     1      30.002  -9.597   4.101  1.00  0.00     0.084 C 
HETATM   33  C16 UNL     1      29.096 -10.707   4.581  1.00  0.00     0.212 C 
HETATM   34  O3  UNL     1      28.090 -10.259   5.435  1.00  0.00    -0.385 OA
HETATM   35  C17 UNL     1      28.607  -9.467   6.430  1.00  0.00     0.187 C 
HETATM   36  C18 UNL     1      29.269  -8.192   5.895  1.00  0.00     0.148 C 
ENDBRANCH  30  31
ENDBRANCH  29  30
ENDBRANCH  28  29
ENDBRANCH  27  28
ENDBRANCH  26  27
ENDBRANCH   8  26
BRANCH   3  37
HETATM   37  C8  UNL     1      29.904  -2.936  -1.041  1.00  0.00     0.246 C 
BRANCH  37  38
HETATM   38  N4  UNL     1      30.659  -4.171  -1.227  1.00  0.00    -0.069 N 
ATOM     39  H43 UNL     1      30.504  -4.850  -0.481  1.00  0.00     0.275 HD
ATOM     40  H42 UNL     1      30.310  -4.740  -1.998  1.00  0.00     0.275 HD
ATOM     41  H41 UNL     1      31.640  -3.914  -1.334  1.00  0.00     0.275 HD
ENDBRANCH  37  38
BRANCH  37  42
HETATM   42  C9  UNL     1      30.892  -1.787  -0.996  1.00  0.00     0.267 C 
BRANCH  42  43
HETATM   43  N5  UNL     1      32.163  -2.291  -1.465  1.00  0.00    -0.077 N 
ATOM     44  H53 UNL     1      32.101  -2.734  -2.382  1.00  0.00     0.274 HD
ATOM     45  H52 UNL     1      32.815  -1.549  -1.720  1.00  0.00     0.274 HD
ATOM     46  H51 UNL     1      32.530  -2.913  -0.745  1.00  0.00     0.274 HD
ENDBRANCH  42  43
ENDBRANCH  37  42
ENDBRANCH   3  37
TORSDOF 13
ENDMDL
MODEL 5
REMARK VINA RESULT: -5.596564332      2.753      5.417
REMARK  13 active torsions:
REMARK  status: ('A' for Active; 'I' for Inactive)
REMARK    1  A    between atoms: N1_1  and  C1_4 
REMARK    2  A    between atoms: C4_10  and  C5_11 
REMARK    3  A    between atoms: C5_11  and  N3_12 
REMARK    4  A    between atoms: C7_14  and  C8_15 
REMARK    5  A    between atoms: C8_15  and  N4_16 
REMARK    6  A    between atoms: C8_15  and  C9_20 
REMARK    7  A    between atoms: C9_20  and  N5_21 
REMARK    8  A    between atoms: N7_29  and  C11_30 
REMARK    9  A    between atoms: C11_30  and  C12_31 
REMARK   10  A    between atoms: C12_31  and  O2_32 
REMARK   11  A    between atoms: O2_32  and  C13_33 
REMARK   12  A    between atoms: C13_33  and  C14_34 
REMARK   13  A    between atoms: C14_34  and  N8_35 
ROOT
HETATM    1  N3  UNL     1      28.938  -3.068   0.642  1.00  0.00    -0.295 N 
HETATM    2  C6  UNL     1      27.883  -3.505   1.439  1.00  0.00     0.123 A 
HETATM    3  C7  UNL     1      27.378  -2.435   2.121  1.00  0.00     0.036 A 
HETATM    4  C10 UNL     1      28.113  -1.351   1.750  1.00  0.00     0.125 A 
HETATM    5  N6  UNL     1      27.955  -0.140   2.160  1.00  0.00    -0.384 N 
ATOM      6  H61 UNL     1      28.506   0.672   1.882  1.00  0.00     0.157 HD
ATOM      7  H62 UNL     1      27.260   0.188   2.831  1.00  0.00     0.157 HD
HETATM    8  N7  UNL     1      29.056  -1.795   0.839  1.00  0.00    -0.272 N 
ENDROOT
BRANCH   1   9
HETATM    9  C5  UNL     1      29.593  -4.068  -0.192  1.00  0.00     0.189 C 
BRANCH   9  10
HETATM   10  C4  UNL     1      30.913  -4.464   0.286  1.00  0.00    -0.004 A 
HETATM   11  C3  UNL     1      32.197  -4.152  -0.022  1.00  0.00     0.086 A 
HETATM   12  C2  UNL     1      32.754  -3.420  -1.039  1.00  0.00     0.274 A 
HETATM   13  C20 UNL     1      33.081  -4.727   0.885  1.00  0.00     0.137 A 
HETATM   14  N2  UNL     1      34.087  -3.304  -1.092  1.00  0.00    -0.155 N 
HETATM   15  O1  UNL     1      31.982  -2.909  -1.861  1.00  0.00    -0.267 OA
HETATM   16  C1  UNL     1      34.936  -3.867  -0.198  1.00  0.00     0.680 A 
ATOM     17  H2  UNL     1      34.489  -2.758  -1.854  1.00  0.00     0.187 HD
HETATM   18  N10 UNL     1      34.414  -4.590   0.804  1.00  0.00    -0.176 N 
ATOM     19  H10 UNL     1      35.022  -5.030   1.496  1.00  0.00     0.186 HD
HETATM   20  N9  UNL     1      32.301  -5.411   1.761  1.00  0.00    -0.350 N 
HETATM   21  C19 UNL     1      31.018  -5.278   1.434  1.00  0.00     0.099 A 
ATOM     22  H9  UNL     1      32.648  -5.949   2.555  1.00  0.00     0.166 HD
BRANCH  16  23
HETATM   23  N1  UNL     1      36.225  -3.699  -0.308  1.00  0.00    -0.234 N 
ATOM     24  H12 UNL     1      36.755  -3.201   0.408  1.00  0.00     0.174 HD
ATOM     25  H11 UNL     1      36.729  -4.054  -1.121  1.00  0.00     0.174 HD
ENDBRANCH  16  23
ENDBRANCH   9  10
ENDBRANCH   1   9
BRANCH   8  26
HETATM   26  C11 UNL     1      29.961  -0.848   0.195  1.00  0.00     0.177 C 
BRANCH  26  27
HETATM   27  C12 UNL     1      31.152  -0.598   1.097  1.00  0.00     0.189 C 
BRANCH  27  28
HETATM   28  O2  UNL     1      31.092   0.630   1.676  1.00  0.00    -0.388 OA
BRANCH  28  29
HETATM   29  C13 UNL     1      31.421   0.765   2.987  1.00  0.00     0.187 C 
BRANCH  29  30
HETATM   30  C14 UNL     1      32.906   0.440   3.114  1.00  0.00     0.148 C 
BRANCH  30  31
HETATM   31  N8  UNL     1      33.722   1.594   3.224  1.00  0.00    -0.387 N 
HETATM   32  C15 UNL     1      33.247   2.676   3.989  1.00  0.00     0.084 C 
HETATM   33  C16 UNL     1      33.890   3.964   3.533  1.00  0.00     0.212 C 
HETATM   34  O3  UNL     1      34.899   3.768   2.592  1.00  0.00    -0.385 OA
HETATM   35  C17 UNL     1      35.779   2.802   3.009  1.00  0.00     0.187 C 
HETATM   36  C18 UNL     1      35.122   1.428   3.178  1.00  0.00     0.148 C 
ENDBRANCH  30  31
ENDBRANCH  29  30
ENDBRANCH  28  29
ENDBRANCH  27  28
ENDBRANCH  26  27
ENDBRANCH   8  26
BRANCH   3  37
HETATM   37  C8  UNL     1      26.238  -2.495   3.100  1.00  0.00     0.246 C 
BRANCH  37  38
HETATM   38  N4  UNL     1      26.812  -2.423   4.440  1.00  0.00    -0.069 N 
ATOM     39  H43 UNL     1      26.424  -1.663   4.999  1.00  0.00     0.275 HD
ATOM     40  H42 UNL     1      26.519  -3.193   5.042  1.00  0.00     0.275 HD
ATOM     41  H41 UNL     1      27.824  -2.363   4.334  1.00  0.00     0.275 HD
ENDBRANCH  37  38
BRANCH  37  42
HETATM   42  C9  UNL     1      25.492  -3.810   2.983  1.00  0.00     0.267 C 
BRANCH  42  43
HETATM   43  N5  UNL     1      24.276  -3.554   2.245  1.00  0.00    -0.077 N 
ATOM     44  H53 UNL     1      23.438  -3.619   2.824  1.00  0.00     0.274 HD
ATOM     45  H52 UNL     1      24.174  -2.576   1.973  1.00  0.00     0.274 HD
ATOM     46  H51 UNL     1      24.261  -4.191   1.450  1.00  0.00     0.274 HD
ENDBRANCH  42  43
ENDBRANCH  37  42
ENDBRANCH   3  37
TORSDOF 13
ENDMDL
