MODEL 1
REMARK VINA RESULT: -6.045472547      0.000      0.000
REMARK  4 active torsions:
REMARK  status: ('A' for Active; 'I' for Inactive)
REMARK    1  A    between atoms: C2_2  and  C3_3 
REMARK    2  A    between atoms: N2_6  and  C5_8 
REMARK    3  A    between atoms: C5_8  and  O1_9 
REMARK    4  A    between atoms: N3_11  and  O2_13 
ROOT
HETATM    1  C3  UNL     1      15.972 -54.370 -40.530  1.00  0.00     0.122 C 
HETATM    2  C4  UNL     1      16.400 -55.450 -41.382  1.00  0.00     0.116 C 
HETATM    3  N1  UNL     1      16.724 -56.312 -42.069  1.00  0.00    -0.190 NA
HETATM    4  N2  UNL     1      15.928 -54.448 -39.257  1.00  0.00    -0.313 N 
ATOM      5  H2  UNL     1      15.610 -53.619 -38.754  1.00  0.00     0.170 HD
ENDROOT
BRANCH   1   6
HETATM    6  C2  UNL     1      15.555 -53.086 -41.146  1.00  0.00     0.088 C 
HETATM    7  C1  UNL     1      14.045 -53.224 -41.397  1.00  0.00     0.047 C 
HETATM    8  C6  UNL     1      15.751 -51.940 -40.218  1.00  0.00     0.111 C 
HETATM    9  S1  UNL     1      17.407 -51.231 -40.288  1.00  0.00    -0.166 SA
HETATM   10  C7  UNL     1      17.691 -50.263 -41.777  1.00  0.00     0.081 C 
HETATM   11  C8  UNL     1      16.571 -50.377 -42.778  1.00  0.00     0.079 C 
HETATM   12  C9  UNL     1      16.500 -51.807 -43.212  1.00  0.00     0.075 C 
HETATM   13  S2  UNL     1      16.834 -52.156 -44.764  1.00  0.00    -0.066 SA
HETATM   14  N4  UNL     1      16.167 -52.940 -42.427  1.00  0.00    -0.368 N 
ATOM     15  H4  UNL     1      16.413 -53.828 -42.866  1.00  0.00     0.161 HD
ENDBRANCH   1   6
BRANCH   4  16
HETATM   16  C5  UNL     1      16.276 -55.560 -38.487  1.00  0.00     0.242 C 
HETATM   17  N3  UNL     1      17.447 -55.634 -37.965  1.00  0.00    -0.233 N 
ATOM     18  H3  UNL     1      17.707 -56.442 -37.402  1.00  0.00     0.198 HD
BRANCH  16  19
HETATM   19  O1  UNL     1      15.317 -56.560 -38.315  1.00  0.00    -0.331 OA
ATOM     20  H1  UNL     1      15.581 -57.357 -37.871  1.00  0.00     0.221 HD
ENDBRANCH  16  19
BRANCH  17  21
HETATM   21  O2  UNL     1      18.342 -54.623 -38.170  1.00  0.00    -0.287 OA
ATOM     22  H2  UNL     1      19.129 -54.578 -37.640  1.00  0.00     0.244 HD
ENDBRANCH  17  21
ENDBRANCH   4  16
TORSDOF 4
ENDMDL
MODEL 2
REMARK VINA RESULT: -6.036371586      1.948      2.742
REMARK  4 active torsions:
REMARK  status: ('A' for Active; 'I' for Inactive)
REMARK    1  A    between atoms: C2_2  and  C3_3 
REMARK    2  A    between atoms: N2_6  and  C5_8 
REMARK    3  A    between atoms: C5_8  and  O1_9 
REMARK    4  A    between atoms: N3_11  and  O2_13 
ROOT
HETATM    1  C3  UNL     1      16.126 -54.658 -39.565  1.00  0.00     0.122 C 
HETATM    2  C4  UNL     1      17.206 -54.048 -38.832  1.00  0.00     0.116 C 
HETATM    3  N1  UNL     1      18.078 -53.566 -38.262  1.00  0.00    -0.190 NA
HETATM    4  N2  UNL     1      15.488 -55.687 -39.160  1.00  0.00    -0.313 N 
ATOM      5  H2  UNL     1      14.740 -56.034 -39.761  1.00  0.00     0.170 HD
ENDROOT
BRANCH   1   6
HETATM    6  C2  UNL     1      15.715 -54.075 -40.866  1.00  0.00     0.088 C 
HETATM    7  C1  UNL     1      16.273 -55.027 -41.936  1.00  0.00     0.047 C 
HETATM    8  C6  UNL     1      14.236 -54.050 -41.016  1.00  0.00     0.111 C 
HETATM    9  S1  UNL     1      13.464 -52.579 -40.315  1.00  0.00    -0.166 SA
HETATM   10  C7  UNL     1      13.737 -51.105 -41.309  1.00  0.00     0.081 C 
HETATM   11  C8  UNL     1      14.712 -51.324 -42.436  1.00  0.00     0.079 C 
HETATM   12  C9  UNL     1      16.033 -51.672 -41.826  1.00  0.00     0.075 C 
HETATM   13  S2  UNL     1      17.272 -50.640 -42.037  1.00  0.00    -0.066 SA
HETATM   14  N4  UNL     1      16.366 -52.820 -41.063  1.00  0.00    -0.368 N 
ATOM     15  H4  UNL     1      17.245 -52.731 -40.553  1.00  0.00     0.161 HD
ENDBRANCH   1   6
BRANCH   4  16
HETATM   16  C5  UNL     1      15.718 -56.384 -37.971  1.00  0.00     0.242 C 
HETATM   17  N3  UNL     1      16.398 -57.473 -37.991  1.00  0.00    -0.233 N 
ATOM     18  H3  UNL     1      16.569 -57.986 -37.127  1.00  0.00     0.198 HD
BRANCH  16  19
HETATM   19  O1  UNL     1      15.188 -55.855 -36.793  1.00  0.00    -0.331 OA
ATOM     20  H1  UNL     1      15.688 -55.186 -36.342  1.00  0.00     0.221 HD
ENDBRANCH  16  19
BRANCH  17  21
HETATM   21  O2  UNL     1      16.890 -57.940 -39.177  1.00  0.00    -0.287 OA
ATOM     22  H2  UNL     1      16.914 -58.875 -39.340  1.00  0.00     0.244 HD
ENDBRANCH  17  21
ENDBRANCH   4  16
TORSDOF 4
ENDMDL
MODEL 3
REMARK VINA RESULT: -5.888876130      2.019      3.405
REMARK  4 active torsions:
REMARK  status: ('A' for Active; 'I' for Inactive)
REMARK    1  A    between atoms: C2_2  and  C3_3 
REMARK    2  A    between atoms: N2_6  and  C5_8 
REMARK    3  A    between atoms: C5_8  and  O1_9 
REMARK    4  A    between atoms: N3_11  and  O2_13 
ROOT
HETATM    1  C3  UNL     1      15.934 -55.186 -38.918  1.00  0.00     0.122 C 
HETATM    2  C4  UNL     1      15.856 -54.289 -37.794  1.00  0.00     0.116 C 
HETATM    3  N1  UNL     1      15.809 -53.565 -36.904  1.00  0.00    -0.190 NA
HETATM    4  N2  UNL     1      16.086 -56.449 -38.806  1.00  0.00    -0.313 N 
ATOM      5  H2  UNL     1      16.127 -56.988 -39.672  1.00  0.00     0.170 HD
ENDROOT
BRANCH   1   6
HETATM    6  C2  UNL     1      15.834 -54.635 -40.292  1.00  0.00     0.088 C 
HETATM    7  C1  UNL     1      16.704 -55.553 -41.166  1.00  0.00     0.047 C 
HETATM    8  C6  UNL     1      14.444 -54.705 -40.815  1.00  0.00     0.111 C 
HETATM    9  S1  UNL     1      13.430 -53.284 -40.363  1.00  0.00    -0.166 SA
HETATM   10  C7  UNL     1      13.857 -51.800 -41.282  1.00  0.00     0.081 C 
HETATM   11  C8  UNL     1      15.100 -51.959 -42.120  1.00  0.00     0.079 C 
HETATM   12  C9  UNL     1      16.239 -52.220 -41.186  1.00  0.00     0.075 C 
HETATM   13  S2  UNL     1      17.425 -51.111 -41.095  1.00  0.00    -0.066 SA
HETATM   14  N4  UNL     1      16.436 -53.341 -40.341  1.00  0.00    -0.368 N 
ATOM     15  H4  UNL     1      17.149 -53.195 -39.626  1.00  0.00     0.161 HD
ENDBRANCH   1   6
BRANCH   4  16
HETATM   16  C5  UNL     1      16.201 -57.162 -37.611  1.00  0.00     0.242 C 
HETATM   17  N3  UNL     1      15.155 -57.672 -37.070  1.00  0.00    -0.233 N 
ATOM     18  H3  UNL     1      15.232 -58.194 -36.197  1.00  0.00     0.198 HD
BRANCH  16  19
HETATM   19  O1  UNL     1      17.473 -57.292 -37.048  1.00  0.00    -0.331 OA
ATOM     20  H1  UNL     1      17.810 -58.169 -36.910  1.00  0.00     0.221 HD
ENDBRANCH  16  19
BRANCH  17  21
HETATM   21  O2  UNL     1      13.938 -57.510 -37.668  1.00  0.00    -0.287 OA
ATOM     22  H2  UNL     1      13.190 -58.004 -37.353  1.00  0.00     0.244 HD
ENDBRANCH  17  21
ENDBRANCH   4  16
TORSDOF 4
ENDMDL
MODEL 4
REMARK VINA RESULT: -5.875239196      3.376      4.328
REMARK  4 active torsions:
REMARK  status: ('A' for Active; 'I' for Inactive)
REMARK    1  A    between atoms: C2_2  and  C3_3 
REMARK    2  A    between atoms: N2_6  and  C5_8 
REMARK    3  A    between atoms: C5_8  and  O1_9 
REMARK    4  A    between atoms: N3_11  and  O2_13 
ROOT
HETATM    1  C3  UNL     1      15.808 -55.434 -38.434  1.00  0.00     0.122 C 
HETATM    2  C4  UNL     1      17.148 -54.933 -38.268  1.00  0.00     0.116 C 
HETATM    3  N1  UNL     1      18.218 -54.531 -38.153  1.00  0.00    -0.190 NA
HETATM    4  N2  UNL     1      15.443 -56.608 -38.088  1.00  0.00    -0.313 N 
ATOM      5  H2  UNL     1      14.467 -56.855 -38.253  1.00  0.00     0.170 HD
ENDROOT
BRANCH   1   6
HETATM    6  C2  UNL     1      14.777 -54.554 -39.038  1.00  0.00     0.088 C 
HETATM    7  C1  UNL     1      14.915 -54.746 -40.557  1.00  0.00     0.047 C 
HETATM    8  C6  UNL     1      13.402 -54.973 -38.657  1.00  0.00     0.111 C 
HETATM    9  S1  UNL     1      12.838 -54.264 -37.099  1.00  0.00    -0.166 SA
HETATM   10  C7  UNL     1      12.427 -52.519 -37.233  1.00  0.00     0.081 C 
HETATM   11  C8  UNL     1      12.806 -51.922 -38.563  1.00  0.00     0.079 C 
HETATM   12  C9  UNL     1      14.294 -52.016 -38.690  1.00  0.00     0.075 C 
HETATM   13  S2  UNL     1      15.148 -50.634 -38.743  1.00  0.00    -0.066 SA
HETATM   14  N4  UNL     1      15.090 -53.187 -38.774  1.00  0.00    -0.368 N 
ATOM     15  H4  UNL     1      16.083 -53.018 -38.613  1.00  0.00     0.161 HD
ENDBRANCH   1   6
BRANCH   4  16
HETATM   16  C5  UNL     1      16.253 -57.584 -37.506  1.00  0.00     0.242 C 
HETATM   17  N3  UNL     1      16.919 -58.389 -38.254  1.00  0.00    -0.233 N 
ATOM     18  H3  UNL     1      17.513 -59.104 -37.835  1.00  0.00     0.198 HD
BRANCH  16  19
HETATM   19  O1  UNL     1      16.306 -57.644 -36.112  1.00  0.00    -0.331 OA
ATOM     20  H1  UNL     1      16.898 -58.272 -35.717  1.00  0.00     0.221 HD
ENDBRANCH  16  19
BRANCH  17  21
HETATM   21  O2  UNL     1      16.826 -58.282 -39.612  1.00  0.00    -0.287 OA
ATOM     22  H2  UNL     1      17.532 -57.875 -40.101  1.00  0.00     0.244 HD
ENDBRANCH  17  21
ENDBRANCH   4  16
TORSDOF 4
ENDMDL
MODEL 5
REMARK VINA RESULT: -5.866081968      3.009      4.229
REMARK  4 active torsions:
REMARK  status: ('A' for Active; 'I' for Inactive)
REMARK    1  A    between atoms: C2_2  and  C3_3 
REMARK    2  A    between atoms: N2_6  and  C5_8 
REMARK    3  A    between atoms: C5_8  and  O1_9 
REMARK    4  A    between atoms: N3_11  and  O2_13 
ROOT
HETATM    1  C3  UNL     1      15.311 -55.941 -38.012  1.00  0.00     0.122 C 
HETATM    2  C4  UNL     1      16.220 -56.886 -37.416  1.00  0.00     0.116 C 
HETATM    3  N1  UNL     1      16.952 -57.643 -36.958  1.00  0.00    -0.190 NA
HETATM    4  N2  UNL     1      14.040 -56.041 -37.942  1.00  0.00    -0.313 N 
ATOM      5  H2  UNL     1      13.493 -55.312 -38.402  1.00  0.00     0.170 HD
ENDROOT
BRANCH   1   6
HETATM    6  C2  UNL     1      15.860 -54.778 -38.752  1.00  0.00     0.088 C 
HETATM    7  C1  UNL     1      16.262 -53.759 -37.674  1.00  0.00     0.047 C 
HETATM    8  C6  UNL     1      17.088 -55.136 -39.510  1.00  0.00     0.111 C 
HETATM    9  S1  UNL     1      16.755 -55.798 -41.153  1.00  0.00    -0.166 SA
HETATM   10  C7  UNL     1      16.225 -54.538 -42.321  1.00  0.00     0.081 C 
HETATM   11  C8  UNL     1      15.973 -53.201 -41.674  1.00  0.00     0.079 C 
HETATM   12  C9  UNL     1      14.848 -53.376 -40.704  1.00  0.00     0.075 C 
HETATM   13  S2  UNL     1      13.456 -52.587 -40.992  1.00  0.00    -0.066 SA
HETATM   14  N4  UNL     1      14.828 -54.163 -39.524  1.00  0.00    -0.368 N 
ATOM     15  H4  UNL     1      13.891 -54.321 -39.154  1.00  0.00     0.161 HD
ENDBRANCH   1   6
BRANCH   4  16
HETATM   16  C5  UNL     1      13.328 -57.054 -37.297  1.00  0.00     0.242 C 
HETATM   17  N3  UNL     1      12.289 -57.560 -37.858  1.00  0.00    -0.233 N 
ATOM     18  H3  UNL     1      11.764 -58.300 -37.393  1.00  0.00     0.198 HD
BRANCH  16  19
HETATM   19  O1  UNL     1      13.784 -57.480 -36.049  1.00  0.00    -0.331 OA
ATOM     20  H1  UNL     1      14.488 -56.989 -35.642  1.00  0.00     0.221 HD
ENDBRANCH  16  19
BRANCH  17  21
HETATM   21  O2  UNL     1      11.891 -57.101 -39.082  1.00  0.00    -0.287 OA
ATOM     22  H2  UNL     1      10.966 -56.981 -39.260  1.00  0.00     0.244 HD
ENDBRANCH  17  21
ENDBRANCH   4  16
TORSDOF 4
ENDMDL
