MODEL 1
REMARK VINA RESULT: -7.578110642      0.000      0.000
REMARK  2 active torsions:
REMARK  status: ('A' for Active; 'I' for Inactive)
REMARK    1  A    between atoms: C2_2  and  N1_3 
REMARK    2  A    between atoms: C2_2  and  C4_10 
REMARK       I    between atoms: N1_3  and  C3_5 
ROOT
HETATM    1  C1  UNL     1     -10.622  32.272 -13.602  1.00  0.00     0.032 C 
HETATM    2  C2  UNL     1     -10.403  33.009 -12.282  1.00  0.00     0.084 C 
ENDROOT
BRANCH   2   3
HETATM    3  N1  UNL     1     -10.760  34.389 -12.397  1.00  0.00    -0.360 N 
HETATM    4  C3  UNL     1     -11.918  34.970 -11.846  1.00  0.00     0.182 C 
HETATM    5  N2  UNL     1     -12.886  35.285 -12.638  1.00  0.00    -0.374 N 
HETATM    6  N3  UNL     1     -12.102  35.240 -10.463  1.00  0.00    -0.064 NA
ATOM      7  H22 UNL     1     -12.755  35.091 -13.630  1.00  0.00     0.158 HD
ATOM      8  H21 UNL     1     -13.726  35.705 -12.239  1.00  0.00     0.158 HD
ATOM      9  H1  UNL     1     -10.129  34.998 -12.917  1.00  0.00     0.162 HD
ENDBRANCH   2   3
BRANCH   2  10
HETATM   10  C4  UNL     1      -8.924  32.935 -11.980  1.00  0.00     0.012 C 
HETATM   11  C5  UNL     1      -8.541  31.525 -11.484  1.00  0.00     0.011 C 
HETATM   12  C6  UNL     1      -7.882  31.909 -10.196  1.00  0.00    -0.013 C 
HETATM   13  C7  UNL     1      -7.110  33.190 -10.525  1.00  0.00     0.010 C 
HETATM   14  C9  UNL     1      -8.918  32.858  -9.597  1.00  0.00     0.010 C 
HETATM   15  C8  UNL     1      -8.521  33.732 -10.790  1.00  0.00    -0.008 C 
ENDBRANCH   2  10
TORSDOF 2
ENDMDL
MODEL 2
REMARK VINA RESULT: -7.174096339      1.598      2.716
REMARK  2 active torsions:
REMARK  status: ('A' for Active; 'I' for Inactive)
REMARK    1  A    between atoms: C2_2  and  N1_3 
REMARK    2  A    between atoms: C2_2  and  C4_10 
REMARK       I    between atoms: N1_3  and  C3_5 
ROOT
HETATM    1  C1  UNL     1      -7.534  36.471 -10.926  1.00  0.00     0.032 C 
HETATM    2  C2  UNL     1      -8.610  35.452 -11.295  1.00  0.00     0.084 C 
ENDROOT
BRANCH   2   3
HETATM    3  N1  UNL     1      -9.913  36.041 -11.255  1.00  0.00    -0.360 N 
HETATM    4  C3  UNL     1     -10.858  35.979 -12.295  1.00  0.00     0.182 C 
HETATM    5  N2  UNL     1     -11.070  37.038 -13.000  1.00  0.00    -0.374 N 
HETATM    6  N3  UNL     1     -11.606  34.819 -12.633  1.00  0.00    -0.064 NA
ATOM      7  H22 UNL     1     -10.533  37.870 -12.757  1.00  0.00     0.158 HD
ATOM      8  H21 UNL     1     -11.755  36.994 -13.754  1.00  0.00     0.158 HD
ATOM      9  H1  UNL     1     -10.176  36.544 -10.407  1.00  0.00     0.162 HD
ENDBRANCH   2   3
BRANCH   2  10
HETATM   10  C4  UNL     1      -8.558  34.363 -10.250  1.00  0.00     0.012 C 
HETATM   11  C5  UNL     1      -7.111  33.863 -10.057  1.00  0.00     0.011 C 
HETATM   12  C6  UNL     1      -7.342  32.403 -10.290  1.00  0.00    -0.013 C 
HETATM   13  C7  UNL     1      -8.688  32.113  -9.619  1.00  0.00     0.010 C 
HETATM   14  C9  UNL     1      -8.155  32.429 -11.583  1.00  0.00     0.010 C 
HETATM   15  C8  UNL     1      -9.201  33.093 -10.684  1.00  0.00    -0.008 C 
ENDBRANCH   2  10
TORSDOF 2
ENDMDL
MODEL 3
REMARK VINA RESULT: -7.120373653      2.547      3.608
REMARK  2 active torsions:
REMARK  status: ('A' for Active; 'I' for Inactive)
REMARK    1  A    between atoms: C2_2  and  N1_3 
REMARK    2  A    between atoms: C2_2  and  C4_10 
REMARK       I    between atoms: N1_3  and  C3_5 
ROOT
HETATM    1  C1  UNL     1      -9.678  36.831 -12.134  1.00  0.00     0.032 C 
HETATM    2  C2  UNL     1      -9.450  35.532 -11.363  1.00  0.00     0.084 C 
ENDROOT
BRANCH   2   3
HETATM    3  N1  UNL     1     -10.689  34.876 -11.082  1.00  0.00    -0.360 N 
HETATM    4  C3  UNL     1     -11.709  34.643 -12.023  1.00  0.00     0.182 C 
HETATM    5  N2  UNL     1     -12.779  35.360 -11.964  1.00  0.00    -0.374 N 
HETATM    6  N3  UNL     1     -11.647  33.661 -13.049  1.00  0.00    -0.064 NA
ATOM      7  H22 UNL     1     -12.824  36.064 -11.228  1.00  0.00     0.158 HD
ATOM      8  H21 UNL     1     -13.518  35.191 -12.646  1.00  0.00     0.158 HD
ATOM      9  H1  UNL     1     -10.845  34.553 -10.127  1.00  0.00     0.162 HD
ENDBRANCH   2   3
BRANCH   2  10
HETATM   10  C4  UNL     1      -8.814  35.910 -10.046  1.00  0.00     0.012 C 
HETATM   11  C5  UNL     1      -8.386  37.393 -10.056  1.00  0.00     0.011 C 
HETATM   12  C6  UNL     1      -6.946  37.215  -9.686  1.00  0.00    -0.013 C 
HETATM   13  C7  UNL     1      -6.951  36.095  -8.642  1.00  0.00     0.010 C 
HETATM   14  C9  UNL     1      -6.519  36.115 -10.656  1.00  0.00     0.010 C 
HETATM   15  C8  UNL     1      -7.489  35.273  -9.822  1.00  0.00    -0.008 C 
ENDBRANCH   2  10
TORSDOF 2
ENDMDL
MODEL 4
REMARK VINA RESULT: -7.044598684      1.529      2.621
REMARK  2 active torsions:
REMARK  status: ('A' for Active; 'I' for Inactive)
REMARK    1  A    between atoms: C2_2  and  N1_3 
REMARK    2  A    between atoms: C2_2  and  C4_10 
REMARK       I    between atoms: N1_3  and  C3_5 
ROOT
HETATM    1  C1  UNL     1      -9.428  36.999 -11.292  1.00  0.00     0.032 C 
HETATM    2  C2  UNL     1      -9.469  35.477 -11.415  1.00  0.00     0.084 C 
ENDROOT
BRANCH   2   3
HETATM    3  N1  UNL     1     -10.800  34.982 -11.248  1.00  0.00    -0.360 N 
HETATM    4  C3  UNL     1     -11.666  34.628 -12.299  1.00  0.00     0.182 C 
HETATM    5  N2  UNL     1     -12.648  35.414 -12.581  1.00  0.00    -0.374 N 
HETATM    6  N3  UNL     1     -11.536  33.451 -13.085  1.00  0.00    -0.064 NA
ATOM      7  H22 UNL     1     -12.741  36.259 -12.018  1.00  0.00     0.158 HD
ATOM      8  H21 UNL     1     -13.276  35.158 -13.343  1.00  0.00     0.158 HD
ATOM      9  H1  UNL     1     -11.148  34.878 -10.295  1.00  0.00     0.162 HD
ENDBRANCH   2   3
BRANCH   2  10
HETATM   10  C4  UNL     1      -8.623  34.925 -10.292  1.00  0.00     0.012 C 
HETATM   11  C5  UNL     1      -7.122  35.069 -10.621  1.00  0.00     0.011 C 
HETATM   12  C6  UNL     1      -6.713  33.639 -10.443  1.00  0.00    -0.013 C 
HETATM   13  C7  UNL     1      -7.515  33.157  -9.232  1.00  0.00     0.010 C 
HETATM   14  C9  UNL     1      -7.781  32.916 -11.260  1.00  0.00     0.010 C 
HETATM   15  C8  UNL     1      -8.705  33.445 -10.159  1.00  0.00    -0.008 C 
ENDBRANCH   2  10
TORSDOF 2
ENDMDL
MODEL 5
REMARK VINA RESULT: -6.908271520      1.561      1.927
REMARK  2 active torsions:
REMARK  status: ('A' for Active; 'I' for Inactive)
REMARK    1  A    between atoms: C2_2  and  N1_3 
REMARK    2  A    between atoms: C2_2  and  C4_10 
REMARK       I    between atoms: N1_3  and  C3_5 
ROOT
HETATM    1  C1  UNL     1     -11.137  33.560 -12.806  1.00  0.00     0.032 C 
HETATM    2  C2  UNL     1     -10.599  33.952 -11.431  1.00  0.00     0.084 C 
ENDROOT
BRANCH   2   3
HETATM    3  N1  UNL     1     -10.815  35.342 -11.170  1.00  0.00    -0.360 N 
HETATM    4  C3  UNL     1     -10.209  36.398 -11.876  1.00  0.00     0.182 C 
HETATM    5  N2  UNL     1      -9.267  37.064 -11.300  1.00  0.00    -0.374 N 
HETATM    6  N3  UNL     1     -10.564  36.791 -13.195  1.00  0.00    -0.064 NA
ATOM      7  H22 UNL     1      -9.013  36.782 -10.354  1.00  0.00     0.158 HD
ATOM      8  H21 UNL     1      -8.828  37.829 -11.811  1.00  0.00     0.158 HD
ATOM      9  H1  UNL     1     -11.457  35.585 -10.416  1.00  0.00     0.162 HD
ENDBRANCH   2   3
BRANCH   2  10
HETATM   10  C4  UNL     1      -9.108  33.711 -11.460  1.00  0.00     0.012 C 
HETATM   11  C5  UNL     1      -8.802  32.253 -11.865  1.00  0.00     0.011 C 
HETATM   12  C6  UNL     1      -7.946  31.868 -10.698  1.00  0.00    -0.013 C 
HETATM   13  C7  UNL     1      -7.103  33.114 -10.411  1.00  0.00     0.010 C 
HETATM   14  C9  UNL     1      -8.800  32.350  -9.527  1.00  0.00     0.010 C 
HETATM   15  C8  UNL     1      -8.479  33.728 -10.112  1.00  0.00    -0.008 C 
ENDBRANCH   2  10
TORSDOF 2
ENDMDL
