MODEL 1
REMARK VINA RESULT: -5.074920978      0.000      0.000
REMARK  2 active torsions:
REMARK  status: ('A' for Active; 'I' for Inactive)
REMARK    1  A    between atoms: C2_2  and  N1_5 
REMARK       I    between atoms: C5_7  and  N3_9 
REMARK    2  A    between atoms: N3_9  and  C6_11 
ROOT
HETATM    1  N1  UNL     1      -8.100  35.662 -10.949  1.00  0.00    -0.357 N 
ATOM      2  H1  UNL     1      -8.175  36.326 -11.719  1.00  0.00     0.163 HD
HETATM    3  C5  UNL     1      -8.715  34.530 -11.058  1.00  0.00     0.185 C 
HETATM    4  N2  UNL     1      -8.599  33.617  -9.975  1.00  0.00    -0.064 NA
HETATM    5  N3  UNL     1      -9.475  34.213 -12.211  1.00  0.00    -0.360 N 
ATOM      6  H3  UNL     1      -9.302  34.690 -13.097  1.00  0.00     0.162 HD
ENDROOT
BRANCH   1   7
HETATM    7  C2  UNL     1      -7.320  36.035  -9.812  1.00  0.00     0.021 C 
HETATM    8  C1  UNL     1      -6.199  35.077  -9.499  1.00  0.00     0.037 C 
HETATM    9  C3  UNL     1      -8.169  36.163  -8.550  1.00  0.00     0.037 C 
HETATM   10  C4  UNL     1      -6.699  37.408 -10.098  1.00  0.00     0.037 C 
ENDBRANCH   1   7
BRANCH   5  11
HETATM   11  C6  UNL     1     -10.505  33.197 -12.107  1.00  0.00     0.084 C 
HETATM   12  C7  UNL     1     -11.627  33.501 -13.080  1.00  0.00     0.025 C 
HETATM   13  C8  UNL     1     -10.891  32.638 -14.087  1.00  0.00     0.004 C 
HETATM   14  C9  UNL     1     -10.222  31.953 -12.913  1.00  0.00     0.025 C 
ENDBRANCH   5  11
TORSDOF 2
ENDMDL
MODEL 2
REMARK VINA RESULT: -5.025898777      1.675      2.500
REMARK  2 active torsions:
REMARK  status: ('A' for Active; 'I' for Inactive)
REMARK    1  A    between atoms: C2_2  and  N1_5 
REMARK       I    between atoms: C5_7  and  N3_9 
REMARK    2  A    between atoms: N3_9  and  C6_11 
ROOT
HETATM    1  N1  UNL     1      -8.227  34.920  -9.987  1.00  0.00    -0.357 N 
ATOM      2  H1  UNL     1      -8.458  33.967  -9.709  1.00  0.00     0.163 HD
HETATM    3  C5  UNL     1      -9.168  35.655 -10.485  1.00  0.00     0.185 C 
HETATM    4  N2  UNL     1      -8.827  36.981 -10.869  1.00  0.00    -0.064 NA
HETATM    5  N3  UNL     1     -10.486  35.159 -10.640  1.00  0.00    -0.360 N 
ATOM      6  H3  UNL     1     -10.812  34.366 -10.086  1.00  0.00     0.162 HD
ENDROOT
BRANCH   1   7
HETATM    7  C2  UNL     1      -6.883  35.368  -9.808  1.00  0.00     0.021 C 
HETATM    8  C1  UNL     1      -6.647  36.089  -8.505  1.00  0.00     0.037 C 
HETATM    9  C3  UNL     1      -6.432  36.302 -10.927  1.00  0.00     0.037 C 
HETATM   10  C4  UNL     1      -5.970  34.135  -9.833  1.00  0.00     0.037 C 
ENDBRANCH   1   7
BRANCH   5  11
HETATM   11  C6  UNL     1     -11.360  35.800 -11.603  1.00  0.00     0.084 C 
HETATM   12  C7  UNL     1     -10.727  35.756 -12.980  1.00  0.00     0.025 C 
HETATM   13  C8  UNL     1     -11.463  34.449 -13.198  1.00  0.00     0.004 C 
HETATM   14  C9  UNL     1     -12.447  34.900 -12.138  1.00  0.00     0.025 C 
ENDBRANCH   5  11
TORSDOF 2
ENDMDL
MODEL 3
REMARK VINA RESULT: -4.975766445      0.127      1.230
REMARK  2 active torsions:
REMARK  status: ('A' for Active; 'I' for Inactive)
REMARK    1  A    between atoms: C2_2  and  N1_5 
REMARK       I    between atoms: C5_7  and  N3_9 
REMARK    2  A    between atoms: N3_9  and  C6_11 
ROOT
HETATM    1  N1  UNL     1      -8.147  35.772 -10.948  1.00  0.00    -0.357 N 
ATOM      2  H1  UNL     1      -8.225  36.416 -11.734  1.00  0.00     0.163 HD
HETATM    3  C5  UNL     1      -8.735  34.623 -11.041  1.00  0.00     0.185 C 
HETATM    4  N2  UNL     1      -8.616  33.739  -9.935  1.00  0.00    -0.064 NA
HETATM    5  N3  UNL     1      -9.468  34.262 -12.198  1.00  0.00    -0.360 N 
ATOM      6  H3  UNL     1      -9.291  34.723 -13.091  1.00  0.00     0.162 HD
ENDROOT
BRANCH   1   7
HETATM    7  C2  UNL     1      -7.395  36.188  -9.808  1.00  0.00     0.021 C 
HETATM    8  C1  UNL     1      -6.742  37.538  -9.965  1.00  0.00     0.037 C 
HETATM    9  C3  UNL     1      -6.294  35.194  -9.450  1.00  0.00     0.037 C 
HETATM   10  C4  UNL     1      -8.358  36.268  -8.615  1.00  0.00     0.037 C 
ENDBRANCH   1   7
BRANCH   5  11
HETATM   11  C6  UNL     1     -10.476  33.226 -12.087  1.00  0.00     0.084 C 
HETATM   12  C7  UNL     1     -11.608  33.504 -13.056  1.00  0.00     0.025 C 
HETATM   13  C8  UNL     1     -10.860  32.654 -14.063  1.00  0.00     0.004 C 
HETATM   14  C9  UNL     1     -10.171  31.986 -12.891  1.00  0.00     0.025 C 
ENDBRANCH   5  11
TORSDOF 2
ENDMDL
MODEL 4
REMARK VINA RESULT: -4.869750177      1.487      5.187
REMARK  2 active torsions:
REMARK  status: ('A' for Active; 'I' for Inactive)
REMARK    1  A    between atoms: C2_2  and  N1_5 
REMARK       I    between atoms: C5_7  and  N3_9 
REMARK    2  A    between atoms: N3_9  and  C6_11 
ROOT
HETATM    1  N1  UNL     1      -9.766  34.540 -11.515  1.00  0.00    -0.357 N 
ATOM      2  H1  UNL     1      -9.669  33.580 -11.186  1.00  0.00     0.163 HD
HETATM    3  C5  UNL     1      -8.761  35.341 -11.362  1.00  0.00     0.185 C 
HETATM    4  N2  UNL     1      -8.915  36.676 -11.825  1.00  0.00    -0.064 NA
HETATM    5  N3  UNL     1      -7.558  34.904 -10.756  1.00  0.00    -0.360 N 
ATOM      6  H3  UNL     1      -7.319  33.912 -10.726  1.00  0.00     0.162 HD
ENDROOT
BRANCH   1   7
HETATM    7  C2  UNL     1     -11.002  34.925 -12.118  1.00  0.00     0.021 C 
HETATM    8  C1  UNL     1     -10.892  36.123 -13.027  1.00  0.00     0.037 C 
HETATM    9  C3  UNL     1     -12.074  35.244 -11.080  1.00  0.00     0.037 C 
HETATM   10  C4  UNL     1     -11.503  33.742 -12.957  1.00  0.00     0.037 C 
ENDBRANCH   1   7
BRANCH   5  11
HETATM   11  C6  UNL     1      -6.671  35.896 -10.178  1.00  0.00     0.084 C 
HETATM   12  C7  UNL     1      -7.424  36.724  -9.156  1.00  0.00     0.025 C 
HETATM   13  C8  UNL     1      -6.966  35.724  -8.114  1.00  0.00     0.004 C 
HETATM   14  C9  UNL     1      -5.823  35.375  -9.045  1.00  0.00     0.025 C 
ENDBRANCH   5  11
TORSDOF 2
ENDMDL
MODEL 5
REMARK VINA RESULT: -4.868769874      1.319      1.703
REMARK  2 active torsions:
REMARK  status: ('A' for Active; 'I' for Inactive)
REMARK    1  A    between atoms: C2_2  and  N1_5 
REMARK       I    between atoms: C5_7  and  N3_9 
REMARK    2  A    between atoms: N3_9  and  C6_11 
ROOT
HETATM    1  N1  UNL     1      -8.560  36.889 -10.453  1.00  0.00    -0.357 N 
ATOM      2  H1  UNL     1      -8.979  37.791 -10.673  1.00  0.00     0.163 HD
HETATM    3  C5  UNL     1      -9.211  35.819 -10.775  1.00  0.00     0.185 C 
HETATM    4  N2  UNL     1      -8.611  34.570 -10.459  1.00  0.00    -0.064 NA
HETATM    5  N3  UNL     1     -10.472  35.890 -11.417  1.00  0.00    -0.360 N 
ATOM      6  H3  UNL     1     -10.749  36.727 -11.930  1.00  0.00     0.162 HD
ENDROOT
BRANCH   1   7
HETATM    7  C2  UNL     1      -7.287  36.877  -9.806  1.00  0.00     0.021 C 
HETATM    8  C1  UNL     1      -7.256  36.073  -8.531  1.00  0.00     0.037 C 
HETATM    9  C3  UNL     1      -6.802  38.284  -9.463  1.00  0.00     0.037 C 
HETATM   10  C4  UNL     1      -6.273  36.258 -10.776  1.00  0.00     0.037 C 
ENDBRANCH   1   7
BRANCH   5  11
HETATM   11  C6  UNL     1     -11.362  34.748 -11.329  1.00  0.00     0.084 C 
HETATM   12  C7  UNL     1     -12.330  34.761 -12.496  1.00  0.00     0.025 C 
HETATM   13  C8  UNL     1     -11.326  33.908 -13.246  1.00  0.00     0.004 C 
HETATM   14  C9  UNL     1     -10.784  33.476 -11.899  1.00  0.00     0.025 C 
ENDBRANCH   5  11
TORSDOF 2
ENDMDL
