MODEL 1
REMARK VINA RESULT: -5.336743845      0.000      0.000
REMARK  6 active torsions:
REMARK  status: ('A' for Active; 'I' for Inactive)
REMARK    1  A    between atoms: N1_1  and  C1_4 
REMARK    2  A    between atoms: C1_4  and  C2_5 
REMARK    3  A    between atoms: C2_5  and  C3_6 
REMARK    4  A    between atoms: C3_6  and  C4_7 
REMARK    5  A    between atoms: C4_7  and  C5_8 
REMARK    6  A    between atoms: C5_8  and  C6_9 
ROOT
HETATM    1  C3  UNL     1      15.157  24.387   8.992  1.00  0.00     0.066 C 
ENDROOT
BRANCH   1   2
HETATM    2  C2  UNL     1      16.399  24.209   8.680  1.00  0.00    -0.056 C 
BRANCH   2   3
HETATM    3  C1  UNL     1      17.670  24.047   8.451  1.00  0.00     0.008 C 
BRANCH   3   4
HETATM    4  N1  UNL     1      18.937  23.963   8.386  1.00  0.00    -0.359 N 
ATOM      5  H12 UNL     1      18.930  24.982   8.342  1.00  0.00     0.166 HD
ATOM      6  H11 UNL     1      19.935  23.755   8.340  1.00  0.00     0.166 HD
ENDBRANCH   3   4
ENDBRANCH   2   3
ENDBRANCH   1   2
BRANCH   1   7
HETATM    7  C4  UNL     1      14.411  23.401   9.744  1.00  0.00     0.014 C 
BRANCH   7   8
HETATM    8  C5  UNL     1      14.420  23.413  11.051  1.00  0.00     0.071 C 
BRANCH   8   9
HETATM    9  C6  UNL     1      13.634  24.389  11.804  1.00  0.00     0.254 C 
HETATM   10  N2  UNL     1      14.213  25.201  12.817  1.00  0.00    -0.058 NA
HETATM   11  O1  UNL     1      12.405  24.550  11.582  1.00  0.00    -0.272 OA
ENDBRANCH   8   9
ENDBRANCH   7   8
ENDBRANCH   1   7
TORSDOF 6
ENDMDL
MODEL 2
REMARK VINA RESULT: -5.262154953      1.076      1.076
REMARK  6 active torsions:
REMARK  status: ('A' for Active; 'I' for Inactive)
REMARK    1  A    between atoms: N1_1  and  C1_4 
REMARK    2  A    between atoms: C1_4  and  C2_5 
REMARK    3  A    between atoms: C2_5  and  C3_6 
REMARK    4  A    between atoms: C3_6  and  C4_7 
REMARK    5  A    between atoms: C4_7  and  C5_8 
REMARK    6  A    between atoms: C5_8  and  C6_9 
ROOT
HETATM    1  C3  UNL     1      15.158  24.367   8.984  1.00  0.00     0.066 C 
ENDROOT
BRANCH   1   2
HETATM    2  C2  UNL     1      16.401  24.197   8.672  1.00  0.00    -0.056 C 
BRANCH   2   3
HETATM    3  C1  UNL     1      17.674  24.051   8.440  1.00  0.00     0.008 C 
BRANCH   3   4
HETATM    4  N1  UNL     1      18.941  23.981   8.374  1.00  0.00    -0.359 N 
ATOM      5  H12 UNL     1      18.941  24.416   9.296  1.00  0.00     0.166 HD
ATOM      6  H11 UNL     1      19.939  23.866   8.193  1.00  0.00     0.166 HD
ENDBRANCH   3   4
ENDBRANCH   2   3
ENDBRANCH   1   2
BRANCH   1   7
HETATM    7  C4  UNL     1      14.415  23.368   9.721  1.00  0.00     0.014 C 
BRANCH   7   8
HETATM    8  C5  UNL     1      14.397  23.381  11.028  1.00  0.00     0.071 C 
BRANCH   8   9
HETATM    9  C6  UNL     1      13.895  24.538  11.768  1.00  0.00     0.254 C 
HETATM   10  N2  UNL     1      12.506  24.821  11.871  1.00  0.00    -0.058 NA
HETATM   11  O1  UNL     1      14.681  25.334  12.346  1.00  0.00    -0.272 OA
ENDBRANCH   8   9
ENDBRANCH   7   8
ENDBRANCH   1   7
TORSDOF 6
ENDMDL
MODEL 3
REMARK VINA RESULT: -5.253802387      1.380      1.449
REMARK  6 active torsions:
REMARK  status: ('A' for Active; 'I' for Inactive)
REMARK    1  A    between atoms: N1_1  and  C1_4 
REMARK    2  A    between atoms: C1_4  and  C2_5 
REMARK    3  A    between atoms: C2_5  and  C3_6 
REMARK    4  A    between atoms: C3_6  and  C4_7 
REMARK    5  A    between atoms: C4_7  and  C5_8 
REMARK    6  A    between atoms: C5_8  and  C6_9 
ROOT
HETATM    1  C3  UNL     1      15.128  24.292   8.999  1.00  0.00     0.066 C 
ENDROOT
BRANCH   1   2
HETATM    2  C2  UNL     1      16.374  24.163   8.682  1.00  0.00    -0.056 C 
BRANCH   2   3
HETATM    3  C1  UNL     1      17.649  24.036   8.449  1.00  0.00     0.008 C 
BRANCH   3   4
HETATM    4  N1  UNL     1      18.917  23.962   8.389  1.00  0.00    -0.359 N 
ATOM      5  H12 UNL     1      18.919  24.622   9.167  1.00  0.00     0.166 HD
ATOM      6  H11 UNL     1      19.914  23.813   8.234  1.00  0.00     0.166 HD
ENDBRANCH   3   4
ENDBRANCH   2   3
ENDBRANCH   1   2
BRANCH   1   7
HETATM    7  C4  UNL     1      14.688  25.268   9.973  1.00  0.00     0.014 C 
BRANCH   7   8
HETATM    8  C5  UNL     1      14.991  25.133  11.237  1.00  0.00     0.071 C 
BRANCH   8   9
HETATM    9  C6  UNL     1      13.956  25.141  12.269  1.00  0.00     0.254 C 
HETATM   10  N2  UNL     1      12.587  24.911  11.964  1.00  0.00    -0.058 NA
HETATM   11  O1  UNL     1      14.240  25.353  13.477  1.00  0.00    -0.272 OA
ENDBRANCH   8   9
ENDBRANCH   7   8
ENDBRANCH   1   7
TORSDOF 6
ENDMDL
MODEL 4
REMARK VINA RESULT: -5.233173974      2.324      5.046
REMARK  6 active torsions:
REMARK  status: ('A' for Active; 'I' for Inactive)
REMARK    1  A    between atoms: N1_1  and  C1_4 
REMARK    2  A    between atoms: C1_4  and  C2_5 
REMARK    3  A    between atoms: C2_5  and  C3_6 
REMARK    4  A    between atoms: C3_6  and  C4_7 
REMARK    5  A    between atoms: C4_7  and  C5_8 
REMARK    6  A    between atoms: C5_8  and  C6_9 
ROOT
HETATM    1  C3  UNL     1      15.046  25.012  10.213  1.00  0.00     0.066 C 
ENDROOT
BRANCH   1   2
HETATM    2  C2  UNL     1      14.000  24.970  10.971  1.00  0.00    -0.056 C 
BRANCH   2   3
HETATM    3  C1  UNL     1      12.900  24.967  11.669  1.00  0.00     0.008 C 
BRANCH   3   4
HETATM    4  N1  UNL     1      11.749  25.029  12.204  1.00  0.00    -0.359 N 
ATOM      5  H12 UNL     1      11.526  25.706  11.476  1.00  0.00     0.166 HD
ATOM      6  H11 UNL     1      10.874  24.983  12.728  1.00  0.00     0.166 HD
ENDBRANCH   3   4
ENDBRANCH   2   3
ENDBRANCH   1   2
BRANCH   1   7
HETATM    7  C4  UNL     1      15.118  24.267   8.974  1.00  0.00     0.014 C 
BRANCH   7   8
HETATM    8  C5  UNL     1      16.177  24.346   8.210  1.00  0.00     0.071 C 
BRANCH   8   9
HETATM    9  C6  UNL     1      17.446  23.743   8.612  1.00  0.00     0.254 C 
HETATM   10  N2  UNL     1      18.681  24.436   8.488  1.00  0.00    -0.058 NA
HETATM   11  O1  UNL     1      17.495  22.578   9.087  1.00  0.00    -0.272 OA
ENDBRANCH   8   9
ENDBRANCH   7   8
ENDBRANCH   1   7
TORSDOF 6
ENDMDL
MODEL 5
REMARK VINA RESULT: -5.106017467      1.333      1.561
REMARK  6 active torsions:
REMARK  status: ('A' for Active; 'I' for Inactive)
REMARK    1  A    between atoms: N1_1  and  C1_4 
REMARK    2  A    between atoms: C1_4  and  C2_5 
REMARK    3  A    between atoms: C2_5  and  C3_6 
REMARK    4  A    between atoms: C3_6  and  C4_7 
REMARK    5  A    between atoms: C4_7  and  C5_8 
REMARK    6  A    between atoms: C5_8  and  C6_9 
ROOT
HETATM    1  C3  UNL     1      14.904  24.734   9.558  1.00  0.00     0.066 C 
ENDROOT
BRANCH   1   2
HETATM    2  C2  UNL     1      15.953  24.249   8.979  1.00  0.00    -0.056 C 
BRANCH   2   3
HETATM    3  C1  UNL     1      17.059  23.809   8.450  1.00  0.00     0.008 C 
BRANCH   3   4
HETATM    4  N1  UNL     1      18.188  23.341   8.100  1.00  0.00    -0.359 N 
ATOM      5  H12 UNL     1      17.844  23.425   7.143  1.00  0.00     0.166 HD
ATOM      6  H11 UNL     1      19.124  22.960   7.958  1.00  0.00     0.166 HD
ENDBRANCH   3   4
ENDBRANCH   2   3
ENDBRANCH   1   2
BRANCH   1   7
HETATM    7  C4  UNL     1      14.982  25.397  10.842  1.00  0.00     0.014 C 
BRANCH   7   8
HETATM    8  C5  UNL     1      14.023  26.190  11.243  1.00  0.00     0.071 C 
BRANCH   8   9
HETATM    9  C6  UNL     1      12.997  25.726  12.175  1.00  0.00     0.254 C 
HETATM   10  N2  UNL     1      12.778  26.359  13.429  1.00  0.00    -0.058 NA
HETATM   11  O1  UNL     1      12.263  24.741  11.902  1.00  0.00    -0.272 OA
ENDBRANCH   8   9
ENDBRANCH   7   8
ENDBRANCH   1   7
TORSDOF 6
ENDMDL
