MODEL 1
REMARK VINA RESULT: -5.032377847      0.000      0.000
REMARK  3 active torsions:
REMARK  status: ('A' for Active; 'I' for Inactive)
REMARK       I    between atoms: C1_2  and  N1_3 
REMARK    1  A    between atoms: C1_2  and  C6_9 
REMARK    2  A    between atoms: N1_3  and  C2_5 
REMARK    3  A    between atoms: C2_5  and  C3_6 
ROOT
HETATM    1  O1  UNL     1     -17.055  39.311  92.816  1.00  0.00    -0.273 OA
HETATM    2  C1  UNL     1     -16.977  40.585  92.866  1.00  0.00     0.223 C 
HETATM    3  N1  UNL     1     -18.002  41.342  93.463  1.00  0.00    -0.360 N 
ATOM      4  H1  UNL     1     -17.933  42.358  93.500  1.00  0.00     0.162 HD
ENDROOT
BRANCH   2   5
HETATM    5  C6  UNL     1     -15.758  41.169  92.265  1.00  0.00     0.105 C 
HETATM    6  C7  UNL     1     -14.524  40.346  92.555  1.00  0.00     0.043 C 
HETATM    7  C8  UNL     1     -13.589  40.812  91.451  1.00  0.00     0.233 C 
HETATM    8  N2  UNL     1     -14.395  41.453  90.457  1.00  0.00    -0.074 N 
HETATM    9  C9  UNL     1     -15.776  41.113  90.751  1.00  0.00     0.246 C 
ATOM     10  H22 UNL     1     -14.233  42.458  90.396  1.00  0.00     0.277 HD
ATOM     11  H21 UNL     1     -14.119  41.219  89.504  1.00  0.00     0.277 HD
ENDBRANCH   2   5
BRANCH   3  12
HETATM   12  C2  UNL     1     -19.144  40.676  94.019  1.00  0.00     0.127 C 
BRANCH  12  13
HETATM   13  C3  UNL     1     -20.177  41.613  94.567  1.00  0.00     0.003 A 
HETATM   14  C4  UNL     1     -20.988  41.230  95.763  1.00  0.00     0.007 A 
HETATM   15  C5  UNL     1     -21.612  41.197  94.408  1.00  0.00     0.007 A 
ENDBRANCH  12  13
ENDBRANCH   3  12
TORSDOF 3
ENDMDL
MODEL 2
REMARK VINA RESULT: -4.767881510      6.660      7.350
REMARK  3 active torsions:
REMARK  status: ('A' for Active; 'I' for Inactive)
REMARK       I    between atoms: C1_2  and  N1_3 
REMARK    1  A    between atoms: C1_2  and  C6_9 
REMARK    2  A    between atoms: N1_3  and  C2_5 
REMARK    3  A    between atoms: C2_5  and  C3_6 
ROOT
HETATM    1  O1  UNL     1     -13.930  37.329  95.850  1.00  0.00    -0.273 OA
HETATM    2  C1  UNL     1     -12.883  36.616  96.012  1.00  0.00     0.223 C 
HETATM    3  N1  UNL     1     -12.968  35.212  96.017  1.00  0.00    -0.360 N 
ATOM      4  H1  UNL     1     -12.128  34.649  96.146  1.00  0.00     0.162 HD
ENDROOT
BRANCH   2   5
HETATM    5  C6  UNL     1     -11.623  37.371  96.187  1.00  0.00     0.105 C 
HETATM    6  C7  UNL     1     -10.559  36.948  95.199  1.00  0.00     0.043 C 
HETATM    7  C8  UNL     1      -9.639  38.158  95.217  1.00  0.00     0.233 C 
HETATM    8  N2  UNL     1     -10.376  39.241  95.794  1.00  0.00    -0.074 N 
HETATM    9  C9  UNL     1     -11.770  38.834  95.823  1.00  0.00     0.246 C 
ATOM     10  H22 UNL     1     -10.022  39.527  96.706  1.00  0.00     0.277 HD
ATOM     11  H21 UNL     1     -10.227  40.129  95.314  1.00  0.00     0.277 HD
ENDBRANCH   2   5
BRANCH   3  12
HETATM   12  C2  UNL     1     -14.242  34.577  95.838  1.00  0.00     0.127 C 
BRANCH  12  13
HETATM   13  C3  UNL     1     -14.695  34.532  94.410  1.00  0.00     0.003 A 
HETATM   14  C4  UNL     1     -15.992  35.158  94.008  1.00  0.00     0.007 A 
HETATM   15  C5  UNL     1     -15.891  33.673  94.114  1.00  0.00     0.007 A 
ENDBRANCH  12  13
ENDBRANCH   3  12
TORSDOF 3
ENDMDL
MODEL 3
REMARK VINA RESULT: -4.736506862      1.312      1.634
REMARK  3 active torsions:
REMARK  status: ('A' for Active; 'I' for Inactive)
REMARK       I    between atoms: C1_2  and  N1_3 
REMARK    1  A    between atoms: C1_2  and  C6_9 
REMARK    2  A    between atoms: N1_3  and  C2_5 
REMARK    3  A    between atoms: C2_5  and  C3_6 
ROOT
HETATM    1  O1  UNL     1     -17.142  39.303  92.795  1.00  0.00    -0.273 OA
HETATM    2  C1  UNL     1     -17.087  40.575  92.699  1.00  0.00     0.223 C 
HETATM    3  N1  UNL     1     -18.217  41.363  92.985  1.00  0.00    -0.360 N 
ATOM      4  H1  UNL     1     -18.167  42.379  92.907  1.00  0.00     0.162 HD
ENDROOT
BRANCH   2   5
HETATM    5  C6  UNL     1     -15.780  41.123  92.279  1.00  0.00     0.105 C 
HETATM    6  C7  UNL     1     -14.631  40.211  92.643  1.00  0.00     0.043 C 
HETATM    7  C8  UNL     1     -13.553  40.691  91.685  1.00  0.00     0.233 C 
HETATM    8  N2  UNL     1     -14.207  41.442  90.656  1.00  0.00    -0.074 N 
HETATM    9  C9  UNL     1     -15.629  41.166  90.772  1.00  0.00     0.246 C 
ATOM     10  H22 UNL     1     -13.987  42.438  90.684  1.00  0.00     0.277 HD
ATOM     11  H21 UNL     1     -13.837  41.254  89.725  1.00  0.00     0.277 HD
ENDBRANCH   2   5
BRANCH   3  12
HETATM   12  C2  UNL     1     -19.441  40.731  93.387  1.00  0.00     0.127 C 
BRANCH  12  13
HETATM   13  C3  UNL     1     -20.449  40.619  92.284  1.00  0.00     0.003 A 
HETATM   14  C4  UNL     1     -21.748  39.917  92.514  1.00  0.00     0.007 A 
HETATM   15  C5  UNL     1     -20.677  39.245  91.722  1.00  0.00     0.007 A 
ENDBRANCH  12  13
ENDBRANCH   3  12
TORSDOF 3
ENDMDL
MODEL 4
REMARK VINA RESULT: -4.703873624      7.045      7.934
REMARK  3 active torsions:
REMARK  status: ('A' for Active; 'I' for Inactive)
REMARK       I    between atoms: C1_2  and  N1_3 
REMARK    1  A    between atoms: C1_2  and  C6_9 
REMARK    2  A    between atoms: N1_3  and  C2_5 
REMARK    3  A    between atoms: C2_5  and  C3_6 
ROOT
HETATM    1  O1  UNL     1     -11.594  37.346  97.508  1.00  0.00    -0.273 OA
HETATM    2  C1  UNL     1     -11.171  37.430  96.306  1.00  0.00     0.223 C 
HETATM    3  N1  UNL     1     -11.234  36.317  95.447  1.00  0.00    -0.360 N 
ATOM      4  H1  UNL     1     -10.895  36.391  94.488  1.00  0.00     0.162 HD
ENDROOT
BRANCH   2   5
HETATM    5  C6  UNL     1     -10.631  38.750  95.914  1.00  0.00     0.105 C 
HETATM    6  C7  UNL     1     -11.485  39.432  94.870  1.00  0.00     0.043 C 
HETATM    7  C8  UNL     1     -11.062  40.883  95.040  1.00  0.00     0.233 C 
HETATM    8  N2  UNL     1     -10.413  40.986  96.312  1.00  0.00    -0.074 N 
HETATM    9  C9  UNL     1     -10.709  39.763  97.037  1.00  0.00     0.246 C 
ATOM     10  H22 UNL     1      -9.414  41.178  96.239  1.00  0.00     0.277 HD
ATOM     11  H21 UNL     1     -10.669  41.829  96.826  1.00  0.00     0.277 HD
ENDBRANCH   2   5
BRANCH   3  12
HETATM   12  C2  UNL     1     -11.779  35.080  95.926  1.00  0.00     0.127 C 
BRANCH  12  13
HETATM   13  C3  UNL     1     -13.051  34.679  95.243  1.00  0.00     0.003 A 
HETATM   14  C4  UNL     1     -14.262  35.551  95.328  1.00  0.00     0.007 A 
HETATM   15  C5  UNL     1     -14.198  34.297  96.135  1.00  0.00     0.007 A 
ENDBRANCH  12  13
ENDBRANCH   3  12
TORSDOF 3
ENDMDL
MODEL 5
REMARK VINA RESULT: -4.644971398      1.772      2.084
REMARK  3 active torsions:
REMARK  status: ('A' for Active; 'I' for Inactive)
REMARK       I    between atoms: C1_2  and  N1_3 
REMARK    1  A    between atoms: C1_2  and  C6_9 
REMARK    2  A    between atoms: N1_3  and  C2_5 
REMARK    3  A    between atoms: C2_5  and  C3_6 
ROOT
HETATM    1  O1  UNL     1     -17.364  41.812  93.850  1.00  0.00    -0.273 OA
HETATM    2  C1  UNL     1     -17.055  41.136  92.812  1.00  0.00     0.223 C 
HETATM    3  N1  UNL     1     -17.943  40.175  92.294  1.00  0.00    -0.360 N 
ATOM      4  H1  UNL     1     -17.690  39.639  91.464  1.00  0.00     0.162 HD
ENDROOT
BRANCH   2   5
HETATM    5  C6  UNL     1     -15.733  41.444  92.226  1.00  0.00     0.105 C 
HETATM    6  C7  UNL     1     -14.652  40.512  92.727  1.00  0.00     0.043 C 
HETATM    7  C8  UNL     1     -13.599  40.665  91.641  1.00  0.00     0.233 C 
HETATM    8  N2  UNL     1     -14.247  41.248  90.505  1.00  0.00    -0.074 N 
HETATM    9  C9  UNL     1     -15.677  41.154  90.740  1.00  0.00     0.246 C 
ATOM     10  H22 UNL     1     -13.934  42.199  90.308  1.00  0.00     0.277 HD
ATOM     11  H21 UNL     1     -13.957  40.831  89.620  1.00  0.00     0.277 HD
ENDBRANCH   2   5
BRANCH   3  12
HETATM   12  C2  UNL     1     -19.205  39.953  92.939  1.00  0.00     0.127 C 
BRANCH  12  13
HETATM   13  C3  UNL     1     -20.271  39.451  92.013  1.00  0.00     0.003 A 
HETATM   14  C4  UNL     1     -20.994  40.396  91.108  1.00  0.00     0.007 A 
HETATM   15  C5  UNL     1     -21.680  39.870  92.325  1.00  0.00     0.007 A 
ENDBRANCH  12  13
ENDBRANCH   3  12
TORSDOF 3
ENDMDL
