MODEL 1
REMARK VINA RESULT: -5.522978756      0.000      0.000
REMARK  3 active torsions:
REMARK  status: ('A' for Active; 'I' for Inactive)
REMARK    1  A    between atoms: C1_2  and  C2_4 
REMARK    2  A    between atoms: C2_4  and  N2_5 
REMARK       I    between atoms: N2_5  and  C3_7 
REMARK    3  A    between atoms: C3_7  and  C4_9 
ROOT
HETATM    1  N2  UNL     1     -13.838  35.829  95.685  1.00  0.00    -0.352 N 
ATOM      2  H2  UNL     1     -14.336  36.715  95.607  1.00  0.00     0.162 HD
HETATM    3  C3  UNL     1     -12.461  35.860  95.956  1.00  0.00     0.222 C 
HETATM    4  O2  UNL     1     -11.834  34.774  96.057  1.00  0.00    -0.273 OA
ENDROOT
BRANCH   3   5
HETATM    5  C4  UNL     1     -11.680  37.103  96.136  1.00  0.00     0.078 C 
HETATM    6  C5  UNL     1     -12.398  38.327  95.619  1.00  0.00     0.014 C 
HETATM    7  C6  UNL     1     -11.268  39.355  95.657  1.00  0.00     0.001 C 
HETATM    8  C7  UNL     1     -10.138  38.565  95.021  1.00  0.00     0.001 C 
HETATM    9  C8  UNL     1     -10.419  37.111  95.307  1.00  0.00     0.014 C 
ENDBRANCH   3   5
BRANCH   1  10
HETATM   10  C2  UNL     1     -14.577  34.617  95.512  1.00  0.00     0.222 C 
BRANCH  10  11
HETATM   11  C1  UNL     1     -15.384  34.562  94.270  1.00  0.00     0.248 C 
HETATM   12  N1  UNL     1     -16.668  35.191  94.326  1.00  0.00    -0.061 NA
HETATM   13  O1  UNL     1     -15.048  34.024  93.203  1.00  0.00    -0.275 OA
ENDBRANCH  10  11
ENDBRANCH   1  10
TORSDOF 3
ENDMDL
MODEL 2
REMARK VINA RESULT: -5.311688222      1.250      1.627
REMARK  3 active torsions:
REMARK  status: ('A' for Active; 'I' for Inactive)
REMARK    1  A    between atoms: C1_2  and  C2_4 
REMARK    2  A    between atoms: C2_4  and  N2_5 
REMARK       I    between atoms: N2_5  and  C3_7 
REMARK    3  A    between atoms: C3_7  and  C4_9 
ROOT
HETATM    1  N2  UNL     1     -13.955  36.416  95.545  1.00  0.00    -0.352 N 
ATOM      2  H2  UNL     1     -14.495  37.128  95.054  1.00  0.00     0.162 HD
HETATM    3  C3  UNL     1     -12.757  36.800  96.170  1.00  0.00     0.222 C 
HETATM    4  O2  UNL     1     -12.082  35.933  96.781  1.00  0.00    -0.273 OA
ENDROOT
BRANCH   3   5
HETATM    5  C4  UNL     1     -12.224  38.181  96.160  1.00  0.00     0.078 C 
HETATM    6  C5  UNL     1     -12.688  38.997  97.343  1.00  0.00     0.014 C 
HETATM    7  C6  UNL     1     -12.250  40.395  96.910  1.00  0.00     0.001 C 
HETATM    8  C7  UNL     1     -12.743  40.421  95.474  1.00  0.00     0.001 C 
HETATM    9  C8  UNL     1     -12.752  38.989  95.000  1.00  0.00     0.014 C 
ENDBRANCH   3   5
BRANCH   1  10
HETATM   10  C2  UNL     1     -14.455  35.076  95.563  1.00  0.00     0.222 C 
BRANCH  10  11
HETATM   11  C1  UNL     1     -15.272  34.710  94.382  1.00  0.00     0.248 C 
HETATM   12  N1  UNL     1     -16.621  35.186  94.379  1.00  0.00    -0.061 NA
HETATM   13  O1  UNL     1     -14.892  34.036  93.411  1.00  0.00    -0.275 OA
ENDBRANCH  10  11
ENDBRANCH   1  10
TORSDOF 3
ENDMDL
MODEL 3
REMARK VINA RESULT: -5.222309985      1.433      1.756
REMARK  3 active torsions:
REMARK  status: ('A' for Active; 'I' for Inactive)
REMARK    1  A    between atoms: C1_2  and  C2_4 
REMARK    2  A    between atoms: C2_4  and  N2_5 
REMARK       I    between atoms: N2_5  and  C3_7 
REMARK    3  A    between atoms: C3_7  and  C4_9 
ROOT
HETATM    1  N2  UNL     1     -13.816  36.197  95.671  1.00  0.00    -0.352 N 
ATOM      2  H2  UNL     1     -14.444  36.964  95.433  1.00  0.00     0.162 HD
HETATM    3  C3  UNL     1     -12.556  36.508  96.209  1.00  0.00     0.222 C 
HETATM    4  O2  UNL     1     -11.772  35.571  96.508  1.00  0.00    -0.273 OA
ENDROOT
BRANCH   3   5
HETATM    5  C4  UNL     1     -12.078  37.887  96.452  1.00  0.00     0.078 C 
HETATM    6  C5  UNL     1     -12.835  38.584  97.557  1.00  0.00     0.014 C 
HETATM    7  C6  UNL     1     -12.347  40.020  97.371  1.00  0.00     0.001 C 
HETATM    8  C7  UNL     1     -12.484  40.178  95.867  1.00  0.00     0.001 C 
HETATM    9  C8  UNL     1     -12.337  38.797  95.277  1.00  0.00     0.014 C 
ENDBRANCH   3   5
BRANCH   1  10
HETATM   10  C2  UNL     1     -14.262  34.857  95.441  1.00  0.00     0.222 C 
BRANCH  10  11
HETATM   11  C1  UNL     1     -15.364  34.738  94.457  1.00  0.00     0.248 C 
HETATM   12  N1  UNL     1     -15.051  34.049  93.243  1.00  0.00    -0.061 NA
HETATM   13  O1  UNL     1     -16.516  35.180  94.593  1.00  0.00    -0.275 OA
ENDBRANCH  10  11
ENDBRANCH   1  10
TORSDOF 3
ENDMDL
MODEL 4
REMARK VINA RESULT: -5.195413891      1.044      1.381
REMARK  3 active torsions:
REMARK  status: ('A' for Active; 'I' for Inactive)
REMARK    1  A    between atoms: C1_2  and  C2_4 
REMARK    2  A    between atoms: C2_4  and  N2_5 
REMARK       I    between atoms: N2_5  and  C3_7 
REMARK    3  A    between atoms: C3_7  and  C4_9 
ROOT
HETATM    1  N2  UNL     1     -14.137  36.425  95.444  1.00  0.00    -0.352 N 
ATOM      2  H2  UNL     1     -14.730  37.099  94.959  1.00  0.00     0.162 HD
HETATM    3  C3  UNL     1     -12.991  36.899  96.102  1.00  0.00     0.222 C 
HETATM    4  O2  UNL     1     -12.252  36.079  96.706  1.00  0.00    -0.273 OA
ENDROOT
BRANCH   3   5
HETATM    5  C4  UNL     1     -12.583  38.320  96.136  1.00  0.00     0.078 C 
HETATM    6  C5  UNL     1     -11.600  38.675  95.046  1.00  0.00     0.014 C 
HETATM    7  C6  UNL     1     -11.150  40.059  95.511  1.00  0.00     0.001 C 
HETATM    8  C7  UNL     1     -10.895  39.800  96.985  1.00  0.00     0.001 C 
HETATM    9  C8  UNL     1     -11.800  38.660  97.381  1.00  0.00     0.014 C 
ENDBRANCH   3   5
BRANCH   1  10
HETATM   10  C2  UNL     1     -14.516  35.047  95.420  1.00  0.00     0.222 C 
BRANCH  10  11
HETATM   11  C1  UNL     1     -15.376  34.666  94.274  1.00  0.00     0.248 C 
HETATM   12  N1  UNL     1     -16.743  35.083  94.348  1.00  0.00    -0.061 NA
HETATM   13  O1  UNL     1     -15.018  34.026  93.272  1.00  0.00    -0.275 OA
ENDBRANCH  10  11
ENDBRANCH   1  10
TORSDOF 3
ENDMDL
MODEL 5
REMARK VINA RESULT: -5.053061333      7.361      8.657
REMARK  3 active torsions:
REMARK  status: ('A' for Active; 'I' for Inactive)
REMARK    1  A    between atoms: C1_2  and  C2_4 
REMARK    2  A    between atoms: C2_4  and  N2_5 
REMARK       I    between atoms: N2_5  and  C3_7 
REMARK    3  A    between atoms: C3_7  and  C4_9 
ROOT
HETATM    1  N2  UNL     1     -17.791  40.819  91.439  1.00  0.00    -0.352 N 
ATOM      2  H2  UNL     1     -18.517  41.498  91.211  1.00  0.00     0.162 HD
HETATM    3  C3  UNL     1     -17.942  40.045  92.600  1.00  0.00     0.222 C 
HETATM    4  O2  UNL     1     -17.054  39.203  92.892  1.00  0.00    -0.273 OA
ENDROOT
BRANCH   3   5
HETATM    5  C4  UNL     1     -19.095  40.150  93.521  1.00  0.00     0.078 C 
HETATM    6  C5  UNL     1     -20.398  40.406  92.803  1.00  0.00     0.014 C 
HETATM    7  C6  UNL     1     -21.305  40.761  93.981  1.00  0.00     0.001 C 
HETATM    8  C7  UNL     1     -20.422  41.734  94.742  1.00  0.00     0.001 C 
HETATM    9  C8  UNL     1     -18.996  41.356  94.423  1.00  0.00     0.014 C 
ENDBRANCH   3   5
BRANCH   1  10
HETATM   10  C2  UNL     1     -16.668  40.705  90.560  1.00  0.00     0.222 C 
BRANCH  10  11
HETATM   11  C1  UNL     1     -15.578  41.673  90.828  1.00  0.00     0.248 C 
HETATM   12  N1  UNL     1     -14.327  41.113  91.239  1.00  0.00    -0.061 NA
HETATM   13  O1  UNL     1     -15.656  42.908  90.727  1.00  0.00    -0.275 OA
ENDBRANCH  10  11
ENDBRANCH   1  10
TORSDOF 3
ENDMDL
