MODEL 1
REMARK VINA RESULT: -4.893106439      0.000      0.000
REMARK  3 active torsions:
REMARK  status: ('A' for Active; 'I' for Inactive)
REMARK    1  A    between atoms: C1_2  and  C2_3 
REMARK       I    between atoms: C1_2  and  N1_7 
REMARK    2  A    between atoms: C2_3  and  C3_4 
REMARK    3  A    between atoms: N1_7  and  C6_9 
ROOT
HETATM    1  O1  UNL     1     -17.976  39.598  93.118  1.00  0.00    -0.274 OA
HETATM    2  C1  UNL     1     -17.796  40.817  93.289  1.00  0.00     0.218 C 
HETATM    3  N1  UNL     1     -16.718  41.474  92.690  1.00  0.00    -0.355 N 
ATOM      4  H1  UNL     1     -16.577  42.474  92.837  1.00  0.00     0.162 HD
ENDROOT
BRANCH   3   5
HETATM    5  C6  UNL     1     -15.805  40.722  91.859  1.00  0.00     0.111 C 
HETATM    6  C7  UNL     1     -14.469  40.485  92.562  1.00  0.00     0.054 C 
HETATM    7  C8  UNL     1     -13.534  41.493  91.928  1.00  0.00     0.234 C 
HETATM    8  N2  UNL     1     -14.393  42.415  91.209  1.00  0.00    -0.073 N 
HETATM    9  C9  UNL     1     -15.389  41.518  90.656  1.00  0.00     0.257 C 
ATOM     10  H22 UNL     1     -14.763  43.185  91.765  1.00  0.00     0.277 HD
ATOM     11  H21 UNL     1     -13.919  43.009  90.529  1.00  0.00     0.277 HD
ENDBRANCH   3   5
BRANCH   2  12
HETATM   12  C2  UNL     1     -18.731  41.577  94.137  1.00  0.00     0.107 C 
BRANCH  12  13
HETATM   13  C3  UNL     1     -19.908  40.723  94.537  1.00  0.00    -0.006 A 
HETATM   14  C4  UNL     1     -21.248  41.159  94.103  1.00  0.00     0.005 A 
HETATM   15  C5  UNL     1     -20.823  41.376  95.552  1.00  0.00     0.005 A 
ENDBRANCH  12  13
ENDBRANCH   2  12
TORSDOF 3
ENDMDL
MODEL 2
REMARK VINA RESULT: -4.689122170      1.585      1.836
REMARK  3 active torsions:
REMARK  status: ('A' for Active; 'I' for Inactive)
REMARK    1  A    between atoms: C1_2  and  C2_3 
REMARK       I    between atoms: C1_2  and  N1_7 
REMARK    2  A    between atoms: C2_3  and  C3_4 
REMARK    3  A    between atoms: N1_7  and  C6_9 
ROOT
HETATM    1  O1  UNL     1     -17.195  38.902  92.912  1.00  0.00    -0.274 OA
HETATM    2  C1  UNL     1     -17.677  40.048  92.854  1.00  0.00     0.218 C 
HETATM    3  N1  UNL     1     -16.921  41.120  92.375  1.00  0.00    -0.355 N 
ATOM      4  H1  UNL     1     -17.323  42.057  92.332  1.00  0.00     0.162 HD
ENDROOT
BRANCH   3   5
HETATM    5  C6  UNL     1     -15.562  40.889  91.940  1.00  0.00     0.111 C 
HETATM    6  C7  UNL     1     -14.552  41.593  92.847  1.00  0.00     0.054 C 
HETATM    7  C8  UNL     1     -14.138  42.817  92.059  1.00  0.00     0.234 C 
HETATM    8  N2  UNL     1     -15.110  42.932  90.988  1.00  0.00    -0.073 N 
HETATM    9  C9  UNL     1     -15.300  41.544  90.614  1.00  0.00     0.257 C 
ATOM     10  H22 UNL     1     -15.962  43.438  91.227  1.00  0.00     0.277 HD
ATOM     11  H21 UNL     1     -14.843  43.554  90.225  1.00  0.00     0.277 HD
ENDBRANCH   3   5
BRANCH   2  12
HETATM   12  C2  UNL     1     -19.062  40.276  93.299  1.00  0.00     0.107 C 
BRANCH  12  13
HETATM   13  C3  UNL     1     -20.000  40.346  92.120  1.00  0.00    -0.006 A 
HETATM   14  C4  UNL     1     -21.416  40.004  92.350  1.00  0.00     0.005 A 
HETATM   15  C5  UNL     1     -20.505  38.996  91.656  1.00  0.00     0.005 A 
ENDBRANCH  12  13
ENDBRANCH   2  12
TORSDOF 3
ENDMDL
MODEL 3
REMARK VINA RESULT: -4.683583951      1.778      2.284
REMARK  3 active torsions:
REMARK  status: ('A' for Active; 'I' for Inactive)
REMARK    1  A    between atoms: C1_2  and  C2_3 
REMARK       I    between atoms: C1_2  and  N1_7 
REMARK    2  A    between atoms: C2_3  and  C3_4 
REMARK    3  A    between atoms: N1_7  and  C6_9 
ROOT
HETATM    1  O1  UNL     1     -18.177  42.168  94.627  1.00  0.00    -0.274 OA
HETATM    2  C1  UNL     1     -18.328  41.215  93.842  1.00  0.00     0.218 C 
HETATM    3  N1  UNL     1     -17.318  40.861  92.943  1.00  0.00    -0.355 N 
ATOM      4  H1  UNL     1     -17.450  40.079  92.302  1.00  0.00     0.162 HD
ENDROOT
BRANCH   3   5
HETATM    5  C6  UNL     1     -16.085  41.614  92.932  1.00  0.00     0.111 C 
HETATM    6  C7  UNL     1     -16.053  42.628  91.789  1.00  0.00     0.054 C 
HETATM    7  C8  UNL     1     -15.164  41.983  90.747  1.00  0.00     0.234 C 
HETATM    8  N2  UNL     1     -15.029  40.599  91.160  1.00  0.00    -0.073 N 
HETATM    9  C9  UNL     1     -14.916  40.732  92.600  1.00  0.00     0.257 C 
ATOM     10  H22 UNL     1     -15.770  39.976  90.839  1.00  0.00     0.277 HD
ATOM     11  H21 UNL     1     -14.272  40.083  90.711  1.00  0.00     0.277 HD
ENDBRANCH   3   5
BRANCH   2  12
HETATM   12  C2  UNL     1     -19.588  40.452  93.859  1.00  0.00     0.107 C 
BRANCH  12  13
HETATM   13  C3  UNL     1     -20.312  40.583  92.541  1.00  0.00    -0.006 A 
HETATM   14  C4  UNL     1     -21.618  39.913  92.410  1.00  0.00     0.005 A 
HETATM   15  C5  UNL     1     -20.388  39.293  91.753  1.00  0.00     0.005 A 
ENDBRANCH  12  13
ENDBRANCH   2  12
TORSDOF 3
ENDMDL
MODEL 4
REMARK VINA RESULT: -4.670305953      4.446      7.134
REMARK  3 active torsions:
REMARK  status: ('A' for Active; 'I' for Inactive)
REMARK    1  A    between atoms: C1_2  and  C2_3 
REMARK       I    between atoms: C1_2  and  N1_7 
REMARK    2  A    between atoms: C2_3  and  C3_4 
REMARK    3  A    between atoms: N1_7  and  C6_9 
ROOT
HETATM    1  O1  UNL     1     -13.469  45.032  92.153  1.00  0.00    -0.274 OA
HETATM    2  C1  UNL     1     -12.488  44.266  92.134  1.00  0.00     0.218 C 
HETATM    3  N1  UNL     1     -12.661  42.880  92.160  1.00  0.00    -0.355 N 
ATOM      4  H1  UNL     1     -11.852  42.259  92.145  1.00  0.00     0.162 HD
ENDROOT
BRANCH   3   5
HETATM    5  C6  UNL     1     -13.999  42.334  92.207  1.00  0.00     0.111 C 
HETATM    6  C7  UNL     1     -14.282  41.648  93.543  1.00  0.00     0.054 C 
HETATM    7  C8  UNL     1     -14.156  40.172  93.234  1.00  0.00     0.234 C 
HETATM    8  N2  UNL     1     -13.515  40.104  91.935  1.00  0.00    -0.073 N 
HETATM    9  C9  UNL     1     -14.155  41.201  91.234  1.00  0.00     0.257 C 
ATOM     10  H22 UNL     1     -12.496  40.134  91.951  1.00  0.00     0.277 HD
ATOM     11  H21 UNL     1     -13.574  39.199  91.468  1.00  0.00     0.277 HD
ENDBRANCH   3   5
BRANCH   2  12
HETATM   12  C2  UNL     1     -11.128  44.829  92.087  1.00  0.00     0.107 C 
BRANCH  12  13
HETATM   13  C3  UNL     1     -10.135  43.886  92.721  1.00  0.00    -0.006 A 
HETATM   14  C4  UNL     1      -9.856  44.054  94.160  1.00  0.00     0.005 A 
HETATM   15  C5  UNL     1      -8.839  44.550  93.136  1.00  0.00     0.005 A 
ENDBRANCH  12  13
ENDBRANCH   2  12
TORSDOF 3
ENDMDL
MODEL 5
REMARK VINA RESULT: -4.616205552      4.221      7.353
REMARK  3 active torsions:
REMARK  status: ('A' for Active; 'I' for Inactive)
REMARK    1  A    between atoms: C1_2  and  C2_3 
REMARK       I    between atoms: C1_2  and  N1_7 
REMARK    2  A    between atoms: C2_3  and  C3_4 
REMARK    3  A    between atoms: N1_7  and  C6_9 
ROOT
HETATM    1  O1  UNL     1     -12.562  44.281  93.764  1.00  0.00    -0.274 OA
HETATM    2  C1  UNL     1     -12.297  44.078  92.566  1.00  0.00     0.218 C 
HETATM    3  N1  UNL     1     -13.125  43.276  91.775  1.00  0.00    -0.355 N 
ATOM      4  H1  UNL     1     -12.900  43.113  90.794  1.00  0.00     0.162 HD
ENDROOT
BRANCH   3   5
HETATM    5  C6  UNL     1     -14.303  42.679  92.363  1.00  0.00     0.111 C 
HETATM    6  C7  UNL     1     -14.596  41.303  91.766  1.00  0.00     0.054 C 
HETATM    7  C8  UNL     1     -15.734  41.555  90.800  1.00  0.00     0.234 C 
HETATM    8  N2  UNL     1     -15.795  42.996  90.643  1.00  0.00    -0.073 N 
HETATM    9  C9  UNL     1     -15.539  43.450  91.997  1.00  0.00     0.257 C 
ATOM     10  H22 UNL     1     -15.174  43.382  89.932  1.00  0.00     0.277 HD
ATOM     11  H21 UNL     1     -16.652  43.352  90.222  1.00  0.00     0.277 HD
ENDBRANCH   3   5
BRANCH   2  12
HETATM   12  C2  UNL     1     -11.095  44.689  91.973  1.00  0.00     0.107 C 
BRANCH  12  13
HETATM   13  C3  UNL     1     -10.095  45.052  93.044  1.00  0.00    -0.006 A 
HETATM   14  C4  UNL     1      -8.703  45.297  92.624  1.00  0.00     0.005 A 
HETATM   15  C5  UNL     1      -9.059  43.979  93.304  1.00  0.00     0.005 A 
ENDBRANCH  12  13
ENDBRANCH   2  12
TORSDOF 3
ENDMDL
