MODEL 1
REMARK VINA RESULT: -9.199881831      0.000      0.000
REMARK  16 active torsions:
REMARK  status: ('A' for Active; 'I' for Inactive)
REMARK    1  A    between atoms: C3_3  and  C4_4 
REMARK    2  A    between atoms: C4_4  and  O1_5 
REMARK    3  A    between atoms: O1_5  and  C5_6 
REMARK    4  A    between atoms: C7_10  and  C8_11 
REMARK    5  A    between atoms: C8_11  and  N1_14 
REMARK    6  A    between atoms: N1_14  and  C11_16 
REMARK    7  A    between atoms: C11_16  and  C12_17 
REMARK    8  A    between atoms: C11_16  and  C19_24 
REMARK    9  A    between atoms: C12_17  and  C13_18 
REMARK   10  A    between atoms: C22_30  and  O4_31 
REMARK   11  A    between atoms: N3_33  and  C23_34 
REMARK   12  A    between atoms: C23_34  and  O5_35 
REMARK   13  A    between atoms: C23_34  and  C24_37 
REMARK   14  A    between atoms: C24_37  and  O6_38 
REMARK   15  A    between atoms: C24_37  and  C27_42 
REMARK   16  A    between atoms: O6_38  and  C25_39 
ROOT
HETATM    1  C1  UNL     1       9.246  61.981  18.078  1.00  0.00     0.041 C 
HETATM    2  C2  UNL     1      10.478  61.665  17.919  1.00  0.00     0.038 C 
HETATM    3  C3  UNL     1      11.468  61.654  19.091  1.00  0.00     0.197 C 
HETATM    4  O3  UNL     1      12.491  62.253  18.431  1.00  0.00    -0.350 OA
HETATM    5  C7  UNL     1      12.499  62.042  17.059  1.00  0.00     0.258 C 
HETATM    6  N3  UNL     1      11.294  61.281  16.821  1.00  0.00    -0.301 N 
ENDROOT
BRANCH   5   7
HETATM    7  C8  UNL     1      12.720  63.337  16.420  1.00  0.00     0.067 C 
HETATM    8  C9  UNL     1      12.190  63.216  14.939  1.00  0.00     0.042 C 
HETATM    9  C10 UNL     1      11.713  64.353  17.006  1.00  0.00     0.042 C 
BRANCH   7  10
HETATM   10  N1  UNL     1      13.889  63.963  16.293  1.00  0.00    -0.379 N 
ATOM     11  H1  UNL     1      14.590  63.333  15.905  1.00  0.00     0.160 HD
BRANCH  10  12
HETATM   12  C11 UNL     1      14.449  65.239  16.535  1.00  0.00     0.035 C 
BRANCH  12  13
HETATM   13  C12 UNL     1      14.947  65.415  17.918  1.00  0.00     0.005 C 
BRANCH  13  14
HETATM   14  C13 UNL     1      14.265  66.275  18.921  1.00  0.00     0.010 C 
HETATM   15  C14 UNL     1      14.728  66.029  20.299  1.00  0.00     0.008 C 
HETATM   16  C15 UNL     1      15.732  66.931  20.907  1.00  0.00     0.001 C 
HETATM   17  C16 UNL     1      15.821  68.315  20.372  1.00  0.00     0.000 C 
HETATM   18  C17 UNL     1      15.874  68.187  18.839  1.00  0.00     0.001 C 
HETATM   19  C18 UNL     1      14.505  67.720  18.447  1.00  0.00     0.008 C 
ENDBRANCH  13  14
ENDBRANCH  12  13
BRANCH  12  20
HETATM   20  C19 UNL     1      15.262  65.738  15.393  1.00  0.00     0.263 C 
HETATM   21  N2  UNL     1      14.845  65.287  14.088  1.00  0.00    -0.063 N 
HETATM   22  C20 UNL     1      15.940  65.873  13.246  1.00  0.00     0.236 C 
ATOM     23  H22 UNL     1      14.700  64.281  13.991  1.00  0.00     0.278 HD
ATOM     24  H21 UNL     1      13.894  65.535  13.815  1.00  0.00     0.278 HD
HETATM   25  C21 UNL     1      17.154  65.339  13.989  1.00  0.00     0.061 C 
HETATM   26  C22 UNL     1      16.666  65.142  15.409  1.00  0.00     0.156 C 
BRANCH  26  27
HETATM   27  O4  UNL     1      16.524  63.775  15.629  1.00  0.00    -0.393 OA
ATOM     28  H4  UNL     1      17.371  63.451  15.915  1.00  0.00     0.210 HD
ENDBRANCH  26  27
ENDBRANCH  12  20
ENDBRANCH  10  12
ENDBRANCH   7  10
ENDBRANCH   5   7
BRANCH   6  29
HETATM   29  C23 UNL     1      10.940  60.311  15.874  1.00  0.00     0.151 C 
BRANCH  29  30
HETATM   30  O5  UNL     1      11.990  59.689  15.345  1.00  0.00    -0.347 OA
ATOM     31  H5  UNL     1      12.030  58.768  15.573  1.00  0.00     0.219 HD
ENDBRANCH  29  30
BRANCH  29  32
HETATM   32  C24 UNL     1       9.739  59.773  15.298  1.00  0.00     0.210 C 
BRANCH  32  33
HETATM   33  O6  UNL     1       9.674  58.526  14.708  1.00  0.00    -0.308 OA
BRANCH  33  34
HETATM   34  C25 UNL     1       8.561  57.689  14.769  1.00  0.00     0.255 C 
HETATM   35  C26 UNL     1       7.778  57.455  13.550  1.00  0.00     0.126 C 
HETATM   36  O7  UNL     1       8.294  57.186  15.865  1.00  0.00    -0.266 OA
ENDBRANCH  33  34
ENDBRANCH  32  33
BRANCH  32  37
HETATM   37  C27 UNL     1       9.030  60.782  14.377  1.00  0.00     0.023 A 
HETATM   38  C28 UNL     1       8.521  62.080  14.883  1.00  0.00     0.008 A 
HETATM   39  C29 UNL     1       7.554  60.961  14.637  1.00  0.00     0.008 A 
ENDBRANCH  32  37
ENDBRANCH  29  32
ENDBRANCH   6  29
BRANCH   3  40
HETATM   40  C4  UNL     1      10.994  62.444  20.256  1.00  0.00     0.217 C 
BRANCH  40  41
HETATM   41  O1  UNL     1      10.549  61.602  21.290  1.00  0.00    -0.319 OA
BRANCH  41  42
HETATM   42  C5  UNL     1       9.220  61.749  21.720  1.00  0.00     0.254 C 
HETATM   43  C6  UNL     1       8.713  63.121  22.040  1.00  0.00     0.126 C 
HETATM   44  O2  UNL     1       8.461  60.759  21.837  1.00  0.00    -0.266 OA
ENDBRANCH  41  42
ENDBRANCH  40  41
ENDBRANCH   3  40
TORSDOF 16
ENDMDL
MODEL 2
REMARK VINA RESULT: -9.134616026      1.845      4.517
REMARK  16 active torsions:
REMARK  status: ('A' for Active; 'I' for Inactive)
REMARK    1  A    between atoms: C3_3  and  C4_4 
REMARK    2  A    between atoms: C4_4  and  O1_5 
REMARK    3  A    between atoms: O1_5  and  C5_6 
REMARK    4  A    between atoms: C7_10  and  C8_11 
REMARK    5  A    between atoms: C8_11  and  N1_14 
REMARK    6  A    between atoms: N1_14  and  C11_16 
REMARK    7  A    between atoms: C11_16  and  C12_17 
REMARK    8  A    between atoms: C11_16  and  C19_24 
REMARK    9  A    between atoms: C12_17  and  C13_18 
REMARK   10  A    between atoms: C22_30  and  O4_31 
REMARK   11  A    between atoms: N3_33  and  C23_34 
REMARK   12  A    between atoms: C23_34  and  O5_35 
REMARK   13  A    between atoms: C23_34  and  C24_37 
REMARK   14  A    between atoms: C24_37  and  O6_38 
REMARK   15  A    between atoms: C24_37  and  C27_42 
REMARK   16  A    between atoms: O6_38  and  C25_39 
ROOT
HETATM    1  C1  UNL     1      11.937  60.393  17.142  1.00  0.00     0.041 C 
HETATM    2  C2  UNL     1      11.186  61.411  17.341  1.00  0.00     0.038 C 
HETATM    3  C3  UNL     1      10.427  62.092  16.195  1.00  0.00     0.197 C 
HETATM    4  O3  UNL     1      10.692  63.368  16.574  1.00  0.00    -0.350 OA
HETATM    5  C7  UNL     1      10.890  63.538  17.937  1.00  0.00     0.258 C 
HETATM    6  N3  UNL     1      10.815  62.196  18.467  1.00  0.00    -0.301 N 
ENDROOT
BRANCH   5   7
HETATM    7  C8  UNL     1      12.090  64.356  18.104  1.00  0.00     0.067 C 
HETATM    8  C9  UNL     1      11.789  65.755  17.442  1.00  0.00     0.042 C 
HETATM    9  C10 UNL     1      12.207  64.758  19.592  1.00  0.00     0.042 C 
BRANCH   7  10
HETATM   10  N1  UNL     1      13.314  64.053  17.676  1.00  0.00    -0.379 N 
ATOM     11  H1  UNL     1      13.424  63.042  17.596  1.00  0.00     0.160 HD
BRANCH  10  12
HETATM   12  C11 UNL     1      14.508  64.711  17.300  1.00  0.00     0.035 C 
BRANCH  12  13
HETATM   13  C12 UNL     1      15.247  65.296  18.441  1.00  0.00     0.005 C 
BRANCH  13  14
HETATM   14  C13 UNL     1      15.156  66.733  18.813  1.00  0.00     0.010 C 
HETATM   15  C14 UNL     1      15.173  66.950  20.272  1.00  0.00     0.008 C 
HETATM   16  C15 UNL     1      16.434  67.345  20.940  1.00  0.00     0.001 C 
HETATM   17  C16 UNL     1      17.458  68.037  20.113  1.00  0.00     0.000 C 
HETATM   18  C17 UNL     1      17.611  67.209  18.825  1.00  0.00     0.001 C 
HETATM   19  C18 UNL     1      16.326  67.417  18.083  1.00  0.00     0.008 C 
ENDBRANCH  13  14
ENDBRANCH  12  13
BRANCH  12  20
HETATM   20  C19 UNL     1      15.254  63.990  16.234  1.00  0.00     0.263 C 
HETATM   21  N2  UNL     1      16.358  64.710  15.650  1.00  0.00    -0.063 N 
HETATM   22  C20 UNL     1      16.761  63.746  14.573  1.00  0.00     0.236 C 
ATOM     23  H22 UNL     1      16.155  65.662  15.342  1.00  0.00     0.278 HD
ATOM     24  H21 UNL     1      17.098  64.989  16.296  1.00  0.00     0.278 HD
HETATM   25  C21 UNL     1      15.417  63.542  13.891  1.00  0.00     0.061 C 
HETATM   26  C22 UNL     1      14.401  63.815  14.981  1.00  0.00     0.156 C 
BRANCH  26  27
HETATM   27  O4  UNL     1      13.810  65.048  14.717  1.00  0.00    -0.393 OA
ATOM     28  H4  UNL     1      13.472  65.009  13.830  1.00  0.00     0.210 HD
ENDBRANCH  26  27
ENDBRANCH  12  20
ENDBRANCH  10  12
ENDBRANCH   7  10
ENDBRANCH   5   7
BRANCH   6  29
HETATM   29  C23 UNL     1      10.397  61.667  19.695  1.00  0.00     0.151 C 
BRANCH  29  30
HETATM   30  O5  UNL     1      11.408  61.370  20.507  1.00  0.00    -0.347 OA
ATOM     31  H5  UNL     1      11.976  62.110  20.681  1.00  0.00     0.219 HD
ENDBRANCH  29  30
BRANCH  29  32
HETATM   32  C24 UNL     1       9.160  61.353  20.355  1.00  0.00     0.210 C 
BRANCH  32  33
HETATM   33  O6  UNL     1       8.239  60.455  19.852  1.00  0.00    -0.308 OA
BRANCH  33  34
HETATM   34  C25 UNL     1       7.809  59.314  20.529  1.00  0.00     0.255 C 
HETATM   35  C26 UNL     1       7.564  59.394  21.973  1.00  0.00     0.126 C 
HETATM   36  O7  UNL     1       7.658  58.286  19.860  1.00  0.00    -0.266 OA
ENDBRANCH  33  34
ENDBRANCH  32  33
BRANCH  32  37
HETATM   37  C27 UNL     1       8.406  62.614  20.813  1.00  0.00     0.023 A 
HETATM   38  C28 UNL     1       9.109  63.890  21.089  1.00  0.00     0.008 A 
HETATM   39  C29 UNL     1       8.667  63.035  22.238  1.00  0.00     0.008 A 
ENDBRANCH  32  37
ENDBRANCH  29  32
ENDBRANCH   6  29
BRANCH   3  40
HETATM   40  C4  UNL     1      10.982  61.763  14.858  1.00  0.00     0.217 C 
BRANCH  40  41
HETATM   41  O1  UNL     1      10.016  61.141  14.048  1.00  0.00    -0.319 OA
BRANCH  41  42
HETATM   42  C5  UNL     1       9.918  59.742  14.114  1.00  0.00     0.254 C 
HETATM   43  C6  UNL     1       8.572  59.123  14.328  1.00  0.00     0.126 C 
HETATM   44  O2  UNL     1      10.930  59.012  13.998  1.00  0.00    -0.266 OA
ENDBRANCH  41  42
ENDBRANCH  40  41
ENDBRANCH   3  40
TORSDOF 16
ENDMDL
MODEL 3
REMARK VINA RESULT: -8.999879627      2.047      5.977
REMARK  16 active torsions:
REMARK  status: ('A' for Active; 'I' for Inactive)
REMARK    1  A    between atoms: C3_3  and  C4_4 
REMARK    2  A    between atoms: C4_4  and  O1_5 
REMARK    3  A    between atoms: O1_5  and  C5_6 
REMARK    4  A    between atoms: C7_10  and  C8_11 
REMARK    5  A    between atoms: C8_11  and  N1_14 
REMARK    6  A    between atoms: N1_14  and  C11_16 
REMARK    7  A    between atoms: C11_16  and  C12_17 
REMARK    8  A    between atoms: C11_16  and  C19_24 
REMARK    9  A    between atoms: C12_17  and  C13_18 
REMARK   10  A    between atoms: C22_30  and  O4_31 
REMARK   11  A    between atoms: N3_33  and  C23_34 
REMARK   12  A    between atoms: C23_34  and  O5_35 
REMARK   13  A    between atoms: C23_34  and  C24_37 
REMARK   14  A    between atoms: C24_37  and  O6_38 
REMARK   15  A    between atoms: C24_37  and  C27_42 
REMARK   16  A    between atoms: O6_38  and  C25_39 
ROOT
HETATM    1  C1  UNL     1       8.663  59.003  17.801  1.00  0.00     0.041 C 
HETATM    2  C2  UNL     1       8.512  60.238  17.492  1.00  0.00     0.038 C 
HETATM    3  C3  UNL     1       8.291  60.688  16.042  1.00  0.00     0.197 C 
HETATM    4  O3  UNL     1       9.130  61.754  16.085  1.00  0.00    -0.350 OA
HETATM    5  C7  UNL     1       9.278  62.325  17.341  1.00  0.00     0.258 C 
HETATM    6  N3  UNL     1       8.496  61.469  18.203  1.00  0.00    -0.301 N 
ENDROOT
BRANCH   5   7
HETATM    7  C8  UNL     1      10.707  62.527  17.562  1.00  0.00     0.067 C 
HETATM    8  C9  UNL     1      11.026  62.006  19.017  1.00  0.00     0.042 C 
HETATM    9  C10 UNL     1      11.487  61.501  16.709  1.00  0.00     0.042 C 
BRANCH   7  10
HETATM   10  N1  UNL     1      11.360  63.686  17.486  1.00  0.00    -0.379 N 
ATOM     11  H1  UNL     1      10.722  64.465  17.649  1.00  0.00     0.160 HD
BRANCH  10  12
HETATM   12  C11 UNL     1      12.670  64.161  17.246  1.00  0.00     0.035 C 
BRANCH  12  13
HETATM   13  C12 UNL     1      12.925  64.505  15.829  1.00  0.00     0.005 C 
BRANCH  13  14
HETATM   14  C13 UNL     1      13.514  63.546  14.856  1.00  0.00     0.010 C 
HETATM   15  C14 UNL     1      13.615  64.100  13.493  1.00  0.00     0.008 C 
HETATM   16  C15 UNL     1      14.907  64.644  13.017  1.00  0.00     0.001 C 
HETATM   17  C16 UNL     1      16.144  64.130  13.662  1.00  0.00     0.000 C 
HETATM   18  C17 UNL     1      15.905  64.199  15.181  1.00  0.00     0.001 C 
HETATM   19  C18 UNL     1      14.875  63.146  15.454  1.00  0.00     0.008 C 
ENDBRANCH  13  14
ENDBRANCH  12  13
BRANCH  12  20
HETATM   20  C19 UNL     1      13.163  65.064  18.321  1.00  0.00     0.263 C 
HETATM   21  N2  UNL     1      14.406  65.741  18.044  1.00  0.00    -0.063 N 
HETATM   22  C20 UNL     1      14.629  66.428  19.359  1.00  0.00     0.236 C 
ATOM     23  H22 UNL     1      15.170  65.149  17.716  1.00  0.00     0.278 HD
ATOM     24  H21 UNL     1      14.409  66.344  17.221  1.00  0.00     0.278 HD
HETATM   25  C21 UNL     1      14.492  65.241  20.300  1.00  0.00     0.061 C 
HETATM   26  C22 UNL     1      13.595  64.275  19.553  1.00  0.00     0.156 C 
BRANCH  26  27
HETATM   27  O4  UNL     1      14.383  63.219  19.102  1.00  0.00    -0.393 OA
ATOM     28  H4  UNL     1      13.919  62.816  18.378  1.00  0.00     0.210 HD
ENDBRANCH  26  27
ENDBRANCH  12  20
ENDBRANCH  10  12
ENDBRANCH   7  10
ENDBRANCH   5   7
BRANCH   6  29
HETATM   29  C23 UNL     1       7.773  61.691  19.383  1.00  0.00     0.151 C 
BRANCH  29  30
HETATM   30  O5  UNL     1       6.848  62.639  19.257  1.00  0.00    -0.347 OA
ATOM     31  H5  UNL     1       7.214  63.493  19.058  1.00  0.00     0.219 HD
ENDBRANCH  29  30
BRANCH  29  32
HETATM   32  C24 UNL     1       7.733  61.173  20.722  1.00  0.00     0.210 C 
BRANCH  32  33
HETATM   33  O6  UNL     1       6.732  60.338  21.182  1.00  0.00    -0.308 OA
BRANCH  33  34
HETATM   34  C25 UNL     1       6.951  59.047  21.662  1.00  0.00     0.255 C 
HETATM   35  C26 UNL     1       7.303  58.863  23.074  1.00  0.00     0.126 C 
HETATM   36  O7  UNL     1       6.833  58.119  20.855  1.00  0.00    -0.266 OA
ENDBRANCH  33  34
ENDBRANCH  32  33
BRANCH  32  37
HETATM   37  C27 UNL     1       7.976  62.265  21.778  1.00  0.00     0.023 A 
HETATM   38  C28 UNL     1       9.004  63.318  21.593  1.00  0.00     0.008 A 
HETATM   39  C29 UNL     1       9.292  62.167  22.510  1.00  0.00     0.008 A 
ENDBRANCH  32  37
ENDBRANCH  29  32
ENDBRANCH   6  29
BRANCH   3  40
HETATM   40  C4  UNL     1       8.711  59.666  15.050  1.00  0.00     0.217 C 
BRANCH  40  41
HETATM   41  O1  UNL     1       7.599  58.984  14.526  1.00  0.00    -0.319 OA
BRANCH  41  42
HETATM   42  C5  UNL     1       7.521  57.600  14.755  1.00  0.00     0.254 C 
HETATM   43  C6  UNL     1       6.196  56.918  14.605  1.00  0.00     0.126 C 
HETATM   44  O2  UNL     1       8.532  56.936  15.079  1.00  0.00    -0.266 OA
ENDBRANCH  41  42
ENDBRANCH  40  41
ENDBRANCH   3  40
TORSDOF 16
ENDMDL
MODEL 4
REMARK VINA RESULT: -8.965324762      1.166      3.128
REMARK  16 active torsions:
REMARK  status: ('A' for Active; 'I' for Inactive)
REMARK    1  A    between atoms: C3_3  and  C4_4 
REMARK    2  A    between atoms: C4_4  and  O1_5 
REMARK    3  A    between atoms: O1_5  and  C5_6 
REMARK    4  A    between atoms: C7_10  and  C8_11 
REMARK    5  A    between atoms: C8_11  and  N1_14 
REMARK    6  A    between atoms: N1_14  and  C11_16 
REMARK    7  A    between atoms: C11_16  and  C12_17 
REMARK    8  A    between atoms: C11_16  and  C19_24 
REMARK    9  A    between atoms: C12_17  and  C13_18 
REMARK   10  A    between atoms: C22_30  and  O4_31 
REMARK   11  A    between atoms: N3_33  and  C23_34 
REMARK   12  A    between atoms: C23_34  and  O5_35 
REMARK   13  A    between atoms: C23_34  and  C24_37 
REMARK   14  A    between atoms: C24_37  and  O6_38 
REMARK   15  A    between atoms: C24_37  and  C27_42 
REMARK   16  A    between atoms: O6_38  and  C25_39 
ROOT
HETATM    1  C1  UNL     1       9.097  61.819  18.203  1.00  0.00     0.041 C 
HETATM    2  C2  UNL     1      10.341  61.621  17.970  1.00  0.00     0.038 C 
HETATM    3  C3  UNL     1      11.399  61.739  19.076  1.00  0.00     0.197 C 
HETATM    4  O3  UNL     1      12.314  62.417  18.338  1.00  0.00    -0.350 OA
HETATM    5  C7  UNL     1      12.258  62.169  16.974  1.00  0.00     0.258 C 
HETATM    6  N3  UNL     1      11.122  61.287  16.831  1.00  0.00    -0.301 N 
ENDROOT
BRANCH   5   7
HETATM    7  C8  UNL     1      12.309  63.461  16.294  1.00  0.00     0.067 C 
HETATM    8  C9  UNL     1      11.900  63.207  14.792  1.00  0.00     0.042 C 
HETATM    9  C10 UNL     1      11.117  64.319  16.778  1.00  0.00     0.042 C 
BRANCH   7  10
HETATM   10  N1  UNL     1      13.368  64.264  16.208  1.00  0.00    -0.379 N 
ATOM     11  H1  UNL     1      13.130  65.114  15.696  1.00  0.00     0.160 HD
BRANCH  10  12
HETATM   12  C11 UNL     1      14.722  64.294  16.612  1.00  0.00     0.035 C 
BRANCH  12  13
HETATM   13  C12 UNL     1      15.627  63.549  15.707  1.00  0.00     0.005 C 
BRANCH  13  14
HETATM   14  C13 UNL     1      15.709  63.815  14.246  1.00  0.00     0.010 C 
HETATM   15  C14 UNL     1      14.833  64.920  13.813  1.00  0.00     0.008 C 
HETATM   16  C15 UNL     1      15.403  66.271  13.611  1.00  0.00     0.001 C 
HETATM   17  C16 UNL     1      16.855  66.362  13.303  1.00  0.00     0.000 C 
HETATM   18  C17 UNL     1      17.575  65.477  14.335  1.00  0.00     0.001 C 
HETATM   19  C18 UNL     1      17.200  64.074  13.964  1.00  0.00     0.008 C 
ENDBRANCH  13  14
ENDBRANCH  12  13
BRANCH  12  20
HETATM   20  C19 UNL     1      15.139  65.621  17.138  1.00  0.00     0.263 C 
HETATM   21  N2  UNL     1      16.310  65.617  17.981  1.00  0.00    -0.063 N 
HETATM   22  C20 UNL     1      16.336  67.058  18.401  1.00  0.00     0.236 C 
ATOM     23  H22 UNL     1      16.309  64.933  18.739  1.00  0.00     0.278 HD
ATOM     24  H21 UNL     1      17.165  65.264  17.552  1.00  0.00     0.278 HD
HETATM   25  C21 UNL     1      14.912  67.205  18.914  1.00  0.00     0.061 C 
HETATM   26  C22 UNL     1      14.128  66.162  18.145  1.00  0.00     0.156 C 
BRANCH  26  27
HETATM   27  O4  UNL     1      13.828  65.119  19.018  1.00  0.00    -0.393 OA
ATOM     28  H4  UNL     1      13.369  65.501  19.757  1.00  0.00     0.210 HD
ENDBRANCH  26  27
ENDBRANCH  12  20
ENDBRANCH  10  12
ENDBRANCH   7  10
ENDBRANCH   5   7
BRANCH   6  29
HETATM   29  C23 UNL     1      10.807  60.262  15.929  1.00  0.00     0.151 C 
BRANCH  29  30
HETATM   30  O5  UNL     1      11.881  59.640  15.450  1.00  0.00    -0.347 OA
ATOM     31  H5  UNL     1      12.314  59.093  16.095  1.00  0.00     0.219 HD
ENDBRANCH  29  30
BRANCH  29  32
HETATM   32  C24 UNL     1       9.630  59.664  15.364  1.00  0.00     0.210 C 
BRANCH  32  33
HETATM   33  O6  UNL     1       9.610  58.395  14.819  1.00  0.00    -0.308 OA
BRANCH  33  34
HETATM   34  C25 UNL     1       8.478  57.584  14.766  1.00  0.00     0.255 C 
HETATM   35  C26 UNL     1       7.788  57.407  13.483  1.00  0.00     0.126 C 
HETATM   36  O7  UNL     1       8.115  57.054  15.821  1.00  0.00    -0.266 OA
ENDBRANCH  33  34
ENDBRANCH  32  33
BRANCH  32  37
HETATM   37  C27 UNL     1       8.896  60.616  14.402  1.00  0.00     0.023 A 
HETATM   38  C28 UNL     1       8.444  61.963  14.826  1.00  0.00     0.008 A 
HETATM   39  C29 UNL     1       7.441  60.853  14.720  1.00  0.00     0.008 A 
ENDBRANCH  32  37
ENDBRANCH  29  32
ENDBRANCH   6  29
BRANCH   3  40
HETATM   40  C4  UNL     1      10.923  62.511  20.251  1.00  0.00     0.217 C 
BRANCH  40  41
HETATM   41  O1  UNL     1      10.522  61.653  21.291  1.00  0.00    -0.319 OA
BRANCH  41  42
HETATM   42  C5  UNL     1       9.252  61.864  21.852  1.00  0.00     0.254 C 
HETATM   43  C6  UNL     1       8.780  63.270  22.060  1.00  0.00     0.126 C 
HETATM   44  O2  UNL     1       8.516  60.904  22.178  1.00  0.00    -0.266 OA
ENDBRANCH  41  42
ENDBRANCH  40  41
ENDBRANCH   3  40
TORSDOF 16
ENDMDL
MODEL 5
REMARK VINA RESULT: -8.920147559      1.976      4.578
REMARK  16 active torsions:
REMARK  status: ('A' for Active; 'I' for Inactive)
REMARK    1  A    between atoms: C3_3  and  C4_4 
REMARK    2  A    between atoms: C4_4  and  O1_5 
REMARK    3  A    between atoms: O1_5  and  C5_6 
REMARK    4  A    between atoms: C7_10  and  C8_11 
REMARK    5  A    between atoms: C8_11  and  N1_14 
REMARK    6  A    between atoms: N1_14  and  C11_16 
REMARK    7  A    between atoms: C11_16  and  C12_17 
REMARK    8  A    between atoms: C11_16  and  C19_24 
REMARK    9  A    between atoms: C12_17  and  C13_18 
REMARK   10  A    between atoms: C22_30  and  O4_31 
REMARK   11  A    between atoms: N3_33  and  C23_34 
REMARK   12  A    between atoms: C23_34  and  O5_35 
REMARK   13  A    between atoms: C23_34  and  C24_37 
REMARK   14  A    between atoms: C24_37  and  O6_38 
REMARK   15  A    between atoms: C24_37  and  C27_42 
REMARK   16  A    between atoms: O6_38  and  C25_39 
ROOT
HETATM    1  C1  UNL     1       9.847  60.363  17.581  1.00  0.00     0.041 C 
HETATM    2  C2  UNL     1      10.020  61.616  17.372  1.00  0.00     0.038 C 
HETATM    3  C3  UNL     1      10.194  62.183  15.957  1.00  0.00     0.197 C 
HETATM    4  O3  UNL     1      11.209  63.032  16.259  1.00  0.00    -0.350 OA
HETATM    5  C7  UNL     1      11.215  63.486  17.570  1.00  0.00     0.258 C 
HETATM    6  N3  UNL     1      10.116  62.778  18.185  1.00  0.00    -0.301 N 
ENDROOT
BRANCH   5   7
HETATM    7  C8  UNL     1      12.581  63.354  18.071  1.00  0.00     0.067 C 
HETATM    8  C9  UNL     1      12.566  63.820  19.578  1.00  0.00     0.042 C 
HETATM    9  C10 UNL     1      12.901  61.851  18.236  1.00  0.00     0.042 C 
BRANCH   7  10
HETATM   10  N1  UNL     1      13.666  63.938  17.564  1.00  0.00    -0.379 N 
ATOM     11  H1  UNL     1      14.455  63.292  17.572  1.00  0.00     0.160 HD
BRANCH  10  12
HETATM   12  C11 UNL     1      14.052  65.183  17.018  1.00  0.00     0.035 C 
BRANCH  12  13
HETATM   13  C12 UNL     1      14.991  65.941  17.877  1.00  0.00     0.005 C 
BRANCH  13  14
HETATM   14  C13 UNL     1      14.542  66.817  18.991  1.00  0.00     0.010 C 
HETATM   15  C14 UNL     1      15.148  66.456  20.286  1.00  0.00     0.008 C 
HETATM   16  C15 UNL     1      16.315  67.217  20.787  1.00  0.00     0.001 C 
HETATM   17  C16 UNL     1      16.485  68.609  20.294  1.00  0.00     0.000 C 
HETATM   18  C17 UNL     1      16.328  68.552  18.764  1.00  0.00     0.001 C 
HETATM   19  C18 UNL     1      14.877  68.250  18.541  1.00  0.00     0.008 C 
ENDBRANCH  13  14
ENDBRANCH  12  13
BRANCH  12  20
HETATM   20  C19 UNL     1      14.285  65.124  15.551  1.00  0.00     0.263 C 
HETATM   21  N2  UNL     1      13.462  64.186  14.827  1.00  0.00    -0.063 N 
HETATM   22  C20 UNL     1      14.057  64.318  13.456  1.00  0.00     0.236 C 
ATOM     23  H22 UNL     1      13.428  63.239  15.207  1.00  0.00     0.278 HD
ATOM     24  H21 UNL     1      12.455  64.337  14.891  1.00  0.00     0.278 HD
HETATM   25  C21 UNL     1      15.524  64.092  13.785  1.00  0.00     0.061 C 
HETATM   26  C22 UNL     1      15.654  64.529  15.230  1.00  0.00     0.156 C 
BRANCH  26  27
HETATM   27  O4  UNL     1      15.793  63.387  16.013  1.00  0.00    -0.393 OA
ATOM     28  H4  UNL     1      16.645  63.016  15.813  1.00  0.00     0.210 HD
ENDBRANCH  26  27
ENDBRANCH  12  20
ENDBRANCH  10  12
ENDBRANCH   7  10
ENDBRANCH   5   7
BRANCH   6  29
HETATM   29  C23 UNL     1       9.231  63.090  19.226  1.00  0.00     0.151 C 
BRANCH  29  30
HETATM   30  O5  UNL     1       9.325  64.354  19.630  1.00  0.00    -0.347 OA
ATOM     31  H5  UNL     1       8.673  64.587  20.279  1.00  0.00     0.219 HD
ENDBRANCH  29  30
BRANCH  29  32
HETATM   32  C24 UNL     1       8.219  62.426  19.999  1.00  0.00     0.210 C 
BRANCH  32  33
HETATM   33  O6  UNL     1       6.865  62.620  19.801  1.00  0.00    -0.308 OA
BRANCH  33  34
HETATM   34  C25 UNL     1       5.926  61.591  19.757  1.00  0.00     0.255 C 
HETATM   35  C26 UNL     1       6.317  60.294  19.196  1.00  0.00     0.126 C 
HETATM   36  O7  UNL     1       4.799  61.837  20.201  1.00  0.00    -0.266 OA
ENDBRANCH  33  34
ENDBRANCH  32  33
BRANCH  32  37
HETATM   37  C27 UNL     1       8.502  62.489  21.510  1.00  0.00     0.023 A 
HETATM   38  C28 UNL     1       9.754  61.951  22.095  1.00  0.00     0.008 A 
HETATM   39  C29 UNL     1       8.487  61.159  22.221  1.00  0.00     0.008 A 
ENDBRANCH  32  37
ENDBRANCH  29  32
ENDBRANCH   6  29
BRANCH   3  40
HETATM   40  C4  UNL     1      10.586  61.150  14.965  1.00  0.00     0.217 C 
BRANCH  40  41
HETATM   41  O1  UNL     1       9.649  61.073  13.920  1.00  0.00    -0.319 OA
BRANCH  41  42
HETATM   42  C5  UNL     1       8.303  60.877  14.269  1.00  0.00     0.254 C 
HETATM   43  C6  UNL     1       7.860  59.512  14.695  1.00  0.00     0.126 C 
HETATM   44  O2  UNL     1       7.476  61.818  14.229  1.00  0.00    -0.266 OA
ENDBRANCH  41  42
ENDBRANCH  40  41
ENDBRANCH   3  40
TORSDOF 16
ENDMDL
