MODEL 1
REMARK VINA RESULT: -7.840836866      0.000      0.000
REMARK  5 active torsions:
REMARK  status: ('A' for Active; 'I' for Inactive)
REMARK    1  A    between atoms: N1_1  and  C1_4 
REMARK    2  A    between atoms: C3_9  and  N3_10 
REMARK    3  A    between atoms: N4_13  and  N5_14 
REMARK    4  A    between atoms: C4_17  and  N6_18 
REMARK    5  A    between atoms: N6_18  and  N7_20 
ROOT
HETATM    1  C1  UNL     1      34.020  22.358  30.238  1.00  0.00     0.693 C 
HETATM    2  N2  UNL     1      32.865  23.028  30.389  1.00  0.00    -0.153 N 
ATOM      3  H2  UNL     1      32.589  23.590  29.583  1.00  0.00     0.187 HD
HETATM    4  C2  UNL     1      32.008  23.077  31.440  1.00  0.00     0.305 C 
HETATM    5  O1  UNL     1      31.205  24.027  31.516  1.00  0.00    -0.263 OA
HETATM    6  C3  UNL     1      31.924  22.160  32.466  1.00  0.00     0.207 C 
HETATM    7  N4  UNL     1      32.829  21.212  32.771  1.00  0.00    -0.069 N 
HETATM    8  C4  UNL     1      34.061  20.976  32.241  1.00  0.00     0.733 C 
HETATM    9  N8  UNL     1      34.589  21.497  31.122  1.00  0.00    -0.019 N 
ATOM     10  H8  UNL     1      35.543  21.209  30.906  1.00  0.00     0.203 HD
ENDROOT
BRANCH   8  11
HETATM   11  N6  UNL     1      34.773  20.152  32.914  1.00  0.00    -0.136 N 
ATOM     12  H6  UNL     1      34.678  19.156  32.717  1.00  0.00     0.205 HD
BRANCH  11  13
HETATM   13  N7  UNL     1      35.672  20.549  33.900  1.00  0.00    -0.331 N 
ATOM     14  H72 UNL     1      35.618  21.517  34.220  1.00  0.00     0.177 HD
ATOM     15  H71 UNL     1      36.366  19.924  34.308  1.00  0.00     0.177 HD
ENDBRANCH  11  13
ENDBRANCH   8  11
BRANCH   7  16
HETATM   16  N5  UNL     1      32.478  20.321  33.784  1.00  0.00    -0.322 N 
ATOM     17  H52 UNL     1      31.928  19.527  33.456  1.00  0.00     0.178 HD
ATOM     18  H51 UNL     1      32.803  20.552  34.724  1.00  0.00     0.178 HD
ENDBRANCH   7  16
BRANCH   6  19
HETATM   19  N3  UNL     1      30.857  22.223  33.213  1.00  0.00    -0.379 N 
ATOM     20  H32 UNL     1      29.955  22.162  32.741  1.00  0.00     0.158 HD
ATOM     21  H31 UNL     1      31.012  22.328  34.216  1.00  0.00     0.158 HD
ENDBRANCH   6  19
BRANCH   1  22
HETATM   22  N1  UNL     1      34.688  22.528  29.150  1.00  0.00    -0.234 N 
ATOM     23  H12 UNL     1      34.844  23.504  28.897  1.00  0.00     0.174 HD
ATOM     24  H11 UNL     1      34.999  21.702  28.640  1.00  0.00     0.174 HD
ENDBRANCH   1  22
TORSDOF 5
ENDMDL
MODEL 2
REMARK VINA RESULT: -7.518339038      2.000      2.232
REMARK  5 active torsions:
REMARK  status: ('A' for Active; 'I' for Inactive)
REMARK    1  A    between atoms: N1_1  and  C1_4 
REMARK    2  A    between atoms: C3_9  and  N3_10 
REMARK    3  A    between atoms: N4_13  and  N5_14 
REMARK    4  A    between atoms: C4_17  and  N6_18 
REMARK    5  A    between atoms: N6_18  and  N7_20 
ROOT
HETATM    1  C1  UNL     1      34.133  23.252  31.384  1.00  0.00     0.693 C 
HETATM    2  N2  UNL     1      33.191  22.431  30.892  1.00  0.00    -0.153 N 
ATOM      3  H2  UNL     1      32.991  22.555  29.899  1.00  0.00     0.187 HD
HETATM    4  C2  UNL     1      32.462  21.462  31.503  1.00  0.00     0.305 C 
HETATM    5  O1  UNL     1      31.404  21.080  30.968  1.00  0.00    -0.263 OA
HETATM    6  C3  UNL     1      32.776  20.833  32.690  1.00  0.00     0.207 C 
HETATM    7  N4  UNL     1      33.692  21.233  33.591  1.00  0.00    -0.069 N 
HETATM    8  C4  UNL     1      34.449  22.363  33.627  1.00  0.00     0.733 C 
HETATM    9  N8  UNL     1      34.632  23.263  32.647  1.00  0.00    -0.019 N 
ATOM     10  H8  UNL     1      35.223  24.061  32.883  1.00  0.00     0.203 HD
ENDROOT
BRANCH   8  11
HETATM   11  N6  UNL     1      35.046  22.561  34.743  1.00  0.00    -0.136 N 
ATOM     12  H6  UNL     1      35.162  21.770  35.377  1.00  0.00     0.205 HD
BRANCH  11  13
HETATM   13  N7  UNL     1      35.543  23.801  35.133  1.00  0.00    -0.331 N 
ATOM     14  H72 UNL     1      35.742  23.934  36.125  1.00  0.00     0.177 HD
ATOM     15  H71 UNL     1      35.712  24.566  34.480  1.00  0.00     0.177 HD
ENDBRANCH  11  13
ENDBRANCH   8  11
BRANCH   7  16
HETATM   16  N5  UNL     1      33.919  20.375  34.667  1.00  0.00    -0.322 N 
ATOM     17  H52 UNL     1      33.147  19.732  34.846  1.00  0.00     0.178 HD
ATOM     18  H51 UNL     1      34.813  20.478  35.148  1.00  0.00     0.178 HD
ENDBRANCH   7  16
BRANCH   6  19
HETATM   19  N3  UNL     1      32.115  19.742  32.959  1.00  0.00    -0.379 N 
ATOM     20  H32 UNL     1      31.302  19.536  32.379  1.00  0.00     0.158 HD
ATOM     21  H31 UNL     1      32.467  19.179  33.734  1.00  0.00     0.158 HD
ENDBRANCH   6  19
BRANCH   1  22
HETATM   22  N1  UNL     1      34.641  24.139  30.600  1.00  0.00    -0.234 N 
ATOM     23  H12 UNL     1      35.620  23.981  30.359  1.00  0.00     0.174 HD
ATOM     24  H11 UNL     1      34.048  24.909  30.292  1.00  0.00     0.174 HD
ENDBRANCH   1  22
TORSDOF 5
ENDMDL
MODEL 3
REMARK VINA RESULT: -7.338044045      1.146      3.085
REMARK  5 active torsions:
REMARK  status: ('A' for Active; 'I' for Inactive)
REMARK    1  A    between atoms: N1_1  and  C1_4 
REMARK    2  A    between atoms: C3_9  and  N3_10 
REMARK    3  A    between atoms: N4_13  and  N5_14 
REMARK    4  A    between atoms: C4_17  and  N6_18 
REMARK    5  A    between atoms: N6_18  and  N7_20 
ROOT
HETATM    1  C1  UNL     1      31.250  22.145  32.838  1.00  0.00     0.693 C 
HETATM    2  N2  UNL     1      31.313  22.833  31.686  1.00  0.00    -0.153 N 
ATOM      3  H2  UNL     1      30.568  23.518  31.556  1.00  0.00     0.187 HD
HETATM    4  C2  UNL     1      32.209  22.764  30.668  1.00  0.00     0.305 C 
HETATM    5  O1  UNL     1      31.885  23.213  29.552  1.00  0.00    -0.263 OA
HETATM    6  C3  UNL     1      33.480  22.233  30.737  1.00  0.00     0.207 C 
HETATM    7  N4  UNL     1      33.972  21.454  31.717  1.00  0.00    -0.069 N 
HETATM    8  C4  UNL     1      33.351  20.918  32.804  1.00  0.00     0.733 C 
HETATM    9  N8  UNL     1      32.136  21.221  33.290  1.00  0.00    -0.019 N 
ATOM     10  H8  UNL     1      31.840  20.686  34.107  1.00  0.00     0.203 HD
ENDROOT
BRANCH   8  11
HETATM   11  N6  UNL     1      34.036  20.024  33.413  1.00  0.00    -0.136 N 
ATOM     12  H6  UNL     1      34.249  19.157  32.919  1.00  0.00     0.205 HD
BRANCH  11  13
HETATM   13  N7  UNL     1      34.503  20.176  34.716  1.00  0.00    -0.331 N 
ATOM     14  H72 UNL     1      34.393  21.093  35.148  1.00  0.00     0.177 HD
ATOM     15  H71 UNL     1      34.942  19.422  35.244  1.00  0.00     0.177 HD
ENDBRANCH  11  13
ENDBRANCH   8  11
BRANCH   7  16
HETATM   16  N5  UNL     1      35.325  21.127  31.631  1.00  0.00    -0.322 N 
ATOM     17  H52 UNL     1      35.871  21.438  32.434  1.00  0.00     0.178 HD
ATOM     18  H51 UNL     1      35.616  20.621  30.794  1.00  0.00     0.178 HD
ENDBRANCH   7  16
BRANCH   6  19
HETATM   19  N3  UNL     1      34.281  22.519  29.749  1.00  0.00    -0.379 N 
ATOM     20  H32 UNL     1      35.225  22.134  29.789  1.00  0.00     0.158 HD
ATOM     21  H31 UNL     1      33.897  23.109  29.010  1.00  0.00     0.158 HD
ENDBRANCH   6  19
BRANCH   1  22
HETATM   22  N1  UNL     1      30.251  22.357  33.623  1.00  0.00    -0.234 N 
ATOM     23  H12 UNL     1      29.473  22.858  33.193  1.00  0.00     0.174 HD
ATOM     24  H11 UNL     1      30.311  22.023  34.585  1.00  0.00     0.174 HD
ENDBRANCH   1  22
TORSDOF 5
ENDMDL
MODEL 4
REMARK VINA RESULT: -7.180124667      2.106      3.924
REMARK  5 active torsions:
REMARK  status: ('A' for Active; 'I' for Inactive)
REMARK    1  A    between atoms: N1_1  and  C1_4 
REMARK    2  A    between atoms: C3_9  and  N3_10 
REMARK    3  A    between atoms: N4_13  and  N5_14 
REMARK    4  A    between atoms: C4_17  and  N6_18 
REMARK    5  A    between atoms: N6_18  and  N7_20 
ROOT
HETATM    1  C1  UNL     1      34.428  20.946  33.782  1.00  0.00     0.693 C 
HETATM    2  N2  UNL     1      35.167  22.066  33.734  1.00  0.00    -0.153 N 
ATOM      3  H2  UNL     1      35.946  22.093  34.393  1.00  0.00     0.187 HD
HETATM    4  C2  UNL     1      35.044  23.168  32.951  1.00  0.00     0.305 C 
HETATM    5  O1  UNL     1      35.594  24.226  33.313  1.00  0.00    -0.263 OA
HETATM    6  C3  UNL     1      34.357  23.246  31.758  1.00  0.00     0.207 C 
HETATM    7  N4  UNL     1      33.468  22.354  31.285  1.00  0.00    -0.069 N 
HETATM    8  C4  UNL     1      32.953  21.238  31.869  1.00  0.00     0.733 C 
HETATM    9  N8  UNL     1      33.376  20.623  32.985  1.00  0.00    -0.019 N 
ATOM     10  H8  UNL     1      32.837  19.806  33.273  1.00  0.00     0.203 HD
ENDROOT
BRANCH   8  11
HETATM   11  N6  UNL     1      31.947  20.738  31.253  1.00  0.00    -0.136 N 
ATOM     12  H6  UNL     1      31.547  21.262  30.474  1.00  0.00     0.205 HD
BRANCH  11  13
HETATM   13  N7  UNL     1      31.373  19.517  31.595  1.00  0.00    -0.331 N 
ATOM     14  H72 UNL     1      31.860  18.672  31.298  1.00  0.00     0.177 HD
ATOM     15  H71 UNL     1      30.502  19.436  32.119  1.00  0.00     0.177 HD
ENDBRANCH  11  13
ENDBRANCH   8  11
BRANCH   7  16
HETATM   16  N5  UNL     1      32.980  22.586  29.999  1.00  0.00    -0.322 N 
ATOM     17  H52 UNL     1      32.309  23.352  29.950  1.00  0.00     0.178 HD
ATOM     18  H51 UNL     1      33.340  21.980  29.261  1.00  0.00     0.178 HD
ENDBRANCH   7  16
BRANCH   6  19
HETATM   19  N3  UNL     1      34.596  24.294  31.020  1.00  0.00    -0.379 N 
ATOM     20  H32 UNL     1      34.375  24.222  30.026  1.00  0.00     0.158 HD
ATOM     21  H31 UNL     1      34.988  25.105  31.497  1.00  0.00     0.158 HD
ENDBRANCH   6  19
BRANCH   1  22
HETATM   22  N1  UNL     1      34.718  20.058  34.670  1.00  0.00    -0.234 N 
ATOM     23  H12 UNL     1      33.987  19.898  35.363  1.00  0.00     0.174 HD
ATOM     24  H11 UNL     1      35.627  19.600  34.616  1.00  0.00     0.174 HD
ENDBRANCH   1  22
TORSDOF 5
ENDMDL
MODEL 5
REMARK VINA RESULT: -7.056367635      1.766      3.206
REMARK  5 active torsions:
REMARK  status: ('A' for Active; 'I' for Inactive)
REMARK    1  A    between atoms: N1_1  and  C1_4 
REMARK    2  A    between atoms: C3_9  and  N3_10 
REMARK    3  A    between atoms: N4_13  and  N5_14 
REMARK    4  A    between atoms: C4_17  and  N6_18 
REMARK    5  A    between atoms: N6_18  and  N7_20 
ROOT
HETATM    1  C1  UNL     1      31.797  22.345  32.371  1.00  0.00     0.693 C 
HETATM    2  N2  UNL     1      32.139  22.082  31.099  1.00  0.00    -0.153 N 
ATOM      3  H2  UNL     1      31.612  22.602  30.397  1.00  0.00     0.187 HD
HETATM    4  C2  UNL     1      33.073  21.234  30.597  1.00  0.00     0.305 C 
HETATM    5  O1  UNL     1      32.977  20.871  29.409  1.00  0.00    -0.263 OA
HETATM    6  C3  UNL     1      34.152  20.714  31.280  1.00  0.00     0.207 C 
HETATM    7  N4  UNL     1      34.335  20.721  32.613  1.00  0.00    -0.069 N 
HETATM    8  C4  UNL     1      33.503  21.131  33.609  1.00  0.00     0.733 C 
HETATM    9  N8  UNL     1      32.370  21.842  33.494  1.00  0.00    -0.019 N 
ATOM     10  H8  UNL     1      31.874  22.029  34.366  1.00  0.00     0.203 HD
ENDROOT
BRANCH   8  11
HETATM   11  N6  UNL     1      33.876  20.781  34.783  1.00  0.00    -0.136 N 
ATOM     12  H6  UNL     1      33.502  19.915  35.172  1.00  0.00     0.205 HD
BRANCH  11  13
HETATM   13  N7  UNL     1      34.765  21.524  35.555  1.00  0.00    -0.331 N 
ATOM     14  H72 UNL     1      34.854  22.517  35.340  1.00  0.00     0.177 HD
ATOM     15  H71 UNL     1      35.320  21.123  36.310  1.00  0.00     0.177 HD
ENDBRANCH  11  13
ENDBRANCH   8  11
BRANCH   7  16
HETATM   16  N5  UNL     1      35.560  20.237  33.074  1.00  0.00    -0.322 N 
ATOM     17  H52 UNL     1      35.478  19.644  33.899  1.00  0.00     0.178 HD
ATOM     18  H51 UNL     1      36.387  20.520  32.547  1.00  0.00     0.178 HD
ENDBRANCH   7  16
BRANCH   6  19
HETATM   19  N3  UNL     1      35.084  20.161  30.556  1.00  0.00    -0.379 N 
ATOM     20  H32 UNL     1      34.917  20.099  29.552  1.00  0.00     0.158 HD
ATOM     21  H31 UNL     1      35.911  19.833  31.055  1.00  0.00     0.158 HD
ENDBRANCH   6  19
BRANCH   1  22
HETATM   22  N1  UNL     1      30.821  23.159  32.586  1.00  0.00    -0.234 N 
ATOM     23  H12 UNL     1      30.192  22.877  33.337  1.00  0.00     0.174 HD
ATOM     24  H11 UNL     1      30.752  23.995  32.006  1.00  0.00     0.174 HD
ENDBRANCH   1  22
TORSDOF 5
ENDMDL
