MODEL 1
REMARK VINA RESULT: -7.176297850      0.000      0.000
REMARK  11 active torsions:
REMARK  status: ('A' for Active; 'I' for Inactive)
REMARK    1  A    between atoms: N1_1  and  C1_5 
REMARK    2  A    between atoms: C1_5  and  O1_6 
REMARK    3  A    between atoms: C1_5  and  C2_8 
REMARK    4  A    between atoms: C2_8  and  N2_9 
REMARK    5  A    between atoms: C2_8  and  C3_13 
REMARK    6  A    between atoms: C3_13  and  C4_15 
REMARK    7  A    between atoms: C5_22  and  C6_23 
REMARK       I    between atoms: C6_23  and  N6_25 
REMARK    8  A    between atoms: N6_25  and  C7_27 
REMARK    9  A    between atoms: C7_27  and  O4_28 
REMARK   10  A    between atoms: C7_27  and  N7_30 
REMARK   11  A    between atoms: N7_30  and  O5_32 
ROOT
HETATM    1  C4  UNL     1      69.495  83.831  62.578  1.00  0.00     0.131 A 
HETATM    2  N3  UNL     1      70.115  84.345  63.694  1.00  0.00    -0.280 N 
ATOM      3  H3  UNL     1      70.667  83.794  64.352  1.00  0.00     0.188 HD
HETATM    4  N4  UNL     1      69.909  85.627  63.803  1.00  0.00    -0.242 N 
ATOM      5  H4  UNL     1      70.260  86.237  64.540  1.00  0.00     0.208 HD
HETATM    6  N5  UNL     1      69.174  85.981  62.799  1.00  0.00    -0.279 N 
ATOM      7  H5  UNL     1      68.856  86.935  62.629  1.00  0.00     0.189 HD
HETATM    8  C5  UNL     1      68.874  84.906  61.988  1.00  0.00     0.149 A 
ENDROOT
BRANCH   1   9
HETATM    9  C3  UNL     1      69.518  82.446  62.159  1.00  0.00     0.214 C 
HETATM   10  O2  UNL     1      69.915  82.006  61.061  1.00  0.00    -0.288 OA
BRANCH   9  11
HETATM   11  C2  UNL     1      69.033  81.396  63.090  1.00  0.00     0.314 C 
BRANCH  11  12
HETATM   12  C1  UNL     1      70.027  80.269  63.237  1.00  0.00     0.354 C 
BRANCH  12  13
HETATM   13  N1  UNL     1      69.918  79.289  62.201  1.00  0.00    -0.051 N 
ATOM     14  H13 UNL     1      69.686  79.727  61.310  1.00  0.00     0.277 HD
ATOM     15  H12 UNL     1      70.834  78.905  61.964  1.00  0.00     0.277 HD
ATOM     16  H11 UNL     1      69.258  78.543  62.423  1.00  0.00     0.277 HD
ENDBRANCH  12  13
BRANCH  12  17
HETATM   17  O1  UNL     1      71.291  80.851  63.308  1.00  0.00    -0.368 OA
ATOM     18  H1  UNL     1      71.997  80.219  63.225  1.00  0.00     0.212 HD
ENDBRANCH  12  17
ENDBRANCH  11  12
BRANCH  11  19
HETATM   19  N2  UNL     1      67.774  80.891  62.675  1.00  0.00    -0.064 N 
ATOM     20  H23 UNL     1      67.865  80.005  62.179  1.00  0.00     0.275 HD
ATOM     21  H22 UNL     1      67.216  80.565  63.464  1.00  0.00     0.275 HD
ATOM     22  H21 UNL     1      67.278  81.589  62.120  1.00  0.00     0.275 HD
ENDBRANCH  11  19
ENDBRANCH   9  11
ENDBRANCH   1   9
BRANCH   8  23
HETATM   23  C6  UNL     1      68.064  84.986  60.780  1.00  0.00     0.279 C 
HETATM   24  O3  UNL     1      68.148  84.167  59.879  1.00  0.00    -0.265 OA
HETATM   25  N6  UNL     1      67.162  86.065  60.686  1.00  0.00    -0.286 N 
ATOM     26  H6  UNL     1      67.119  86.731  61.457  1.00  0.00     0.172 HD
BRANCH  25  27
HETATM   27  C7  UNL     1      66.323  86.264  59.581  1.00  0.00     0.244 C 
BRANCH  27  28
HETATM   28  O4  UNL     1      65.261  86.997  59.751  1.00  0.00    -0.331 OA
ATOM     29  H4  UNL     1      64.526  86.612  60.214  1.00  0.00     0.221 HD
ENDBRANCH  27  28
BRANCH  27  30
HETATM   30  N7  UNL     1      66.484  85.764  58.285  1.00  0.00    -0.233 N 
ATOM     31  H7  UNL     1      67.349  85.290  58.026  1.00  0.00     0.198 HD
BRANCH  30  32
HETATM   32  O5  UNL     1      65.461  85.911  57.344  1.00  0.00    -0.287 OA
ATOM     33  H5  UNL     1      65.664  86.193  56.460  1.00  0.00     0.244 HD
ENDBRANCH  30  32
ENDBRANCH  27  30
ENDBRANCH  25  27
ENDBRANCH   8  23
TORSDOF 11
ENDMDL
MODEL 2
REMARK VINA RESULT: -6.734458973      1.472      5.852
REMARK  11 active torsions:
REMARK  status: ('A' for Active; 'I' for Inactive)
REMARK    1  A    between atoms: N1_1  and  C1_5 
REMARK    2  A    between atoms: C1_5  and  O1_6 
REMARK    3  A    between atoms: C1_5  and  C2_8 
REMARK    4  A    between atoms: C2_8  and  N2_9 
REMARK    5  A    between atoms: C2_8  and  C3_13 
REMARK    6  A    between atoms: C3_13  and  C4_15 
REMARK    7  A    between atoms: C5_22  and  C6_23 
REMARK       I    between atoms: C6_23  and  N6_25 
REMARK    8  A    between atoms: N6_25  and  C7_27 
REMARK    9  A    between atoms: C7_27  and  O4_28 
REMARK   10  A    between atoms: C7_27  and  N7_30 
REMARK   11  A    between atoms: N7_30  and  O5_32 
ROOT
HETATM    1  C4  UNL     1      68.703  85.096  61.686  1.00  0.00     0.131 A 
HETATM    2  N3  UNL     1      68.955  86.264  62.371  1.00  0.00    -0.280 N 
ATOM      3  H3  UNL     1      68.639  87.186  62.072  1.00  0.00     0.188 HD
HETATM    4  N4  UNL     1      69.648  86.040  63.451  1.00  0.00    -0.242 N 
ATOM      5  H4  UNL     1      69.961  86.737  64.125  1.00  0.00     0.208 HD
HETATM    6  N5  UNL     1      69.865  84.766  63.507  1.00  0.00    -0.279 N 
ATOM      7  H5  UNL     1      70.387  84.305  64.252  1.00  0.00     0.189 HD
HETATM    8  C5  UNL     1      69.302  84.109  62.433  1.00  0.00     0.149 A 
ENDROOT
BRANCH   1   9
HETATM    9  C3  UNL     1      67.963  84.984  60.448  1.00  0.00     0.214 C 
HETATM   10  O2  UNL     1      68.198  84.196  59.508  1.00  0.00    -0.288 OA
BRANCH   9  11
HETATM   11  C2  UNL     1      66.795  85.870  60.216  1.00  0.00     0.314 C 
BRANCH  11  12
HETATM   12  C1  UNL     1      66.651  86.243  58.760  1.00  0.00     0.354 C 
BRANCH  12  13
HETATM   13  N1  UNL     1      65.478  87.018  58.494  1.00  0.00    -0.051 N 
ATOM     14  H13 UNL     1      64.637  86.505  58.757  1.00  0.00     0.277 HD
ATOM     15  H12 UNL     1      65.405  87.802  59.143  1.00  0.00     0.277 HD
ATOM     16  H11 UNL     1      65.421  87.339  57.527  1.00  0.00     0.277 HD
ENDBRANCH  12  13
BRANCH  12  17
HETATM   17  O1  UNL     1      67.828  86.890  58.389  1.00  0.00    -0.368 OA
ATOM     18  H1  UNL     1      68.558  86.294  58.266  1.00  0.00     0.212 HD
ENDBRANCH  12  17
ENDBRANCH  11  12
BRANCH  11  19
HETATM   19  N2  UNL     1      66.875  87.037  61.017  1.00  0.00    -0.064 N 
ATOM     20  H23 UNL     1      67.471  87.749  60.594  1.00  0.00     0.275 HD
ATOM     21  H22 UNL     1      65.998  87.558  61.021  1.00  0.00     0.275 HD
ATOM     22  H21 UNL     1      67.179  86.798  61.961  1.00  0.00     0.275 HD
ENDBRANCH  11  19
ENDBRANCH   9  11
ENDBRANCH   1   9
BRANCH   8  23
HETATM   23  C6  UNL     1      69.375  82.670  62.216  1.00  0.00     0.279 C 
HETATM   24  O3  UNL     1      70.228  82.157  61.510  1.00  0.00    -0.265 OA
HETATM   25  N6  UNL     1      68.407  81.877  62.861  1.00  0.00    -0.286 N 
ATOM     26  H6  UNL     1      67.708  82.339  63.443  1.00  0.00     0.172 HD
BRANCH  25  27
HETATM   27  C7  UNL     1      68.360  80.481  62.741  1.00  0.00     0.244 C 
BRANCH  27  28
HETATM   28  O4  UNL     1      67.197  79.928  62.551  1.00  0.00    -0.331 OA
ATOM     29  H4  UNL     1      67.115  79.304  61.840  1.00  0.00     0.221 HD
ENDBRANCH  27  28
BRANCH  27  30
HETATM   30  N7  UNL     1      69.430  79.583  62.798  1.00  0.00    -0.233 N 
ATOM     31  H7  UNL     1      69.936  79.449  63.674  1.00  0.00     0.198 HD
BRANCH  30  32
HETATM   32  O5  UNL     1      69.807  78.866  61.659  1.00  0.00    -0.287 OA
ATOM     33  H5  UNL     1      69.579  79.190  60.795  1.00  0.00     0.244 HD
ENDBRANCH  30  32
ENDBRANCH  27  30
ENDBRANCH  25  27
ENDBRANCH   8  23
TORSDOF 11
ENDMDL
MODEL 3
REMARK VINA RESULT: -6.682319073      5.487      8.661
REMARK  11 active torsions:
REMARK  status: ('A' for Active; 'I' for Inactive)
REMARK    1  A    between atoms: N1_1  and  C1_5 
REMARK    2  A    between atoms: C1_5  and  O1_6 
REMARK    3  A    between atoms: C1_5  and  C2_8 
REMARK    4  A    between atoms: C2_8  and  N2_9 
REMARK    5  A    between atoms: C2_8  and  C3_13 
REMARK    6  A    between atoms: C3_13  and  C4_15 
REMARK    7  A    between atoms: C5_22  and  C6_23 
REMARK       I    between atoms: C6_23  and  N6_25 
REMARK    8  A    between atoms: N6_25  and  C7_27 
REMARK    9  A    between atoms: C7_27  and  O4_28 
REMARK   10  A    between atoms: C7_27  and  N7_30 
REMARK   11  A    between atoms: N7_30  and  O5_32 
ROOT
HETATM    1  C4  UNL     1      74.589  76.691  61.365  1.00  0.00     0.131 A 
HETATM    2  N3  UNL     1      75.530  76.776  60.364  1.00  0.00    -0.280 N 
ATOM      3  H3  UNL     1      76.417  76.273  60.364  1.00  0.00     0.188 HD
HETATM    4  N4  UNL     1      75.143  77.582  59.417  1.00  0.00    -0.242 N 
ATOM      5  H4  UNL     1      75.661  77.813  58.569  1.00  0.00     0.208 HD
HETATM    6  N5  UNL     1      73.979  78.034  59.753  1.00  0.00    -0.279 N 
ATOM      7  H5  UNL     1      73.434  78.689  59.193  1.00  0.00     0.189 HD
HETATM    8  C5  UNL     1      73.567  77.518  60.964  1.00  0.00     0.149 A 
ENDROOT
BRANCH   1   9
HETATM    9  C3  UNL     1      74.699  75.888  62.565  1.00  0.00     0.214 C 
HETATM   10  O2  UNL     1      75.417  76.127  63.557  1.00  0.00    -0.288 OA
BRANCH   9  11
HETATM   11  C2  UNL     1      73.897  74.645  62.684  1.00  0.00     0.314 C 
BRANCH  11  12
HETATM   12  C1  UNL     1      73.288  74.496  64.057  1.00  0.00     0.354 C 
BRANCH  12  13
HETATM   13  N1  UNL     1      74.196  73.943  65.015  1.00  0.00    -0.051 N 
ATOM     14  H13 UNL     1      73.981  72.963  65.195  1.00  0.00     0.277 HD
ATOM     15  H12 UNL     1      75.128  73.838  64.614  1.00  0.00     0.277 HD
ATOM     16  H11 UNL     1      74.232  74.474  65.885  1.00  0.00     0.277 HD
ENDBRANCH  12  13
BRANCH  12  17
HETATM   17  O1  UNL     1      72.805  75.751  64.425  1.00  0.00    -0.368 OA
ATOM     18  H1  UNL     1      72.362  75.748  65.265  1.00  0.00     0.212 HD
ENDBRANCH  12  17
ENDBRANCH  11  12
BRANCH  11  19
HETATM   19  N2  UNL     1      74.678  73.505  62.365  1.00  0.00    -0.064 N 
ATOM     20  H23 UNL     1      75.608  73.552  62.781  1.00  0.00     0.275 HD
ATOM     21  H22 UNL     1      74.342  72.668  62.843  1.00  0.00     0.275 HD
ATOM     22  H21 UNL     1      74.719  73.375  61.355  1.00  0.00     0.275 HD
ENDBRANCH  11  19
ENDBRANCH   9  11
ENDBRANCH   1   9
BRANCH   8  23
HETATM   23  C6  UNL     1      72.300  77.839  61.608  1.00  0.00     0.279 C 
HETATM   24  O3  UNL     1      71.684  77.029  62.282  1.00  0.00    -0.265 OA
HETATM   25  N6  UNL     1      71.800  79.142  61.420  1.00  0.00    -0.286 N 
ATOM     26  H6  UNL     1      72.340  79.793  60.851  1.00  0.00     0.172 HD
BRANCH  25  27
HETATM   27  C7  UNL     1      70.594  79.586  61.981  1.00  0.00     0.244 C 
BRANCH  27  28
HETATM   28  O4  UNL     1      69.539  78.844  61.813  1.00  0.00    -0.331 OA
ATOM     29  H4  UNL     1      69.501  78.015  62.276  1.00  0.00     0.221 HD
ENDBRANCH  27  28
BRANCH  27  30
HETATM   30  N7  UNL     1      70.374  80.753  62.719  1.00  0.00    -0.233 N 
ATOM     31  H7  UNL     1      70.267  81.646  62.238  1.00  0.00     0.198 HD
BRANCH  30  32
HETATM   32  O5  UNL     1      70.302  80.699  64.114  1.00  0.00    -0.287 OA
ATOM     33  H5  UNL     1      71.063  80.913  64.640  1.00  0.00     0.244 HD
ENDBRANCH  30  32
ENDBRANCH  27  30
ENDBRANCH  25  27
ENDBRANCH   8  23
TORSDOF 11
ENDMDL
MODEL 4
REMARK VINA RESULT: -6.595547115      2.497      6.807
REMARK  11 active torsions:
REMARK  status: ('A' for Active; 'I' for Inactive)
REMARK    1  A    between atoms: N1_1  and  C1_5 
REMARK    2  A    between atoms: C1_5  and  O1_6 
REMARK    3  A    between atoms: C1_5  and  C2_8 
REMARK    4  A    between atoms: C2_8  and  N2_9 
REMARK    5  A    between atoms: C2_8  and  C3_13 
REMARK    6  A    between atoms: C3_13  and  C4_15 
REMARK    7  A    between atoms: C5_22  and  C6_23 
REMARK       I    between atoms: C6_23  and  N6_25 
REMARK    8  A    between atoms: N6_25  and  C7_27 
REMARK    9  A    between atoms: C7_27  and  O4_28 
REMARK   10  A    between atoms: C7_27  and  N7_30 
REMARK   11  A    between atoms: N7_30  and  O5_32 
ROOT
HETATM    1  C4  UNL     1      69.228  82.083  62.589  1.00  0.00     0.131 A 
HETATM    2  N3  UNL     1      67.883  82.104  62.879  1.00  0.00    -0.280 N 
ATOM      3  H3  UNL     1      67.331  82.955  62.988  1.00  0.00     0.188 HD
HETATM    4  N4  UNL     1      67.404  80.899  62.997  1.00  0.00    -0.242 N 
ATOM      5  H4  UNL     1      66.438  80.648  63.208  1.00  0.00     0.208 HD
HETATM    6  N5  UNL     1      68.383  80.079  62.795  1.00  0.00    -0.279 N 
ATOM      7  H5  UNL     1      68.296  79.063  62.825  1.00  0.00     0.189 HD
HETATM    8  C5  UNL     1      69.559  80.750  62.533  1.00  0.00     0.149 A 
ENDROOT
BRANCH   1   9
HETATM    9  C3  UNL     1      70.071  83.243  62.396  1.00  0.00     0.214 C 
HETATM   10  O2  UNL     1      71.243  83.389  62.800  1.00  0.00    -0.288 OA
BRANCH   9  11
HETATM   11  C2  UNL     1      69.542  84.409  61.646  1.00  0.00     0.314 C 
BRANCH  11  12
HETATM   12  C1  UNL     1      68.869  85.408  62.558  1.00  0.00     0.354 C 
BRANCH  12  13
HETATM   13  N1  UNL     1      69.415  85.414  63.880  1.00  0.00    -0.051 N 
ATOM     14  H13 UNL     1      69.488  86.365  64.239  1.00  0.00     0.277 HD
ATOM     15  H12 UNL     1      68.746  85.034  64.551  1.00  0.00     0.277 HD
ATOM     16  H11 UNL     1      70.310  84.929  63.946  1.00  0.00     0.277 HD
ENDBRANCH  12  13
BRANCH  12  17
HETATM   17  O1  UNL     1      68.949  86.649  61.929  1.00  0.00    -0.368 OA
ATOM     18  H1  UNL     1      69.512  86.643  61.163  1.00  0.00     0.212 HD
ENDBRANCH  12  17
ENDBRANCH  11  12
BRANCH  11  19
HETATM   19  N2  UNL     1      68.648  83.995  60.626  1.00  0.00    -0.064 N 
ATOM     20  H23 UNL     1      67.985  84.730  60.380  1.00  0.00     0.275 HD
ATOM     21  H22 UNL     1      69.115  83.905  59.724  1.00  0.00     0.275 HD
ATOM     22  H21 UNL     1      68.177  83.132  60.898  1.00  0.00     0.275 HD
ENDBRANCH  11  19
ENDBRANCH   9  11
ENDBRANCH   1   9
BRANCH   8  23
HETATM   23  C6  UNL     1      70.836  80.101  62.266  1.00  0.00     0.279 C 
HETATM   24  O3  UNL     1      71.891  80.521  62.715  1.00  0.00    -0.265 OA
HETATM   25  N6  UNL     1      70.810  78.951  61.453  1.00  0.00    -0.286 N 
ATOM     26  H6  UNL     1      69.912  78.629  61.094  1.00  0.00     0.172 HD
BRANCH  25  27
HETATM   27  C7  UNL     1      71.963  78.229  61.115  1.00  0.00     0.244 C 
BRANCH  27  28
HETATM   28  O4  UNL     1      72.762  78.743  60.226  1.00  0.00    -0.331 OA
ATOM     29  H4  UNL     1      73.694  78.732  60.408  1.00  0.00     0.221 HD
ENDBRANCH  27  28
BRANCH  27  30
HETATM   30  N7  UNL     1      72.378  76.995  61.626  1.00  0.00    -0.233 N 
ATOM     31  H7  UNL     1      72.947  76.372  61.052  1.00  0.00     0.198 HD
BRANCH  30  32
HETATM   32  O5  UNL     1      72.014  76.612  62.920  1.00  0.00    -0.287 OA
ATOM     33  H5  UNL     1      72.164  77.201  63.651  1.00  0.00     0.244 HD
ENDBRANCH  30  32
ENDBRANCH  27  30
ENDBRANCH  25  27
ENDBRANCH   8  23
TORSDOF 11
ENDMDL
MODEL 5
REMARK VINA RESULT: -6.573243431      2.556      6.639
REMARK  11 active torsions:
REMARK  status: ('A' for Active; 'I' for Inactive)
REMARK    1  A    between atoms: N1_1  and  C1_5 
REMARK    2  A    between atoms: C1_5  and  O1_6 
REMARK    3  A    between atoms: C1_5  and  C2_8 
REMARK    4  A    between atoms: C2_8  and  N2_9 
REMARK    5  A    between atoms: C2_8  and  C3_13 
REMARK    6  A    between atoms: C3_13  and  C4_15 
REMARK    7  A    between atoms: C5_22  and  C6_23 
REMARK       I    between atoms: C6_23  and  N6_25 
REMARK    8  A    between atoms: N6_25  and  C7_27 
REMARK    9  A    between atoms: C7_27  and  O4_28 
REMARK   10  A    between atoms: C7_27  and  N7_30 
REMARK   11  A    between atoms: N7_30  and  O5_32 
ROOT
HETATM    1  C4  UNL     1      69.117  82.084  62.568  1.00  0.00     0.131 A 
HETATM    2  N3  UNL     1      67.848  82.241  63.076  1.00  0.00    -0.280 N 
ATOM      3  H3  UNL     1      67.454  83.133  63.374  1.00  0.00     0.188 HD
HETATM    4  N4  UNL     1      67.214  81.104  63.127  1.00  0.00    -0.242 N 
ATOM      5  H4  UNL     1      66.263  80.956  63.464  1.00  0.00     0.208 HD
HETATM    6  N5  UNL     1      68.017  80.199  62.672  1.00  0.00    -0.279 N 
ATOM      7  H5  UNL     1      67.783  79.210  62.595  1.00  0.00     0.189 HD
HETATM    8  C5  UNL     1      69.231  80.740  62.301  1.00  0.00     0.149 A 
ENDROOT
BRANCH   1   9
HETATM    9  C3  UNL     1      70.090  83.139  62.377  1.00  0.00     0.214 C 
HETATM   10  O2  UNL     1      71.280  83.132  62.751  1.00  0.00    -0.288 OA
BRANCH   9  11
HETATM   11  C2  UNL     1      69.687  84.379  61.668  1.00  0.00     0.314 C 
BRANCH  11  12
HETATM   12  C1  UNL     1      69.012  85.363  62.594  1.00  0.00     0.354 C 
BRANCH  12  13
HETATM   13  N1  UNL     1      69.608  85.408  63.894  1.00  0.00    -0.051 N 
ATOM     14  H13 UNL     1      70.559  85.771  63.845  1.00  0.00     0.277 HD
ATOM     15  H12 UNL     1      69.180  86.137  64.465  1.00  0.00     0.277 HD
ATOM     16  H11 UNL     1      69.586  84.509  64.375  1.00  0.00     0.277 HD
ENDBRANCH  12  13
BRANCH  12  17
HETATM   17  O1  UNL     1      69.019  86.598  61.947  1.00  0.00    -0.368 OA
ATOM     18  H1  UNL     1      68.304  87.163  62.216  1.00  0.00     0.212 HD
ENDBRANCH  12  17
ENDBRANCH  11  12
BRANCH  11  19
HETATM   19  N2  UNL     1      68.845  84.084  60.566  1.00  0.00    -0.064 N 
ATOM     20  H23 UNL     1      67.948  83.700  60.864  1.00  0.00     0.275 HD
ATOM     21  H22 UNL     1      68.502  84.930  60.111  1.00  0.00     0.275 HD
ATOM     22  H21 UNL     1      69.324  83.467  59.910  1.00  0.00     0.275 HD
ENDBRANCH  11  19
ENDBRANCH   9  11
ENDBRANCH   1   9
BRANCH   8  23
HETATM   23  C6  UNL     1      70.342  79.974  61.752  1.00  0.00     0.279 C 
HETATM   24  O3  UNL     1      71.004  80.366  60.805  1.00  0.00    -0.265 OA
HETATM   25  N6  UNL     1      70.630  78.739  62.366  1.00  0.00    -0.286 N 
ATOM     26  H6  UNL     1      70.056  78.442  63.154  1.00  0.00     0.172 HD
BRANCH  25  27
HETATM   27  C7  UNL     1      71.669  77.900  61.941  1.00  0.00     0.244 C 
BRANCH  27  28
HETATM   28  O4  UNL     1      71.903  76.825  62.635  1.00  0.00    -0.331 OA
ATOM     29  H4  UNL     1      71.189  76.464  63.148  1.00  0.00     0.221 HD
ENDBRANCH  27  28
BRANCH  27  30
HETATM   30  N7  UNL     1      72.510  78.074  60.837  1.00  0.00    -0.233 N 
ATOM     31  H7  UNL     1      73.433  78.490  60.960  1.00  0.00     0.198 HD
BRANCH  30  32
HETATM   32  O5  UNL     1      72.089  77.678  59.564  1.00  0.00    -0.287 OA
ATOM     33  H5  UNL     1      71.500  76.938  59.465  1.00  0.00     0.244 HD
ENDBRANCH  30  32
ENDBRANCH  27  30
ENDBRANCH  25  27
ENDBRANCH   8  23
TORSDOF 11
ENDMDL
