MODEL 1
REMARK VINA RESULT: -7.121412637      0.000      0.000
REMARK  13 active torsions:
REMARK  status: ('A' for Active; 'I' for Inactive)
REMARK    1  A    between atoms: N1_1  and  C1_4 
REMARK    2  A    between atoms: C3_9  and  N4_10 
REMARK    3  A    between atoms: N4_10  and  C4_12 
REMARK    4  A    between atoms: C4_12  and  C5_13 
REMARK    5  A    between atoms: C4_12  and  C6_16 
REMARK    6  A    between atoms: C8_21  and  S1_22 
REMARK    7  A    between atoms: S1_22  and  C9_23 
REMARK    8  A    between atoms: C9_23  and  C10_24 
REMARK    9  A    between atoms: C10_24  and  O3_25 
REMARK   10  A    between atoms: C10_24  and  C11_27 
REMARK   11  A    between atoms: C11_27  and  O4_28 
REMARK   12  A    between atoms: N7_30  and  N8_31 
REMARK   13  A    between atoms: C12_34  and  N9_35 
ROOT
HETATM    1  C4  UNL     1      23.272 -15.599  47.287  1.00  0.00     0.239 C 
ENDROOT
BRANCH   1   2
HETATM    2  N4  UNL     1      24.039 -15.320  48.451  1.00  0.00    -0.365 N 
ATOM      3  H4  UNL     1      24.371 -14.358  48.514  1.00  0.00     0.161 HD
BRANCH   2   4
HETATM    4  C3  UNL     1      24.418 -16.129  49.522  1.00  0.00     0.116 A 
HETATM    5  C2  UNL     1      25.483 -16.996  49.471  1.00  0.00     0.162 A 
HETATM    6  N2  UNL     1      25.748 -17.767  50.549  1.00  0.00    -0.177 N 
HETATM    7  N3  UNL     1      26.358 -17.119  48.354  1.00  0.00    -0.080 NA
HETATM    8  C1  UNL     1      25.027 -17.733  51.674  1.00  0.00     0.678 A 
ATOM      9  H2  UNL     1      26.539 -18.408  50.502  1.00  0.00     0.185 HD
HETATM   10  N10 UNL     1      23.989 -16.908  51.766  1.00  0.00    -0.175 N 
HETATM   11  C12 UNL     1      23.676 -16.109  50.711  1.00  0.00     0.144 A 
ATOM     12  H10 UNL     1      23.434 -16.874  52.621  1.00  0.00     0.186 HD
BRANCH   8  13
HETATM   13  N1  UNL     1      25.319 -18.492  52.682  1.00  0.00    -0.234 N 
ATOM     14  H12 UNL     1      25.803 -19.374  52.514  1.00  0.00     0.174 HD
ATOM     15  H11 UNL     1      25.075 -18.223  53.635  1.00  0.00     0.174 HD
ENDBRANCH   8  13
BRANCH  11  16
HETATM   16  N9  UNL     1      22.652 -15.367  50.910  1.00  0.00    -0.383 N 
ATOM     17  H92 UNL     1      22.756 -14.724  51.695  1.00  0.00     0.157 HD
ATOM     18  H91 UNL     1      21.798 -15.405  50.354  1.00  0.00     0.157 HD
ENDBRANCH  11  16
ENDBRANCH   2   4
ENDBRANCH   1   2
BRANCH   1  19
HETATM   19  C5  UNL     1      22.047 -14.726  47.301  1.00  0.00     0.203 C 
HETATM   20  O1  UNL     1      21.924 -13.706  46.586  1.00  0.00    -0.646 OA
HETATM   21  O2  UNL     1      21.005 -15.064  48.145  1.00  0.00    -0.646 OA
ENDBRANCH   1  19
BRANCH   1  22
HETATM   22  C6  UNL     1      24.005 -15.235  46.033  1.00  0.00     0.110 A 
HETATM   23  C7  UNL     1      25.006 -14.310  45.915  1.00  0.00     0.145 A 
HETATM   24  N5  UNL     1      25.580 -13.492  46.914  1.00  0.00    -0.080 NA
HETATM   25  N6  UNL     1      25.409 -14.271  44.622  1.00  0.00    -0.322 N 
HETATM   26  C8  UNL     1      24.675 -15.154  43.954  1.00  0.00     0.167 A 
ATOM     27  H6  UNL     1      26.140 -13.675  44.234  1.00  0.00     0.169 HD
HETATM   28  N7  UNL     1      23.824 -15.738  44.808  1.00  0.00    -0.239 N 
BRANCH  26  29
HETATM   29  S1  UNL     1      24.832 -15.479  42.194  1.00  0.00    -0.089 SA
BRANCH  29  30
HETATM   30  C9  UNL     1      26.362 -16.433  41.864  1.00  0.00     0.116 C 
BRANCH  30  31
HETATM   31  C10 UNL     1      25.979 -17.653  41.054  1.00  0.00     0.151 C 
BRANCH  31  32
HETATM   32  O3  UNL     1      25.572 -17.303  39.775  1.00  0.00    -0.393 OA
ATOM     33  H3  UNL     1      26.289 -17.363  39.155  1.00  0.00     0.210 HD
ENDBRANCH  31  32
BRANCH  31  34
HETATM   34  C11 UNL     1      24.882 -18.427  41.748  1.00  0.00     0.196 C 
BRANCH  34  35
HETATM   35  O4  UNL     1      25.257 -19.731  41.958  1.00  0.00    -0.398 OA
ATOM     36  H4  UNL     1      25.252 -20.222  41.145  1.00  0.00     0.209 HD
ENDBRANCH  34  35
ENDBRANCH  31  34
ENDBRANCH  30  31
ENDBRANCH  29  30
ENDBRANCH  26  29
BRANCH  28  37
HETATM   37  N8  UNL     1      22.905 -16.722  44.417  1.00  0.00    -0.336 N 
ATOM     38  H82 UNL     1      22.411 -17.317  45.082  1.00  0.00     0.177 HD
ATOM     39  H81 UNL     1      22.622 -16.964  43.468  1.00  0.00     0.177 HD
ENDBRANCH  28  37
ENDBRANCH   1  22
TORSDOF 13
ENDMDL
MODEL 2
REMARK VINA RESULT: -7.077430039      3.540      8.243
REMARK  13 active torsions:
REMARK  status: ('A' for Active; 'I' for Inactive)
REMARK    1  A    between atoms: N1_1  and  C1_4 
REMARK    2  A    between atoms: C3_9  and  N4_10 
REMARK    3  A    between atoms: N4_10  and  C4_12 
REMARK    4  A    between atoms: C4_12  and  C5_13 
REMARK    5  A    between atoms: C4_12  and  C6_16 
REMARK    6  A    between atoms: C8_21  and  S1_22 
REMARK    7  A    between atoms: S1_22  and  C9_23 
REMARK    8  A    between atoms: C9_23  and  C10_24 
REMARK    9  A    between atoms: C10_24  and  O3_25 
REMARK   10  A    between atoms: C10_24  and  C11_27 
REMARK   11  A    between atoms: C11_27  and  O4_28 
REMARK   12  A    between atoms: N7_30  and  N8_31 
REMARK   13  A    between atoms: C12_34  and  N9_35 
ROOT
HETATM    1  C4  UNL     1      25.298 -16.882  44.598  1.00  0.00     0.239 C 
ENDROOT
BRANCH   1   2
HETATM    2  N4  UNL     1      24.948 -15.924  43.608  1.00  0.00    -0.365 N 
ATOM      3  H4  UNL     1      25.390 -15.013  43.730  1.00  0.00     0.161 HD
BRANCH   2   4
HETATM    4  C3  UNL     1      24.107 -16.009  42.498  1.00  0.00     0.116 A 
HETATM    5  C2  UNL     1      22.755 -15.772  42.558  1.00  0.00     0.162 A 
HETATM    6  N2  UNL     1      22.018 -15.917  41.435  1.00  0.00    -0.177 N 
HETATM    7  N3  UNL     1      22.072 -15.349  43.734  1.00  0.00    -0.080 NA
HETATM    8  C1  UNL     1      22.534 -16.280  40.257  1.00  0.00     0.678 A 
ATOM      9  H2  UNL     1      21.015 -15.741  41.489  1.00  0.00     0.185 HD
HETATM   10  N10 UNL     1      23.837 -16.517  40.154  1.00  0.00    -0.175 N 
HETATM   11  C12 UNL     1      24.628 -16.388  41.253  1.00  0.00     0.144 A 
ATOM     12  H10 UNL     1      24.241 -16.793  39.259  1.00  0.00     0.186 HD
BRANCH   8  13
HETATM   13  N1  UNL     1      21.786 -16.407  39.206  1.00  0.00    -0.234 N 
ATOM     14  H12 UNL     1      21.151 -15.650  38.956  1.00  0.00     0.174 HD
ATOM     15  H11 UNL     1      21.824 -17.247  38.629  1.00  0.00     0.174 HD
ENDBRANCH   8  13
BRANCH  11  16
HETATM   16  N9  UNL     1      25.861 -16.652  41.037  1.00  0.00    -0.383 N 
ATOM     17  H92 UNL     1      26.123 -17.611  41.266  1.00  0.00     0.157 HD
ATOM     18  H91 UNL     1      26.539 -15.980  40.678  1.00  0.00     0.157 HD
ENDBRANCH  11  16
ENDBRANCH   2   4
ENDBRANCH   1   2
BRANCH   1  19
HETATM   19  C5  UNL     1      26.763 -17.193  44.465  1.00  0.00     0.203 C 
HETATM   20  O1  UNL     1      27.358 -18.022  45.191  1.00  0.00    -0.646 OA
HETATM   21  O2  UNL     1      27.492 -16.533  43.492  1.00  0.00    -0.646 OA
ENDBRANCH   1  19
BRANCH   1  22
HETATM   22  C6  UNL     1      25.132 -16.340  45.984  1.00  0.00     0.110 A 
HETATM   23  C7  UNL     1      25.140 -15.021  46.349  1.00  0.00     0.145 A 
HETATM   24  N5  UNL     1      25.303 -13.877  45.536  1.00  0.00    -0.080 NA
HETATM   25  N6  UNL     1      24.960 -14.942  47.689  1.00  0.00    -0.322 N 
HETATM   26  C8  UNL     1      24.842 -16.184  48.145  1.00  0.00     0.167 A 
ATOM     27  H6  UNL     1      24.923 -14.087  48.245  1.00  0.00     0.169 HD
HETATM   28  N7  UNL     1      24.946 -17.032  47.113  1.00  0.00    -0.239 N 
BRANCH  26  29
HETATM   29  S1  UNL     1      24.584 -16.611  49.871  1.00  0.00    -0.089 SA
BRANCH  29  30
HETATM   30  C9  UNL     1      26.097 -17.384  50.560  1.00  0.00     0.116 C 
BRANCH  30  31
HETATM   31  C10 UNL     1      25.767 -17.882  51.951  1.00  0.00     0.151 C 
BRANCH  31  32
HETATM   32  O3  UNL     1      25.958 -19.252  52.056  1.00  0.00    -0.393 OA
ATOM     33  H3  UNL     1      25.669 -19.578  52.899  1.00  0.00     0.210 HD
ENDBRANCH  31  32
BRANCH  31  34
HETATM   34  C11 UNL     1      24.342 -17.533  52.314  1.00  0.00     0.196 C 
BRANCH  34  35
HETATM   35  O4  UNL     1      24.140 -17.635  53.668  1.00  0.00    -0.398 OA
ATOM     36  H4  UNL     1      23.851 -16.806  54.032  1.00  0.00     0.209 HD
ENDBRANCH  34  35
ENDBRANCH  31  34
ENDBRANCH  30  31
ENDBRANCH  29  30
ENDBRANCH  26  29
BRANCH  28  37
HETATM   37  N8  UNL     1      24.864 -18.423  47.256  1.00  0.00    -0.336 N 
ATOM     38  H82 UNL     1      24.338 -19.018  46.616  1.00  0.00     0.177 HD
ATOM     39  H81 UNL     1      25.295 -18.999  47.980  1.00  0.00     0.177 HD
ENDBRANCH  28  37
ENDBRANCH   1  22
TORSDOF 13
ENDMDL
MODEL 3
REMARK VINA RESULT: -7.048531268      2.466      3.965
REMARK  13 active torsions:
REMARK  status: ('A' for Active; 'I' for Inactive)
REMARK    1  A    between atoms: N1_1  and  C1_4 
REMARK    2  A    between atoms: C3_9  and  N4_10 
REMARK    3  A    between atoms: N4_10  and  C4_12 
REMARK    4  A    between atoms: C4_12  and  C5_13 
REMARK    5  A    between atoms: C4_12  and  C6_16 
REMARK    6  A    between atoms: C8_21  and  S1_22 
REMARK    7  A    between atoms: S1_22  and  C9_23 
REMARK    8  A    between atoms: C9_23  and  C10_24 
REMARK    9  A    between atoms: C10_24  and  O3_25 
REMARK   10  A    between atoms: C10_24  and  C11_27 
REMARK   11  A    between atoms: C11_27  and  O4_28 
REMARK   12  A    between atoms: N7_30  and  N8_31 
REMARK   13  A    between atoms: C12_34  and  N9_35 
ROOT
HETATM    1  C4  UNL     1      24.701 -16.116  47.076  1.00  0.00     0.239 C 
ENDROOT
BRANCH   1   2
HETATM    2  N4  UNL     1      26.079 -15.776  46.989  1.00  0.00    -0.365 N 
ATOM      3  H4  UNL     1      26.277 -14.787  47.139  1.00  0.00     0.161 HD
BRANCH   2   4
HETATM    4  C3  UNL     1      27.207 -16.556  46.736  1.00  0.00     0.116 A 
HETATM    5  C2  UNL     1      27.849 -16.581  45.522  1.00  0.00     0.162 A 
HETATM    6  N2  UNL     1      28.912 -17.399  45.363  1.00  0.00    -0.177 N 
HETATM    7  N3  UNL     1      27.481 -15.770  44.410  1.00  0.00    -0.080 NA
HETATM    8  C1  UNL     1      29.383 -18.192  46.330  1.00  0.00     0.678 A 
ATOM      9  H2  UNL     1      29.381 -17.411  44.457  1.00  0.00     0.185 HD
HETATM   10  N10 UNL     1      28.794 -18.198  47.521  1.00  0.00    -0.175 N 
HETATM   11  C12 UNL     1      27.717 -17.395  47.737  1.00  0.00     0.144 A 
ATOM     12  H10 UNL     1      29.146 -18.799  48.266  1.00  0.00     0.186 HD
BRANCH   8  13
HETATM   13  N1  UNL     1      30.406 -18.960  46.131  1.00  0.00    -0.234 N 
ATOM     14  H12 UNL     1      30.346 -19.944  46.393  1.00  0.00     0.174 HD
ATOM     15  H11 UNL     1      31.266 -18.600  45.718  1.00  0.00     0.174 HD
ENDBRANCH   8  13
BRANCH  11  16
HETATM   16  N9  UNL     1      27.227 -17.494  48.915  1.00  0.00    -0.383 N 
ATOM     17  H92 UNL     1      26.243 -17.232  48.975  1.00  0.00     0.157 HD
ATOM     18  H91 UNL     1      27.754 -17.795  49.734  1.00  0.00     0.157 HD
ENDBRANCH  11  16
ENDBRANCH   2   4
ENDBRANCH   1   2
BRANCH   1  19
HETATM   19  C5  UNL     1      23.953 -14.940  47.641  1.00  0.00     0.203 C 
HETATM   20  O1  UNL     1      24.381 -13.765  47.589  1.00  0.00    -0.646 OA
HETATM   21  O2  UNL     1      22.731 -15.166  48.249  1.00  0.00    -0.646 OA
ENDBRANCH   1  19
BRANCH   1  22
HETATM   22  C6  UNL     1      24.099 -16.358  45.726  1.00  0.00     0.110 A 
HETATM   23  C7  UNL     1      23.367 -17.449  45.344  1.00  0.00     0.145 A 
HETATM   24  N5  UNL     1      23.008 -18.586  46.104  1.00  0.00    -0.080 NA
HETATM   25  N6  UNL     1      23.002 -17.295  44.049  1.00  0.00    -0.322 N 
HETATM   26  C8  UNL     1      23.496 -16.132  43.637  1.00  0.00     0.167 A 
ATOM     27  H6  UNL     1      22.452 -17.949  43.494  1.00  0.00     0.169 HD
HETATM   28  N7  UNL     1      24.161 -15.564  44.652  1.00  0.00    -0.239 N 
BRANCH  26  29
HETATM   29  S1  UNL     1      23.283 -15.469  41.982  1.00  0.00    -0.089 SA
BRANCH  29  30
HETATM   30  C9  UNL     1      23.691 -16.747  40.734  1.00  0.00     0.116 C 
BRANCH  30  31
HETATM   31  C10 UNL     1      25.192 -16.947  40.752  1.00  0.00     0.151 C 
BRANCH  31  32
HETATM   32  O3  UNL     1      25.688 -17.171  39.477  1.00  0.00    -0.393 OA
ATOM     33  H3  UNL     1      26.480 -16.671  39.321  1.00  0.00     0.210 HD
ENDBRANCH  31  32
BRANCH  31  34
HETATM   34  C11 UNL     1      25.561 -18.101  41.657  1.00  0.00     0.196 C 
BRANCH  34  35
HETATM   35  O4  UNL     1      26.851 -17.978  42.110  1.00  0.00    -0.398 OA
ATOM     36  H4  UNL     1      26.894 -18.102  43.051  1.00  0.00     0.209 HD
ENDBRANCH  34  35
ENDBRANCH  31  34
ENDBRANCH  30  31
ENDBRANCH  29  30
ENDBRANCH  26  29
BRANCH  28  37
HETATM   37  N8  UNL     1      24.804 -14.323  44.545  1.00  0.00    -0.336 N 
ATOM     38  H82 UNL     1      24.841 -13.649  45.309  1.00  0.00     0.177 HD
ATOM     39  H81 UNL     1      25.295 -13.947  43.734  1.00  0.00     0.177 HD
ENDBRANCH  28  37
ENDBRANCH   1  22
TORSDOF 13
ENDMDL
MODEL 4
REMARK VINA RESULT: -6.991834075      1.008      1.900
REMARK  13 active torsions:
REMARK  status: ('A' for Active; 'I' for Inactive)
REMARK    1  A    between atoms: N1_1  and  C1_4 
REMARK    2  A    between atoms: C3_9  and  N4_10 
REMARK    3  A    between atoms: N4_10  and  C4_12 
REMARK    4  A    between atoms: C4_12  and  C5_13 
REMARK    5  A    between atoms: C4_12  and  C6_16 
REMARK    6  A    between atoms: C8_21  and  S1_22 
REMARK    7  A    between atoms: S1_22  and  C9_23 
REMARK    8  A    between atoms: C9_23  and  C10_24 
REMARK    9  A    between atoms: C10_24  and  O3_25 
REMARK   10  A    between atoms: C10_24  and  C11_27 
REMARK   11  A    between atoms: C11_27  and  O4_28 
REMARK   12  A    between atoms: N7_30  and  N8_31 
REMARK   13  A    between atoms: C12_34  and  N9_35 
ROOT
HETATM    1  C4  UNL     1      23.114 -15.428  46.894  1.00  0.00     0.239 C 
ENDROOT
BRANCH   1   2
HETATM    2  N4  UNL     1      24.019 -15.139  47.951  1.00  0.00    -0.365 N 
ATOM      3  H4  UNL     1      24.296 -14.159  48.011  1.00  0.00     0.161 HD
BRANCH   2   4
HETATM    4  C3  UNL     1      24.596 -15.958  48.921  1.00  0.00     0.116 A 
HETATM    5  C2  UNL     1      24.031 -16.180  50.153  1.00  0.00     0.162 A 
HETATM    6  N2  UNL     1      24.686 -16.960  51.041  1.00  0.00    -0.177 N 
HETATM    7  N3  UNL     1      22.767 -15.660  50.555  1.00  0.00    -0.080 NA
HETATM    8  C1  UNL     1      25.865 -17.535  50.786  1.00  0.00     0.678 A 
ATOM      9  H2  UNL     1      24.259 -17.118  51.953  1.00  0.00     0.185 HD
HETATM   10  N10 UNL     1      26.447 -17.348  49.606  1.00  0.00    -0.175 N 
HETATM   11  C12 UNL     1      25.833 -16.571  48.674  1.00  0.00     0.144 A 
ATOM     12  H10 UNL     1      27.346 -17.784  49.402  1.00  0.00     0.186 HD
BRANCH   8  13
HETATM   13  N1  UNL     1      26.457 -18.275  51.669  1.00  0.00    -0.234 N 
ATOM     14  H12 UNL     1      26.172 -19.250  51.770  1.00  0.00     0.174 HD
ATOM     15  H11 UNL     1      27.198 -17.902  52.261  1.00  0.00     0.174 HD
ENDBRANCH   8  13
BRANCH  11  16
HETATM   16  N9  UNL     1      26.491 -16.454  47.583  1.00  0.00    -0.383 N 
ATOM     17  H92 UNL     1      27.436 -16.091  47.710  1.00  0.00     0.157 HD
ATOM     18  H91 UNL     1      26.123 -16.686  46.661  1.00  0.00     0.157 HD
ENDBRANCH  11  16
ENDBRANCH   2   4
ENDBRANCH   1   2
BRANCH   1  19
HETATM   19  C5  UNL     1      21.975 -14.447  46.958  1.00  0.00     0.203 C 
HETATM   20  O1  UNL     1      22.028 -13.301  46.457  1.00  0.00    -0.646 OA
HETATM   21  O2  UNL     1      20.812 -14.828  47.602  1.00  0.00    -0.646 OA
ENDBRANCH   1  19
BRANCH   1  22
HETATM   22  C6  UNL     1      23.740 -15.222  45.549  1.00  0.00     0.110 A 
HETATM   23  C7  UNL     1      24.831 -14.445  45.269  1.00  0.00     0.145 A 
HETATM   24  N5  UNL     1      25.614 -13.667  46.151  1.00  0.00    -0.080 NA
HETATM   25  N6  UNL     1      25.086 -14.520  43.941  1.00  0.00    -0.322 N 
HETATM   26  C8  UNL     1      24.174 -15.327  43.409  1.00  0.00     0.167 A 
ATOM     27  H6  UNL     1      25.838 -14.045  43.442  1.00  0.00     0.169 HD
HETATM   28  N7  UNL     1      23.358 -15.752  44.383  1.00  0.00    -0.239 N 
BRANCH  26  29
HETATM   29  S1  UNL     1      24.087 -15.750  41.666  1.00  0.00    -0.089 SA
BRANCH  29  30
HETATM   30  C9  UNL     1      24.560 -17.503  41.419  1.00  0.00     0.116 C 
BRANCH  30  31
HETATM   31  C10 UNL     1      25.651 -17.831  42.416  1.00  0.00     0.151 C 
BRANCH  31  32
HETATM   32  O3  UNL     1      26.902 -17.832  41.815  1.00  0.00    -0.393 OA
ATOM     33  H3  UNL     1      27.213 -18.717  41.665  1.00  0.00     0.210 HD
ENDBRANCH  31  32
BRANCH  31  34
HETATM   34  C11 UNL     1      25.391 -19.172  43.063  1.00  0.00     0.196 C 
BRANCH  34  35
HETATM   35  O4  UNL     1      25.194 -20.146  42.115  1.00  0.00    -0.398 OA
ATOM     36  H4  UNL     1      24.635 -19.830  41.414  1.00  0.00     0.209 HD
ENDBRANCH  34  35
ENDBRANCH  31  34
ENDBRANCH  30  31
ENDBRANCH  29  30
ENDBRANCH  26  29
BRANCH  28  37
HETATM   37  N8  UNL     1      22.283 -16.622  44.152  1.00  0.00    -0.336 N 
ATOM     38  H82 UNL     1      21.965 -16.876  43.217  1.00  0.00     0.177 HD
ATOM     39  H81 UNL     1      21.706 -17.093  44.849  1.00  0.00     0.177 HD
ENDBRANCH  28  37
ENDBRANCH   1  22
TORSDOF 13
ENDMDL
MODEL 5
REMARK VINA RESULT: -6.978341682      3.099      4.423
REMARK  13 active torsions:
REMARK  status: ('A' for Active; 'I' for Inactive)
REMARK    1  A    between atoms: N1_1  and  C1_4 
REMARK    2  A    between atoms: C3_9  and  N4_10 
REMARK    3  A    between atoms: N4_10  and  C4_12 
REMARK    4  A    between atoms: C4_12  and  C5_13 
REMARK    5  A    between atoms: C4_12  and  C6_16 
REMARK    6  A    between atoms: C8_21  and  S1_22 
REMARK    7  A    between atoms: S1_22  and  C9_23 
REMARK    8  A    between atoms: C9_23  and  C10_24 
REMARK    9  A    between atoms: C10_24  and  O3_25 
REMARK   10  A    between atoms: C10_24  and  C11_27 
REMARK   11  A    between atoms: C11_27  and  O4_28 
REMARK   12  A    between atoms: N7_30  and  N8_31 
REMARK   13  A    between atoms: C12_34  and  N9_35 
ROOT
HETATM    1  C4  UNL     1      24.961 -15.569  46.383  1.00  0.00     0.239 C 
ENDROOT
BRANCH   1   2
HETATM    2  N4  UNL     1      26.312 -15.471  46.817  1.00  0.00    -0.365 N 
ATOM      3  H4  UNL     1      26.519 -14.632  47.358  1.00  0.00     0.161 HD
BRANCH   2   4
HETATM    4  C3  UNL     1      27.403 -16.321  46.635  1.00  0.00     0.116 A 
HETATM    5  C2  UNL     1      28.350 -16.132  45.657  1.00  0.00     0.162 A 
HETATM    6  N2  UNL     1      29.350 -17.032  45.535  1.00  0.00    -0.177 N 
HETATM    7  N3  UNL     1      28.365 -15.019  44.768  1.00  0.00    -0.080 NA
HETATM    8  C1  UNL     1      29.474 -18.106  46.321  1.00  0.00     0.678 A 
ATOM      9  H2  UNL     1      30.047 -16.883  44.806  1.00  0.00     0.185 HD
HETATM   10  N10 UNL     1      28.582 -18.326  47.281  1.00  0.00    -0.175 N 
HETATM   11  C12 UNL     1      27.553 -17.453  47.448  1.00  0.00     0.144 A 
ATOM     12  H10 UNL     1      28.669 -19.142  47.886  1.00  0.00     0.186 HD
BRANCH   8  13
HETATM   13  N1  UNL     1      30.451 -18.942  46.166  1.00  0.00    -0.234 N 
ATOM     14  H12 UNL     1      31.388 -18.581  45.988  1.00  0.00     0.174 HD
ATOM     15  H11 UNL     1      30.300 -19.949  46.220  1.00  0.00     0.174 HD
ENDBRANCH   8  13
BRANCH  11  16
HETATM   16  N9  UNL     1      26.751 -17.773  48.393  1.00  0.00    -0.383 N 
ATOM     17  H92 UNL     1      27.161 -18.400  49.086  1.00  0.00     0.157 HD
ATOM     18  H91 UNL     1      25.786 -17.451  48.463  1.00  0.00     0.157 HD
ENDBRANCH  11  16
ENDBRANCH   2   4
ENDBRANCH   1   2
BRANCH   1  19
HETATM   19  C5  UNL     1      24.562 -14.258  45.765  1.00  0.00     0.203 C 
HETATM   20  O1  UNL     1      25.314 -13.258  45.731  1.00  0.00    -0.646 OA
HETATM   21  O2  UNL     1      23.301 -14.149  45.206  1.00  0.00    -0.646 OA
ENDBRANCH   1  19
BRANCH   1  22
HETATM   22  C6  UNL     1      24.796 -16.587  45.297  1.00  0.00     0.110 A 
HETATM   23  C7  UNL     1      24.304 -17.856  45.438  1.00  0.00     0.145 A 
HETATM   24  N5  UNL     1      23.844 -18.504  46.607  1.00  0.00    -0.080 NA
HETATM   25  N6  UNL     1      24.313 -18.461  44.226  1.00  0.00    -0.322 N 
HETATM   26  C8  UNL     1      24.799 -17.586  43.352  1.00  0.00     0.167 A 
ATOM     27  H6  UNL     1      24.005 -19.411  44.023  1.00  0.00     0.169 HD
HETATM   28  N7  UNL     1      25.092 -16.450  44.001  1.00  0.00    -0.239 N 
BRANCH  26  29
HETATM   29  S1  UNL     1      25.011 -17.913  41.599  1.00  0.00    -0.089 SA
BRANCH  29  30
HETATM   30  C9  UNL     1      24.328 -16.527  40.613  1.00  0.00     0.116 C 
BRANCH  30  31
HETATM   31  C10 UNL     1      22.819 -16.603  40.694  1.00  0.00     0.151 C 
BRANCH  31  32
HETATM   32  O3  UNL     1      22.226 -16.153  39.524  1.00  0.00    -0.393 OA
ATOM     33  H3  UNL     1      21.994 -16.876  38.953  1.00  0.00     0.210 HD
ENDBRANCH  31  32
BRANCH  31  34
HETATM   34  C11 UNL     1      22.311 -15.799  41.870  1.00  0.00     0.196 C 
BRANCH  34  35
HETATM   35  O4  UNL     1      23.072 -14.671  42.060  1.00  0.00    -0.398 OA
ATOM     36  H4  UNL     1      23.060 -14.119  41.287  1.00  0.00     0.209 HD
ENDBRANCH  34  35
ENDBRANCH  31  34
ENDBRANCH  30  31
ENDBRANCH  29  30
ENDBRANCH  26  29
BRANCH  28  37
HETATM   37  N8  UNL     1      25.626 -15.322  43.362  1.00  0.00    -0.336 N 
ATOM     38  H82 UNL     1      25.099 -14.762  42.692  1.00  0.00     0.177 HD
ATOM     39  H81 UNL     1      26.560 -14.930  43.475  1.00  0.00     0.177 HD
ENDBRANCH  28  37
ENDBRANCH   1  22
TORSDOF 13
ENDMDL
