MODEL 1
REMARK VINA RESULT: -4.747025438      0.000      0.000
REMARK  3 active torsions:
REMARK  status: ('A' for Active; 'I' for Inactive)
REMARK    1  A    between atoms: N1_2  and  C3_4 
REMARK    2  A    between atoms: C3_4  and  C4_5 
REMARK    3  A    between atoms: C9_10  and  N2_11 
ROOT
HETATM    1  C4  UNL     1     -17.025 -17.427  17.172  1.00  0.00     0.054 C 
HETATM    2  C5  UNL     1     -15.725 -17.749  16.523  1.00  0.00     0.012 C 
HETATM    3  C6  UNL     1     -14.559 -17.926  17.464  1.00  0.00     0.001 C 
HETATM    4  C7  UNL     1     -14.866 -18.691  18.703  1.00  0.00     0.002 C 
HETATM    5  C8  UNL     1     -16.176 -19.439  18.441  1.00  0.00     0.033 C 
HETATM    6  C9  UNL     1     -17.228 -18.350  18.358  1.00  0.00     0.192 C 
ENDROOT
BRANCH   1   7
HETATM    7  C3  UNL     1     -18.147 -17.498  16.199  1.00  0.00     0.064 C 
BRANCH   7   8
HETATM    8  N1  UNL     1     -19.087 -16.484  16.128  1.00  0.00    -0.401 N 
HETATM    9  C1  UNL     1     -20.380 -16.637  15.647  1.00  0.00     0.148 C 
HETATM   10  C2  UNL     1     -18.892 -15.300  16.897  1.00  0.00     0.148 C 
ENDBRANCH   7   8
ENDBRANCH   1   7
BRANCH   6  11
HETATM   11  N2  UNL     1     -18.517 -19.012  18.316  1.00  0.00    -0.074 N 
ATOM     12  H23 UNL     1     -18.754 -19.419  19.221  1.00  0.00     0.274 HD
ATOM     13  H22 UNL     1     -19.277 -18.338  18.239  1.00  0.00     0.274 HD
ATOM     14  H21 UNL     1     -18.563 -19.709  17.572  1.00  0.00     0.274 HD
ENDBRANCH   6  11
TORSDOF 3
ENDMDL
MODEL 2
REMARK VINA RESULT: -4.646340736      1.781      3.958
REMARK  3 active torsions:
REMARK  status: ('A' for Active; 'I' for Inactive)
REMARK    1  A    between atoms: N1_2  and  C3_4 
REMARK    2  A    between atoms: C3_4  and  C4_5 
REMARK    3  A    between atoms: C9_10  and  N2_11 
ROOT
HETATM    1  C4  UNL     1     -17.518 -17.799  16.917  1.00  0.00     0.054 C 
HETATM    2  C5  UNL     1     -17.786 -16.384  16.544  1.00  0.00     0.012 C 
HETATM    3  C6  UNL     1     -19.175 -16.103  16.028  1.00  0.00     0.001 C 
HETATM    4  C7  UNL     1     -20.268 -16.792  16.766  1.00  0.00     0.002 C 
HETATM    5  C8  UNL     1     -19.675 -17.241  18.105  1.00  0.00     0.033 C 
HETATM    6  C9  UNL     1     -18.679 -18.324  17.738  1.00  0.00     0.192 C 
ENDROOT
BRANCH   1   7
HETATM    7  C3  UNL     1     -16.216 -17.934  17.623  1.00  0.00     0.064 C 
BRANCH   7   8
HETATM    8  N1  UNL     1     -15.029 -17.621  16.983  1.00  0.00    -0.401 N 
HETATM    9  C1  UNL     1     -14.601 -18.188  15.791  1.00  0.00     0.148 C 
HETATM   10  C2  UNL     1     -14.349 -16.417  17.329  1.00  0.00     0.148 C 
ENDBRANCH   7   8
ENDBRANCH   1   7
BRANCH   6  11
HETATM   11  N2  UNL     1     -18.237 -18.927  18.980  1.00  0.00    -0.074 N 
ATOM     12  H23 UNL     1     -18.483 -19.916  19.019  1.00  0.00     0.274 HD
ATOM     13  H22 UNL     1     -17.222 -19.012  19.009  1.00  0.00     0.274 HD
ATOM     14  H21 UNL     1     -18.591 -18.425  19.795  1.00  0.00     0.274 HD
ENDBRANCH   6  11
TORSDOF 3
ENDMDL
MODEL 3
REMARK VINA RESULT: -4.526750074      1.897      4.485
REMARK  3 active torsions:
REMARK  status: ('A' for Active; 'I' for Inactive)
REMARK    1  A    between atoms: N1_2  and  C3_4 
REMARK    2  A    between atoms: C3_4  and  C4_5 
REMARK    3  A    between atoms: C9_10  and  N2_11 
ROOT
HETATM    1  C4  UNL     1     -17.944 -16.862  17.855  1.00  0.00     0.054 C 
HETATM    2  C5  UNL     1     -18.780 -17.975  18.381  1.00  0.00     0.012 C 
HETATM    3  C6  UNL     1     -19.949 -17.557  19.237  1.00  0.00     0.001 C 
HETATM    4  C7  UNL     1     -20.698 -16.371  18.739  1.00  0.00     0.002 C 
HETATM    5  C8  UNL     1     -20.309 -16.197  17.268  1.00  0.00     0.033 C 
HETATM    6  C9  UNL     1     -18.852 -15.778  17.305  1.00  0.00     0.192 C 
ENDROOT
BRANCH   1   7
HETATM    7  C3  UNL     1     -16.966 -17.350  16.847  1.00  0.00     0.064 C 
BRANCH   7   8
HETATM    8  N1  UNL     1     -15.653 -17.605  17.202  1.00  0.00    -0.401 N 
HETATM    9  C1  UNL     1     -14.634 -16.662  17.190  1.00  0.00     0.148 C 
HETATM   10  C2  UNL     1     -15.351 -18.774  17.959  1.00  0.00     0.148 C 
ENDBRANCH   7   8
ENDBRANCH   1   7
BRANCH   6  11
HETATM   11  N2  UNL     1     -18.488 -15.400  15.954  1.00  0.00    -0.074 N 
ATOM     12  H23 UNL     1     -17.617 -14.870  15.940  1.00  0.00     0.274 HD
ATOM     13  H22 UNL     1     -18.193 -16.210  15.410  1.00  0.00     0.274 HD
ATOM     14  H21 UNL     1     -19.239 -14.893  15.485  1.00  0.00     0.274 HD
ENDBRANCH   6  11
TORSDOF 3
ENDMDL
MODEL 4
REMARK VINA RESULT: -4.520048005      8.270      9.154
REMARK  3 active torsions:
REMARK  status: ('A' for Active; 'I' for Inactive)
REMARK    1  A    between atoms: N1_2  and  C3_4 
REMARK    2  A    between atoms: C3_4  and  C4_5 
REMARK    3  A    between atoms: C9_10  and  N2_11 
ROOT
HETATM    1  C4  UNL     1     -24.337 -16.455  22.770  1.00  0.00     0.054 C 
HETATM    2  C5  UNL     1     -22.901 -16.646  22.431  1.00  0.00     0.012 C 
HETATM    3  C6  UNL     1     -21.941 -16.516  23.587  1.00  0.00     0.001 C 
HETATM    4  C7  UNL     1     -22.394 -17.157  24.852  1.00  0.00     0.002 C 
HETATM    5  C8  UNL     1     -23.513 -18.130  24.471  1.00  0.00     0.033 C 
HETATM    6  C9  UNL     1     -24.658 -17.241  24.027  1.00  0.00     0.192 C 
ENDROOT
BRANCH   1   7
HETATM    7  C3  UNL     1     -25.216 -16.826  21.629  1.00  0.00     0.064 C 
BRANCH   7   8
HETATM    8  N1  UNL     1     -26.068 -15.894  21.062  1.00  0.00    -0.401 N 
HETATM    9  C1  UNL     1     -27.233 -15.426  21.654  1.00  0.00     0.148 C 
HETATM   10  C2  UNL     1     -25.597 -15.083  19.989  1.00  0.00     0.148 C 
ENDBRANCH   7   8
ENDBRANCH   1   7
BRANCH   6  11
HETATM   11  N2  UNL     1     -25.812 -18.099  23.850  1.00  0.00    -0.074 N 
ATOM     12  H23 UNL     1     -26.132 -18.478  24.742  1.00  0.00     0.274 HD
ATOM     13  H22 UNL     1     -26.640 -17.559  23.599  1.00  0.00     0.274 HD
ATOM     14  H21 UNL     1     -25.636 -18.843  23.174  1.00  0.00     0.274 HD
ENDBRANCH   6  11
TORSDOF 3
ENDMDL
MODEL 5
REMARK VINA RESULT: -4.513957055      1.949      3.100
REMARK  3 active torsions:
REMARK  status: ('A' for Active; 'I' for Inactive)
REMARK    1  A    between atoms: N1_2  and  C3_4 
REMARK    2  A    between atoms: C3_4  and  C4_5 
REMARK    3  A    between atoms: C9_10  and  N2_11 
ROOT
HETATM    1  C4  UNL     1     -19.280 -17.268  16.715  1.00  0.00     0.054 C 
HETATM    2  C5  UNL     1     -18.940 -18.059  17.929  1.00  0.00     0.012 C 
HETATM    3  C6  UNL     1     -17.589 -18.730  17.907  1.00  0.00     0.001 C 
HETATM    4  C7  UNL     1     -16.487 -17.898  17.352  1.00  0.00     0.002 C 
HETATM    5  C8  UNL     1     -16.983 -16.450  17.370  1.00  0.00     0.033 C 
HETATM    6  C9  UNL     1     -18.089 -16.411  16.334  1.00  0.00     0.192 C 
ENDROOT
BRANCH   1   7
HETATM    7  C3  UNL     1     -20.515 -16.466  16.921  1.00  0.00     0.064 C 
BRANCH   7   8
HETATM    8  N1  UNL     1     -21.603 -16.614  16.079  1.00  0.00    -0.401 N 
HETATM    9  C1  UNL     1     -21.680 -17.537  15.045  1.00  0.00     0.148 C 
HETATM   10  C2  UNL     1     -22.862 -16.070  16.465  1.00  0.00     0.148 C 
ENDBRANCH   7   8
ENDBRANCH   1   7
BRANCH   6  11
HETATM   11  N2  UNL     1     -18.455 -15.019  16.162  1.00  0.00    -0.074 N 
ATOM     12  H23 UNL     1     -19.388 -14.929  15.759  1.00  0.00     0.274 HD
ATOM     13  H22 UNL     1     -18.623 -14.566  17.060  1.00  0.00     0.274 HD
ATOM     14  H21 UNL     1     -17.763 -14.508  15.613  1.00  0.00     0.274 HD
ENDBRANCH   6  11
TORSDOF 3
ENDMDL
