MODEL 1
REMARK VINA RESULT: -5.434609167      0.000      0.000
REMARK  2 active torsions:
REMARK  status: ('A' for Active; 'I' for Inactive)
REMARK    1  A    between atoms: N1_2  and  C2_5 
REMARK    2  A    between atoms: C2_5  and  C3_6 
ROOT
HETATM    1  C3  UNL     1     -18.652 -17.959  16.508  1.00  0.00     0.012 C 
HETATM    2  C4  UNL     1     -19.299 -17.968  17.854  1.00  0.00     0.006 C 
HETATM    3  C5  UNL     1     -18.174 -17.882  18.898  1.00  0.00     0.001 C 
HETATM    4  C6  UNL     1     -16.863 -18.407  18.350  1.00  0.00     0.013 C 
HETATM    5  C7  UNL     1     -16.378 -17.542  17.227  1.00  0.00     0.008 C 
HETATM    6  C8  UNL     1     -15.445 -18.206  16.246  1.00  0.00     0.243 C 
HETATM    7  N2  UNL     1     -14.350 -17.831  17.154  1.00  0.00    -0.074 N 
ATOM      8  H21 UNL     1     -13.392 -17.721  16.822  1.00  0.00     0.277 HD
ATOM      9  H22 UNL     1     -13.994 -18.476  17.859  1.00  0.00     0.277 HD
HETATM   10  C9  UNL     1     -15.179 -16.672  17.516  1.00  0.00     0.243 C 
HETATM   11  C10 UNL     1     -17.530 -16.906  16.542  1.00  0.00     0.019 C 
ENDROOT
BRANCH   1  12
HETATM   12  C2  UNL     1     -19.598 -17.624  15.381  1.00  0.00     0.236 C 
BRANCH  12  13
HETATM   13  N1  UNL     1     -20.305 -16.424  15.808  1.00  0.00    -0.079 N 
HETATM   14  C1  UNL     1     -21.693 -16.567  15.394  1.00  0.00     0.267 C 
ATOM     15  H12 UNL     1     -19.874 -15.565  15.466  1.00  0.00     0.276 HD
ATOM     16  H11 UNL     1     -20.204 -16.236  16.805  1.00  0.00     0.276 HD
ENDBRANCH  12  13
ENDBRANCH   1  12
TORSDOF 2
ENDMDL
MODEL 2
REMARK VINA RESULT: -5.294227791      1.110      4.277
REMARK  2 active torsions:
REMARK  status: ('A' for Active; 'I' for Inactive)
REMARK    1  A    between atoms: N1_2  and  C2_5 
REMARK    2  A    between atoms: C2_5  and  C3_6 
ROOT
HETATM    1  C3  UNL     1     -17.073 -18.018  17.962  1.00  0.00     0.012 C 
HETATM    2  C4  UNL     1     -17.710 -18.620  19.171  1.00  0.00     0.006 C 
HETATM    3  C5  UNL     1     -19.219 -18.344  19.073  1.00  0.00     0.001 C 
HETATM    4  C6  UNL     1     -19.509 -17.127  18.219  1.00  0.00     0.013 C 
HETATM    5  C7  UNL     1     -19.096 -17.370  16.800  1.00  0.00     0.008 C 
HETATM    6  C8  UNL     1     -18.797 -16.137  15.985  1.00  0.00     0.243 C 
HETATM    7  N2  UNL     1     -20.233 -16.089  15.674  1.00  0.00    -0.074 N 
ATOM      8  H21 UNL     1     -20.586 -15.628  14.835  1.00  0.00     0.277 HD
ATOM      9  H22 UNL     1     -20.880 -15.518  16.218  1.00  0.00     0.277 HD
HETATM   10  C9  UNL     1     -20.208 -17.554  15.796  1.00  0.00     0.243 C 
HETATM   11  C10 UNL     1     -17.974 -18.340  16.757  1.00  0.00     0.019 C 
ENDROOT
BRANCH   1  12
HETATM   12  C2  UNL     1     -15.684 -18.539  17.682  1.00  0.00     0.236 C 
BRANCH  12  13
HETATM   13  N1  UNL     1     -15.237 -17.836  16.487  1.00  0.00    -0.079 N 
HETATM   14  C1  UNL     1     -14.349 -16.766  16.919  1.00  0.00     0.267 C 
ATOM     15  H12 UNL     1     -16.008 -17.505  15.908  1.00  0.00     0.276 HD
ATOM     16  H11 UNL     1     -14.809 -18.454  15.798  1.00  0.00     0.276 HD
ENDBRANCH  12  13
ENDBRANCH   1  12
TORSDOF 2
ENDMDL
MODEL 3
REMARK VINA RESULT: -5.165299789      7.122      8.660
REMARK  2 active torsions:
REMARK  status: ('A' for Active; 'I' for Inactive)
REMARK    1  A    between atoms: N1_2  and  C2_5 
REMARK    2  A    between atoms: C2_5  and  C3_6 
ROOT
HETATM    1  C3  UNL     1     -23.912 -17.485  23.912  1.00  0.00     0.012 C 
HETATM    2  C4  UNL     1     -23.028 -17.588  25.112  1.00  0.00     0.006 C 
HETATM    3  C5  UNL     1     -21.713 -16.870  24.768  1.00  0.00     0.001 C 
HETATM    4  C6  UNL     1     -21.469 -16.836  23.274  1.00  0.00     0.013 C 
HETATM    5  C7  UNL     1     -22.517 -16.013  22.588  1.00  0.00     0.008 C 
HETATM    6  C8  UNL     1     -22.748 -16.329  21.133  1.00  0.00     0.243 C 
HETATM    7  N2  UNL     1     -21.658 -15.388  20.836  1.00  0.00    -0.074 N 
ATOM      8  H21 UNL     1     -21.588 -14.915  19.934  1.00  0.00     0.277 HD
ATOM      9  H22 UNL     1     -20.698 -15.704  20.705  1.00  0.00     0.277 HD
HETATM   10  C9  UNL     1     -22.077 -14.674  22.050  1.00  0.00     0.243 C 
HETATM   11  C10 UNL     1     -23.781 -16.052  23.365  1.00  0.00     0.019 C 
ENDROOT
BRANCH   1  12
HETATM   12  C2  UNL     1     -25.367 -17.762  24.203  1.00  0.00     0.236 C 
BRANCH  12  13
HETATM   13  N1  UNL     1     -25.633 -19.080  23.641  1.00  0.00    -0.079 N 
HETATM   14  C1  UNL     1     -25.272 -19.032  22.232  1.00  0.00     0.267 C 
ATOM     15  H12 UNL     1     -26.591 -19.393  23.796  1.00  0.00     0.276 HD
ATOM     16  H11 UNL     1     -25.164 -19.831  24.147  1.00  0.00     0.276 HD
ENDBRANCH  12  13
ENDBRANCH   1  12
TORSDOF 2
ENDMDL
MODEL 4
REMARK VINA RESULT: -5.128997750      7.076      8.850
REMARK  2 active torsions:
REMARK  status: ('A' for Active; 'I' for Inactive)
REMARK    1  A    between atoms: N1_2  and  C2_5 
REMARK    2  A    between atoms: C2_5  and  C3_6 
ROOT
HETATM    1  C3  UNL     1     -23.574 -17.648  24.139  1.00  0.00     0.012 C 
HETATM    2  C4  UNL     1     -22.335 -17.324  24.905  1.00  0.00     0.006 C 
HETATM    3  C5  UNL     1     -21.383 -16.599  23.941  1.00  0.00     0.001 C 
HETATM    4  C6  UNL     1     -21.672 -16.955  22.498  1.00  0.00     0.013 C 
HETATM    5  C7  UNL     1     -23.031 -16.466  22.098  1.00  0.00     0.008 C 
HETATM    6  C8  UNL     1     -23.675 -17.194  20.945  1.00  0.00     0.243 C 
HETATM    7  N2  UNL     1     -22.959 -16.265  20.059  1.00  0.00    -0.074 N 
ATOM      8  H21 UNL     1     -23.293 -16.056  19.118  1.00  0.00     0.277 HD
ATOM      9  H22 UNL     1     -22.057 -16.505  19.647  1.00  0.00     0.277 HD
HETATM   10  C9  UNL     1     -23.073 -15.290  21.153  1.00  0.00     0.243 C 
HETATM   11  C10 UNL     1     -23.922 -16.418  23.282  1.00  0.00     0.019 C 
ENDROOT
BRANCH   1  12
HETATM   12  C2  UNL     1     -24.760 -17.983  25.012  1.00  0.00     0.236 C 
BRANCH  12  13
HETATM   13  N1  UNL     1     -25.778 -18.500  24.108  1.00  0.00    -0.079 N 
HETATM   14  C1  UNL     1     -25.210 -19.656  23.430  1.00  0.00     0.267 C 
ATOM     15  H12 UNL     1     -26.133 -17.794  23.463  1.00  0.00     0.276 HD
ATOM     16  H11 UNL     1     -26.659 -18.707  24.577  1.00  0.00     0.276 HD
ENDBRANCH  12  13
ENDBRANCH   1  12
TORSDOF 2
ENDMDL
MODEL 5
REMARK VINA RESULT: -5.091206435      6.929      8.953
REMARK  2 active torsions:
REMARK  status: ('A' for Active; 'I' for Inactive)
REMARK    1  A    between atoms: N1_2  and  C2_5 
REMARK    2  A    between atoms: C2_5  and  C3_6 
ROOT
HETATM    1  C3  UNL     1     -22.446 -16.061  22.743  1.00  0.00     0.012 C 
HETATM    2  C4  UNL     1     -21.400 -16.496  23.715  1.00  0.00     0.006 C 
HETATM    3  C5  UNL     1     -22.066 -17.486  24.684  1.00  0.00     0.001 C 
HETATM    4  C6  UNL     1     -23.562 -17.265  24.768  1.00  0.00     0.013 C 
HETATM    5  C7  UNL     1     -24.211 -17.559  23.450  1.00  0.00     0.008 C 
HETATM    6  C8  UNL     1     -25.534 -16.878  23.206  1.00  0.00     0.243 C 
HETATM    7  N2  UNL     1     -26.159 -18.017  23.894  1.00  0.00    -0.074 N 
ATOM      8  H21 UNL     1     -27.130 -18.279  23.723  1.00  0.00     0.277 HD
ATOM      9  H22 UNL     1     -26.379 -17.987  24.889  1.00  0.00     0.277 HD
HETATM   10  C9  UNL     1     -25.041 -18.818  23.374  1.00  0.00     0.243 C 
HETATM   11  C10 UNL     1     -23.254 -17.309  22.345  1.00  0.00     0.019 C 
ENDROOT
BRANCH   1  12
HETATM   12  C2  UNL     1     -21.888 -15.425  21.493  1.00  0.00     0.236 C 
BRANCH  12  13
HETATM   13  N1  UNL     1     -22.486 -16.154  20.383  1.00  0.00    -0.079 N 
HETATM   14  C1  UNL     1     -21.754 -15.790  19.179  1.00  0.00     0.267 C 
ATOM     15  H12 UNL     1     -23.491 -16.000  20.300  1.00  0.00     0.276 HD
ATOM     16  H11 UNL     1     -22.519 -17.162  20.540  1.00  0.00     0.276 HD
ENDBRANCH  12  13
ENDBRANCH   1  12
TORSDOF 2
ENDMDL
