MODEL 1
REMARK VINA RESULT: -6.496248766      0.000      0.000
REMARK  14 active torsions:
REMARK  status: ('A' for Active; 'I' for Inactive)
REMARK    1  A    between atoms: C1_4  and  N2_5 
REMARK    2  A    between atoms: N2_5  and  C2_7 
REMARK    3  A    between atoms: C2_7  and  C3_8 
REMARK    4  A    between atoms: C3_8  and  N3_9 
REMARK    5  A    between atoms: C3_8  and  C7_18 
REMARK    6  A    between atoms: N3_9  and  C4_12 
REMARK    7  A    between atoms: C4_12  and  C5_13 
REMARK    8  A    between atoms: C5_13  and  N4_14 
REMARK    9  A    between atoms: N4_14  and  C6_16 
REMARK   10  A    between atoms: C7_18  and  O2_19 
REMARK   11  A    between atoms: C7_18  and  N5_21 
REMARK   12  A    between atoms: N5_21  and  C8_23 
REMARK   13  A    between atoms: C8_23  and  C9_24 
REMARK   14  A    between atoms: C8_23  and  C10_27 
ROOT
HETATM    1  C3  UNL     1      59.743  37.384  46.247  1.00  0.00     0.277 C 
ENDROOT
BRANCH   1   2
HETATM    2  C2  UNL     1      58.477  37.310  45.515  1.00  0.00     0.162 C 
BRANCH   2   3
HETATM    3  N2  UNL     1      58.383  36.332  44.461  1.00  0.00    -0.384 N 
ATOM      4  H2  UNL     1      57.812  35.491  44.552  1.00  0.00     0.160 HD
BRANCH   3   5
HETATM    5  C1  UNL     1      59.145  36.611  43.268  1.00  0.00     0.168 C 
HETATM    6  N1  UNL     1      58.829  36.129  42.114  1.00  0.00    -0.396 N 
ATOM      7  H12 UNL     1      58.007  35.529  42.060  1.00  0.00     0.156 HD
ATOM      8  H11 UNL     1      59.368  36.327  41.271  1.00  0.00     0.156 HD
ENDBRANCH   3   5
ENDBRANCH   2   3
ENDBRANCH   1   2
BRANCH   1   9
HETATM    9  N3  UNL     1      59.713  38.532  47.163  1.00  0.00    -0.060 N 
ATOM     10  H32 UNL     1      58.985  38.423  47.868  1.00  0.00     0.278 HD
ATOM     11  H31 UNL     1      60.529  38.538  47.774  1.00  0.00     0.278 HD
BRANCH   9  12
HETATM   12  C4  UNL     1      59.579  39.763  46.469  1.00  0.00     0.253 C 
BRANCH  12  13
HETATM   13  C5  UNL     1      60.918  40.020  45.762  1.00  0.00     0.149 C 
BRANCH  13  14
HETATM   14  N4  UNL     1      60.722  40.336  44.375  1.00  0.00    -0.367 N 
ATOM     15  H4  UNL     1      60.064  39.794  43.814  1.00  0.00     0.161 HD
BRANCH  14  16
HETATM   16  C6  UNL     1      61.439  41.395  43.790  1.00  0.00     0.348 C 
HETATM   17  O1  UNL     1      60.981  42.574  43.827  1.00  0.00    -0.284 OA
ENDBRANCH  14  16
ENDBRANCH  13  14
ENDBRANCH  12  13
ENDBRANCH   9  12
ENDBRANCH   1   9
BRANCH   1  18
HETATM   18  C7  UNL     1      60.190  36.209  47.005  1.00  0.00     0.145 C 
BRANCH  18  19
HETATM   19  O2  UNL     1      60.343  35.112  46.318  1.00  0.00    -0.348 OA
ATOM     20  H2  UNL     1      59.593  34.834  45.807  1.00  0.00     0.219 HD
ENDBRANCH  18  19
BRANCH  18  21
HETATM   21  N5  UNL     1      60.466  36.145  48.367  1.00  0.00    -0.352 N 
ATOM     22  H5  UNL     1      61.295  36.606  48.741  1.00  0.00     0.162 HD
BRANCH  21  23
HETATM   23  C8  UNL     1      59.559  35.409  49.272  1.00  0.00     0.262 C 
BRANCH  23  24
HETATM   24  C9  UNL     1      60.316  34.342  49.961  1.00  0.00     0.262 C 
HETATM   25  N6  UNL     1      61.433  34.645  50.773  1.00  0.00    -0.060 NA
HETATM   26  O3  UNL     1      59.983  33.142  49.839  1.00  0.00    -0.274 OA
ENDBRANCH  23  24
BRANCH  23  27
HETATM   27  C10 UNL     1      58.973  36.352  50.233  1.00  0.00     0.262 C 
HETATM   28  N7  UNL     1      58.133  35.880  51.274  1.00  0.00    -0.060 NA
HETATM   29  O4  UNL     1      59.212  37.584  50.136  1.00  0.00    -0.274 OA
ENDBRANCH  23  27
ENDBRANCH  21  23
ENDBRANCH  18  21
ENDBRANCH   1  18
TORSDOF 14
ENDMDL
MODEL 2
REMARK VINA RESULT: -6.362151022      1.555      1.621
REMARK  14 active torsions:
REMARK  status: ('A' for Active; 'I' for Inactive)
REMARK    1  A    between atoms: C1_4  and  N2_5 
REMARK    2  A    between atoms: N2_5  and  C2_7 
REMARK    3  A    between atoms: C2_7  and  C3_8 
REMARK    4  A    between atoms: C3_8  and  N3_9 
REMARK    5  A    between atoms: C3_8  and  C7_18 
REMARK    6  A    between atoms: N3_9  and  C4_12 
REMARK    7  A    between atoms: C4_12  and  C5_13 
REMARK    8  A    between atoms: C5_13  and  N4_14 
REMARK    9  A    between atoms: N4_14  and  C6_16 
REMARK   10  A    between atoms: C7_18  and  O2_19 
REMARK   11  A    between atoms: C7_18  and  N5_21 
REMARK   12  A    between atoms: N5_21  and  C8_23 
REMARK   13  A    between atoms: C8_23  and  C9_24 
REMARK   14  A    between atoms: C8_23  and  C10_27 
ROOT
HETATM    1  C3  UNL     1      59.727  37.297  46.206  1.00  0.00     0.277 C 
ENDROOT
BRANCH   1   2
HETATM    2  C2  UNL     1      58.460  37.223  45.475  1.00  0.00     0.162 C 
BRANCH   2   3
HETATM    3  N2  UNL     1      58.375  36.266  44.401  1.00  0.00    -0.384 N 
ATOM      4  H2  UNL     1      57.844  35.399  44.490  1.00  0.00     0.160 HD
BRANCH   3   5
HETATM    5  C1  UNL     1      59.088  36.604  43.193  1.00  0.00     0.168 C 
HETATM    6  N1  UNL     1      58.739  37.585  42.433  1.00  0.00    -0.396 N 
ATOM      7  H12 UNL     1      57.925  38.134  42.712  1.00  0.00     0.156 HD
ATOM      8  H11 UNL     1      59.242  37.825  41.580  1.00  0.00     0.156 HD
ENDBRANCH   3   5
ENDBRANCH   2   3
ENDBRANCH   1   2
BRANCH   1   9
HETATM    9  N3  UNL     1      59.694  38.439  47.129  1.00  0.00    -0.060 N 
ATOM     10  H32 UNL     1      58.813  38.477  47.640  1.00  0.00     0.278 HD
ATOM     11  H31 UNL     1      60.330  38.298  47.914  1.00  0.00     0.278 HD
BRANCH   9  12
HETATM   12  C4  UNL     1      59.958  39.666  46.465  1.00  0.00     0.253 C 
BRANCH  12  13
HETATM   13  C5  UNL     1      58.837  40.636  46.867  1.00  0.00     0.149 C 
BRANCH  13  14
HETATM   14  N4  UNL     1      57.904  40.827  45.791  1.00  0.00    -0.367 N 
ATOM     15  H4  UNL     1      56.908  40.927  45.988  1.00  0.00     0.161 HD
BRANCH  14  16
HETATM   16  C6  UNL     1      58.367  40.877  44.465  1.00  0.00     0.348 C 
HETATM   17  O1  UNL     1      57.867  40.119  43.583  1.00  0.00    -0.284 OA
ENDBRANCH  14  16
ENDBRANCH  13  14
ENDBRANCH  12  13
ENDBRANCH   9  12
ENDBRANCH   1   9
BRANCH   1  18
HETATM   18  C7  UNL     1      60.178  36.119  46.957  1.00  0.00     0.145 C 
BRANCH  18  19
HETATM   19  O2  UNL     1      60.333  35.026  46.264  1.00  0.00    -0.348 OA
ATOM     20  H2  UNL     1      59.571  34.730  45.779  1.00  0.00     0.219 HD
ENDBRANCH  18  19
BRANCH  18  21
HETATM   21  N5  UNL     1      60.458  36.048  48.318  1.00  0.00    -0.352 N 
ATOM     22  H5  UNL     1      61.300  36.487  48.688  1.00  0.00     0.162 HD
BRANCH  21  23
HETATM   23  C8  UNL     1      59.535  35.337  49.226  1.00  0.00     0.262 C 
BRANCH  23  24
HETATM   24  C9  UNL     1      60.260  34.235  49.894  1.00  0.00     0.262 C 
HETATM   25  N6  UNL     1      59.863  32.889  49.722  1.00  0.00    -0.060 NA
HETATM   26  O3  UNL     1      61.243  34.470  50.631  1.00  0.00    -0.274 OA
ENDBRANCH  23  24
BRANCH  23  27
HETATM   27  C10 UNL     1      58.997  36.291  50.205  1.00  0.00     0.262 C 
HETATM   28  N7  UNL     1      58.171  35.837  51.264  1.00  0.00    -0.060 NA
HETATM   29  O4  UNL     1      59.266  37.517  50.107  1.00  0.00    -0.274 OA
ENDBRANCH  23  27
ENDBRANCH  21  23
ENDBRANCH  18  21
ENDBRANCH   1  18
TORSDOF 14
ENDMDL
MODEL 3
REMARK VINA RESULT: -6.187601678      1.638      2.909
REMARK  14 active torsions:
REMARK  status: ('A' for Active; 'I' for Inactive)
REMARK    1  A    between atoms: C1_4  and  N2_5 
REMARK    2  A    between atoms: N2_5  and  C2_7 
REMARK    3  A    between atoms: C2_7  and  C3_8 
REMARK    4  A    between atoms: C3_8  and  N3_9 
REMARK    5  A    between atoms: C3_8  and  C7_18 
REMARK    6  A    between atoms: N3_9  and  C4_12 
REMARK    7  A    between atoms: C4_12  and  C5_13 
REMARK    8  A    between atoms: C5_13  and  N4_14 
REMARK    9  A    between atoms: N4_14  and  C6_16 
REMARK   10  A    between atoms: C7_18  and  O2_19 
REMARK   11  A    between atoms: C7_18  and  N5_21 
REMARK   12  A    between atoms: N5_21  and  C8_23 
REMARK   13  A    between atoms: C8_23  and  C9_24 
REMARK   14  A    between atoms: C8_23  and  C10_27 
ROOT
HETATM    1  C3  UNL     1      59.721  37.397  46.250  1.00  0.00     0.277 C 
ENDROOT
BRANCH   1   2
HETATM    2  C2  UNL     1      60.451  38.658  46.394  1.00  0.00     0.162 C 
BRANCH   2   3
HETATM    3  N2  UNL     1      59.987  39.779  45.617  1.00  0.00    -0.384 N 
ATOM      4  H2  UNL     1      60.529  40.159  44.840  1.00  0.00     0.160 HD
BRANCH   3   5
HETATM    5  C1  UNL     1      58.712  40.333  46.002  1.00  0.00     0.168 C 
HETATM    6  N1  UNL     1      57.689  40.330  45.218  1.00  0.00    -0.396 N 
ATOM      7  H12 UNL     1      57.802  39.917  44.293  1.00  0.00     0.156 HD
ATOM      8  H11 UNL     1      56.788  40.722  45.490  1.00  0.00     0.156 HD
ENDBRANCH   3   5
ENDBRANCH   2   3
ENDBRANCH   1   2
BRANCH   1   9
HETATM    9  N3  UNL     1      59.665  37.022  44.831  1.00  0.00    -0.060 N 
ATOM     10  H32 UNL     1      60.102  37.731  44.243  1.00  0.00     0.278 HD
ATOM     11  H31 UNL     1      60.288  36.240  44.630  1.00  0.00     0.278 HD
BRANCH   9  12
HETATM   12  C4  UNL     1      58.338  36.747  44.405  1.00  0.00     0.253 C 
BRANCH  12  13
HETATM   13  C5  UNL     1      58.346  36.805  42.871  1.00  0.00     0.149 C 
BRANCH  13  14
HETATM   14  N4  UNL     1      57.801  38.046  42.394  1.00  0.00    -0.367 N 
ATOM     15  H4  UNL     1      56.790  38.184  42.369  1.00  0.00     0.161 HD
BRANCH  14  16
HETATM   16  C6  UNL     1      58.663  39.069  41.963  1.00  0.00     0.348 C 
HETATM   17  O1  UNL     1      59.566  39.511  42.732  1.00  0.00    -0.284 OA
ENDBRANCH  14  16
ENDBRANCH  13  14
ENDBRANCH  12  13
ENDBRANCH   9  12
ENDBRANCH   1   9
BRANCH   1  18
HETATM   18  C7  UNL     1      60.175  36.227  47.011  1.00  0.00     0.145 C 
BRANCH  18  19
HETATM   19  O2  UNL     1      60.362  35.136  46.322  1.00  0.00    -0.348 OA
ATOM     20  H2  UNL     1      61.266  34.916  46.129  1.00  0.00     0.219 HD
ENDBRANCH  18  19
BRANCH  18  21
HETATM   21  N5  UNL     1      60.427  36.161  48.377  1.00  0.00    -0.352 N 
ATOM     22  H5  UNL     1      61.239  36.638  48.769  1.00  0.00     0.162 HD
BRANCH  21  23
HETATM   23  C8  UNL     1      59.520  35.401  49.261  1.00  0.00     0.262 C 
BRANCH  23  24
HETATM   24  C9  UNL     1      60.261  34.279  49.875  1.00  0.00     0.262 C 
HETATM   25  N6  UNL     1      59.847  32.940  49.689  1.00  0.00    -0.060 NA
HETATM   26  O3  UNL     1      61.276  34.491  50.577  1.00  0.00    -0.274 OA
ENDBRANCH  23  24
BRANCH  23  27
HETATM   27  C10 UNL     1      58.979  36.306  50.284  1.00  0.00     0.262 C 
HETATM   28  N7  UNL     1      58.152  35.799  51.319  1.00  0.00    -0.060 NA
HETATM   29  O4  UNL     1      59.246  37.535  50.247  1.00  0.00    -0.274 OA
ENDBRANCH  23  27
ENDBRANCH  21  23
ENDBRANCH  18  21
ENDBRANCH   1  18
TORSDOF 14
ENDMDL
MODEL 4
REMARK VINA RESULT: -6.182701117      2.089      3.644
REMARK  14 active torsions:
REMARK  status: ('A' for Active; 'I' for Inactive)
REMARK    1  A    between atoms: C1_4  and  N2_5 
REMARK    2  A    between atoms: N2_5  and  C2_7 
REMARK    3  A    between atoms: C2_7  and  C3_8 
REMARK    4  A    between atoms: C3_8  and  N3_9 
REMARK    5  A    between atoms: C3_8  and  C7_18 
REMARK    6  A    between atoms: N3_9  and  C4_12 
REMARK    7  A    between atoms: C4_12  and  C5_13 
REMARK    8  A    between atoms: C5_13  and  N4_14 
REMARK    9  A    between atoms: N4_14  and  C6_16 
REMARK   10  A    between atoms: C7_18  and  O2_19 
REMARK   11  A    between atoms: C7_18  and  N5_21 
REMARK   12  A    between atoms: N5_21  and  C8_23 
REMARK   13  A    between atoms: C8_23  and  C9_24 
REMARK   14  A    between atoms: C8_23  and  C10_27 
ROOT
HETATM    1  C3  UNL     1      59.415  37.171  46.184  1.00  0.00     0.277 C 
ENDROOT
BRANCH   1   2
HETATM    2  C2  UNL     1      60.125  38.439  46.003  1.00  0.00     0.162 C 
BRANCH   2   3
HETATM    3  N2  UNL     1      59.520  39.618  46.570  1.00  0.00    -0.384 N 
ATOM      4  H2  UNL     1      59.598  39.841  47.562  1.00  0.00     0.160 HD
BRANCH   3   5
HETATM    5  C1  UNL     1      58.798  40.464  45.651  1.00  0.00     0.168 C 
HETATM    6  N1  UNL     1      57.591  40.211  45.277  1.00  0.00    -0.396 N 
ATOM      7  H12 UNL     1      57.143  39.376  45.655  1.00  0.00     0.156 HD
ATOM      8  H11 UNL     1      57.080  40.809  44.628  1.00  0.00     0.156 HD
ENDBRANCH   3   5
ENDBRANCH   2   3
ENDBRANCH   1   2
BRANCH   1   9
HETATM    9  N3  UNL     1      59.084  36.602  44.871  1.00  0.00    -0.060 N 
ATOM     10  H32 UNL     1      59.337  35.616  44.821  1.00  0.00     0.278 HD
ATOM     11  H31 UNL     1      58.075  36.515  44.750  1.00  0.00     0.278 HD
BRANCH   9  12
HETATM   12  C4  UNL     1      59.670  37.340  43.809  1.00  0.00     0.253 C 
BRANCH  12  13
HETATM   13  C5  UNL     1      58.729  37.201  42.603  1.00  0.00     0.149 C 
BRANCH  13  14
HETATM   14  N4  UNL     1      58.860  35.909  41.988  1.00  0.00    -0.367 N 
ATOM     15  H4  UNL     1      59.287  35.138  42.503  1.00  0.00     0.161 HD
BRANCH  14  16
HETATM   16  C6  UNL     1      58.399  35.708  40.676  1.00  0.00     0.348 C 
HETATM   17  O1  UNL     1      58.508  34.574  40.126  1.00  0.00    -0.284 OA
ENDBRANCH  14  16
ENDBRANCH  13  14
ENDBRANCH  12  13
ENDBRANCH   9  12
ENDBRANCH   1   9
BRANCH   1  18
HETATM   18  C7  UNL     1      60.046  36.118  46.990  1.00  0.00     0.145 C 
BRANCH  18  19
HETATM   19  O2  UNL     1      60.371  35.030  46.350  1.00  0.00    -0.348 OA
ATOM     20  H2  UNL     1      61.003  34.467  46.783  1.00  0.00     0.219 HD
ENDBRANCH  18  19
BRANCH  18  21
HETATM   21  N5  UNL     1      60.331  36.160  48.350  1.00  0.00    -0.352 N 
ATOM     22  H5  UNL     1      61.128  36.700  48.687  1.00  0.00     0.162 HD
BRANCH  21  23
HETATM   23  C8  UNL     1      59.481  35.424  49.308  1.00  0.00     0.262 C 
BRANCH  23  24
HETATM   24  C9  UNL     1      60.271  34.342  49.933  1.00  0.00     0.262 C 
HETATM   25  N6  UNL     1      61.407  34.630  50.724  1.00  0.00    -0.060 NA
HETATM   26  O3  UNL     1      59.952  33.143  49.773  1.00  0.00    -0.274 OA
ENDBRANCH  23  24
BRANCH  23  27
HETATM   27  C10 UNL     1      58.971  36.363  50.316  1.00  0.00     0.262 C 
HETATM   28  N7  UNL     1      58.171  35.893  51.389  1.00  0.00    -0.060 NA
HETATM   29  O4  UNL     1      59.243  37.589  50.233  1.00  0.00    -0.274 OA
ENDBRANCH  23  27
ENDBRANCH  21  23
ENDBRANCH  18  21
ENDBRANCH   1  18
TORSDOF 14
ENDMDL
MODEL 5
REMARK VINA RESULT: -6.110186125      2.031      6.535
REMARK  14 active torsions:
REMARK  status: ('A' for Active; 'I' for Inactive)
REMARK    1  A    between atoms: C1_4  and  N2_5 
REMARK    2  A    between atoms: N2_5  and  C2_7 
REMARK    3  A    between atoms: C2_7  and  C3_8 
REMARK    4  A    between atoms: C3_8  and  N3_9 
REMARK    5  A    between atoms: C3_8  and  C7_18 
REMARK    6  A    between atoms: N3_9  and  C4_12 
REMARK    7  A    between atoms: C4_12  and  C5_13 
REMARK    8  A    between atoms: C5_13  and  N4_14 
REMARK    9  A    between atoms: N4_14  and  C6_16 
REMARK   10  A    between atoms: C7_18  and  O2_19 
REMARK   11  A    between atoms: C7_18  and  N5_21 
REMARK   12  A    between atoms: N5_21  and  C8_23 
REMARK   13  A    between atoms: C8_23  and  C9_24 
REMARK   14  A    between atoms: C8_23  and  C10_27 
ROOT
HETATM    1  C3  UNL     1      59.464  37.057  49.065  1.00  0.00     0.277 C 
ENDROOT
BRANCH   1   2
HETATM    2  C2  UNL     1      59.108  35.637  49.037  1.00  0.00     0.162 C 
BRANCH   2   3
HETATM    3  N2  UNL     1      60.168  34.699  48.767  1.00  0.00    -0.384 N 
ATOM      4  H2  UNL     1      60.976  34.946  48.197  1.00  0.00     0.160 HD
BRANCH   3   5
HETATM    5  C1  UNL     1      60.017  33.388  49.350  1.00  0.00     0.168 C 
HETATM    6  N1  UNL     1      60.884  32.449  49.181  1.00  0.00    -0.396 N 
ATOM      7  H12 UNL     1      61.702  32.657  48.609  1.00  0.00     0.156 HD
ATOM      8  H11 UNL     1      60.777  31.522  49.593  1.00  0.00     0.156 HD
ENDBRANCH   3   5
ENDBRANCH   2   3
ENDBRANCH   1   2
BRANCH   1   9
HETATM    9  N3  UNL     1      59.167  37.611  50.392  1.00  0.00    -0.060 N 
ATOM     10  H32 UNL     1      59.997  38.030  50.812  1.00  0.00     0.278 HD
ATOM     11  H31 UNL     1      58.584  38.444  50.324  1.00  0.00     0.278 HD
BRANCH   9  12
HETATM   12  C4  UNL     1      58.586  36.644  51.254  1.00  0.00     0.253 C 
BRANCH  12  13
HETATM   13  C5  UNL     1      59.559  36.457  52.428  1.00  0.00     0.149 C 
BRANCH  13  14
HETATM   14  N4  UNL     1      60.233  35.191  52.348  1.00  0.00    -0.367 N 
ATOM     15  H4  UNL     1      59.702  34.323  52.427  1.00  0.00     0.161 HD
BRANCH  14  16
HETATM   16  C6  UNL     1      61.625  35.150  52.161  1.00  0.00     0.348 C 
HETATM   17  O1  UNL     1      62.113  34.713  51.077  1.00  0.00    -0.284 OA
ENDBRANCH  14  16
ENDBRANCH  13  14
ENDBRANCH  12  13
ENDBRANCH   9  12
ENDBRANCH   1   9
BRANCH   1  18
HETATM   18  C7  UNL     1      60.832  37.449  48.704  1.00  0.00     0.145 C 
BRANCH  18  19
HETATM   19  O2  UNL     1      61.735  37.286  49.630  1.00  0.00    -0.348 OA
ATOM     20  H2  UNL     1      62.571  36.942  49.338  1.00  0.00     0.219 HD
ENDBRANCH  18  19
BRANCH  18  21
HETATM   21  N5  UNL     1      61.262  37.971  47.488  1.00  0.00    -0.352 N 
ATOM     22  H5  UNL     1      62.210  38.336  47.397  1.00  0.00     0.162 HD
BRANCH  21  23
HETATM   23  C8  UNL     1      60.347  37.996  46.329  1.00  0.00     0.262 C 
BRANCH  23  24
HETATM   24  C9  UNL     1      60.633  39.190  45.505  1.00  0.00     0.262 C 
HETATM   25  N6  UNL     1      60.419  39.183  44.107  1.00  0.00    -0.060 NA
HETATM   26  O3  UNL     1      61.074  40.237  46.029  1.00  0.00    -0.274 OA
ENDBRANCH  23  24
BRANCH  23  27
HETATM   27  C10 UNL     1      60.521  36.760  45.555  1.00  0.00     0.262 C 
HETATM   28  N7  UNL     1      59.391  35.993  45.171  1.00  0.00    -0.060 NA
HETATM   29  O4  UNL     1      61.674  36.375  45.229  1.00  0.00    -0.274 OA
ENDBRANCH  23  27
ENDBRANCH  21  23
ENDBRANCH  18  21
ENDBRANCH   1  18
TORSDOF 14
ENDMDL
