MODEL 1
REMARK VINA RESULT: -4.750215271      0.000      0.000
REMARK  6 active torsions:
REMARK  status: ('A' for Active; 'I' for Inactive)
REMARK    1  A    between atoms: N1_1  and  C1_5 
REMARK    2  A    between atoms: C1_5  and  C2_6 
REMARK    3  A    between atoms: C2_6  and  S1_7 
REMARK    4  A    between atoms: S1_7  and  S2_8 
REMARK    5  A    between atoms: S2_8  and  C3_9 
REMARK    6  A    between atoms: N2_10  and  O1_11 
ROOT
HETATM    1  C3  UNL     1       6.791   6.825  24.566  1.00  0.00     0.210 C 
HETATM    2  N2  UNL     1       7.341   6.662  23.421  1.00  0.00    -0.123 N 
HETATM    3  N3  UNL     1       7.389   5.298  23.086  1.00  0.00     0.022 NA
HETATM    4  N4  UNL     1       7.136   4.566  24.252  1.00  0.00    -0.004 NA
HETATM    5  N5  UNL     1       6.462   5.530  25.021  1.00  0.00    -0.262 N 
ATOM      6  H5  UNL     1       5.828   5.324  25.793  1.00  0.00     0.186 HD
ENDROOT
BRANCH   1   7
HETATM    7  S2  UNL     1       6.509   8.348  25.399  1.00  0.00    -0.017 SA
BRANCH   7   8
HETATM    8  S1  UNL     1       5.059   9.454  24.307  1.00  0.00    -0.088 SA
BRANCH   8   9
HETATM    9  C2  UNL     1       4.322   8.319  23.099  1.00  0.00     0.114 C 
BRANCH   9  10
HETATM   10  C1  UNL     1       4.383   9.005  21.747  1.00  0.00     0.240 C 
BRANCH  10  11
HETATM   11  N1  UNL     1       5.518   8.526  20.967  1.00  0.00    -0.079 N 
ATOM     12  H13 UNL     1       6.117   9.293  20.664  1.00  0.00     0.274 HD
ATOM     13  H12 UNL     1       6.189   8.025  21.549  1.00  0.00     0.274 HD
ATOM     14  H11 UNL     1       5.207   7.958  20.178  1.00  0.00     0.274 HD
ENDBRANCH  10  11
ENDBRANCH   9  10
ENDBRANCH   8   9
ENDBRANCH   7   8
ENDBRANCH   1   7
BRANCH   2  15
HETATM   15  O1  UNL     1       7.849   7.627  22.551  1.00  0.00    -0.268 OA
ATOM     16  H1  UNL     1       7.379   8.197  21.954  1.00  0.00     0.246 HD
ENDBRANCH   2  15
TORSDOF 6
ENDMDL
MODEL 2
REMARK VINA RESULT: -4.697793954      3.363      3.934
REMARK  6 active torsions:
REMARK  status: ('A' for Active; 'I' for Inactive)
REMARK    1  A    between atoms: N1_1  and  C1_5 
REMARK    2  A    between atoms: C1_5  and  C2_6 
REMARK    3  A    between atoms: C2_6  and  S1_7 
REMARK    4  A    between atoms: S1_7  and  S2_8 
REMARK    5  A    between atoms: S2_8  and  C3_9 
REMARK    6  A    between atoms: N2_10  and  O1_11 
ROOT
HETATM    1  C3  UNL     1       5.890   9.112  25.218  1.00  0.00     0.210 C 
HETATM    2  N2  UNL     1       5.549  10.103  24.482  1.00  0.00    -0.123 N 
HETATM    3  N3  UNL     1       6.323  11.235  24.792  1.00  0.00     0.022 NA
HETATM    4  N4  UNL     1       6.956  10.995  26.016  1.00  0.00    -0.004 NA
HETATM    5  N5  UNL     1       6.922   9.591  26.053  1.00  0.00    -0.262 N 
ATOM      6  H5  UNL     1       7.551   9.004  26.602  1.00  0.00     0.186 HD
ENDROOT
BRANCH   1   7
HETATM    7  S2  UNL     1       5.208   7.491  25.193  1.00  0.00    -0.017 SA
BRANCH   7   8
HETATM    8  S1  UNL     1       5.674   6.593  23.325  1.00  0.00    -0.088 SA
BRANCH   8   9
HETATM    9  C2  UNL     1       7.200   7.370  22.725  1.00  0.00     0.114 C 
BRANCH   9  10
HETATM   10  C1  UNL     1       6.812   8.302  21.593  1.00  0.00     0.240 C 
BRANCH  10  11
HETATM   11  N1  UNL     1       5.374   8.270  21.358  1.00  0.00    -0.079 N 
ATOM     12  H13 UNL     1       4.867   7.929  22.175  1.00  0.00     0.274 HD
ATOM     13  H12 UNL     1       4.979   9.210  21.312  1.00  0.00     0.274 HD
ATOM     14  H11 UNL     1       5.151   7.727  20.524  1.00  0.00     0.274 HD
ENDBRANCH  10  11
ENDBRANCH   9  10
ENDBRANCH   8   9
ENDBRANCH   7   8
ENDBRANCH   1   7
BRANCH   2  15
HETATM   15  O1  UNL     1       4.571  10.159  23.490  1.00  0.00    -0.268 OA
ATOM     16  H1  UNL     1       3.706  10.549  23.528  1.00  0.00     0.246 HD
ENDBRANCH   2  15
TORSDOF 6
ENDMDL
MODEL 3
REMARK VINA RESULT: -4.680493430      3.043      3.694
REMARK  6 active torsions:
REMARK  status: ('A' for Active; 'I' for Inactive)
REMARK    1  A    between atoms: N1_1  and  C1_5 
REMARK    2  A    between atoms: C1_5  and  C2_6 
REMARK    3  A    between atoms: C2_6  and  S1_7 
REMARK    4  A    between atoms: S1_7  and  S2_8 
REMARK    5  A    between atoms: S2_8  and  C3_9 
REMARK    6  A    between atoms: N2_10  and  O1_11 
ROOT
HETATM    1  C3  UNL     1       5.709   8.792  24.833  1.00  0.00     0.210 C 
HETATM    2  N2  UNL     1       5.453  10.022  24.584  1.00  0.00    -0.123 N 
HETATM    3  N3  UNL     1       4.129  10.169  24.134  1.00  0.00     0.022 NA
HETATM    4  N4  UNL     1       3.656   8.898  23.789  1.00  0.00    -0.004 NA
HETATM    5  N5  UNL     1       4.523   8.086  24.539  1.00  0.00    -0.262 N 
ATOM      6  H5  UNL     1       4.324   7.128  24.829  1.00  0.00     0.186 HD
ENDROOT
BRANCH   1   7
HETATM    7  S2  UNL     1       7.227   8.124  25.419  1.00  0.00    -0.017 SA
BRANCH   7   8
HETATM    8  S1  UNL     1       8.092   6.956  23.868  1.00  0.00    -0.088 SA
BRANCH   8   9
HETATM    9  C2  UNL     1       6.860   6.836  22.541  1.00  0.00     0.114 C 
BRANCH   9  10
HETATM   10  C1  UNL     1       6.918   8.135  21.759  1.00  0.00     0.240 C 
BRANCH  10  11
HETATM   11  N1  UNL     1       5.641   8.415  21.113  1.00  0.00    -0.079 N 
ATOM     12  H13 UNL     1       4.894   7.829  21.487  1.00  0.00     0.274 HD
ATOM     13  H12 UNL     1       5.274   9.327  21.385  1.00  0.00     0.274 HD
ATOM     14  H11 UNL     1       5.716   8.326  20.100  1.00  0.00     0.274 HD
ENDBRANCH  10  11
ENDBRANCH   9  10
ENDBRANCH   8   9
ENDBRANCH   7   8
ENDBRANCH   1   7
BRANCH   2  15
HETATM   15  O1  UNL     1       6.290  11.131  24.708  1.00  0.00    -0.268 OA
ATOM     16  H1  UNL     1       6.684  11.495  25.492  1.00  0.00     0.246 HD
ENDBRANCH   2  15
TORSDOF 6
ENDMDL
MODEL 4
REMARK VINA RESULT: -4.480996991      3.117      3.882
REMARK  6 active torsions:
REMARK  status: ('A' for Active; 'I' for Inactive)
REMARK    1  A    between atoms: N1_1  and  C1_5 
REMARK    2  A    between atoms: C1_5  and  C2_6 
REMARK    3  A    between atoms: C2_6  and  S1_7 
REMARK    4  A    between atoms: S1_7  and  S2_8 
REMARK    5  A    between atoms: S2_8  and  C3_9 
REMARK    6  A    between atoms: N2_10  and  O1_11 
ROOT
HETATM    1  C3  UNL     1       5.467   8.484  24.977  1.00  0.00     0.210 C 
HETATM    2  N2  UNL     1       4.691   8.922  24.057  1.00  0.00    -0.123 N 
HETATM    3  N3  UNL     1       4.967  10.272  23.781  1.00  0.00     0.022 NA
HETATM    4  N4  UNL     1       5.751  10.768  24.828  1.00  0.00    -0.004 NA
HETATM    5  N5  UNL     1       6.290   9.573  25.336  1.00  0.00    -0.262 N 
ATOM      6  H5  UNL     1       7.149   9.504  25.882  1.00  0.00     0.186 HD
ENDROOT
BRANCH   1   7
HETATM    7  S2  UNL     1       5.496   6.861  25.654  1.00  0.00    -0.017 SA
BRANCH   7   8
HETATM    8  S1  UNL     1       6.744   5.646  24.436  1.00  0.00    -0.088 SA
BRANCH   8   9
HETATM    9  C2  UNL     1       6.294   5.981  22.710  1.00  0.00     0.114 C 
BRANCH   9  10
HETATM   10  C1  UNL     1       7.079   7.203  22.273  1.00  0.00     0.240 C 
BRANCH  10  11
HETATM   11  N1  UNL     1       6.274   8.062  21.412  1.00  0.00    -0.079 N 
ATOM     12  H13 UNL     1       5.374   8.284  21.838  1.00  0.00     0.274 HD
ATOM     13  H12 UNL     1       6.657   9.006  21.359  1.00  0.00     0.274 HD
ATOM     14  H11 UNL     1       6.161   7.650  20.486  1.00  0.00     0.274 HD
ENDBRANCH  10  11
ENDBRANCH   9  10
ENDBRANCH   8   9
ENDBRANCH   7   8
ENDBRANCH   1   7
BRANCH   2  15
HETATM   15  O1  UNL     1       3.688   8.244  23.365  1.00  0.00    -0.268 OA
ATOM     16  H1  UNL     1       2.746   8.305  23.471  1.00  0.00     0.246 HD
ENDBRANCH   2  15
TORSDOF 6
ENDMDL
MODEL 5
REMARK VINA RESULT: -4.403122711      2.924      4.968
REMARK  6 active torsions:
REMARK  status: ('A' for Active; 'I' for Inactive)
REMARK    1  A    between atoms: N1_1  and  C1_5 
REMARK    2  A    between atoms: C1_5  and  C2_6 
REMARK    3  A    between atoms: C2_6  and  S1_7 
REMARK    4  A    between atoms: S1_7  and  S2_8 
REMARK    5  A    between atoms: S2_8  and  C3_9 
REMARK    6  A    between atoms: N2_10  and  O1_11 
ROOT
HETATM    1  C3  UNL     1       5.157   7.775  23.081  1.00  0.00     0.210 C 
HETATM    2  N2  UNL     1       5.067   8.622  22.125  1.00  0.00    -0.123 N 
HETATM    3  N3  UNL     1       4.317   9.741  22.527  1.00  0.00     0.022 NA
HETATM    4  N4  UNL     1       3.643   9.399  23.705  1.00  0.00    -0.004 NA
HETATM    5  N5  UNL     1       4.442   8.337  24.161  1.00  0.00    -0.262 N 
ATOM      6  H5  UNL     1       4.497   8.020  25.129  1.00  0.00     0.186 HD
ENDROOT
BRANCH   1   7
HETATM    7  S2  UNL     1       5.996   6.229  23.052  1.00  0.00    -0.017 SA
BRANCH   7   8
HETATM    8  S1  UNL     1       7.938   6.501  23.872  1.00  0.00    -0.088 SA
BRANCH   8   9
HETATM    9  C2  UNL     1       8.665   4.852  24.078  1.00  0.00     0.114 C 
BRANCH   9  10
HETATM   10  C1  UNL     1      10.172   5.028  24.104  1.00  0.00     0.240 C 
BRANCH  10  11
HETATM   11  N1  UNL     1      10.832   4.015  23.289  1.00  0.00    -0.079 N 
ATOM     12  H13 UNL     1      11.144   3.224  23.853  1.00  0.00     0.274 HD
ATOM     13  H12 UNL     1      10.168   3.524  22.688  1.00  0.00     0.274 HD
ATOM     14  H11 UNL     1      11.598   4.419  22.751  1.00  0.00     0.274 HD
ENDBRANCH  10  11
ENDBRANCH   9  10
ENDBRANCH   8   9
ENDBRANCH   7   8
ENDBRANCH   1   7
BRANCH   2  15
HETATM   15  O1  UNL     1       5.598   8.546  20.838  1.00  0.00    -0.268 OA
ATOM     16  H1  UNL     1       5.795   7.774  20.320  1.00  0.00     0.246 HD
ENDBRANCH   2  15
TORSDOF 6
ENDMDL
