MODEL 1
REMARK VINA RESULT: -5.766753435      0.000      0.000
REMARK  1 active torsions:
REMARK  status: ('A' for Active; 'I' for Inactive)
REMARK    1  A    between atoms: C9_11  and  N1_13 
ROOT
HETATM    1  C1  UNL     1      20.453  -1.589  13.495  1.00  0.00     0.046 C 
HETATM    2  C2  UNL     1      21.339  -1.475  12.519  1.00  0.00     0.047 C 
HETATM    3  O1  UNL     1      20.977  -1.475  11.176  1.00  0.00    -0.316 OA
HETATM    4  C3  UNL     1      22.043  -1.326  10.255  1.00  0.00     0.202 C 
HETATM    5  C4  UNL     1      21.630  -1.416   8.816  1.00  0.00     0.082 C 
HETATM    6  O2  UNL     1      23.137  -2.140  10.613  1.00  0.00    -0.338 OA
HETATM    7  C5  UNL     1      23.521  -1.117  11.487  1.00  0.00     0.108 C 
HETATM    8  C6  UNL     1      24.994  -0.902  11.622  1.00  0.00     0.050 C 
HETATM    9  C7  UNL     1      22.801  -1.335  12.767  1.00  0.00     0.075 C 
HETATM   10  C8  UNL     1      23.116  -0.346  13.843  1.00  0.00     0.020 C 
HETATM   11  C9  UNL     1      22.908  -0.150  10.542  1.00  0.00     0.206 C 
HETATM   12  C10 UNL     1      22.289   1.082  11.080  1.00  0.00     0.055 C 
ENDROOT
BRANCH  11  13
HETATM   13  N1  UNL     1      23.797   0.124   9.430  1.00  0.00    -0.062 N 
ATOM     14  H13 UNL     1      23.524  -0.393   8.594  1.00  0.00     0.275 HD
ATOM     15  H12 UNL     1      23.673   1.072   9.073  1.00  0.00     0.275 HD
ATOM     16  H11 UNL     1      24.768  -0.058   9.685  1.00  0.00     0.275 HD
ENDBRANCH  11  13
TORSDOF 1
ENDMDL
MODEL 2
REMARK VINA RESULT: -5.661160974      1.829      2.872
REMARK  1 active torsions:
REMARK  status: ('A' for Active; 'I' for Inactive)
REMARK    1  A    between atoms: C9_11  and  N1_13 
ROOT
HETATM    1  C1  UNL     1      23.941  -3.486   9.637  1.00  0.00     0.046 C 
HETATM    2  C2  UNL     1      23.896  -2.229  10.048  1.00  0.00     0.047 C 
HETATM    3  O1  UNL     1      22.951  -1.321   9.582  1.00  0.00    -0.316 OA
HETATM    4  C3  UNL     1      23.026  -0.020  10.135  1.00  0.00     0.202 C 
HETATM    5  C4  UNL     1      22.051   0.956   9.548  1.00  0.00     0.082 C 
HETATM    6  O2  UNL     1      24.362   0.431  10.185  1.00  0.00    -0.338 OA
HETATM    7  C5  UNL     1      24.479  -0.274  11.388  1.00  0.00     0.108 C 
HETATM    8  C6  UNL     1      25.336   0.368  12.431  1.00  0.00     0.050 C 
HETATM    9  C7  UNL     1      24.850  -1.671  11.047  1.00  0.00     0.075 C 
HETATM   10  C8  UNL     1      25.053  -2.572  12.223  1.00  0.00     0.020 C 
HETATM   11  C9  UNL     1      23.038  -0.013  11.623  1.00  0.00     0.206 C 
HETATM   12  C10 UNL     1      22.236  -1.022  12.350  1.00  0.00     0.055 C 
ENDROOT
BRANCH  11  13
HETATM   13  N1  UNL     1      22.829   1.327  12.137  1.00  0.00    -0.062 N 
ATOM     14  H13 UNL     1      23.369   1.493  12.986  1.00  0.00     0.275 HD
ATOM     15  H12 UNL     1      23.261   2.031  11.538  1.00  0.00     0.275 HD
ATOM     16  H11 UNL     1      21.836   1.512  12.280  1.00  0.00     0.275 HD
ENDBRANCH  11  13
TORSDOF 1
ENDMDL
MODEL 3
REMARK VINA RESULT: -5.656386777      2.018      3.040
REMARK  1 active torsions:
REMARK  status: ('A' for Active; 'I' for Inactive)
REMARK    1  A    between atoms: C9_11  and  N1_13 
ROOT
HETATM    1  C1  UNL     1      24.384   0.193  13.611  1.00  0.00     0.046 C 
HETATM    2  C2  UNL     1      24.163  -0.116  12.344  1.00  0.00     0.047 C 
HETATM    3  O1  UNL     1      24.810  -1.169  11.705  1.00  0.00    -0.316 OA
HETATM    4  C3  UNL     1      24.448  -1.379  10.352  1.00  0.00     0.202 C 
HETATM    5  C4  UNL     1      25.225  -2.464   9.669  1.00  0.00     0.082 C 
HETATM    6  O2  UNL     1      24.387  -0.158   9.650  1.00  0.00    -0.338 OA
HETATM    7  C5  UNL     1      23.089  -0.015  10.154  1.00  0.00     0.108 C 
HETATM    8  C6  UNL     1      22.103   0.619   9.228  1.00  0.00     0.050 C 
HETATM    9  C7  UNL     1      23.202   0.632  11.486  1.00  0.00     0.075 C 
HETATM   10  C8  UNL     1      21.898   0.897  12.168  1.00  0.00     0.020 C 
HETATM   11  C9  UNL     1      22.979  -1.495  10.147  1.00  0.00     0.206 C 
HETATM   12  C10 UNL     1      22.160  -2.156  11.188  1.00  0.00     0.055 C 
ENDROOT
BRANCH  11  13
HETATM   13  N1  UNL     1      22.677  -1.987   8.817  1.00  0.00    -0.062 N 
ATOM     14  H13 UNL     1      23.518  -2.061   8.244  1.00  0.00     0.275 HD
ATOM     15  H12 UNL     1      22.412  -2.972   8.832  1.00  0.00     0.275 HD
ATOM     16  H11 UNL     1      21.964  -1.412   8.368  1.00  0.00     0.275 HD
ENDBRANCH  11  13
TORSDOF 1
ENDMDL
MODEL 4
REMARK VINA RESULT: -5.654915232      1.993      2.952
REMARK  1 active torsions:
REMARK  status: ('A' for Active; 'I' for Inactive)
REMARK    1  A    between atoms: C9_11  and  N1_13 
ROOT
HETATM    1  C1  UNL     1      24.704  -3.755  11.195  1.00  0.00     0.046 C 
HETATM    2  C2  UNL     1      24.534  -2.460  11.402  1.00  0.00     0.047 C 
HETATM    3  O1  UNL     1      24.193  -1.576  10.383  1.00  0.00    -0.316 OA
HETATM    4  C3  UNL     1      24.030  -0.224  10.774  1.00  0.00     0.202 C 
HETATM    5  C4  UNL     1      23.749   0.714   9.639  1.00  0.00     0.082 C 
HETATM    6  O2  UNL     1      25.068   0.180  11.638  1.00  0.00    -0.338 OA
HETATM    7  C5  UNL     1      24.327  -0.390  12.679  1.00  0.00     0.108 C 
HETATM    8  C6  UNL     1      24.389   0.333  13.986  1.00  0.00     0.050 C 
HETATM    9  C7  UNL     1      24.689  -1.829  12.742  1.00  0.00     0.075 C 
HETATM   10  C8  UNL     1      24.012  -2.600  13.830  1.00  0.00     0.020 C 
HETATM   11  C9  UNL     1      23.098  -0.052  11.920  1.00  0.00     0.206 C 
HETATM   12  C10 UNL     1      21.922  -0.944  12.028  1.00  0.00     0.055 C 
ENDROOT
BRANCH  11  13
HETATM   13  N1  UNL     1      22.745   1.343  12.097  1.00  0.00    -0.062 N 
ATOM     14  H13 UNL     1      23.499   1.869  12.539  1.00  0.00     0.275 HD
ATOM     15  H12 UNL     1      22.712   1.839  11.206  1.00  0.00     0.275 HD
ATOM     16  H11 UNL     1      21.869   1.436  12.611  1.00  0.00     0.275 HD
ENDBRANCH  11  13
TORSDOF 1
ENDMDL
MODEL 5
REMARK VINA RESULT: -5.558564619      1.488      3.138
REMARK  1 active torsions:
REMARK  status: ('A' for Active; 'I' for Inactive)
REMARK    1  A    between atoms: C9_11  and  N1_13 
ROOT
HETATM    1  C1  UNL     1      21.290  -3.320  11.808  1.00  0.00     0.046 C 
HETATM    2  C2  UNL     1      21.833  -2.116  11.735  1.00  0.00     0.047 C 
HETATM    3  O1  UNL     1      22.626  -1.589  12.750  1.00  0.00    -0.316 OA
HETATM    4  C3  UNL     1      23.147  -0.294  12.509  1.00  0.00     0.202 C 
HETATM    5  C4  UNL     1      23.925   0.279  13.656  1.00  0.00     0.082 C 
HETATM    6  O2  UNL     1      22.158   0.557  11.976  1.00  0.00    -0.338 OA
HETATM    7  C5  UNL     1      22.466   0.013  10.724  1.00  0.00     0.108 C 
HETATM    8  C6  UNL     1      22.405   0.965   9.573  1.00  0.00     0.050 C 
HETATM    9  C7  UNL     1      21.649  -1.216  10.563  1.00  0.00     0.075 C 
HETATM   10  C8  UNL     1      21.823  -1.921   9.256  1.00  0.00     0.020 C 
HETATM   11  C9  UNL     1      23.856  -0.178  11.206  1.00  0.00     0.206 C 
HETATM   12  C10 UNL     1      24.634  -1.335  10.709  1.00  0.00     0.055 C 
ENDROOT
BRANCH  11  13
HETATM   13  N1  UNL     1      24.607   1.060  11.133  1.00  0.00    -0.062 N 
ATOM     14  H13 UNL     1      25.181   1.102  10.291  1.00  0.00     0.275 HD
ATOM     15  H12 UNL     1      24.000   1.858  10.946  1.00  0.00     0.275 HD
ATOM     16  H11 UNL     1      25.164   1.200  11.976  1.00  0.00     0.275 HD
ENDBRANCH  11  13
TORSDOF 1
ENDMDL
