MODEL 1
REMARK VINA RESULT: -6.754361156      0.000      0.000
REMARK  12 active torsions:
REMARK  status: ('A' for Active; 'I' for Inactive)
REMARK    1  A    between atoms: C2_2  and  C3_3 
REMARK    2  A    between atoms: C2_2  and  N7_24 
REMARK    3  A    between atoms: C3_3  and  N1_4 
REMARK    4  A    between atoms: C4_11  and  C5_12 
REMARK    5  A    between atoms: C5_12  and  N5_13 
REMARK    6  A    between atoms: N5_13  and  C6_16 
REMARK    7  A    between atoms: C6_16  and  O1_17 
REMARK    8  A    between atoms: C6_16  and  C7_19 
REMARK    9  A    between atoms: C7_19  and  N6_20 
REMARK   10  A    between atoms: N7_24  and  C8_26 
REMARK   11  A    between atoms: C10_30  and  N9_31 
REMARK   12  A    between atoms: C11_36  and  N11_37 
ROOT
HETATM    1  N1  UNL     1      -5.965  -2.122 -10.887  1.00  0.00    -0.260 N 
HETATM    2  N2  UNL     1      -6.369  -1.566 -12.039  1.00  0.00    -0.225 N 
ATOM      3  H2  UNL     1      -7.334  -1.320 -12.260  1.00  0.00     0.210 HD
HETATM    4  N3  UNL     1      -5.346  -1.385 -12.841  1.00  0.00    -0.227 N 
ATOM      5  H3  UNL     1      -5.364  -0.982 -13.778  1.00  0.00     0.210 HD
HETATM    6  N4  UNL     1      -4.301  -1.825 -12.194  1.00  0.00    -0.271 N 
ATOM      7  H4  UNL     1      -3.350  -1.817 -12.562  1.00  0.00     0.190 HD
HETATM    8  C4  UNL     1      -4.648  -2.298 -10.961  1.00  0.00     0.141 A 
ENDROOT
BRANCH   1   9
HETATM    9  C3  UNL     1      -6.864  -2.410  -9.830  1.00  0.00     0.176 C 
BRANCH   9  10
HETATM   10  C2  UNL     1      -7.503  -3.770  -9.839  1.00  0.00     0.098 C 
HETATM   11  C1  UNL     1      -8.944  -3.669 -10.262  1.00  0.00     0.034 C 
BRANCH  10  12
HETATM   12  N7  UNL     1      -7.343  -4.367  -8.533  1.00  0.00    -0.380 N 
ATOM     13  H7  UNL     1      -8.191  -4.694  -8.071  1.00  0.00     0.160 HD
BRANCH  12  14
HETATM   14  C8  UNL     1      -6.139  -4.542  -7.837  1.00  0.00     0.089 A 
HETATM   15  C9  UNL     1      -5.639  -3.612  -6.954  1.00  0.00     0.139 A 
HETATM   16  N8  UNL     1      -4.488  -3.789  -6.271  1.00  0.00    -0.200 N 
HETATM   17  C10 UNL     1      -3.795  -4.918  -6.453  1.00  0.00     0.677 A 
ATOM     18  H8  UNL     1      -4.152  -3.073  -5.627  1.00  0.00     0.183 HD
HETATM   19  N10 UNL     1      -4.264  -5.826  -7.301  1.00  0.00    -0.175 N 
HETATM   20  C11 UNL     1      -5.396  -5.705  -8.005  1.00  0.00     0.142 A 
ATOM     21  H10 UNL     1      -3.720  -6.679  -7.427  1.00  0.00     0.186 HD
BRANCH  17  22
HETATM   22  N9  UNL     1      -2.689  -5.103  -5.803  1.00  0.00    -0.234 N 
ATOM     23  H92 UNL     1      -1.868  -4.522  -5.970  1.00  0.00     0.174 HD
ATOM     24  H91 UNL     1      -2.631  -5.845  -5.105  1.00  0.00     0.174 HD
ENDBRANCH  17  22
BRANCH  20  25
HETATM   25  N11 UNL     1      -5.809  -6.637  -8.829  1.00  0.00    -0.383 N 
ATOM     26 2H11 UNL     1      -6.363  -7.434  -8.515  1.00  0.00     0.157 HD
ATOM     27 1H11 UNL     1      -5.578  -6.583  -9.822  1.00  0.00     0.157 HD
ENDBRANCH  20  25
ENDBRANCH  12  14
ENDBRANCH  10  12
ENDBRANCH   9  10
ENDBRANCH   1   9
BRANCH   8  28
HETATM   28  C5  UNL     1      -3.701  -2.892  -9.973  1.00  0.00     0.314 C 
BRANCH  28  29
HETATM   29  N5  UNL     1      -3.304  -1.958  -8.962  1.00  0.00    -0.041 N 
ATOM     30  H52 UNL     1      -3.841  -1.092  -9.012  1.00  0.00     0.280 HD
ATOM     31  H51 UNL     1      -3.591  -2.260  -8.032  1.00  0.00     0.280 HD
BRANCH  29  32
HETATM   32  C6  UNL     1      -1.888  -1.718  -9.037  1.00  0.00     0.344 C 
BRANCH  32  33
HETATM   33  O1  UNL     1      -1.551  -0.382  -9.237  1.00  0.00    -0.368 OA
ATOM     34  H1  UNL     1      -0.995  -0.019  -8.558  1.00  0.00     0.212 HD
ENDBRANCH  32  33
BRANCH  32  35
HETATM   35  C7  UNL     1      -1.196  -2.189  -7.796  1.00  0.00     0.290 C 
BRANCH  35  36
HETATM   36  N6  UNL     1       0.240  -1.910  -7.862  1.00  0.00    -0.075 N 
ATOM     37  H63 UNL     1       0.763  -2.707  -8.226  1.00  0.00     0.274 HD
ATOM     38  H62 UNL     1       0.460  -1.234  -8.594  1.00  0.00     0.274 HD
ATOM     39  H61 UNL     1       0.594  -1.610  -6.954  1.00  0.00     0.274 HD
ENDBRANCH  35  36
ENDBRANCH  32  35
ENDBRANCH  29  32
ENDBRANCH  28  29
ENDBRANCH   8  28
TORSDOF 12
ENDMDL
MODEL 2
REMARK VINA RESULT: -6.722177454      3.955      6.979
REMARK  12 active torsions:
REMARK  status: ('A' for Active; 'I' for Inactive)
REMARK    1  A    between atoms: C2_2  and  C3_3 
REMARK    2  A    between atoms: C2_2  and  N7_24 
REMARK    3  A    between atoms: C3_3  and  N1_4 
REMARK    4  A    between atoms: C4_11  and  C5_12 
REMARK    5  A    between atoms: C5_12  and  N5_13 
REMARK    6  A    between atoms: N5_13  and  C6_16 
REMARK    7  A    between atoms: C6_16  and  O1_17 
REMARK    8  A    between atoms: C6_16  and  C7_19 
REMARK    9  A    between atoms: C7_19  and  N6_20 
REMARK   10  A    between atoms: N7_24  and  C8_26 
REMARK   11  A    between atoms: C10_30  and  N9_31 
REMARK   12  A    between atoms: C11_36  and  N11_37 
ROOT
HETATM    1  N1  UNL     1      -7.389  -5.804  -7.641  1.00  0.00    -0.260 N 
HETATM    2  N2  UNL     1      -6.821  -6.479  -8.651  1.00  0.00    -0.225 N 
ATOM      3  H2  UNL     1      -5.816  -6.592  -8.784  1.00  0.00     0.210 HD
HETATM    4  N3  UNL     1      -7.743  -6.972  -9.445  1.00  0.00    -0.227 N 
ATOM      5  H3  UNL     1      -7.595  -7.527 -10.288  1.00  0.00     0.210 HD
HETATM    6  N4  UNL     1      -8.888  -6.609  -8.935  1.00  0.00    -0.271 N 
ATOM      7  H4  UNL     1      -9.797  -6.844  -9.332  1.00  0.00     0.190 HD
HETATM    8  C4  UNL     1      -8.710  -5.871  -7.799  1.00  0.00     0.141 A 
ENDROOT
BRANCH   1   9
HETATM    9  C3  UNL     1      -6.626  -5.182  -6.622  1.00  0.00     0.176 C 
BRANCH   9  10
HETATM   10  C2  UNL     1      -5.795  -3.998  -7.028  1.00  0.00     0.098 C 
HETATM   11  C1  UNL     1      -6.566  -3.115  -7.973  1.00  0.00     0.034 C 
BRANCH  10  12
HETATM   12  N7  UNL     1      -4.553  -4.474  -7.593  1.00  0.00    -0.380 N 
ATOM     13  H7  UNL     1      -4.566  -5.404  -8.013  1.00  0.00     0.160 HD
BRANCH  12  14
HETATM   14  C8  UNL     1      -3.332  -3.787  -7.623  1.00  0.00     0.089 A 
HETATM   15  C9  UNL     1      -3.075  -2.746  -8.486  1.00  0.00     0.139 A 
HETATM   16  N8  UNL     1      -1.904  -2.075  -8.502  1.00  0.00    -0.200 N 
HETATM   17  C10 UNL     1      -0.943  -2.429  -7.643  1.00  0.00     0.677 A 
ATOM     18  H8  UNL     1      -1.755  -1.309  -9.161  1.00  0.00     0.183 HD
HETATM   19  N10 UNL     1      -1.175  -3.431  -6.803  1.00  0.00    -0.175 N 
HETATM   20  C11 UNL     1      -2.313  -4.133  -6.742  1.00  0.00     0.142 A 
ATOM     21  H10 UNL     1      -0.429  -3.687  -6.157  1.00  0.00     0.186 HD
BRANCH  17  22
HETATM   22  N9  UNL     1       0.186  -1.792  -7.646  1.00  0.00    -0.234 N 
ATOM     23  H92 UNL     1       0.688  -1.590  -6.781  1.00  0.00     0.174 HD
ATOM     24  H91 UNL     1       0.589  -1.484  -8.531  1.00  0.00     0.174 HD
ENDBRANCH  17  22
BRANCH  20  25
HETATM   25  N11 UNL     1      -2.483  -5.114  -5.890  1.00  0.00    -0.383 N 
ATOM     26 2H11 UNL     1      -3.142  -5.052  -5.113  1.00  0.00     0.157 HD
ATOM     27 1H11 UNL     1      -1.949  -5.978  -5.989  1.00  0.00     0.157 HD
ENDBRANCH  20  25
ENDBRANCH  12  14
ENDBRANCH  10  12
ENDBRANCH   9  10
ENDBRANCH   1   9
BRANCH   8  28
HETATM   28  C5  UNL     1      -9.807  -5.280  -6.979  1.00  0.00     0.314 C 
BRANCH  28  29
HETATM   29  N5  UNL     1      -9.895  -5.867  -5.675  1.00  0.00    -0.041 N 
ATOM     30  H52 UNL     1      -8.975  -5.993  -5.252  1.00  0.00     0.280 HD
ATOM     31  H51 UNL     1     -10.287  -5.219  -4.992  1.00  0.00     0.280 HD
BRANCH  29  32
HETATM   32  C6  UNL     1     -10.634  -7.100  -5.734  1.00  0.00     0.344 C 
BRANCH  32  33
HETATM   33  O1  UNL     1     -10.256  -8.031  -4.771  1.00  0.00    -0.368 OA
ATOM     34  H1  UNL     1     -10.986  -8.423  -4.307  1.00  0.00     0.212 HD
ENDBRANCH  32  33
BRANCH  32  35
HETATM   35  C7  UNL     1     -12.103  -6.853  -5.589  1.00  0.00     0.290 C 
BRANCH  35  36
HETATM   36  N6  UNL     1     -12.599  -7.393  -4.321  1.00  0.00    -0.075 N 
ATOM     37  H63 UNL     1     -12.630  -8.413  -4.332  1.00  0.00     0.274 HD
ATOM     38  H62 UNL     1     -11.924  -7.267  -3.567  1.00  0.00     0.274 HD
ATOM     39  H61 UNL     1     -13.506  -6.991  -4.086  1.00  0.00     0.274 HD
ENDBRANCH  35  36
ENDBRANCH  32  35
ENDBRANCH  29  32
ENDBRANCH  28  29
ENDBRANCH   8  28
TORSDOF 12
ENDMDL
MODEL 3
REMARK VINA RESULT: -6.613902347      3.331      6.622
REMARK  12 active torsions:
REMARK  status: ('A' for Active; 'I' for Inactive)
REMARK    1  A    between atoms: C2_2  and  C3_3 
REMARK    2  A    between atoms: C2_2  and  N7_24 
REMARK    3  A    between atoms: C3_3  and  N1_4 
REMARK    4  A    between atoms: C4_11  and  C5_12 
REMARK    5  A    between atoms: C5_12  and  N5_13 
REMARK    6  A    between atoms: N5_13  and  C6_16 
REMARK    7  A    between atoms: C6_16  and  O1_17 
REMARK    8  A    between atoms: C6_16  and  C7_19 
REMARK    9  A    between atoms: C7_19  and  N6_20 
REMARK   10  A    between atoms: N7_24  and  C8_26 
REMARK   11  A    between atoms: C10_30  and  N9_31 
REMARK   12  A    between atoms: C11_36  and  N11_37 
ROOT
HETATM    1  N1  UNL     1      -6.409  -5.891  -7.979  1.00  0.00    -0.260 N 
HETATM    2  N2  UNL     1      -5.396  -6.752  -8.156  1.00  0.00    -0.225 N 
ATOM      3  H2  UNL     1      -4.520  -6.735  -7.636  1.00  0.00     0.210 HD
HETATM    4  N3  UNL     1      -5.695  -7.621  -9.094  1.00  0.00    -0.227 N 
ATOM      5  H3  UNL     1      -5.111  -8.386  -9.432  1.00  0.00     0.210 HD
HETATM    6  N4  UNL     1      -6.894  -7.306  -9.506  1.00  0.00    -0.271 N 
ATOM      7  H4  UNL     1      -7.401  -7.804 -10.237  1.00  0.00     0.190 HD
HETATM    8  C4  UNL     1      -7.378  -6.222  -8.830  1.00  0.00     0.141 A 
ENDROOT
BRANCH   1   9
HETATM    9  C3  UNL     1      -6.363  -4.857  -7.012  1.00  0.00     0.176 C 
BRANCH   9  10
HETATM   10  C2  UNL     1      -5.967  -3.492  -7.501  1.00  0.00     0.098 C 
HETATM   11  C1  UNL     1      -7.152  -2.787  -8.105  1.00  0.00     0.034 C 
BRANCH  10  12
HETATM   12  N7  UNL     1      -4.866  -3.632  -8.427  1.00  0.00    -0.380 N 
ATOM     13  H7  UNL     1      -5.056  -4.137  -9.293  1.00  0.00     0.160 HD
BRANCH  12  14
HETATM   14  C8  UNL     1      -3.564  -3.144  -8.256  1.00  0.00     0.089 A 
HETATM   15  C9  UNL     1      -2.784  -3.447  -7.163  1.00  0.00     0.139 A 
HETATM   16  N8  UNL     1      -1.524  -2.990  -7.008  1.00  0.00    -0.200 N 
HETATM   17  C10 UNL     1      -0.998  -2.207  -7.956  1.00  0.00     0.677 A 
ATOM     18  H8  UNL     1      -0.980  -3.238  -6.181  1.00  0.00     0.183 HD
HETATM   19  N10 UNL     1      -1.737  -1.905  -9.017  1.00  0.00    -0.175 N 
HETATM   20  C11 UNL     1      -2.990  -2.327  -9.225  1.00  0.00     0.142 A 
ATOM     21  H10 UNL     1      -1.318  -1.306  -9.728  1.00  0.00     0.186 HD
BRANCH  17  22
HETATM   22  N9  UNL     1       0.212  -1.762  -7.821  1.00  0.00    -0.234 N 
ATOM     23  H92 UNL     1       0.401  -0.830  -7.453  1.00  0.00     0.174 HD
ATOM     24  H91 UNL     1       1.000  -2.353  -8.087  1.00  0.00     0.174 HD
ENDBRANCH  17  22
BRANCH  20  25
HETATM   25  N11 UNL     1      -3.671  -1.995 -10.294  1.00  0.00    -0.383 N 
ATOM     26 2H11 UNL     1      -3.604  -1.068 -10.715  1.00  0.00     0.157 HD
ATOM     27 1H11 UNL     1      -4.295  -2.671 -10.736  1.00  0.00     0.157 HD
ENDBRANCH  20  25
ENDBRANCH  12  14
ENDBRANCH  10  12
ENDBRANCH   9  10
ENDBRANCH   1   9
BRANCH   8  28
HETATM   28  C5  UNL     1      -8.707  -5.588  -9.067  1.00  0.00     0.314 C 
BRANCH  28  29
HETATM   29  N5  UNL     1      -9.739  -6.153  -8.249  1.00  0.00    -0.041 N 
ATOM     30  H52 UNL     1      -9.356  -6.668  -7.456  1.00  0.00     0.280 HD
ATOM     31  H51 UNL     1     -10.248  -5.437  -7.731  1.00  0.00     0.280 HD
BRANCH  29  32
HETATM   32  C6  UNL     1     -10.616  -6.966  -9.047  1.00  0.00     0.344 C 
BRANCH  32  33
HETATM   33  O1  UNL     1     -10.038  -8.151  -9.493  1.00  0.00    -0.368 OA
ATOM     34  H1  UNL     1      -9.422  -8.035 -10.206  1.00  0.00     0.212 HD
ENDBRANCH  32  33
BRANCH  32  35
HETATM   35  C7  UNL     1     -11.862  -7.313  -8.293  1.00  0.00     0.290 C 
BRANCH  35  36
HETATM   36  N6  UNL     1     -11.567  -7.539  -6.876  1.00  0.00    -0.075 N 
ATOM     37  H63 UNL     1     -12.412  -7.747  -6.343  1.00  0.00     0.274 HD
ATOM     38  H62 UNL     1     -11.070  -8.417  -6.729  1.00  0.00     0.274 HD
ATOM     39  H61 UNL     1     -11.058  -6.748  -6.481  1.00  0.00     0.274 HD
ENDBRANCH  35  36
ENDBRANCH  32  35
ENDBRANCH  29  32
ENDBRANCH  28  29
ENDBRANCH   8  28
TORSDOF 12
ENDMDL
MODEL 4
REMARK VINA RESULT: -6.591956970      2.171      4.507
REMARK  12 active torsions:
REMARK  status: ('A' for Active; 'I' for Inactive)
REMARK    1  A    between atoms: C2_2  and  C3_3 
REMARK    2  A    between atoms: C2_2  and  N7_24 
REMARK    3  A    between atoms: C3_3  and  N1_4 
REMARK    4  A    between atoms: C4_11  and  C5_12 
REMARK    5  A    between atoms: C5_12  and  N5_13 
REMARK    6  A    between atoms: N5_13  and  C6_16 
REMARK    7  A    between atoms: C6_16  and  O1_17 
REMARK    8  A    between atoms: C6_16  and  C7_19 
REMARK    9  A    between atoms: C7_19  and  N6_20 
REMARK   10  A    between atoms: N7_24  and  C8_26 
REMARK   11  A    between atoms: C10_30  and  N9_31 
REMARK   12  A    between atoms: C11_36  and  N11_37 
ROOT
HETATM    1  N1  UNL     1      -4.029  -3.934  -7.850  1.00  0.00    -0.260 N 
HETATM    2  N2  UNL     1      -4.564  -5.162  -7.913  1.00  0.00    -0.225 N 
ATOM      3  H2  UNL     1      -5.321  -5.436  -8.539  1.00  0.00     0.210 HD
HETATM    4  N3  UNL     1      -3.975  -5.961  -7.055  1.00  0.00    -0.227 N 
ATOM      5  H3  UNL     1      -4.181  -6.947  -6.891  1.00  0.00     0.210 HD
HETATM    6  N4  UNL     1      -3.071  -5.237  -6.452  1.00  0.00    -0.271 N 
ATOM      7  H4  UNL     1      -2.445  -5.584  -5.725  1.00  0.00     0.190 HD
HETATM    8  C4  UNL     1      -3.072  -3.955  -6.923  1.00  0.00     0.141 A 
ENDROOT
BRANCH   1   9
HETATM    9  C3  UNL     1      -4.464  -2.875  -8.684  1.00  0.00     0.176 C 
BRANCH   9  10
HETATM   10  C2  UNL     1      -5.441  -3.228  -9.770  1.00  0.00     0.098 C 
HETATM   11  C1  UNL     1      -5.220  -2.356 -10.977  1.00  0.00     0.034 C 
BRANCH  10  12
HETATM   12  N7  UNL     1      -6.781  -3.122  -9.240  1.00  0.00    -0.380 N 
ATOM     13  H7  UNL     1      -7.102  -2.188  -8.986  1.00  0.00     0.160 HD
BRANCH  12  14
HETATM   14  C8  UNL     1      -7.685  -4.174  -9.041  1.00  0.00     0.089 A 
HETATM   15  C9  UNL     1      -8.210  -4.921 -10.072  1.00  0.00     0.139 A 
HETATM   16  N8  UNL     1      -9.067  -5.945  -9.877  1.00  0.00    -0.200 N 
HETATM   17  C10 UNL     1      -9.429  -6.257  -8.628  1.00  0.00     0.677 A 
ATOM     18  H8  UNL     1      -9.434  -6.472 -10.670  1.00  0.00     0.183 HD
HETATM   19  N10 UNL     1      -8.932  -5.547  -7.623  1.00  0.00    -0.175 N 
HETATM   20  C11 UNL     1      -8.081  -4.523  -7.754  1.00  0.00     0.142 A 
ATOM     21  H10 UNL     1      -9.222  -5.800  -6.678  1.00  0.00     0.186 HD
BRANCH  17  22
HETATM   22  N9  UNL     1     -10.251  -7.239  -8.426  1.00  0.00    -0.234 N 
ATOM     23  H92 UNL     1     -11.071  -7.135  -7.828  1.00  0.00     0.174 HD
ATOM     24  H91 UNL     1     -10.082  -8.140  -8.873  1.00  0.00     0.174 HD
ENDBRANCH  17  22
BRANCH  20  25
HETATM   25  N11 UNL     1      -7.623  -3.857  -6.721  1.00  0.00    -0.383 N 
ATOM     26 2H11 UNL     1      -7.203  -2.932  -6.814  1.00  0.00     0.157 HD
ATOM     27 1H11 UNL     1      -7.679  -4.261  -5.786  1.00  0.00     0.157 HD
ENDBRANCH  20  25
ENDBRANCH  12  14
ENDBRANCH  10  12
ENDBRANCH   9  10
ENDBRANCH   1   9
BRANCH   8  28
HETATM   28  C5  UNL     1      -2.181  -2.863  -6.438  1.00  0.00     0.314 C 
BRANCH  28  29
HETATM   29  N5  UNL     1      -0.820  -3.040  -6.849  1.00  0.00    -0.041 N 
ATOM     30  H52 UNL     1      -0.206  -3.235  -6.059  1.00  0.00     0.280 HD
ATOM     31  H51 UNL     1      -0.688  -3.912  -7.361  1.00  0.00     0.280 HD
BRANCH  29  32
HETATM   32  C6  UNL     1      -0.378  -1.900  -7.606  1.00  0.00     0.344 C 
BRANCH  32  33
HETATM   33  O1  UNL     1       0.998  -1.858  -7.811  1.00  0.00    -0.368 OA
ATOM     34  H1  UNL     1       1.253  -1.460  -8.635  1.00  0.00     0.212 HD
ENDBRANCH  32  33
BRANCH  32  35
HETATM   35  C7  UNL     1      -1.047  -1.850  -8.944  1.00  0.00     0.290 C 
BRANCH  35  36
HETATM   36  N6  UNL     1      -1.320  -0.466  -9.338  1.00  0.00    -0.075 N 
ATOM     37  H63 UNL     1      -1.727   0.072  -8.572  1.00  0.00     0.274 HD
ATOM     38  H62 UNL     1      -0.460   0.068  -9.462  1.00  0.00     0.274 HD
ATOM     39  H61 UNL     1      -1.905  -0.435 -10.173  1.00  0.00     0.274 HD
ENDBRANCH  35  36
ENDBRANCH  32  35
ENDBRANCH  29  32
ENDBRANCH  28  29
ENDBRANCH   8  28
TORSDOF 12
ENDMDL
MODEL 5
REMARK VINA RESULT: -6.550901159      3.940      6.811
REMARK  12 active torsions:
REMARK  status: ('A' for Active; 'I' for Inactive)
REMARK    1  A    between atoms: C2_2  and  C3_3 
REMARK    2  A    between atoms: C2_2  and  N7_24 
REMARK    3  A    between atoms: C3_3  and  N1_4 
REMARK    4  A    between atoms: C4_11  and  C5_12 
REMARK    5  A    between atoms: C5_12  and  N5_13 
REMARK    6  A    between atoms: N5_13  and  C6_16 
REMARK    7  A    between atoms: C6_16  and  O1_17 
REMARK    8  A    between atoms: C6_16  and  C7_19 
REMARK    9  A    between atoms: C7_19  and  N6_20 
REMARK   10  A    between atoms: N7_24  and  C8_26 
REMARK   11  A    between atoms: C10_30  and  N9_31 
REMARK   12  A    between atoms: C11_36  and  N11_37 
ROOT
HETATM    1  N1  UNL     1      -8.038  -4.651  -8.364  1.00  0.00    -0.260 N 
HETATM    2  N2  UNL     1      -8.027  -4.845  -9.691  1.00  0.00    -0.225 N 
ATOM      3  H2  UNL     1      -7.258  -4.591 -10.311  1.00  0.00     0.210 HD
HETATM    4  N3  UNL     1      -9.147  -5.410 -10.078  1.00  0.00    -0.227 N 
ATOM      5  H3  UNL     1      -9.407  -5.671 -11.029  1.00  0.00     0.210 HD
HETATM    6  N4  UNL     1      -9.861  -5.570  -8.996  1.00  0.00    -0.271 N 
ATOM      7  H4  UNL     1     -10.791  -5.988  -8.976  1.00  0.00     0.190 HD
HETATM    8  C4  UNL     1      -9.199  -5.105  -7.895  1.00  0.00     0.141 A 
ENDROOT
BRANCH   1   9
HETATM    9  C3  UNL     1      -6.943  -4.073  -7.675  1.00  0.00     0.176 C 
BRANCH   9  10
HETATM   10  C2  UNL     1      -5.610  -4.747  -7.840  1.00  0.00     0.098 C 
HETATM   11  C1  UNL     1      -5.759  -6.241  -7.723  1.00  0.00     0.034 C 
BRANCH  10  12
HETATM   12  N7  UNL     1      -4.690  -4.199  -6.870  1.00  0.00    -0.380 N 
ATOM     13  H7  UNL     1      -4.983  -4.225  -5.893  1.00  0.00     0.160 HD
BRANCH  12  14
HETATM   14  C8  UNL     1      -3.435  -3.634  -7.136  1.00  0.00     0.089 A 
HETATM   15  C9  UNL     1      -3.246  -2.609  -8.034  1.00  0.00     0.139 A 
HETATM   16  N8  UNL     1      -2.040  -2.055  -8.276  1.00  0.00    -0.200 N 
HETATM   17  C10 UNL     1      -0.972  -2.515  -7.617  1.00  0.00     0.677 A 
ATOM     18  H8  UNL     1      -1.944  -1.296  -8.953  1.00  0.00     0.183 HD
HETATM   19  N10 UNL     1      -1.137  -3.504  -6.746  1.00  0.00    -0.175 N 
HETATM   20  C11 UNL     1      -2.306  -4.092  -6.465  1.00  0.00     0.142 A 
ATOM     21  H10 UNL     1      -0.309  -3.842  -6.254  1.00  0.00     0.186 HD
BRANCH  17  22
HETATM   22  N9  UNL     1       0.193  -1.991  -7.838  1.00  0.00    -0.234 N 
ATOM     23  H92 UNL     1       0.515  -1.783  -8.783  1.00  0.00     0.174 HD
ATOM     24  H91 UNL     1       0.809  -1.778  -7.053  1.00  0.00     0.174 HD
ENDBRANCH  17  22
BRANCH  20  25
HETATM   25  N11 UNL     1      -2.406  -5.066  -5.595  1.00  0.00    -0.383 N 
ATOM     26 2H11 UNL     1      -2.660  -6.016  -5.868  1.00  0.00     0.157 HD
ATOM     27 1H11 UNL     1      -2.228  -4.891  -4.605  1.00  0.00     0.157 HD
ENDBRANCH  20  25
ENDBRANCH  12  14
ENDBRANCH  10  12
ENDBRANCH   9  10
ENDBRANCH   1   9
BRANCH   8  28
HETATM   28  C5  UNL     1      -9.736  -5.115  -6.504  1.00  0.00     0.314 C 
BRANCH  28  29
HETATM   29  N5  UNL     1      -9.340  -6.279  -5.771  1.00  0.00    -0.041 N 
ATOM     30  H52 UNL     1      -8.561  -6.764  -6.218  1.00  0.00     0.280 HD
ATOM     31  H51 UNL     1      -8.882  -6.039  -4.892  1.00  0.00     0.280 HD
BRANCH  29  32
HETATM   32  C6  UNL     1     -10.469  -7.147  -5.570  1.00  0.00     0.344 C 
BRANCH  32  33
HETATM   33  O1  UNL     1     -10.227  -8.193  -4.684  1.00  0.00    -0.368 OA
ATOM     34  H1  UNL     1     -10.836  -8.917  -4.767  1.00  0.00     0.212 HD
ENDBRANCH  32  33
BRANCH  32  35
HETATM   35  C7  UNL     1     -11.653  -6.381  -5.069  1.00  0.00     0.290 C 
BRANCH  35  36
HETATM   36  N6  UNL     1     -12.513  -7.232  -4.243  1.00  0.00    -0.075 N 
ATOM     37  H63 UNL     1     -12.064  -7.477  -3.360  1.00  0.00     0.274 HD
ATOM     38  H62 UNL     1     -13.311  -6.715  -3.872  1.00  0.00     0.274 HD
ATOM     39  H61 UNL     1     -12.808  -8.060  -4.759  1.00  0.00     0.274 HD
ENDBRANCH  35  36
ENDBRANCH  32  35
ENDBRANCH  29  32
ENDBRANCH  28  29
ENDBRANCH   8  28
TORSDOF 12
ENDMDL
