MODEL 1
REMARK VINA RESULT: -5.056222183      0.000      0.000
REMARK  5 active torsions:
REMARK  status: ('A' for Active; 'I' for Inactive)
REMARK    1  A    between atoms: C2_2  and  O1_3 
REMARK    2  A    between atoms: O1_3  and  C3_4 
REMARK    3  A    between atoms: C4_5  and  C5_6 
REMARK    4  A    between atoms: C6_15  and  C7_16 
REMARK    5  A    between atoms: C11_29  and  N10_30 
ROOT
HETATM    1  C3  UNL     1      12.948  60.374  10.577  1.00  0.00     0.127 A 
HETATM    2  C4  UNL     1      11.964  61.311  10.228  1.00  0.00     0.064 A 
HETATM    3  C6  UNL     1      12.218  62.632  10.497  1.00  0.00     0.050 A 
HETATM    4  C9  UNL     1      13.400  63.054  11.094  1.00  0.00     0.022 A 
HETATM    5  C10 UNL     1      13.604  64.503  11.354  1.00  0.00     0.069 C 
HETATM    6  N9  UNL     1      14.305  62.130  11.409  1.00  0.00    -0.344 N 
ATOM      7  H9  UNL     1      15.175  62.430  11.847  1.00  0.00     0.167 HD
HETATM    8  C11 UNL     1      14.117  60.789  11.170  1.00  0.00     0.134 A 
ENDROOT
BRANCH   2   9
HETATM    9  C5  UNL     1      10.700  60.967   9.603  1.00  0.00     0.151 A 
HETATM   10  N1  UNL     1      10.602  60.767   8.278  1.00  0.00    -0.268 N 
HETATM   11  N2  UNL     1       9.385  60.461   7.948  1.00  0.00    -0.227 N 
ATOM     12  H1  UNL     1      11.378  60.843   7.621  1.00  0.00     0.190 HD
HETATM   13  N3  UNL     1       8.700  60.466   9.077  1.00  0.00    -0.227 N 
ATOM     14  H2  UNL     1       9.031  60.259   7.013  1.00  0.00     0.210 HD
HETATM   15  N4  UNL     1       9.473  60.771  10.101  1.00  0.00    -0.268 N 
ATOM     16  H3  UNL     1       7.703  60.262   9.147  1.00  0.00     0.210 HD
ATOM     17  H4  UNL     1       9.192  60.843  11.079  1.00  0.00     0.190 HD
ENDBRANCH   2   9
BRANCH   1  18
HETATM   18  O1  UNL     1      12.707  59.059  10.312  1.00  0.00    -0.347 OA
BRANCH  18  19
HETATM   19  C2  UNL     1      12.420  58.008  11.161  1.00  0.00     0.171 C 
HETATM   20  C1  UNL     1      11.187  58.087  11.987  1.00  0.00     0.034 C 
ENDBRANCH  18  19
ENDBRANCH   1  18
BRANCH   3  21
HETATM   21  C7  UNL     1      11.198  63.623  10.137  1.00  0.00     0.150 A 
HETATM   22  N5  UNL     1      10.433  64.364  10.965  1.00  0.00    -0.268 N 
HETATM   23  N6  UNL     1       9.639  65.137  10.269  1.00  0.00    -0.225 N 
ATOM     24  H5  UNL     1      10.469  64.327  11.984  1.00  0.00     0.190 HD
HETATM   25  N7  UNL     1       9.856  64.931   8.987  1.00  0.00    -0.223 N 
ATOM     26  H6  UNL     1       8.962  65.793  10.657  1.00  0.00     0.210 HD
HETATM   27  C8  UNL     1       9.171  65.600   7.871  1.00  0.00     0.202 C 
HETATM   28  N8  UNL     1      10.805  64.009   8.908  1.00  0.00    -0.266 N 
ATOM     29  H8  UNL     1      11.185  63.642   8.036  1.00  0.00     0.190 HD
ENDBRANCH   3  21
BRANCH   8  30
HETATM   30  N10 UNL     1      15.002  59.952  11.557  1.00  0.00    -0.383 N 
ATOM     31 2H10 UNL     1      15.931  59.975  11.137  1.00  0.00     0.157 HD
ATOM     32 1H10 UNL     1      14.816  59.290  12.311  1.00  0.00     0.157 HD
ENDBRANCH   8  30
TORSDOF 5
ENDMDL
MODEL 2
REMARK VINA RESULT: -4.897334448      2.071      4.980
REMARK  5 active torsions:
REMARK  status: ('A' for Active; 'I' for Inactive)
REMARK    1  A    between atoms: C2_2  and  O1_3 
REMARK    2  A    between atoms: O1_3  and  C3_4 
REMARK    3  A    between atoms: C4_5  and  C5_6 
REMARK    4  A    between atoms: C6_15  and  C7_16 
REMARK    5  A    between atoms: C11_29  and  N10_30 
ROOT
HETATM    1  C3  UNL     1      11.180  63.590  10.007  1.00  0.00     0.127 A 
HETATM    2  C4  UNL     1      11.219  62.188  10.043  1.00  0.00     0.064 A 
HETATM    3  C6  UNL     1      12.299  61.597  10.648  1.00  0.00     0.050 A 
HETATM    4  C9  UNL     1      13.332  62.337  11.211  1.00  0.00     0.022 A 
HETATM    5  C10 UNL     1      14.470  61.625  11.849  1.00  0.00     0.069 C 
HETATM    6  N9  UNL     1      13.253  63.664  11.151  1.00  0.00    -0.344 N 
ATOM      7  H9  UNL     1      14.006  64.216  11.562  1.00  0.00     0.167 HD
HETATM    8  C11 UNL     1      12.202  64.325  10.561  1.00  0.00     0.134 A 
ENDROOT
BRANCH   2   9
HETATM    9  C5  UNL     1      10.191  61.332   9.483  1.00  0.00     0.151 A 
HETATM   10  N1  UNL     1      10.061  61.165   8.155  1.00  0.00    -0.268 N 
HETATM   11  N2  UNL     1       9.086  60.350   7.888  1.00  0.00    -0.227 N 
ATOM     12  H1  UNL     1      10.648  61.615   7.454  1.00  0.00     0.190 HD
HETATM   13  N3  UNL     1       8.590  59.994   9.059  1.00  0.00    -0.227 N 
ATOM     14  H2  UNL     1       8.769  60.049   6.967  1.00  0.00     0.210 HD
HETATM   15  N4  UNL     1       9.242  60.576  10.048  1.00  0.00    -0.268 N 
ATOM     16  H3  UNL     1       7.806  59.354   9.182  1.00  0.00     0.210 HD
ATOM     17  H4  UNL     1       9.059  60.470  11.045  1.00  0.00     0.190 HD
ENDBRANCH   2   9
BRANCH   1  18
HETATM   18  O1  UNL     1      10.110  64.189   9.411  1.00  0.00    -0.347 OA
BRANCH  18  19
HETATM   19  C2  UNL     1      10.039  64.999   8.294  1.00  0.00     0.171 C 
HETATM   20  C1  UNL     1       9.926  64.351   6.961  1.00  0.00     0.034 C 
ENDBRANCH  18  19
ENDBRANCH   1  18
BRANCH   3  21
HETATM   21  C7  UNL     1      12.354  60.131  10.694  1.00  0.00     0.150 A 
HETATM   22  N5  UNL     1      13.036  59.301   9.880  1.00  0.00    -0.268 N 
HETATM   23  N6  UNL     1      12.836  58.058  10.238  1.00  0.00    -0.225 N 
ATOM     24  H5  UNL     1      13.623  59.598   9.100  1.00  0.00     0.190 HD
HETATM   25  N7  UNL     1      12.031  58.037  11.280  1.00  0.00    -0.223 N 
ATOM     26  H6  UNL     1      13.239  57.239   9.784  1.00  0.00     0.210 HD
HETATM   27  C8  UNL     1      11.558  56.838  11.987  1.00  0.00     0.202 C 
HETATM   28  N8  UNL     1      11.738  59.299  11.556  1.00  0.00    -0.266 N 
ATOM     29  H8  UNL     1      11.130  59.600  12.317  1.00  0.00     0.190 HD
ENDBRANCH   3  21
BRANCH   8  30
HETATM   30  N10 UNL     1      12.223  65.600  10.484  1.00  0.00    -0.383 N 
ATOM     31 2H10 UNL     1      13.116  66.081  10.374  1.00  0.00     0.157 HD
ATOM     32 1H10 UNL     1      11.363  66.148  10.484  1.00  0.00     0.157 HD
ENDBRANCH   8  30
TORSDOF 5
ENDMDL
MODEL 3
REMARK VINA RESULT: -4.418257556      2.305      4.017
REMARK  5 active torsions:
REMARK  status: ('A' for Active; 'I' for Inactive)
REMARK    1  A    between atoms: C2_2  and  O1_3 
REMARK    2  A    between atoms: O1_3  and  C3_4 
REMARK    3  A    between atoms: C4_5  and  C5_6 
REMARK    4  A    between atoms: C6_15  and  C7_16 
REMARK    5  A    between atoms: C11_29  and  N10_30 
ROOT
HETATM    1  C3  UNL     1      14.845  62.740  11.454  1.00  0.00     0.127 A 
HETATM    2  C4  UNL     1      13.699  62.034  11.058  1.00  0.00     0.064 A 
HETATM    3  C6  UNL     1      12.566  62.760  10.789  1.00  0.00     0.050 A 
HETATM    4  C9  UNL     1      12.528  64.144  10.899  1.00  0.00     0.022 A 
HETATM    5  C10 UNL     1      11.263  64.862  10.591  1.00  0.00     0.069 C 
HETATM    6  N9  UNL     1      13.639  64.771  11.279  1.00  0.00    -0.344 N 
ATOM      7  H9  UNL     1      13.621  65.788  11.362  1.00  0.00     0.167 HD
HETATM    8  C11 UNL     1      14.810  64.109  11.566  1.00  0.00     0.134 A 
ENDROOT
BRANCH   2   9
HETATM    9  C5  UNL     1      13.641  60.592  10.916  1.00  0.00     0.151 A 
HETATM   10  N1  UNL     1      13.557  59.782  11.987  1.00  0.00    -0.268 N 
HETATM   11  N2  UNL     1      13.507  58.539  11.619  1.00  0.00    -0.227 N 
ATOM     12  H1  UNL     1      13.535  60.102  12.955  1.00  0.00     0.190 HD
HETATM   13  N3  UNL     1      13.558  58.556  10.300  1.00  0.00    -0.227 N 
ATOM     14  H2  UNL     1      13.441  57.719  12.223  1.00  0.00     0.210 HD
HETATM   15  N4  UNL     1      13.641  59.791   9.844  1.00  0.00    -0.268 N 
ATOM     16  H3  UNL     1      13.538  57.723   9.711  1.00  0.00     0.210 HD
ATOM     17  H4  UNL     1      13.694  60.079   8.867  1.00  0.00     0.190 HD
ENDBRANCH   2   9
BRANCH   1  18
HETATM   18  O1  UNL     1      15.978  62.029  11.721  1.00  0.00    -0.347 OA
BRANCH  18  19
HETATM   19  C2  UNL     1      17.038  61.686  10.905  1.00  0.00     0.171 C 
HETATM   20  C1  UNL     1      17.313  60.243  10.679  1.00  0.00     0.034 C 
ENDBRANCH  18  19
ENDBRANCH   1  18
BRANCH   3  21
HETATM   21  C7  UNL     1      11.359  62.036  10.374  1.00  0.00     0.150 A 
HETATM   22  N5  UNL     1      10.407  61.493  11.158  1.00  0.00    -0.268 N 
HETATM   23  N6  UNL     1       9.485  60.930  10.419  1.00  0.00    -0.225 N 
ATOM     24  H5  UNL     1      10.405  61.517  12.178  1.00  0.00     0.190 HD
HETATM   25  N7  UNL     1       9.800  61.085   9.150  1.00  0.00    -0.223 N 
ATOM     26  H6  UNL     1       8.657  60.449  10.770  1.00  0.00     0.210 HD
HETATM   27  C8  UNL     1       9.026  60.600   7.998  1.00  0.00     0.202 C 
HETATM   28  N8  UNL     1      10.940  61.758   9.124  1.00  0.00    -0.266 N 
ATOM     29  H8  UNL     1      11.434  62.029   8.274  1.00  0.00     0.190 HD
ENDBRANCH   3  21
BRANCH   8  30
HETATM   30  N10 UNL     1      15.819  64.771  11.986  1.00  0.00    -0.383 N 
ATOM     31 2H10 UNL     1      16.408  65.266  11.317  1.00  0.00     0.157 HD
ATOM     32 1H10 UNL     1      16.024  64.855  12.982  1.00  0.00     0.157 HD
ENDBRANCH   8  30
TORSDOF 5
ENDMDL
MODEL 4
REMARK VINA RESULT: -4.199223470      1.408      1.934
REMARK  5 active torsions:
REMARK  status: ('A' for Active; 'I' for Inactive)
REMARK    1  A    between atoms: C2_2  and  O1_3 
REMARK    2  A    between atoms: O1_3  and  C3_4 
REMARK    3  A    between atoms: C4_5  and  C5_6 
REMARK    4  A    between atoms: C6_15  and  C7_16 
REMARK    5  A    between atoms: C11_29  and  N10_30 
ROOT
HETATM    1  C3  UNL     1      12.223  61.421  10.623  1.00  0.00     0.127 A 
HETATM    2  C4  UNL     1      11.218  61.948   9.798  1.00  0.00     0.064 A 
HETATM    3  C6  UNL     1      11.222  63.301   9.575  1.00  0.00     0.050 A 
HETATM    4  C9  UNL     1      12.176  64.143  10.135  1.00  0.00     0.022 A 
HETATM    5  C10 UNL     1      12.116  65.600   9.848  1.00  0.00     0.069 C 
HETATM    6  N9  UNL     1      13.109  63.599  10.913  1.00  0.00    -0.344 N 
ATOM      7  H9  UNL     1      13.813  64.208  11.328  1.00  0.00     0.167 HD
HETATM    8  C11 UNL     1      13.166  62.251  11.181  1.00  0.00     0.134 A 
ENDROOT
BRANCH   2   9
HETATM    9  C5  UNL     1      10.181  61.151   9.170  1.00  0.00     0.151 A 
HETATM   10  N1  UNL     1       9.114  60.715   9.861  1.00  0.00    -0.268 N 
HETATM   11  N2  UNL     1       8.317  60.035   9.095  1.00  0.00    -0.227 N 
ATOM     12  H1  UNL     1       8.952  60.894  10.852  1.00  0.00     0.190 HD
HETATM   13  N3  UNL     1       8.883  60.039   7.902  1.00  0.00    -0.227 N 
ATOM     14  H2  UNL     1       7.438  59.590   9.359  1.00  0.00     0.210 HD
HETATM   15  N4  UNL     1      10.018  60.710   7.917  1.00  0.00    -0.268 N 
ATOM     16  H3  UNL     1       8.493  59.583   7.077  1.00  0.00     0.210 HD
ATOM     17  H4  UNL     1      10.647  60.864   7.129  1.00  0.00     0.190 HD
ENDBRANCH   2   9
BRANCH   1  18
HETATM   18  O1  UNL     1      12.230  60.077  10.849  1.00  0.00    -0.347 OA
BRANCH  18  19
HETATM   19  C2  UNL     1      12.988  59.072  10.280  1.00  0.00     0.171 C 
HETATM   20  C1  UNL     1      13.725  58.149  11.183  1.00  0.00     0.034 C 
ENDBRANCH  18  19
ENDBRANCH   1  18
BRANCH   3  21
HETATM   21  C7  UNL     1      10.177  63.868   8.714  1.00  0.00     0.150 A 
HETATM   22  N5  UNL     1       9.297  64.843   9.012  1.00  0.00    -0.268 N 
HETATM   23  N6  UNL     1       8.521  65.075   7.984  1.00  0.00    -0.225 N 
ATOM     24  H5  UNL     1       9.243  65.330   9.907  1.00  0.00     0.190 HD
HETATM   25  N7  UNL     1       8.864  64.272   6.998  1.00  0.00    -0.223 N 
ATOM     26  H6  UNL     1       7.771  65.766   7.951  1.00  0.00     0.210 HD
HETATM   27  C8  UNL     1       8.241  64.215   5.668  1.00  0.00     0.202 C 
HETATM   28  N8  UNL     1       9.873  63.538   7.444  1.00  0.00    -0.266 N 
ATOM     29  H8  UNL     1      10.352  62.821   6.900  1.00  0.00     0.190 HD
ENDBRANCH   3  21
BRANCH   8  30
HETATM   30  N10 UNL     1      14.052  61.807  11.987  1.00  0.00    -0.383 N 
ATOM     31 2H10 UNL     1      13.788  61.572  12.943  1.00  0.00     0.157 HD
ATOM     32 1H10 UNL     1      15.011  61.637  11.682  1.00  0.00     0.157 HD
ENDBRANCH   8  30
TORSDOF 5
ENDMDL
MODEL 5
REMARK VINA RESULT: -4.198206485      1.932      4.508
REMARK  5 active torsions:
REMARK  status: ('A' for Active; 'I' for Inactive)
REMARK    1  A    between atoms: C2_2  and  O1_3 
REMARK    2  A    between atoms: O1_3  and  C3_4 
REMARK    3  A    between atoms: C4_5  and  C5_6 
REMARK    4  A    between atoms: C6_15  and  C7_16 
REMARK    5  A    between atoms: C11_29  and  N10_30 
ROOT
HETATM    1  C3  UNL     1      14.358  62.857  11.508  1.00  0.00     0.127 A 
HETATM    2  C4  UNL     1      13.054  62.565  11.081  1.00  0.00     0.064 A 
HETATM    3  C6  UNL     1      12.754  61.256  10.801  1.00  0.00     0.050 A 
HETATM    4  C9  UNL     1      13.690  60.237  10.928  1.00  0.00     0.022 A 
HETATM    5  C10 UNL     1      13.291  58.841  10.608  1.00  0.00     0.069 C 
HETATM    6  N9  UNL     1      14.915  60.561  11.335  1.00  0.00    -0.344 N 
ATOM      7  H9  UNL     1      15.609  59.820  11.432  1.00  0.00     0.167 HD
HETATM    8  C11 UNL     1      15.287  61.851  11.631  1.00  0.00     0.134 A 
ENDROOT
BRANCH   2   9
HETATM    9  C5  UNL     1      12.010  63.559  10.917  1.00  0.00     0.151 A 
HETATM   10  N1  UNL     1      11.296  64.008  11.964  1.00  0.00    -0.268 N 
HETATM   11  N2  UNL     1      10.431  64.897  11.582  1.00  0.00    -0.227 N 
ATOM     12  H1  UNL     1      11.417  63.693  12.926  1.00  0.00     0.190 HD
HETATM   13  N3  UNL     1      10.597  65.017  10.278  1.00  0.00    -0.227 N 
ATOM     14  H2  UNL     1       9.763  65.398  12.167  1.00  0.00     0.210 HD
HETATM   15  N4  UNL     1      11.551  64.215   9.845  1.00  0.00    -0.268 N 
ATOM     16  H3  UNL     1      10.058  65.646   9.683  1.00  0.00     0.210 HD
ATOM     17  H4  UNL     1      11.875  64.115   8.883  1.00  0.00     0.190 HD
ENDBRANCH   2   9
BRANCH   1  18
HETATM   18  O1  UNL     1      14.667  64.155  11.791  1.00  0.00    -0.347 OA
BRANCH  18  19
HETATM   19  C2  UNL     1      14.983  65.207  10.954  1.00  0.00     0.171 C 
HETATM   20  C1  UNL     1      16.300  65.188  10.265  1.00  0.00     0.034 C 
ENDBRANCH  18  19
ENDBRANCH   1  18
BRANCH   3  21
HETATM   21  C7  UNL     1      11.395  60.934  10.353  1.00  0.00     0.150 A 
HETATM   22  N5  UNL     1      10.364  60.477  11.092  1.00  0.00    -0.268 N 
HETATM   23  N6  UNL     1       9.310  60.310  10.336  1.00  0.00    -0.225 N 
ATOM     24  H5  UNL     1      10.401  60.290  12.095  1.00  0.00     0.190 HD
HETATM   25  N7  UNL     1       9.612  60.647   9.099  1.00  0.00    -0.223 N 
ATOM     26  H6  UNL     1       8.401  59.973  10.652  1.00  0.00     0.210 HD
HETATM   27  C8  UNL     1       8.706  60.604   7.942  1.00  0.00     0.202 C 
HETATM   28  N8  UNL     1      10.881  61.027   9.111  1.00  0.00    -0.266 N 
ATOM     29  H8  UNL     1      11.398  61.346   8.292  1.00  0.00     0.190 HD
ENDBRANCH   3  21
BRANCH   8  30
HETATM   30  N10 UNL     1      16.498  62.098  11.956  1.00  0.00    -0.383 N 
ATOM     31 2H10 UNL     1      17.234  62.008  11.256  1.00  0.00     0.157 HD
ATOM     32 1H10 UNL     1      16.742  62.431  12.890  1.00  0.00     0.157 HD
ENDBRANCH   8  30
TORSDOF 5
ENDMDL
