MODEL 1
REMARK VINA RESULT: -5.651734654      0.000      0.000
REMARK  4 active torsions:
REMARK  status: ('A' for Active; 'I' for Inactive)
REMARK    1  A    between atoms: O1_2  and  C2_3 
REMARK    2  A    between atoms: C2_3  and  C3_4 
REMARK    3  A    between atoms: C7_10  and  O2_11 
REMARK    4  A    between atoms: C10_15  and  O3_16 
ROOT
HETATM    1  C3  UNL     1      56.062 -18.155  -1.615  1.00  0.00     0.170 C 
HETATM    2  C4  UNL     1      55.876 -18.823  -0.254  1.00  0.00     0.154 C 
HETATM    3  N1  UNL     1      55.076 -20.009  -0.382  1.00  0.00    -0.385 N 
ATOM      4  H1  UNL     1      54.674 -20.391   0.475  1.00  0.00     0.159 HD
HETATM    5  C5  UNL     1      54.799 -20.689  -1.575  1.00  0.00     0.067 A 
HETATM    6  C6  UNL     1      53.927 -21.758  -1.639  1.00  0.00     0.072 A 
HETATM    7  C7  UNL     1      53.716 -22.359  -2.840  1.00  0.00     0.112 A 
HETATM    8  C9  UNL     1      54.341 -21.948  -4.022  1.00  0.00     0.185 A 
HETATM    9  F1  UNL     1      54.102 -22.579  -5.203  1.00  0.00    -0.200 F 
HETATM   10  C10 UNL     1      55.211 -20.880  -3.943  1.00  0.00     0.145 A 
HETATM   11  C12 UNL     1      55.434 -20.259  -2.731  1.00  0.00     0.132 A 
HETATM   12  O4  UNL     1      56.298 -19.179  -2.587  1.00  0.00    -0.337 OA
ENDROOT
BRANCH   1  13
HETATM   13  C2  UNL     1      57.262 -17.276  -1.601  1.00  0.00     0.201 C 
BRANCH  13  14
HETATM   14  O1  UNL     1      57.600 -16.930  -0.319  1.00  0.00    -0.393 OA
HETATM   15  C1  UNL     1      57.709 -15.566  -0.109  1.00  0.00     0.201 C 
ENDBRANCH  13  14
ENDBRANCH   1  13
BRANCH  10  16
HETATM   16  O3  UNL     1      55.867 -20.411  -5.050  1.00  0.00    -0.350 OA
HETATM   17  C11 UNL     1      55.274 -19.960  -6.227  1.00  0.00     0.210 C 
ENDBRANCH  10  16
BRANCH   7  18
HETATM   18  O2  UNL     1      52.850 -23.429  -2.936  1.00  0.00    -0.353 OA
HETATM   19  C8  UNL     1      52.859 -24.450  -1.984  1.00  0.00     0.210 C 
ENDBRANCH   7  18
TORSDOF 4
ENDMDL
MODEL 2
REMARK VINA RESULT: -5.121367589      2.537      5.933
REMARK  4 active torsions:
REMARK  status: ('A' for Active; 'I' for Inactive)
REMARK    1  A    between atoms: O1_2  and  C2_3 
REMARK    2  A    between atoms: C2_3  and  C3_4 
REMARK    3  A    between atoms: C7_10  and  O2_11 
REMARK    4  A    between atoms: C10_15  and  O3_16 
ROOT
HETATM    1  C3  UNL     1      54.107 -20.668  -6.622  1.00  0.00     0.170 C 
HETATM    2  C4  UNL     1      55.463 -20.021  -6.896  1.00  0.00     0.154 C 
HETATM    3  N1  UNL     1      56.035 -19.519  -5.677  1.00  0.00    -0.385 N 
ATOM      4  H1  UNL     1      56.801 -18.851  -5.766  1.00  0.00     0.159 HD
HETATM    5  C5  UNL     1      55.636 -19.863  -4.379  1.00  0.00     0.067 A 
HETATM    6  C6  UNL     1      56.154 -19.254  -3.253  1.00  0.00     0.072 A 
HETATM    7  C7  UNL     1      55.710 -19.650  -2.031  1.00  0.00     0.112 A 
HETATM    8  C9  UNL     1      54.749 -20.651  -1.854  1.00  0.00     0.185 A 
HETATM    9  F1  UNL     1      54.333 -21.018  -0.613  1.00  0.00    -0.200 F 
HETATM   10  C10 UNL     1      54.241 -21.252  -2.987  1.00  0.00     0.145 A 
HETATM   11  C12 UNL     1      54.682 -20.859  -4.234  1.00  0.00     0.132 A 
HETATM   12  O4  UNL     1      54.209 -21.427  -5.412  1.00  0.00    -0.337 OA
ENDROOT
BRANCH   1  13
HETATM   13  C2  UNL     1      53.758 -21.619  -7.711  1.00  0.00     0.201 C 
BRANCH  13  14
HETATM   14  O1  UNL     1      53.166 -20.966  -8.760  1.00  0.00    -0.393 OA
HETATM   15  C1  UNL     1      52.110 -20.148  -8.398  1.00  0.00     0.201 C 
ENDBRANCH  13  14
ENDBRANCH   1  13
BRANCH  10  16
HETATM   16  O3  UNL     1      53.298 -22.242  -2.908  1.00  0.00    -0.350 OA
HETATM   17  C11 UNL     1      53.535 -23.581  -2.608  1.00  0.00     0.210 C 
ENDBRANCH  10  16
BRANCH   7  18
HETATM   18  O2  UNL     1      56.208 -19.059  -0.888  1.00  0.00    -0.353 OA
HETATM   19  C8  UNL     1      56.671 -17.743  -0.902  1.00  0.00     0.210 C 
ENDBRANCH   7  18
TORSDOF 4
ENDMDL
MODEL 3
REMARK VINA RESULT: -5.105086348      2.909      4.754
REMARK  4 active torsions:
REMARK  status: ('A' for Active; 'I' for Inactive)
REMARK    1  A    between atoms: O1_2  and  C2_3 
REMARK    2  A    between atoms: C2_3  and  C3_4 
REMARK    3  A    between atoms: C7_10  and  O2_11 
REMARK    4  A    between atoms: C10_15  and  O3_16 
ROOT
HETATM    1  C3  UNL     1      53.858 -20.820  -2.815  1.00  0.00     0.170 C 
HETATM    2  C4  UNL     1      55.329 -21.228  -2.800  1.00  0.00     0.154 C 
HETATM    3  N1  UNL     1      55.858 -21.250  -4.135  1.00  0.00    -0.385 N 
ATOM      4  H1  UNL     1      56.737 -21.747  -4.278  1.00  0.00     0.159 HD
HETATM    5  C5  UNL     1      55.276 -20.650  -5.260  1.00  0.00     0.067 A 
HETATM    6  C6  UNL     1      55.780 -20.809  -6.535  1.00  0.00     0.072 A 
HETATM    7  C7  UNL     1      55.152 -20.190  -7.570  1.00  0.00     0.112 A 
HETATM    8  C9  UNL     1      54.012 -19.394  -7.407  1.00  0.00     0.185 A 
HETATM    9  F1  UNL     1      53.414 -18.792  -8.470  1.00  0.00    -0.200 F 
HETATM   10  C10 UNL     1      53.519 -19.243  -6.127  1.00  0.00     0.145 A 
HETATM   11  C12 UNL     1      54.147 -19.867  -5.068  1.00  0.00     0.132 A 
HETATM   12  O4  UNL     1      53.699 -19.753  -3.756  1.00  0.00    -0.337 OA
ENDROOT
BRANCH   1  13
HETATM   13  C2  UNL     1      53.453 -20.295  -1.483  1.00  0.00     0.201 C 
BRANCH  13  14
HETATM   14  O1  UNL     1      54.500 -20.337  -0.601  1.00  0.00    -0.393 OA
HETATM   15  C1  UNL     1      55.300 -19.207  -0.613  1.00  0.00     0.201 C 
ENDBRANCH  13  14
ENDBRANCH   1  13
BRANCH  10  16
HETATM   16  O3  UNL     1      52.409 -18.483  -5.875  1.00  0.00    -0.350 OA
HETATM   17  C11 UNL     1      51.325 -18.302  -6.732  1.00  0.00     0.210 C 
ENDBRANCH  10  16
BRANCH   7  18
HETATM   18  O2  UNL     1      55.631 -20.330  -8.856  1.00  0.00    -0.353 OA
HETATM   19  C8  UNL     1      55.869 -21.593  -9.401  1.00  0.00     0.210 C 
ENDBRANCH   7  18
TORSDOF 4
ENDMDL
MODEL 4
REMARK VINA RESULT: -5.056607054      2.501      4.943
REMARK  4 active torsions:
REMARK  status: ('A' for Active; 'I' for Inactive)
REMARK    1  A    between atoms: O1_2  and  C2_3 
REMARK    2  A    between atoms: C2_3  and  C3_4 
REMARK    3  A    between atoms: C7_10  and  O2_11 
REMARK    4  A    between atoms: C10_15  and  O3_16 
ROOT
HETATM    1  C3  UNL     1      54.947 -20.296  -6.053  1.00  0.00     0.170 C 
HETATM    2  C4  UNL     1      54.151 -21.560  -6.371  1.00  0.00     0.154 C 
HETATM    3  N1  UNL     1      54.039 -22.390  -5.204  1.00  0.00    -0.385 N 
ATOM      4  H1  UNL     1      53.761 -23.361  -5.351  1.00  0.00     0.159 HD
HETATM    5  C5  UNL     1      54.277 -21.988  -3.883  1.00  0.00     0.067 A 
HETATM    6  C6  UNL     1      54.262 -22.869  -2.821  1.00  0.00     0.072 A 
HETATM    7  C7  UNL     1      54.504 -22.393  -1.571  1.00  0.00     0.112 A 
HETATM    8  C9  UNL     1      54.769 -21.045  -1.304  1.00  0.00     0.185 A 
HETATM    9  F1  UNL     1      55.005 -20.609  -0.038  1.00  0.00    -0.200 F 
HETATM   10  C10 UNL     1      54.779 -20.175  -2.375  1.00  0.00     0.145 A 
HETATM   11  C12 UNL     1      54.537 -20.645  -3.649  1.00  0.00     0.132 A 
HETATM   12  O4  UNL     1      54.533 -19.819  -4.768  1.00  0.00    -0.337 OA
ENDROOT
BRANCH   1  13
HETATM   13  C2  UNL     1      54.637 -19.228  -7.040  1.00  0.00     0.201 C 
BRANCH  13  14
HETATM   14  O1  UNL     1      53.784 -19.688  -8.008  1.00  0.00    -0.393 OA
HETATM   15  C1  UNL     1      52.521 -19.124  -7.969  1.00  0.00     0.201 C 
ENDBRANCH  13  14
ENDBRANCH   1  13
BRANCH  10  16
HETATM   16  O3  UNL     1      55.029 -18.839  -2.207  1.00  0.00    -0.350 OA
HETATM   17  C11 UNL     1      56.221 -18.277  -1.754  1.00  0.00     0.210 C 
ENDBRANCH  10  16
BRANCH   7  18
HETATM   18  O2  UNL     1      54.496 -23.249  -0.489  1.00  0.00    -0.353 OA
HETATM   19  C8  UNL     1      54.528 -24.633  -0.667  1.00  0.00     0.210 C 
ENDBRANCH   7  18
TORSDOF 4
ENDMDL
MODEL 5
REMARK VINA RESULT: -4.944323768     11.611     12.244
REMARK  4 active torsions:
REMARK  status: ('A' for Active; 'I' for Inactive)
REMARK    1  A    between atoms: O1_2  and  C2_3 
REMARK    2  A    between atoms: C2_3  and  C3_4 
REMARK    3  A    between atoms: C7_10  and  O2_11 
REMARK    4  A    between atoms: C10_15  and  O3_16 
ROOT
HETATM    1  C3  UNL     1      56.530 -25.415 -12.972  1.00  0.00     0.170 C 
HETATM    2  C4  UNL     1      57.406 -26.584 -12.527  1.00  0.00     0.154 C 
HETATM    3  N1  UNL     1      56.603 -27.616 -11.931  1.00  0.00    -0.385 N 
ATOM      4  H1  UNL     1      57.090 -28.317 -11.372  1.00  0.00     0.159 HD
HETATM    5  C5  UNL     1      55.213 -27.746 -12.047  1.00  0.00     0.067 A 
HETATM    6  C6  UNL     1      54.491 -28.696 -11.352  1.00  0.00     0.072 A 
HETATM    7  C7  UNL     1      53.144 -28.752 -11.525  1.00  0.00     0.112 A 
HETATM    8  C9  UNL     1      52.446 -27.889 -12.378  1.00  0.00     0.185 A 
HETATM    9  F1  UNL     1      51.097 -27.979 -12.522  1.00  0.00    -0.200 F 
HETATM   10  C10 UNL     1      53.179 -26.945 -13.066  1.00  0.00     0.145 A 
HETATM   11  C12 UNL     1      54.548 -26.877 -12.900  1.00  0.00     0.132 A 
HETATM   12  O4  UNL     1      55.341 -25.949 -13.565  1.00  0.00    -0.337 OA
ENDROOT
BRANCH   1  13
HETATM   13  C2  UNL     1      57.224 -24.617 -14.017  1.00  0.00     0.201 C 
BRANCH  13  14
HETATM   14  O1  UNL     1      57.381 -23.317 -13.615  1.00  0.00    -0.393 OA
HETATM   15  C1  UNL     1      58.548 -23.077 -12.911  1.00  0.00     0.201 C 
ENDBRANCH  13  14
ENDBRANCH   1  13
BRANCH  10  16
HETATM   16  O3  UNL     1      52.579 -26.061 -13.922  1.00  0.00    -0.350 OA
HETATM   17  C11 UNL     1      52.105 -24.793 -13.593  1.00  0.00     0.210 C 
ENDBRANCH  10  16
BRANCH   7  18
HETATM   18  O2  UNL     1      52.396 -29.690 -10.844  1.00  0.00    -0.353 OA
HETATM   19  C8  UNL     1      52.880 -30.288  -9.680  1.00  0.00     0.210 C 
ENDBRANCH   7  18
TORSDOF 4
ENDMDL
