MODEL 1
REMARK VINA RESULT: -5.612486370      0.000      0.000
REMARK  2 active torsions:
REMARK  status: ('A' for Active; 'I' for Inactive)
REMARK    1  A    between atoms: C6_9  and  C7_10 
REMARK    2  A    between atoms: N1_13  and  C9_14 
ROOT
HETATM    1  C1  UNL     1      -7.587  29.889  54.007  1.00  0.00     0.026 C 
HETATM    2  C2  UNL     1      -8.246  28.743  53.846  1.00  0.00     0.018 A 
HETATM    3  C3  UNL     1      -7.528  27.553  53.475  1.00  0.00     0.294 A 
HETATM    4  O1  UNL     1      -6.268  27.549  53.322  1.00  0.00    -0.259 OA
HETATM    5  O2  UNL     1      -8.259  26.397  53.285  1.00  0.00    -0.270 OA
HETATM    6  C4  UNL     1      -9.642  26.350  53.444  1.00  0.00     0.143 A 
HETATM    7  C5  UNL     1     -10.549  25.291  53.289  1.00  0.00     0.182 A 
HETATM    8  F1  UNL     1     -10.150  24.047  52.936  1.00  0.00    -0.200 F 
HETATM    9  C6  UNL     1     -11.796  25.775  53.556  1.00  0.00     0.122 A 
HETATM   10  N1  UNL     1     -11.666  27.077  53.863  1.00  0.00    -0.342 N 
HETATM   11  C11 UNL     1     -10.364  27.450  53.802  1.00  0.00     0.058 A 
HETATM   12  C12 UNL     1      -9.695  28.747  54.057  1.00  0.00     0.073 A 
HETATM   13  C13 UNL     1      -9.965  29.199  55.496  1.00  0.00     0.022 C 
ENDROOT
BRANCH   9  14
HETATM   14  C7  UNL     1     -12.996  24.965  53.500  1.00  0.00     0.175 C 
HETATM   15  C8  UNL     1     -13.811  24.764  54.716  1.00  0.00     0.098 C 
HETATM   16  O3  UNL     1     -13.381  24.418  52.453  1.00  0.00    -0.291 OA
ENDBRANCH   9  14
BRANCH  10  17
HETATM   17  C9  UNL     1     -12.758  27.956  54.176  1.00  0.00     0.125 C 
HETATM   18  C10 UNL     1     -13.345  28.690  53.022  1.00  0.00     0.027 C 
ENDBRANCH  10  17
TORSDOF 2
ENDMDL
MODEL 2
REMARK VINA RESULT: -5.275398889      2.011      2.536
REMARK  2 active torsions:
REMARK  status: ('A' for Active; 'I' for Inactive)
REMARK    1  A    between atoms: C6_9  and  C7_10 
REMARK    2  A    between atoms: N1_13  and  C9_14 
ROOT
HETATM    1  C1  UNL     1      -7.978  27.564  53.797  1.00  0.00     0.026 C 
HETATM    2  C2  UNL     1      -9.181  26.993  53.785  1.00  0.00     0.018 A 
HETATM    3  C3  UNL     1      -9.383  25.769  53.058  1.00  0.00     0.294 A 
HETATM    4  O1  UNL     1      -8.436  25.189  52.442  1.00  0.00    -0.259 OA
HETATM    5  O2  UNL     1     -10.655  25.234  53.046  1.00  0.00    -0.270 OA
HETATM    6  C4  UNL     1     -11.726  25.829  53.708  1.00  0.00     0.143 A 
HETATM    7  C5  UNL     1     -13.073  25.450  53.804  1.00  0.00     0.182 A 
HETATM    8  F1  UNL     1     -13.552  24.334  53.207  1.00  0.00    -0.200 F 
HETATM    9  C6  UNL     1     -13.710  26.385  54.567  1.00  0.00     0.122 A 
HETATM   10  N1  UNL     1     -12.797  27.302  54.927  1.00  0.00    -0.342 N 
HETATM   11  C11 UNL     1     -11.581  26.986  54.417  1.00  0.00     0.058 A 
HETATM   12  C12 UNL     1     -10.261  27.648  54.526  1.00  0.00     0.073 A 
HETATM   13  C13 UNL     1      -9.842  27.738  55.997  1.00  0.00     0.022 C 
ENDROOT
BRANCH   9  14
HETATM   14  C7  UNL     1     -15.122  26.325  54.888  1.00  0.00     0.175 C 
HETATM   15  C8  UNL     1     -16.094  27.114  54.103  1.00  0.00     0.098 C 
HETATM   16  O3  UNL     1     -15.565  25.625  55.813  1.00  0.00    -0.291 OA
ENDBRANCH   9  14
BRANCH  10  17
HETATM   17  C9  UNL     1     -13.078  28.471  55.712  1.00  0.00     0.125 C 
HETATM   18  C10 UNL     1     -13.375  29.709  54.941  1.00  0.00     0.027 C 
ENDBRANCH  10  17
TORSDOF 2
ENDMDL
MODEL 3
REMARK VINA RESULT: -5.229558675      1.159      5.110
REMARK  2 active torsions:
REMARK  status: ('A' for Active; 'I' for Inactive)
REMARK    1  A    between atoms: C6_9  and  C7_10 
REMARK    2  A    between atoms: N1_13  and  C9_14 
ROOT
HETATM    1  C1  UNL     1     -14.976  25.413  55.271  1.00  0.00     0.026 C 
HETATM    2  C2  UNL     1     -13.779  25.520  54.700  1.00  0.00     0.018 A 
HETATM    3  C3  UNL     1     -13.358  24.541  53.733  1.00  0.00     0.294 A 
HETATM    4  O1  UNL     1     -14.111  23.581  53.379  1.00  0.00    -0.259 OA
HETATM    5  O2  UNL     1     -12.095  24.674  53.194  1.00  0.00    -0.270 OA
HETATM    6  C4  UNL     1     -11.234  25.711  53.548  1.00  0.00     0.143 A 
HETATM    7  C5  UNL     1      -9.930  26.006  53.125  1.00  0.00     0.182 A 
HETATM    8  F1  UNL     1      -9.276  25.245  52.217  1.00  0.00    -0.200 F 
HETATM    9  C6  UNL     1      -9.529  27.132  53.784  1.00  0.00     0.122 A 
HETATM   10  N1  UNL     1     -10.541  27.515  54.580  1.00  0.00    -0.342 N 
HETATM   11  C11 UNL     1     -11.591  26.667  54.453  1.00  0.00     0.058 A 
HETATM   12  C12 UNL     1     -12.929  26.649  55.087  1.00  0.00     0.073 A 
HETATM   13  C13 UNL     1     -13.680  27.944  54.758  1.00  0.00     0.022 C 
ENDROOT
BRANCH   9  14
HETATM   14  C7  UNL     1      -8.228  27.743  53.601  1.00  0.00     0.175 C 
HETATM   15  C8  UNL     1      -8.120  29.198  53.367  1.00  0.00     0.098 C 
HETATM   16  O3  UNL     1      -7.174  27.088  53.632  1.00  0.00    -0.291 OA
ENDBRANCH   9  14
BRANCH  10  17
HETATM   17  C9  UNL     1     -10.502  28.645  55.465  1.00  0.00     0.125 C 
HETATM   18  C10 UNL     1     -10.093  28.352  56.866  1.00  0.00     0.027 C 
ENDBRANCH  10  17
TORSDOF 2
ENDMDL
MODEL 4
REMARK VINA RESULT: -5.075244610      1.627      2.152
REMARK  2 active torsions:
REMARK  status: ('A' for Active; 'I' for Inactive)
REMARK    1  A    between atoms: C6_9  and  C7_10 
REMARK    2  A    between atoms: N1_13  and  C9_14 
ROOT
HETATM    1  C1  UNL     1      -8.713  28.463  54.451  1.00  0.00     0.026 C 
HETATM    2  C2  UNL     1      -9.633  27.534  54.205  1.00  0.00     0.018 A 
HETATM    3  C3  UNL     1      -9.306  26.406  53.375  1.00  0.00     0.294 A 
HETATM    4  O1  UNL     1      -8.145  26.247  52.885  1.00  0.00    -0.259 OA
HETATM    5  O2  UNL     1     -10.304  25.487  53.120  1.00  0.00    -0.270 OA
HETATM    6  C4  UNL     1     -11.591  25.614  53.636  1.00  0.00     0.143 A 
HETATM    7  C5  UNL     1     -12.726  24.804  53.486  1.00  0.00     0.182 A 
HETATM    8  F1  UNL     1     -12.709  23.671  52.746  1.00  0.00    -0.200 F 
HETATM    9  C6  UNL     1     -13.739  25.380  54.194  1.00  0.00     0.122 A 
HETATM   10  N1  UNL     1     -13.252  26.498  54.759  1.00  0.00    -0.342 N 
HETATM   11  C11 UNL     1     -11.946  26.662  54.434  1.00  0.00     0.058 A 
HETATM   12  C12 UNL     1     -10.961  27.705  54.801  1.00  0.00     0.073 A 
HETATM   13  C13 UNL     1     -10.795  27.754  56.324  1.00  0.00     0.022 C 
ENDROOT
BRANCH   9  14
HETATM   14  C7  UNL     1     -15.074  24.822  54.276  1.00  0.00     0.175 C 
HETATM   15  C8  UNL     1     -15.315  23.589  55.054  1.00  0.00     0.098 C 
HETATM   16  O3  UNL     1     -16.049  25.343  53.710  1.00  0.00    -0.291 OA
ENDBRANCH   9  14
BRANCH  10  17
HETATM   17  C9  UNL     1     -14.018  27.408  55.563  1.00  0.00     0.125 C 
HETATM   18  C10 UNL     1     -14.648  28.541  54.831  1.00  0.00     0.027 C 
ENDBRANCH  10  17
TORSDOF 2
ENDMDL
MODEL 5
REMARK VINA RESULT: -4.947229134      3.000      3.856
REMARK  2 active torsions:
REMARK  status: ('A' for Active; 'I' for Inactive)
REMARK    1  A    between atoms: C6_9  and  C7_10 
REMARK    2  A    between atoms: N1_13  and  C9_14 
ROOT
HETATM    1  C1  UNL     1     -12.843  29.752  51.399  1.00  0.00     0.026 C 
HETATM    2  C2  UNL     1     -12.757  28.513  51.881  1.00  0.00     0.018 A 
HETATM    3  C3  UNL     1     -11.473  27.873  51.979  1.00  0.00     0.294 A 
HETATM    4  O1  UNL     1     -10.400  28.464  51.645  1.00  0.00    -0.259 OA
HETATM    5  O2  UNL     1     -11.438  26.576  52.452  1.00  0.00    -0.270 OA
HETATM    6  C4  UNL     1     -12.586  25.886  52.833  1.00  0.00     0.143 A 
HETATM    7  C5  UNL     1     -12.754  24.582  53.322  1.00  0.00     0.182 A 
HETATM    8  F1  UNL     1     -11.710  23.743  53.510  1.00  0.00    -0.200 F 
HETATM    9  C6  UNL     1     -14.088  24.392  53.536  1.00  0.00     0.122 A 
HETATM   10  N1  UNL     1     -14.718  25.529  53.196  1.00  0.00    -0.342 N 
HETATM   11  C11 UNL     1     -13.825  26.454  52.766  1.00  0.00     0.058 A 
HETATM   12  C12 UNL     1     -13.995  27.849  52.296  1.00  0.00     0.073 A 
HETATM   13  C13 UNL     1     -14.642  28.695  53.398  1.00  0.00     0.022 C 
ENDROOT
BRANCH   9  14
HETATM   14  C7  UNL     1     -14.647  23.156  54.045  1.00  0.00     0.175 C 
HETATM   15  C8  UNL     1     -14.693  22.908  55.501  1.00  0.00     0.098 C 
HETATM   16  O3  UNL     1     -15.101  22.273  53.298  1.00  0.00    -0.291 OA
ENDBRANCH   9  14
BRANCH  10  17
HETATM   17  C9  UNL     1     -16.139  25.724  53.247  1.00  0.00     0.125 C 
HETATM   18  C10 UNL     1     -16.853  25.612  51.946  1.00  0.00     0.027 C 
ENDBRANCH  10  17
TORSDOF 2
ENDMDL
