MODEL 1
REMARK VINA RESULT: -7.714086622      0.000      0.000
REMARK  12 active torsions:
REMARK  status: ('A' for Active; 'I' for Inactive)
REMARK    1  A    between atoms: C2_2  and  S1_3 
REMARK    2  A    between atoms: S1_3  and  C3_4 
REMARK    3  A    between atoms: C3_4  and  C4_5 
REMARK    4  A    between atoms: C6_10  and  O1_11 
REMARK    5  A    between atoms: C10_16  and  C11_17 
REMARK    6  A    between atoms: C11_17  and  O3_18 
REMARK    7  A    between atoms: O3_18  and  N2_19 
REMARK    8  A    between atoms: C12_21  and  O4_22 
REMARK    9  A    between atoms: C12_21  and  C13_24 
REMARK   10  A    between atoms: C14_30  and  N5_31 
REMARK   11  A    between atoms: C15_35  and  O7_36 
REMARK   12  A    between atoms: N6_38  and  N7_39 
ROOT
HETATM    1  C4  UNL     1      30.354  17.102 -34.649  1.00  0.00     0.312 C 
HETATM    2  N1  UNL     1      30.463  17.898 -35.883  1.00  0.00    -0.027 N 
ATOM      3  H11 UNL     1      30.194  18.875 -35.769  1.00  0.00     0.281 HD
ATOM      4  H12 UNL     1      29.763  17.666 -36.587  1.00  0.00     0.281 HD
HETATM    5  C5  UNL     1      31.811  17.715 -36.325  1.00  0.00     0.338 C 
HETATM    6  C6  UNL     1      32.419  16.831 -35.275  1.00  0.00     0.311 C 
HETATM    7  O2  UNL     1      32.626  15.542 -35.630  1.00  0.00    -0.301 OA
HETATM    8  C8  UNL     1      31.628  14.798 -36.116  1.00  0.00     0.169 C 
HETATM    9  C9  UNL     1      32.082  14.004 -37.320  1.00  0.00     0.069 C 
HETATM   10  C10 UNL     1      31.128  13.829 -35.029  1.00  0.00     0.204 C 
HETATM   11  O6  UNL     1      30.543  14.734 -34.180  1.00  0.00    -0.325 OA
HETATM   12  C15 UNL     1      29.908  15.692 -34.990  1.00  0.00     0.308 C 
HETATM   13  N6  UNL     1      30.373  15.468 -36.357  1.00  0.00    -0.137 NA
HETATM   14  O8  UNL     1      31.620  17.006 -34.142  1.00  0.00    -0.286 OA
ENDROOT
BRANCH  10  15
HETATM   15  C11 UNL     1      32.247  13.031 -34.492  1.00  0.00     0.237 C 
BRANCH  15  16
HETATM   16  O3  UNL     1      32.673  13.546 -33.249  1.00  0.00    -0.276 OA
BRANCH  16  17
HETATM   17  N2  UNL     1      33.679  14.471 -33.259  1.00  0.00    -0.243 N 
HETATM   18  C12 UNL     1      34.918  14.082 -33.189  1.00  0.00     0.193 C 
ATOM     19  H2  UNL     1      33.458  15.464 -33.320  1.00  0.00     0.196 HD
BRANCH  18  20
HETATM   20  O4  UNL     1      35.155  12.720 -33.107  1.00  0.00    -0.343 OA
ATOM     21  H4  UNL     1      35.437  12.375 -32.268  1.00  0.00     0.219 HD
ENDBRANCH  18  20
BRANCH  18  22
HETATM   22  C13 UNL     1      36.008  15.059 -33.198  1.00  0.00     0.154 A 
HETATM   23  N3  UNL     1      35.931  16.364 -33.543  1.00  0.00    -0.234 N 
HETATM   24  O5  UNL     1      37.099  16.887 -33.421  1.00  0.00    -0.155 OA
ATOM     25  H3  UNL     1      35.089  16.851 -33.848  1.00  0.00     0.197 HD
HETATM   26  N4  UNL     1      37.970  16.040 -33.019  1.00  0.00    -0.224 N 
HETATM   27  C14 UNL     1      37.318  14.843 -32.861  1.00  0.00     0.154 A 
ATOM     28  H4  UNL     1      38.960  16.220 -32.850  1.00  0.00     0.198 HD
BRANCH  27  29
HETATM   29  N5  UNL     1      37.904  13.787 -32.468  1.00  0.00    -0.382 N 
ATOM     30  H52 UNL     1      37.553  12.852 -32.672  1.00  0.00     0.157 HD
ATOM     31  H51 UNL     1      38.760  13.669 -31.925  1.00  0.00     0.157 HD
ENDBRANCH  27  29
ENDBRANCH  18  22
ENDBRANCH  16  17
ENDBRANCH  15  16
ENDBRANCH  10  15
BRANCH  13  32
HETATM   32  N7  UNL     1      29.531  14.557 -37.017  1.00  0.00    -0.356 NA
ATOM     33  H72 UNL     1      29.524  13.660 -36.530  1.00  0.00     0.171 HD
ATOM     34  H71 UNL     1      29.988  14.299 -37.893  1.00  0.00     0.171 HD
ENDBRANCH  13  32
BRANCH  12  35
HETATM   35  O7  UNL     1      28.552  15.515 -34.856  1.00  0.00    -0.348 OA
ATOM     36  H7  UNL     1      28.173  16.067 -34.182  1.00  0.00     0.214 HD
ENDBRANCH  12  35
BRANCH   6  37
HETATM   37  O1  UNL     1      33.664  17.386 -34.947  1.00  0.00    -0.336 OA
HETATM   38  C7  UNL     1      33.820  18.654 -35.493  1.00  0.00     0.208 C 
ENDBRANCH   6  37
BRANCH   1  39
HETATM   39  C3  UNL     1      29.371  17.822 -33.781  1.00  0.00     0.150 C 
BRANCH  39  40
HETATM   40  S1  UNL     1      28.448  19.107 -34.621  1.00  0.00    -0.164 SA
BRANCH  40  41
HETATM   41  C2  UNL     1      26.680  18.936 -34.279  1.00  0.00     0.069 C 
HETATM   42  C1  UNL     1      26.019  17.955 -35.196  1.00  0.00     0.016 C 
ENDBRANCH  40  41
ENDBRANCH  39  40
ENDBRANCH   1  39
TORSDOF 12
ENDMDL
MODEL 2
REMARK VINA RESULT: -7.695154251      0.970      1.278
REMARK  12 active torsions:
REMARK  status: ('A' for Active; 'I' for Inactive)
REMARK    1  A    between atoms: C2_2  and  S1_3 
REMARK    2  A    between atoms: S1_3  and  C3_4 
REMARK    3  A    between atoms: C3_4  and  C4_5 
REMARK    4  A    between atoms: C6_10  and  O1_11 
REMARK    5  A    between atoms: C10_16  and  C11_17 
REMARK    6  A    between atoms: C11_17  and  O3_18 
REMARK    7  A    between atoms: O3_18  and  N2_19 
REMARK    8  A    between atoms: C12_21  and  O4_22 
REMARK    9  A    between atoms: C12_21  and  C13_24 
REMARK   10  A    between atoms: C14_30  and  N5_31 
REMARK   11  A    between atoms: C15_35  and  O7_36 
REMARK   12  A    between atoms: N6_38  and  N7_39 
ROOT
HETATM    1  C4  UNL     1      30.363  16.658 -34.475  1.00  0.00     0.312 C 
HETATM    2  N1  UNL     1      30.381  17.641 -35.571  1.00  0.00    -0.027 N 
ATOM      3  H11 UNL     1      30.080  18.575 -35.292  1.00  0.00     0.281 HD
ATOM      4  H12 UNL     1      29.657  17.489 -36.273  1.00  0.00     0.281 HD
HETATM    5  C5  UNL     1      31.712  17.593 -36.092  1.00  0.00     0.338 C 
HETATM    6  C6  UNL     1      32.405  16.584 -35.221  1.00  0.00     0.311 C 
HETATM    7  O2  UNL     1      32.644  15.377 -35.784  1.00  0.00    -0.301 OA
HETATM    8  C8  UNL     1      31.655  14.674 -36.340  1.00  0.00     0.169 C 
HETATM    9  C9  UNL     1      32.080  14.099 -37.672  1.00  0.00     0.069 C 
HETATM   10  C10 UNL     1      31.247  13.524 -35.399  1.00  0.00     0.204 C 
HETATM   11  O6  UNL     1      30.668  14.257 -34.395  1.00  0.00    -0.325 OA
HETATM   12  C15 UNL     1      29.958  15.300 -35.015  1.00  0.00     0.308 C 
HETATM   13  N6  UNL     1      30.363  15.313 -36.419  1.00  0.00    -0.137 NA
HETATM   14  O8  UNL     1      31.656  16.542 -34.043  1.00  0.00    -0.286 OA
ENDROOT
BRANCH  10  15
HETATM   15  C11 UNL     1      32.420  12.705 -35.043  1.00  0.00     0.237 C 
BRANCH  15  16
HETATM   16  O3  UNL     1      32.821  12.962 -33.714  1.00  0.00    -0.276 OA
BRANCH  16  17
HETATM   17  N2  UNL     1      34.160  13.073 -33.467  1.00  0.00    -0.243 N 
HETATM   18  C12 UNL     1      34.649  14.200 -33.042  1.00  0.00     0.193 C 
ATOM     19  H2  UNL     1      34.774  12.273 -33.616  1.00  0.00     0.196 HD
BRANCH  18  20
HETATM   20  O4  UNL     1      33.766  15.251 -32.859  1.00  0.00    -0.343 OA
ATOM     21  H4  UNL     1      34.078  16.006 -32.375  1.00  0.00     0.219 HD
ENDBRANCH  18  20
BRANCH  18  22
HETATM   22  C13 UNL     1      36.082  14.337 -32.773  1.00  0.00     0.154 A 
HETATM   23  N3  UNL     1      36.841  13.552 -31.975  1.00  0.00    -0.234 N 
HETATM   24  O5  UNL     1      38.047  13.995 -31.998  1.00  0.00    -0.155 OA
ATOM     25  H3  UNL     1      36.512  12.745 -31.446  1.00  0.00     0.197 HD
HETATM   26  N4  UNL     1      38.173  15.023 -32.749  1.00  0.00    -0.224 N 
HETATM   27  C14 UNL     1      36.933  15.287 -33.273  1.00  0.00     0.154 A 
ATOM     28  H4  UNL     1      39.031  15.546 -32.924  1.00  0.00     0.198 HD
BRANCH  27  29
HETATM   29  N5  UNL     1      36.714  16.253 -34.068  1.00  0.00    -0.382 N 
ATOM     30  H52 UNL     1      36.736  16.151 -35.082  1.00  0.00     0.157 HD
ATOM     31  H51 UNL     1      36.492  17.230 -33.875  1.00  0.00     0.157 HD
ENDBRANCH  27  29
ENDBRANCH  18  22
ENDBRANCH  16  17
ENDBRANCH  15  16
ENDBRANCH  10  15
BRANCH  13  32
HETATM   32  N7  UNL     1      29.527  14.478 -37.180  1.00  0.00    -0.356 NA
ATOM     33  H72 UNL     1      29.648  14.665 -38.175  1.00  0.00     0.171 HD
ATOM     34  H71 UNL     1      28.568  14.795 -37.036  1.00  0.00     0.171 HD
ENDBRANCH  13  32
BRANCH  12  35
HETATM   35  O7  UNL     1      28.617  15.040 -34.854  1.00  0.00    -0.348 OA
ATOM     36  H7  UNL     1      28.215  14.682 -35.636  1.00  0.00     0.214 HD
ENDBRANCH  12  35
BRANCH   6  37
HETATM   37  O1  UNL     1      33.641  17.138 -34.863  1.00  0.00    -0.336 OA
HETATM   38  C7  UNL     1      33.791  18.427 -35.362  1.00  0.00     0.208 C 
ENDBRANCH   6  37
BRANCH   1  39
HETATM   39  C3  UNL     1      29.396  17.187 -33.464  1.00  0.00     0.150 C 
BRANCH  39  40
HETATM   40  S1  UNL     1      28.747  18.812 -33.844  1.00  0.00    -0.164 SA
BRANCH  40  41
HETATM   41  C2  UNL     1      26.967  18.722 -34.148  1.00  0.00     0.069 C 
HETATM   42  C1  UNL     1      26.636  17.857 -35.323  1.00  0.00     0.016 C 
ENDBRANCH  40  41
ENDBRANCH  39  40
ENDBRANCH   1  39
TORSDOF 12
ENDMDL
MODEL 3
REMARK VINA RESULT: -7.682974192      1.337      1.693
REMARK  12 active torsions:
REMARK  status: ('A' for Active; 'I' for Inactive)
REMARK    1  A    between atoms: C2_2  and  S1_3 
REMARK    2  A    between atoms: S1_3  and  C3_4 
REMARK    3  A    between atoms: C3_4  and  C4_5 
REMARK    4  A    between atoms: C6_10  and  O1_11 
REMARK    5  A    between atoms: C10_16  and  C11_17 
REMARK    6  A    between atoms: C11_17  and  O3_18 
REMARK    7  A    between atoms: O3_18  and  N2_19 
REMARK    8  A    between atoms: C12_21  and  O4_22 
REMARK    9  A    between atoms: C12_21  and  C13_24 
REMARK   10  A    between atoms: C14_30  and  N5_31 
REMARK   11  A    between atoms: C15_35  and  O7_36 
REMARK   12  A    between atoms: N6_38  and  N7_39 
ROOT
HETATM    1  C4  UNL     1      30.534  16.934 -34.595  1.00  0.00     0.312 C 
HETATM    2  N1  UNL     1      30.668  17.823 -35.762  1.00  0.00    -0.027 N 
ATOM      3  H11 UNL     1      30.441  18.798 -35.566  1.00  0.00     0.281 HD
ATOM      4  H12 UNL     1      29.954  17.678 -36.475  1.00  0.00     0.281 HD
HETATM    5  C5  UNL     1      32.004  17.622 -36.231  1.00  0.00     0.338 C 
HETATM    6  C6  UNL     1      32.582  16.630 -35.263  1.00  0.00     0.311 C 
HETATM    7  O2  UNL     1      32.732  15.367 -35.723  1.00  0.00    -0.301 OA
HETATM    8  C8  UNL     1      31.700  14.707 -36.257  1.00  0.00     0.169 C 
HETATM    9  C9  UNL     1      32.112  13.995 -37.526  1.00  0.00     0.069 C 
HETATM   10  C10 UNL     1      31.168  13.674 -35.247  1.00  0.00     0.204 C 
HETATM   11  O6  UNL     1      30.627  14.530 -34.322  1.00  0.00    -0.325 OA
HETATM   12  C15 UNL     1      30.028  15.577 -35.045  1.00  0.00     0.308 C 
HETATM   13  N6  UNL     1      30.472  15.445 -36.430  1.00  0.00    -0.137 NA
HETATM   14  O8  UNL     1      31.799  16.745 -34.111  1.00  0.00    -0.286 OA
ENDROOT
BRANCH  10  15
HETATM   15  C11 UNL     1      32.256  12.790 -34.788  1.00  0.00     0.237 C 
BRANCH  15  16
HETATM   16  O3  UNL     1      32.743  13.211 -33.532  1.00  0.00    -0.276 OA
BRANCH  16  17
HETATM   17  N2  UNL     1      34.097  13.258 -33.362  1.00  0.00    -0.243 N 
HETATM   18  C12 UNL     1      34.661  14.356 -32.951  1.00  0.00     0.193 C 
ATOM     19  H2  UNL     1      34.665  12.434 -33.557  1.00  0.00     0.196 HD
BRANCH  18  20
HETATM   20  O4  UNL     1      33.838  15.442 -32.703  1.00  0.00    -0.343 OA
ATOM     21  H4  UNL     1      33.145  15.618 -33.328  1.00  0.00     0.219 HD
ENDBRANCH  18  20
BRANCH  18  22
HETATM   22  C13 UNL     1      36.112  14.425 -32.764  1.00  0.00     0.154 A 
HETATM   23  N3  UNL     1      36.891  13.542 -32.099  1.00  0.00    -0.234 N 
HETATM   24  O5  UNL     1      38.108  13.951 -32.157  1.00  0.00    -0.155 OA
ATOM     25  H3  UNL     1      36.568  12.695 -31.632  1.00  0.00     0.197 HD
HETATM   26  N4  UNL     1      38.223  15.045 -32.809  1.00  0.00    -0.224 N 
HETATM   27  C14 UNL     1      36.963  15.395 -33.223  1.00  0.00     0.154 A 
ATOM     28  H4  UNL     1      39.085  15.559 -32.988  1.00  0.00     0.198 HD
BRANCH  27  29
HETATM   29  N5  UNL     1      36.727  16.443 -33.902  1.00  0.00    -0.382 N 
ATOM     30  H52 UNL     1      36.641  16.435 -34.918  1.00  0.00     0.157 HD
ATOM     31  H51 UNL     1      36.589  17.408 -33.602  1.00  0.00     0.157 HD
ENDBRANCH  27  29
ENDBRANCH  18  22
ENDBRANCH  16  17
ENDBRANCH  15  16
ENDBRANCH  10  15
BRANCH  13  32
HETATM   32  N7  UNL     1      29.589  14.626 -37.153  1.00  0.00    -0.356 NA
ATOM     33  H72 UNL     1      29.009  15.190 -37.775  1.00  0.00     0.171 HD
ATOM     34  H71 UNL     1      28.890  14.277 -36.497  1.00  0.00     0.171 HD
ENDBRANCH  13  32
BRANCH  12  35
HETATM   35  O7  UNL     1      28.666  15.445 -34.911  1.00  0.00    -0.348 OA
ATOM     36  H7  UNL     1      28.390  15.369 -34.005  1.00  0.00     0.214 HD
ENDBRANCH  12  35
BRANCH   6  37
HETATM   37  O1  UNL     1      33.851  17.105 -34.905  1.00  0.00    -0.336 OA
HETATM   38  C7  UNL     1      33.977  18.468 -35.149  1.00  0.00     0.208 C 
ENDBRANCH   6  37
BRANCH   1  39
HETATM   39  C3  UNL     1      29.588  17.622 -33.662  1.00  0.00     0.150 C 
BRANCH  39  40
HETATM   40  S1  UNL     1      30.067  19.291 -33.224  1.00  0.00    -0.164 SA
BRANCH  40  41
HETATM   41  C2  UNL     1      29.208  19.817 -31.722  1.00  0.00     0.069 C 
HETATM   42  C1  UNL     1      28.405  18.710 -31.112  1.00  0.00     0.016 C 
ENDBRANCH  40  41
ENDBRANCH  39  40
ENDBRANCH   1  39
TORSDOF 12
ENDMDL
MODEL 4
REMARK VINA RESULT: -7.670020465      0.929      1.161
REMARK  12 active torsions:
REMARK  status: ('A' for Active; 'I' for Inactive)
REMARK    1  A    between atoms: C2_2  and  S1_3 
REMARK    2  A    between atoms: S1_3  and  C3_4 
REMARK    3  A    between atoms: C3_4  and  C4_5 
REMARK    4  A    between atoms: C6_10  and  O1_11 
REMARK    5  A    between atoms: C10_16  and  C11_17 
REMARK    6  A    between atoms: C11_17  and  O3_18 
REMARK    7  A    between atoms: O3_18  and  N2_19 
REMARK    8  A    between atoms: C12_21  and  O4_22 
REMARK    9  A    between atoms: C12_21  and  C13_24 
REMARK   10  A    between atoms: C14_30  and  N5_31 
REMARK   11  A    between atoms: C15_35  and  O7_36 
REMARK   12  A    between atoms: N6_38  and  N7_39 
ROOT
HETATM    1  C4  UNL     1      30.381  17.114 -34.667  1.00  0.00     0.312 C 
HETATM    2  N1  UNL     1      30.505  17.908 -35.901  1.00  0.00    -0.027 N 
ATOM      3  H11 UNL     1      30.247  18.888 -35.788  1.00  0.00     0.281 HD
ATOM      4  H12 UNL     1      29.806  17.683 -36.608  1.00  0.00     0.281 HD
HETATM    5  C5  UNL     1      31.853  17.711 -36.336  1.00  0.00     0.338 C 
HETATM    6  C6  UNL     1      32.446  16.820 -35.283  1.00  0.00     0.311 C 
HETATM    7  O2  UNL     1      32.640  15.528 -35.636  1.00  0.00    -0.301 OA
HETATM    8  C8  UNL     1      31.637  14.796 -36.127  1.00  0.00     0.169 C 
HETATM    9  C9  UNL     1      32.087  13.996 -37.328  1.00  0.00     0.069 C 
HETATM   10  C10 UNL     1      31.122  13.832 -35.042  1.00  0.00     0.204 C 
HETATM   11  O6  UNL     1      30.542  14.744 -34.196  1.00  0.00    -0.325 OA
HETATM   12  C15 UNL     1      29.922  15.709 -35.009  1.00  0.00     0.308 C 
HETATM   13  N6  UNL     1      30.390  15.479 -36.374  1.00  0.00    -0.137 NA
HETATM   14  O8  UNL     1      31.644  17.004 -34.154  1.00  0.00    -0.286 OA
ENDROOT
BRANCH  10  15
HETATM   15  C11 UNL     1      32.228  13.022 -34.500  1.00  0.00     0.237 C 
BRANCH  15  16
HETATM   16  O3  UNL     1      32.655  13.533 -33.255  1.00  0.00    -0.276 OA
BRANCH  16  17
HETATM   17  N2  UNL     1      33.663  14.455 -33.261  1.00  0.00    -0.243 N 
HETATM   18  C12 UNL     1      34.901  14.062 -33.195  1.00  0.00     0.193 C 
ATOM     19  H2  UNL     1      33.445  15.450 -33.317  1.00  0.00     0.196 HD
BRANCH  18  20
HETATM   20  O4  UNL     1      35.135  12.700 -33.120  1.00  0.00    -0.343 OA
ATOM     21  H4  UNL     1      35.920  12.366 -33.540  1.00  0.00     0.219 HD
ENDBRANCH  18  20
BRANCH  18  22
HETATM   22  C13 UNL     1      35.994  15.036 -33.200  1.00  0.00     0.154 A 
HETATM   23  N3  UNL     1      35.928  16.335 -33.573  1.00  0.00    -0.234 N 
HETATM   24  O5  UNL     1      37.095  16.857 -33.436  1.00  0.00    -0.155 OA
ATOM     25  H3  UNL     1      35.094  16.818 -33.905  1.00  0.00     0.197 HD
HETATM   26  N4  UNL     1      37.955  16.016 -33.000  1.00  0.00    -0.224 N 
HETATM   27  C14 UNL     1      37.296  14.825 -32.831  1.00  0.00     0.154 A 
ATOM     28  H4  UNL     1      38.941  16.197 -32.813  1.00  0.00     0.198 HD
BRANCH  27  29
HETATM   29  N5  UNL     1      37.871  13.775 -32.406  1.00  0.00    -0.382 N 
ATOM     30  H52 UNL     1      37.660  12.845 -32.765  1.00  0.00     0.157 HD
ATOM     31  H51 UNL     1      38.589  13.658 -31.691  1.00  0.00     0.157 HD
ENDBRANCH  27  29
ENDBRANCH  18  22
ENDBRANCH  16  17
ENDBRANCH  15  16
ENDBRANCH  10  15
BRANCH  13  32
HETATM   32  N7  UNL     1      29.542  14.577 -37.038  1.00  0.00    -0.356 NA
ATOM     33  H72 UNL     1      30.006  13.677 -37.164  1.00  0.00     0.171 HD
ATOM     34  H71 UNL     1      29.460  14.891 -38.005  1.00  0.00     0.171 HD
ENDBRANCH  13  32
BRANCH  12  35
HETATM   35  O7  UNL     1      28.563  15.547 -34.881  1.00  0.00    -0.348 OA
ATOM     36  H7  UNL     1      28.231  14.813 -35.384  1.00  0.00     0.214 HD
ENDBRANCH  12  35
BRANCH   6  37
HETATM   37  O1  UNL     1      33.696  17.361 -34.950  1.00  0.00    -0.336 OA
HETATM   38  C7  UNL     1      33.853  18.643 -35.464  1.00  0.00     0.208 C 
ENDBRANCH   6  37
BRANCH   1  39
HETATM   39  C3  UNL     1      29.402  17.845 -33.804  1.00  0.00     0.150 C 
BRANCH  39  40
HETATM   40  S1  UNL     1      29.991  19.423 -33.195  1.00  0.00    -0.164 SA
BRANCH  40  41
HETATM   41  C2  UNL     1      29.220  19.810 -31.605  1.00  0.00     0.069 C 
HETATM   42  C1  UNL     1      28.372  18.685 -31.099  1.00  0.00     0.016 C 
ENDBRANCH  40  41
ENDBRANCH  39  40
ENDBRANCH   1  39
TORSDOF 12
ENDMDL
MODEL 5
REMARK VINA RESULT: -7.587547026      2.012      3.428
REMARK  12 active torsions:
REMARK  status: ('A' for Active; 'I' for Inactive)
REMARK    1  A    between atoms: C2_2  and  S1_3 
REMARK    2  A    between atoms: S1_3  and  C3_4 
REMARK    3  A    between atoms: C3_4  and  C4_5 
REMARK    4  A    between atoms: C6_10  and  O1_11 
REMARK    5  A    between atoms: C10_16  and  C11_17 
REMARK    6  A    between atoms: C11_17  and  O3_18 
REMARK    7  A    between atoms: O3_18  and  N2_19 
REMARK    8  A    between atoms: C12_21  and  O4_22 
REMARK    9  A    between atoms: C12_21  and  C13_24 
REMARK   10  A    between atoms: C14_30  and  N5_31 
REMARK   11  A    between atoms: C15_35  and  O7_36 
REMARK   12  A    between atoms: N6_38  and  N7_39 
ROOT
HETATM    1  C4  UNL     1      30.219  16.864 -36.650  1.00  0.00     0.312 C 
HETATM    2  N1  UNL     1      29.304  17.245 -35.560  1.00  0.00    -0.027 N 
ATOM      3  H11 UNL     1      28.654  17.991 -35.808  1.00  0.00     0.281 HD
ATOM      4  H12 UNL     1      29.759  17.737 -34.792  1.00  0.00     0.281 HD
HETATM    5  C5  UNL     1      28.665  16.026 -35.168  1.00  0.00     0.338 C 
HETATM    6  C6  UNL     1      29.241  15.000 -36.100  1.00  0.00     0.311 C 
HETATM    7  O2  UNL     1      30.145  14.149 -35.563  1.00  0.00    -0.301 OA
HETATM    8  C8  UNL     1      31.218  14.610 -34.916  1.00  0.00     0.169 C 
HETATM    9  C9  UNL     1      31.445  13.848 -33.630  1.00  0.00     0.069 C 
HETATM   10  C10 UNL     1      32.462  14.471 -35.813  1.00  0.00     0.204 C 
HETATM   11  O6  UNL     1      32.158  15.418 -36.758  1.00  0.00    -0.325 OA
HETATM   12  C15 UNL     1      31.573  16.497 -36.073  1.00  0.00     0.308 C 
HETATM   13  N6  UNL     1      31.295  16.037 -34.715  1.00  0.00    -0.137 NA
HETATM   14  O8  UNL     1      29.702  15.725 -37.202  1.00  0.00    -0.286 OA
ENDROOT
BRANCH  10  15
HETATM   15  C11 UNL     1      32.612  13.080 -36.280  1.00  0.00     0.237 C 
BRANCH  15  16
HETATM   16  O3  UNL     1      33.793  12.506 -35.760  1.00  0.00    -0.276 OA
BRANCH  16  17
HETATM   17  N2  UNL     1      34.788  13.354 -35.367  1.00  0.00    -0.243 N 
HETATM   18  C12 UNL     1      35.221  13.322 -34.141  1.00  0.00     0.193 C 
ATOM     19  H2  UNL     1      35.192  14.012 -36.033  1.00  0.00     0.196 HD
BRANCH  18  20
HETATM   20  O4  UNL     1      34.634  12.408 -33.281  1.00  0.00    -0.343 OA
ATOM     21  H4  UNL     1      35.131  12.146 -32.515  1.00  0.00     0.219 HD
ENDBRANCH  18  20
BRANCH  18  22
HETATM   22  C13 UNL     1      36.287  14.224 -33.701  1.00  0.00     0.154 A 
HETATM   23  N3  UNL     1      37.404  13.893 -33.014  1.00  0.00    -0.234 N 
HETATM   24  O5  UNL     1      38.091  14.961 -32.817  1.00  0.00    -0.155 OA
ATOM     25  H3  UNL     1      37.658  12.955 -32.705  1.00  0.00     0.197 HD
HETATM   26  N4  UNL     1      37.531  15.998 -33.316  1.00  0.00    -0.224 N 
HETATM   27  C14 UNL     1      36.363  15.577 -33.898  1.00  0.00     0.154 A 
ATOM     28  H4  UNL     1      37.886  16.953 -33.286  1.00  0.00     0.198 HD
BRANCH  27  29
HETATM   29  N5  UNL     1      35.564  16.369 -34.488  1.00  0.00    -0.382 N 
ATOM     30  H52 UNL     1      34.678  16.063 -34.890  1.00  0.00     0.157 HD
ATOM     31  H51 UNL     1      35.636  17.372 -34.663  1.00  0.00     0.157 HD
ENDBRANCH  27  29
ENDBRANCH  18  22
ENDBRANCH  16  17
ENDBRANCH  15  16
ENDBRANCH  10  15
BRANCH  13  32
HETATM   32  N7  UNL     1      32.397  16.284 -33.878  1.00  0.00    -0.356 NA
ATOM     33  H72 UNL     1      32.861  17.152 -34.146  1.00  0.00     0.171 HD
ATOM     34  H71 UNL     1      33.115  15.598 -34.110  1.00  0.00     0.171 HD
ENDBRANCH  13  32
BRANCH  12  35
HETATM   35  O7  UNL     1      32.467  17.542 -36.106  1.00  0.00    -0.348 OA
ATOM     36  H7  UNL     1      33.299  17.326 -35.704  1.00  0.00     0.214 HD
ENDBRANCH  12  35
BRANCH   6  37
HETATM   37  O1  UNL     1      28.167  14.235 -36.575  1.00  0.00    -0.336 OA
HETATM   38  C7  UNL     1      27.639  13.419 -35.581  1.00  0.00     0.208 C 
ENDBRANCH   6  37
BRANCH   1  39
HETATM   39  C3  UNL     1      30.283  18.046 -37.564  1.00  0.00     0.150 C 
BRANCH  39  40
HETATM   40  S1  UNL     1      28.996  19.261 -37.290  1.00  0.00    -0.164 SA
BRANCH  40  41
HETATM   41  C2  UNL     1      29.679  20.726 -36.479  1.00  0.00     0.069 C 
HETATM   42  C1  UNL     1      28.829  21.940 -36.693  1.00  0.00     0.016 C 
ENDBRANCH  40  41
ENDBRANCH  39  40
ENDBRANCH   1  39
TORSDOF 12
ENDMDL
