MODEL 1
REMARK VINA RESULT: -6.385306476      0.000      0.000
REMARK  14 active torsions:
REMARK  status: ('A' for Active; 'I' for Inactive)
REMARK    1  A    between atoms: S1_2  and  C2_3 
REMARK    2  A    between atoms: C4_6  and  O2_7 
REMARK    3  A    between atoms: O2_7  and  C5_8 
REMARK    4  A    between atoms: C5_8  and  N1_10 
REMARK    5  A    between atoms: N1_10  and  C6_12 
REMARK    6  A    between atoms: C6_12  and  C7_13 
REMARK    7  A    between atoms: C10_16  and  O3_17 
REMARK    8  A    between atoms: C11_19  and  O4_20 
REMARK    9  A    between atoms: O4_20  and  C12_21 
REMARK   10  A    between atoms: C13_23  and  C14_24 
REMARK   11  A    between atoms: C14_24  and  O6_25 
REMARK   12  A    between atoms: C15_27  and  O7_28 
REMARK   13  A    between atoms: C16_30  and  O8_31 
REMARK   14  A    between atoms: C17_33  and  O9_34 
ROOT
HETATM    1  C2  UNL     1      -2.003  79.593  21.267  1.00  0.00     0.102 C 
HETATM    2  C3  UNL     1      -0.880  78.555  21.262  1.00  0.00     0.189 C 
HETATM    3  O1  UNL     1       0.257  79.234  20.819  1.00  0.00    -0.357 OA
HETATM    4  C4  UNL     1       0.697  80.031  21.845  1.00  0.00     0.299 C 
HETATM    5  C10 UNL     1      -0.339  80.392  22.860  1.00  0.00     0.204 C 
HETATM    6  C11 UNL     1      -1.689  80.702  22.219  1.00  0.00     0.174 C 
ENDROOT
BRANCH   6   7
HETATM    7  O4  UNL     1      -1.592  81.947  21.667  1.00  0.00    -0.349 OA
BRANCH   7   8
HETATM    8  C12 UNL     1      -2.668  82.790  21.849  1.00  0.00     0.292 C 
HETATM    9  O5  UNL     1      -2.650  83.578  22.951  1.00  0.00    -0.348 OA
HETATM   10  C13 UNL     1      -2.141  84.813  22.865  1.00  0.00     0.179 C 
HETATM   11  C15 UNL     1      -2.410  85.562  21.592  1.00  0.00     0.180 C 
HETATM   12  C16 UNL     1      -2.208  84.671  20.396  1.00  0.00     0.183 C 
HETATM   13  C17 UNL     1      -3.124  83.482  20.602  1.00  0.00     0.204 C 
BRANCH  10  14
HETATM   14  C14 UNL     1      -0.669  84.816  23.247  1.00  0.00     0.198 C 
BRANCH  14  15
HETATM   15  O6  UNL     1       0.149  84.154  22.382  1.00  0.00    -0.398 OA
ATOM     16  H6  UNL     1       0.944  84.619  22.148  1.00  0.00     0.209 HD
ENDBRANCH  14  15
ENDBRANCH  10  14
BRANCH  11  17
HETATM   17  O7  UNL     1      -3.719  86.090  21.587  1.00  0.00    -0.390 OA
ATOM     18  H7  UNL     1      -4.160  85.891  20.770  1.00  0.00     0.210 HD
ENDBRANCH  11  17
BRANCH  12  19
HETATM   19  O8  UNL     1      -2.499  85.333  19.201  1.00  0.00    -0.390 OA
ATOM     20  H8  UNL     1      -3.428  85.309  19.003  1.00  0.00     0.210 HD
ENDBRANCH  12  19
BRANCH  13  21
HETATM   21  O9  UNL     1      -4.416  83.989  20.741  1.00  0.00    -0.388 OA
ATOM     22  H9  UNL     1      -5.030  83.539  20.172  1.00  0.00     0.210 HD
ENDBRANCH  13  21
ENDBRANCH   7   8
ENDBRANCH   6   7
BRANCH   1  23
HETATM   23  S1  UNL     1      -2.183  80.163  19.558  1.00  0.00    -0.164 SA
HETATM   24  C1  UNL     1      -3.564  79.357  18.739  1.00  0.00     0.090 C 
ENDBRANCH   1  23
BRANCH   5  25
HETATM   25  O3  UNL     1       0.142  81.546  23.524  1.00  0.00    -0.388 OA
ATOM     26  H3  UNL     1      -0.623  81.994  23.865  1.00  0.00     0.210 HD
ENDBRANCH   5  25
BRANCH   4  27
HETATM   27  O2  UNL     1       1.799  79.391  22.453  1.00  0.00    -0.293 OA
BRANCH  27  28
HETATM   28  C5  UNL     1       3.110  79.597  22.114  1.00  0.00     0.212 C 
HETATM   29  S2  UNL     1       4.219  80.239  23.111  1.00  0.00    -0.033 SA
BRANCH  28  30
HETATM   30  N1  UNL     1       3.545  79.226  20.792  1.00  0.00    -0.361 N 
ATOM     31  H1  UNL     1       3.129  78.415  20.334  1.00  0.00     0.162 HD
BRANCH  30  32
HETATM   32  C6  UNL     1       4.556  79.983  20.114  1.00  0.00     0.127 C 
BRANCH  32  33
HETATM   33  C7  UNL     1       4.195  80.118  18.630  1.00  0.00     0.003 A 
HETATM   34  C8  UNL     1       2.752  80.007  18.312  1.00  0.00     0.007 A 
HETATM   35  C9  UNL     1       3.712  78.890  17.987  1.00  0.00     0.007 A 
ENDBRANCH  32  33
ENDBRANCH  30  32
ENDBRANCH  28  30
ENDBRANCH  27  28
ENDBRANCH   4  27
TORSDOF 14
ENDMDL
MODEL 2
REMARK VINA RESULT: -6.151428063      1.380      2.184
REMARK  14 active torsions:
REMARK  status: ('A' for Active; 'I' for Inactive)
REMARK    1  A    between atoms: S1_2  and  C2_3 
REMARK    2  A    between atoms: C4_6  and  O2_7 
REMARK    3  A    between atoms: O2_7  and  C5_8 
REMARK    4  A    between atoms: C5_8  and  N1_10 
REMARK    5  A    between atoms: N1_10  and  C6_12 
REMARK    6  A    between atoms: C6_12  and  C7_13 
REMARK    7  A    between atoms: C10_16  and  O3_17 
REMARK    8  A    between atoms: C11_19  and  O4_20 
REMARK    9  A    between atoms: O4_20  and  C12_21 
REMARK   10  A    between atoms: C13_23  and  C14_24 
REMARK   11  A    between atoms: C14_24  and  O6_25 
REMARK   12  A    between atoms: C15_27  and  O7_28 
REMARK   13  A    between atoms: C16_30  and  O8_31 
REMARK   14  A    between atoms: C17_33  and  O9_34 
ROOT
HETATM    1  C2  UNL     1      -1.700  80.532  22.073  1.00  0.00     0.102 C 
HETATM    2  C3  UNL     1      -1.043  79.170  21.848  1.00  0.00     0.189 C 
HETATM    3  O1  UNL     1       0.117  79.429  21.116  1.00  0.00    -0.357 OA
HETATM    4  C4  UNL     1       1.040  79.981  21.969  1.00  0.00     0.299 C 
HETATM    5  C10 UNL     1       0.469  80.638  23.184  1.00  0.00     0.204 C 
HETATM    6  C11 UNL     1      -0.802  81.423  22.870  1.00  0.00     0.174 C 
ENDROOT
BRANCH   6   7
HETATM    7  O4  UNL     1      -0.414  82.578  22.254  1.00  0.00    -0.349 OA
BRANCH   7   8
HETATM    8  C12 UNL     1      -0.518  83.738  22.992  1.00  0.00     0.292 C 
HETATM    9  O5  UNL     1      -0.386  84.907  22.319  1.00  0.00    -0.348 OA
HETATM   10  C13 UNL     1      -1.480  85.520  21.849  1.00  0.00     0.179 C 
HETATM   11  C15 UNL     1      -2.707  85.455  22.711  1.00  0.00     0.180 C 
HETATM   12  C16 UNL     1      -2.902  84.067  23.259  1.00  0.00     0.183 C 
HETATM   13  C17 UNL     1      -1.625  83.728  24.000  1.00  0.00     0.204 C 
BRANCH  10  14
HETATM   14  C14 UNL     1      -1.752  85.107  20.410  1.00  0.00     0.198 C 
BRANCH  14  15
HETATM   15  O6  UNL     1      -0.693  84.542  19.767  1.00  0.00    -0.398 OA
ATOM     16  H6  UNL     1      -0.466  84.947  18.938  1.00  0.00     0.209 HD
ENDBRANCH  14  15
ENDBRANCH  10  14
BRANCH  11  17
HETATM   17  O7  UNL     1      -2.628  86.386  23.769  1.00  0.00    -0.390 OA
ATOM     18  H7  UNL     1      -3.350  86.272  24.375  1.00  0.00     0.210 HD
ENDBRANCH  11  17
BRANCH  12  19
HETATM   19  O8  UNL     1      -4.012  83.994  24.104  1.00  0.00    -0.390 OA
ATOM     20  H8  UNL     1      -4.372  83.117  24.137  1.00  0.00     0.210 HD
ENDBRANCH  12  19
BRANCH  13  21
HETATM   21  O9  UNL     1      -1.446  84.718  24.967  1.00  0.00    -0.388 OA
ATOM     22  H9  UNL     1      -2.268  84.953  25.382  1.00  0.00     0.210 HD
ENDBRANCH  13  21
ENDBRANCH   7   8
ENDBRANCH   6   7
BRANCH   1  23
HETATM   23  S1  UNL     1      -2.075  81.198  20.432  1.00  0.00    -0.164 SA
HETATM   24  C1  UNL     1      -2.905  79.982  19.404  1.00  0.00     0.090 C 
ENDBRANCH   1  23
BRANCH   5  25
HETATM   25  O3  UNL     1       1.464  81.525  23.660  1.00  0.00    -0.388 OA
ATOM     26  H3  UNL     1       2.234  80.995  23.828  1.00  0.00     0.210 HD
ENDBRANCH   5  25
BRANCH   4  27
HETATM   27  O2  UNL     1       1.962  78.973  22.325  1.00  0.00    -0.293 OA
BRANCH  27  28
HETATM   28  C5  UNL     1       3.266  79.195  22.681  1.00  0.00     0.212 C 
HETATM   29  S2  UNL     1       3.876  78.875  24.151  1.00  0.00    -0.033 SA
BRANCH  28  30
HETATM   30  N1  UNL     1       4.162  79.747  21.699  1.00  0.00    -0.361 N 
ATOM     31  H1  UNL     1       4.707  80.579  21.925  1.00  0.00     0.162 HD
BRANCH  30  32
HETATM   32  C6  UNL     1       4.297  79.141  20.406  1.00  0.00     0.127 C 
BRANCH  32  33
HETATM   33  C7  UNL     1       3.990  80.173  19.315  1.00  0.00     0.003 A 
HETATM   34  C8  UNL     1       2.670  80.033  18.657  1.00  0.00     0.007 A 
HETATM   35  C9  UNL     1       3.942  79.645  17.946  1.00  0.00     0.007 A 
ENDBRANCH  32  33
ENDBRANCH  30  32
ENDBRANCH  28  30
ENDBRANCH  27  28
ENDBRANCH   4  27
TORSDOF 14
ENDMDL
MODEL 3
REMARK VINA RESULT: -6.045526024      3.881      6.926
REMARK  14 active torsions:
REMARK  status: ('A' for Active; 'I' for Inactive)
REMARK    1  A    between atoms: S1_2  and  C2_3 
REMARK    2  A    between atoms: C4_6  and  O2_7 
REMARK    3  A    between atoms: O2_7  and  C5_8 
REMARK    4  A    between atoms: C5_8  and  N1_10 
REMARK    5  A    between atoms: N1_10  and  C6_12 
REMARK    6  A    between atoms: C6_12  and  C7_13 
REMARK    7  A    between atoms: C10_16  and  O3_17 
REMARK    8  A    between atoms: C11_19  and  O4_20 
REMARK    9  A    between atoms: O4_20  and  C12_21 
REMARK   10  A    between atoms: C13_23  and  C14_24 
REMARK   11  A    between atoms: C14_24  and  O6_25 
REMARK   12  A    between atoms: C15_27  and  O7_28 
REMARK   13  A    between atoms: C16_30  and  O8_31 
REMARK   14  A    between atoms: C17_33  and  O9_34 
ROOT
HETATM    1  C2  UNL     1      -2.802  84.086  23.961  1.00  0.00     0.102 C 
HETATM    2  C3  UNL     1      -2.322  84.881  25.176  1.00  0.00     0.189 C 
HETATM    3  O1  UNL     1      -1.135  84.266  25.580  1.00  0.00    -0.357 OA
HETATM    4  C4  UNL     1      -0.154  84.615  24.686  1.00  0.00     0.299 C 
HETATM    5  C10 UNL     1      -0.643  85.032  23.337  1.00  0.00     0.204 C 
HETATM    6  C11 UNL     1      -1.803  84.166  22.853  1.00  0.00     0.174 C 
ENDROOT
BRANCH   6   7
HETATM    7  O4  UNL     1      -1.270  82.975  22.448  1.00  0.00    -0.349 OA
BRANCH   7   8
HETATM    8  C12 UNL     1      -1.367  82.678  21.106  1.00  0.00     0.292 C 
HETATM    9  O5  UNL     1      -0.354  81.960  20.562  1.00  0.00    -0.348 OA
HETATM   10  C13 UNL     1      -0.452  80.626  20.509  1.00  0.00     0.179 C 
HETATM   11  C15 UNL     1      -1.814  80.065  20.217  1.00  0.00     0.180 C 
HETATM   12  C16 UNL     1      -2.868  80.781  21.018  1.00  0.00     0.183 C 
HETATM   13  C17 UNL     1      -2.732  82.249  20.668  1.00  0.00     0.204 C 
BRANCH  10  14
HETATM   14  C14 UNL     1       0.196  79.989  21.729  1.00  0.00     0.198 C 
BRANCH  14  15
HETATM   15  O6  UNL     1       0.933  80.840  22.495  1.00  0.00    -0.398 OA
ATOM     16  H6  UNL     1       1.549  81.381  22.013  1.00  0.00     0.209 HD
ENDBRANCH  14  15
ENDBRANCH  10  14
BRANCH  11  17
HETATM   17  O7  UNL     1      -2.109  80.152  18.840  1.00  0.00    -0.390 OA
ATOM     18  H7  UNL     1      -2.960  79.774  18.652  1.00  0.00     0.210 HD
ENDBRANCH  11  17
BRANCH  12  19
HETATM   19  O8  UNL     1      -4.150  80.308  20.727  1.00  0.00    -0.390 OA
ATOM     20  H8  UNL     1      -4.693  80.980  20.334  1.00  0.00     0.210 HD
ENDBRANCH  12  19
BRANCH  13  21
HETATM   21  O9  UNL     1      -2.881  82.348  19.284  1.00  0.00    -0.388 OA
ATOM     22  H9  UNL     1      -3.687  81.939  18.990  1.00  0.00     0.210 HD
ENDBRANCH  13  21
ENDBRANCH   7   8
ENDBRANCH   6   7
BRANCH   1  23
HETATM   23  S1  UNL     1      -3.083  82.392  24.535  1.00  0.00    -0.164 SA
HETATM   24  C1  UNL     1      -4.722  81.810  24.086  1.00  0.00     0.090 C 
ENDBRANCH   1  23
BRANCH   5  25
HETATM   25  O3  UNL     1       0.454  84.884  22.454  1.00  0.00    -0.388 OA
ATOM     26  H3  UNL     1       0.119  85.058  21.582  1.00  0.00     0.210 HD
ENDBRANCH   5  25
BRANCH   4  27
HETATM   27  O2  UNL     1       0.633  85.630  25.274  1.00  0.00    -0.293 OA
BRANCH  27  28
HETATM   28  C5  UNL     1       1.778  85.415  25.993  1.00  0.00     0.212 C 
HETATM   29  S2  UNL     1       3.276  85.643  25.411  1.00  0.00    -0.033 SA
BRANCH  28  30
HETATM   30  N1  UNL     1       1.660  84.956  27.353  1.00  0.00    -0.361 N 
ATOM     31  H1  UNL     1       2.224  84.168  27.670  1.00  0.00     0.162 HD
BRANCH  30  32
HETATM   32  C6  UNL     1       0.757  85.596  28.267  1.00  0.00     0.127 C 
BRANCH  32  33
HETATM   33  C7  UNL     1       1.246  85.393  29.706  1.00  0.00     0.003 A 
HETATM   34  C8  UNL     1       0.182  85.198  30.719  1.00  0.00     0.007 A 
HETATM   35  C9  UNL     1       0.949  86.493  30.631  1.00  0.00     0.007 A 
ENDBRANCH  32  33
ENDBRANCH  30  32
ENDBRANCH  28  30
ENDBRANCH  27  28
ENDBRANCH   4  27
TORSDOF 14
ENDMDL
MODEL 4
REMARK VINA RESULT: -6.013217893      4.081      6.428
REMARK  14 active torsions:
REMARK  status: ('A' for Active; 'I' for Inactive)
REMARK    1  A    between atoms: S1_2  and  C2_3 
REMARK    2  A    between atoms: C4_6  and  O2_7 
REMARK    3  A    between atoms: O2_7  and  C5_8 
REMARK    4  A    between atoms: C5_8  and  N1_10 
REMARK    5  A    between atoms: N1_10  and  C6_12 
REMARK    6  A    between atoms: C6_12  and  C7_13 
REMARK    7  A    between atoms: C10_16  and  O3_17 
REMARK    8  A    between atoms: C11_19  and  O4_20 
REMARK    9  A    between atoms: O4_20  and  C12_21 
REMARK   10  A    between atoms: C13_23  and  C14_24 
REMARK   11  A    between atoms: C14_24  and  O6_25 
REMARK   12  A    between atoms: C15_27  and  O7_28 
REMARK   13  A    between atoms: C16_30  and  O8_31 
REMARK   14  A    between atoms: C17_33  and  O9_34 
ROOT
HETATM    1  C2  UNL     1      -3.665  84.320  24.913  1.00  0.00     0.102 C 
HETATM    2  C3  UNL     1      -3.753  84.417  26.436  1.00  0.00     0.189 C 
HETATM    3  O1  UNL     1      -2.482  84.082  26.908  1.00  0.00    -0.357 OA
HETATM    4  C4  UNL     1      -1.649  85.146  26.667  1.00  0.00     0.299 C 
HETATM    5  C10 UNL     1      -2.089  86.061  25.570  1.00  0.00     0.204 C 
HETATM    6  C11 UNL     1      -2.668  85.298  24.381  1.00  0.00     0.174 C 
ENDROOT
BRANCH   6   7
HETATM    7  O4  UNL     1      -1.613  84.760  23.702  1.00  0.00    -0.349 OA
BRANCH   7   8
HETATM    8  C12 UNL     1      -1.355  85.276  22.450  1.00  0.00     0.292 C 
HETATM    9  O5  UNL     1      -0.489  84.586  21.668  1.00  0.00    -0.348 OA
HETATM   10  C13 UNL     1      -0.965  83.672  20.812  1.00  0.00     0.179 C 
HETATM   11  C15 UNL     1      -2.261  84.003  20.131  1.00  0.00     0.180 C 
HETATM   12  C16 UNL     1      -3.248  84.577  21.112  1.00  0.00     0.183 C 
HETATM   13  C17 UNL     1      -2.568  85.781  21.731  1.00  0.00     0.204 C 
BRANCH  10  14
HETATM   14  C14 UNL     1      -0.972  82.291  21.449  1.00  0.00     0.198 C 
BRANCH  14  15
HETATM   15  O6  UNL     1      -0.188  82.167  22.556  1.00  0.00    -0.398 OA
ATOM     16  H6  UNL     1       0.146  81.291  22.713  1.00  0.00     0.209 HD
ENDBRANCH  14  15
ENDBRANCH  10  14
BRANCH  11  17
HETATM   17  O7  UNL     1      -2.054  84.906  19.067  1.00  0.00    -0.390 OA
ATOM     18  H7  UNL     1      -2.787  85.505  18.984  1.00  0.00     0.210 HD
ENDBRANCH  11  17
BRANCH  12  19
HETATM   19  O8  UNL     1      -4.446  84.936  20.490  1.00  0.00    -0.390 OA
ATOM     20  H8  UNL     1      -4.382  85.783  20.066  1.00  0.00     0.210 HD
ENDBRANCH  12  19
BRANCH  13  21
HETATM   21  O9  UNL     1      -2.224  86.632  20.681  1.00  0.00    -0.388 OA
ATOM     22  H9  UNL     1      -1.385  87.053  20.834  1.00  0.00     0.210 HD
ENDBRANCH  13  21
ENDBRANCH   7   8
ENDBRANCH   6   7
BRANCH   1  23
HETATM   23  S1  UNL     1      -3.236  82.602  24.533  1.00  0.00    -0.164 SA
HETATM   24  C1  UNL     1      -4.327  81.916  23.282  1.00  0.00     0.090 C 
ENDBRANCH   1  23
BRANCH   5  25
HETATM   25  O3  UNL     1      -0.935  86.769  25.157  1.00  0.00    -0.388 OA
ATOM     26  H3  UNL     1      -0.386  86.141  24.703  1.00  0.00     0.210 HD
ENDBRANCH   5  25
BRANCH   4  27
HETATM   27  O2  UNL     1      -1.481  85.852  27.878  1.00  0.00    -0.293 OA
BRANCH  27  28
HETATM   28  C5  UNL     1      -0.312  85.924  28.587  1.00  0.00     0.212 C 
HETATM   29  S2  UNL     1      -0.207  85.716  30.194  1.00  0.00    -0.033 SA
BRANCH  28  30
HETATM   30  N1  UNL     1       0.908  86.202  27.875  1.00  0.00    -0.361 N 
ATOM     31  H1  UNL     1       1.233  87.165  27.788  1.00  0.00     0.162 HD
BRANCH  30  32
HETATM   32  C6  UNL     1       1.671  85.140  27.286  1.00  0.00     0.127 C 
BRANCH  32  33
HETATM   33  C7  UNL     1       1.978  85.471  25.821  1.00  0.00     0.003 A 
HETATM   34  C8  UNL     1       2.611  84.383  25.039  1.00  0.00     0.007 A 
HETATM   35  C9  UNL     1       3.403  85.586  25.488  1.00  0.00     0.007 A 
ENDBRANCH  32  33
ENDBRANCH  30  32
ENDBRANCH  28  30
ENDBRANCH  27  28
ENDBRANCH   4  27
TORSDOF 14
ENDMDL
MODEL 5
REMARK VINA RESULT: -6.008210460      3.783      6.827
REMARK  14 active torsions:
REMARK  status: ('A' for Active; 'I' for Inactive)
REMARK    1  A    between atoms: S1_2  and  C2_3 
REMARK    2  A    between atoms: C4_6  and  O2_7 
REMARK    3  A    between atoms: O2_7  and  C5_8 
REMARK    4  A    between atoms: C5_8  and  N1_10 
REMARK    5  A    between atoms: N1_10  and  C6_12 
REMARK    6  A    between atoms: C6_12  and  C7_13 
REMARK    7  A    between atoms: C10_16  and  O3_17 
REMARK    8  A    between atoms: C11_19  and  O4_20 
REMARK    9  A    between atoms: O4_20  and  C12_21 
REMARK   10  A    between atoms: C13_23  and  C14_24 
REMARK   11  A    between atoms: C14_24  and  O6_25 
REMARK   12  A    between atoms: C15_27  and  O7_28 
REMARK   13  A    between atoms: C16_30  and  O8_31 
REMARK   14  A    between atoms: C17_33  and  O9_34 
ROOT
HETATM    1  C2  UNL     1      -1.865  82.535  24.316  1.00  0.00     0.102 C 
HETATM    2  C3  UNL     1      -1.387  83.393  25.487  1.00  0.00     0.189 C 
HETATM    3  O1  UNL     1       0.008  83.355  25.436  1.00  0.00    -0.357 OA
HETATM    4  C4  UNL     1       0.414  84.153  24.397  1.00  0.00     0.299 C 
HETATM    5  C10 UNL     1      -0.610  84.379  23.331  1.00  0.00     0.204 C 
HETATM    6  C11 UNL     1      -1.403  83.113  23.017  1.00  0.00     0.174 C 
ENDROOT
BRANCH   6   7
HETATM    7  O4  UNL     1      -0.592  82.311  22.266  1.00  0.00    -0.349 OA
BRANCH   7   8
HETATM    8  C12 UNL     1      -0.972  82.098  20.958  1.00  0.00     0.292 C 
HETATM    9  O5  UNL     1      -0.107  81.411  20.173  1.00  0.00    -0.348 OA
HETATM   10  C13 UNL     1      -0.236  80.083  20.062  1.00  0.00     0.179 C 
HETATM   11  C15 UNL     1      -1.638  79.546  20.029  1.00  0.00     0.180 C 
HETATM   12  C16 UNL     1      -2.490  80.215  21.075  1.00  0.00     0.183 C 
HETATM   13  C17 UNL     1      -2.406  81.701  20.792  1.00  0.00     0.204 C 
BRANCH  10  14
HETATM   14  C14 UNL     1       0.642  79.370  21.079  1.00  0.00     0.198 C 
BRANCH  14  15
HETATM   15  O6  UNL     1       1.605  80.147  21.648  1.00  0.00    -0.398 OA
ATOM     16  H6  UNL     1       2.495  79.838  21.520  1.00  0.00     0.209 HD
ENDBRANCH  14  15
ENDBRANCH  10  14
BRANCH  11  17
HETATM   17  O7  UNL     1      -2.213  79.719  18.752  1.00  0.00    -0.390 OA
ATOM     18  H7  UNL     1      -2.895  80.379  18.775  1.00  0.00     0.210 HD
ENDBRANCH  11  17
BRANCH  12  19
HETATM   19  O8  UNL     1      -3.811  79.765  21.031  1.00  0.00    -0.390 OA
ATOM     20  H8  UNL     1      -4.281  79.974  21.829  1.00  0.00     0.210 HD
ENDBRANCH  12  19
BRANCH  13  21
HETATM   21  O9  UNL     1      -2.839  81.886  19.479  1.00  0.00    -0.388 OA
ATOM     22  H9  UNL     1      -2.557  81.174  18.915  1.00  0.00     0.210 HD
ENDBRANCH  13  21
ENDBRANCH   7   8
ENDBRANCH   6   7
BRANCH   1  23
HETATM   23  S1  UNL     1      -1.228  80.866  24.609  1.00  0.00    -0.164 SA
HETATM   24  C1  UNL     1      -2.559  79.668  24.743  1.00  0.00     0.090 C 
ENDBRANCH   1  23
BRANCH   5  25
HETATM   25  O3  UNL     1       0.102  84.786  22.177  1.00  0.00    -0.388 OA
ATOM     26  H3  UNL     1      -0.472  84.621  21.438  1.00  0.00     0.210 HD
ENDBRANCH   5  25
BRANCH   4  27
HETATM   27  O2  UNL     1       0.860  85.379  24.937  1.00  0.00    -0.293 OA
BRANCH  27  28
HETATM   28  C5  UNL     1       1.871  85.510  25.851  1.00  0.00     0.212 C 
HETATM   29  S2  UNL     1       3.434  85.706  25.460  1.00  0.00    -0.033 SA
BRANCH  28  30
HETATM   30  N1  UNL     1       1.539  85.472  27.252  1.00  0.00    -0.361 N 
ATOM     31  H1  UNL     1       2.177  85.023  27.909  1.00  0.00     0.162 HD
BRANCH  30  32
HETATM   32  C6  UNL     1       0.322  86.059  27.733  1.00  0.00     0.127 C 
BRANCH  32  33
HETATM   33  C7  UNL     1       0.112  85.683  29.205  1.00  0.00     0.003 A 
HETATM   34  C8  UNL     1       0.862  86.503  30.186  1.00  0.00     0.007 A 
HETATM   35  C9  UNL     1       1.274  85.086  29.873  1.00  0.00     0.007 A 
ENDBRANCH  32  33
ENDBRANCH  30  32
ENDBRANCH  28  30
ENDBRANCH  27  28
ENDBRANCH   4  27
TORSDOF 14
ENDMDL
