MODEL 1
REMARK VINA RESULT: -6.773399558      0.000      0.000
REMARK  15 active torsions:
REMARK  status: ('A' for Active; 'I' for Inactive)
REMARK    1  A    between atoms: C2_2  and  C3_3 
REMARK    2  A    between atoms: C2_2  and  C7_9 
REMARK    3  A    between atoms: C3_3  and  C4_4 
REMARK    4  A    between atoms: C4_4  and  C5_5 
REMARK    5  A    between atoms: C5_5  and  C6_6 
REMARK    6  A    between atoms: C6_6  and  O1_7 
REMARK    7  A    between atoms: C8_10  and  O2_11 
REMARK    8  A    between atoms: C14_18  and  C15_19 
REMARK    9  A    between atoms: C16_20  and  C17_21 
REMARK   10  A    between atoms: C17_21  and  O3_22 
REMARK   11  A    between atoms: C17_21  and  C18_24 
REMARK   12  A    between atoms: C18_24  and  C20_27 
REMARK   13  A    between atoms: C20_27  and  C21_28 
REMARK   14  A    between atoms: C21_28  and  C22_29 
REMARK   15  A    between atoms: C22_29  and  C23_30 
ROOT
HETATM    1  C18 UNL     1     -13.429  10.489  41.581  1.00  0.00     0.125 C 
HETATM    2  C19 UNL     1     -13.752  11.126  40.266  1.00  0.00     0.067 C 
HETATM    3  N1  UNL     1     -13.996  11.601  39.241  1.00  0.00    -0.197 NA
ENDROOT
BRANCH   1   4
HETATM    4  C17 UNL     1     -13.247   9.001  41.354  1.00  0.00     0.158 C 
BRANCH   4   5
HETATM    5  C16 UNL     1     -12.363   8.386  42.346  1.00  0.00     0.003 C 
HETATM    6  C15 UNL     1     -12.608   7.833  43.496  1.00  0.00    -0.016 C 
BRANCH   6   7
HETATM    7  C14 UNL     1     -13.796   7.585  44.281  1.00  0.00     0.078 C 
HETATM    8  C13 UNL     1     -14.760   6.543  43.883  1.00  0.00     0.016 C 
HETATM    9  C12 UNL     1     -15.724   6.318  45.035  1.00  0.00     0.007 C 
HETATM   10  C11 UNL     1     -15.847   7.507  45.966  1.00  0.00     0.002 C 
HETATM   11  C10 UNL     1     -16.850   7.102  46.997  1.00  0.00     0.001 C 
HETATM   12  C25 UNL     1     -14.512   7.718  46.692  1.00  0.00     0.060 C 
HETATM   13  C9  UNL     1     -18.282   7.291  46.634  1.00  0.00     0.038 C 
HETATM   14  C28 UNL     1     -16.755   7.878  48.308  1.00  0.00    -0.034 C 
HETATM   15  C8  UNL     1     -18.911   6.930  47.994  1.00  0.00     0.123 C 
HETATM   16  C7  UNL     1     -18.036   7.711  48.995  1.00  0.00     0.026 C 
HETATM   17  C27 UNL     1     -15.499   7.413  48.951  1.00  0.00     0.011 C 
HETATM   18  C29 UNL     1     -16.616   9.373  47.971  1.00  0.00     0.016 C 
HETATM   19  C26 UNL     1     -14.467   6.900  47.931  1.00  0.00     0.013 C 
HETATM   20  C24 UNL     1     -13.455   7.276  45.738  1.00  0.00     0.139 C 
HETATM   21  O4  UNL     1     -12.431   6.729  46.048  1.00  0.00    -0.297 OA
BRANCH  15  22
HETATM   22  O2  UNL     1     -18.773   5.563  48.127  1.00  0.00    -0.395 OA
ATOM     23  H2  UNL     1     -18.977   5.098  47.324  1.00  0.00     0.210 HD
ENDBRANCH  15  22
BRANCH  16  24
HETATM   24  C2  UNL     1     -18.079   7.089  50.346  1.00  0.00    -0.011 C 
HETATM   25  C1  UNL     1     -19.565   7.232  50.782  1.00  0.00     0.010 C 
BRANCH  24  26
HETATM   26  C3  UNL     1     -17.354   7.962  51.356  1.00  0.00     0.005 C 
BRANCH  26  27
HETATM   27  C4  UNL     1     -18.013   9.308  51.513  1.00  0.00     0.002 C 
BRANCH  27  28
HETATM   28  C5  UNL     1     -17.051  10.447  51.551  1.00  0.00     0.026 C 
BRANCH  28  29
HETATM   29  C6  UNL     1     -15.672   9.884  51.828  1.00  0.00     0.164 C 
BRANCH  29  30
HETATM   30  O1  UNL     1     -14.762  10.439  50.928  1.00  0.00    -0.401 OA
ATOM     31  H1  UNL     1     -14.709   9.886  50.157  1.00  0.00     0.209 HD
ENDBRANCH  29  30
ENDBRANCH  28  29
ENDBRANCH  27  28
ENDBRANCH  26  27
ENDBRANCH  24  26
ENDBRANCH  16  24
ENDBRANCH   6   7
ENDBRANCH   4   5
BRANCH   4  32
HETATM   32  O3  UNL     1     -12.834   8.724  40.065  1.00  0.00    -0.390 OA
ATOM     33  H3  UNL     1     -12.489   9.498  39.635  1.00  0.00     0.210 HD
ENDBRANCH   4  32
ENDBRANCH   1   4
BRANCH   1  34
HETATM   34  C20 UNL     1     -14.467  10.875  42.563  1.00  0.00     0.022 C 
BRANCH  34  35
HETATM   35  C21 UNL     1     -14.014  11.737  43.706  1.00  0.00     0.007 C 
BRANCH  35  36
HETATM   36  C22 UNL     1     -14.419  11.092  45.030  1.00  0.00     0.071 C 
BRANCH  36  37
HETATM   37  C23 UNL     1     -13.255  11.168  45.985  1.00  0.00     0.353 C 
HETATM   38  F1  UNL     1     -13.630  10.711  47.216  1.00  0.00    -0.214 F 
HETATM   39  F2  UNL     1     -12.232  10.396  45.448  1.00  0.00    -0.214 F 
ENDBRANCH  36  37
ENDBRANCH  35  36
ENDBRANCH  34  35
ENDBRANCH   1  34
TORSDOF 15
ENDMDL
MODEL 2
REMARK VINA RESULT: -6.669880461      2.640      4.453
REMARK  15 active torsions:
REMARK  status: ('A' for Active; 'I' for Inactive)
REMARK    1  A    between atoms: C2_2  and  C3_3 
REMARK    2  A    between atoms: C2_2  and  C7_9 
REMARK    3  A    between atoms: C3_3  and  C4_4 
REMARK    4  A    between atoms: C4_4  and  C5_5 
REMARK    5  A    between atoms: C5_5  and  C6_6 
REMARK    6  A    between atoms: C6_6  and  O1_7 
REMARK    7  A    between atoms: C8_10  and  O2_11 
REMARK    8  A    between atoms: C14_18  and  C15_19 
REMARK    9  A    between atoms: C16_20  and  C17_21 
REMARK   10  A    between atoms: C17_21  and  O3_22 
REMARK   11  A    between atoms: C17_21  and  C18_24 
REMARK   12  A    between atoms: C18_24  and  C20_27 
REMARK   13  A    between atoms: C20_27  and  C21_28 
REMARK   14  A    between atoms: C21_28  and  C22_29 
REMARK   15  A    between atoms: C22_29  and  C23_30 
ROOT
HETATM    1  C18 UNL     1     -13.520   8.425  42.537  1.00  0.00     0.125 C 
HETATM    2  C19 UNL     1     -13.124   7.855  41.211  1.00  0.00     0.067 C 
HETATM    3  N1  UNL     1     -12.807   7.433  40.183  1.00  0.00    -0.197 NA
ENDROOT
BRANCH   1   4
HETATM    4  C17 UNL     1     -12.670   9.653  42.797  1.00  0.00     0.158 C 
BRANCH   4   5
HETATM    5  C16 UNL     1     -13.457  10.786  43.291  1.00  0.00     0.003 C 
HETATM    6  C15 UNL     1     -14.063  10.988  44.422  1.00  0.00    -0.016 C 
BRANCH   6   7
HETATM    7  C14 UNL     1     -14.232  10.233  45.643  1.00  0.00     0.078 C 
HETATM    8  C13 UNL     1     -13.191  10.245  46.687  1.00  0.00     0.016 C 
HETATM    9  C12 UNL     1     -13.768   9.620  47.945  1.00  0.00     0.007 C 
HETATM   10  C11 UNL     1     -14.925   8.677  47.680  1.00  0.00     0.002 C 
HETATM   11  C10 UNL     1     -15.324   8.151  49.021  1.00  0.00     0.001 C 
HETATM   12  C25 UNL     1     -16.114   9.482  47.137  1.00  0.00     0.060 C 
HETATM   13  C9  UNL     1     -14.547   6.988  49.530  1.00  0.00     0.038 C 
HETATM   14  C28 UNL     1     -16.755   7.627  49.091  1.00  0.00    -0.034 C 
HETATM   15  C8  UNL     1     -15.384   6.690  50.790  1.00  0.00     0.123 C 
HETATM   16  C7  UNL     1     -16.831   6.756  50.265  1.00  0.00     0.026 C 
HETATM   17  C27 UNL     1     -17.621   8.832  49.002  1.00  0.00     0.011 C 
HETATM   18  C29 UNL     1     -17.005   6.745  47.857  1.00  0.00     0.016 C 
HETATM   19  C26 UNL     1     -16.941   9.995  48.260  1.00  0.00     0.013 C 
HETATM   20  C24 UNL     1     -15.523  10.612  46.366  1.00  0.00     0.139 C 
HETATM   21  O4  UNL     1     -15.987  11.718  46.300  1.00  0.00    -0.297 OA
BRANCH  15  22
HETATM   22  O2  UNL     1     -15.100   7.703  51.684  1.00  0.00    -0.395 OA
ATOM     23  H2  UNL     1     -14.949   7.378  52.564  1.00  0.00     0.210 HD
ENDBRANCH  15  22
BRANCH  16  24
HETATM   24  C2  UNL     1     -17.788   7.066  51.362  1.00  0.00    -0.011 C 
HETATM   25  C1  UNL     1     -17.576   5.916  52.387  1.00  0.00     0.010 C 
BRANCH  24  26
HETATM   26  C3  UNL     1     -19.217   6.837  50.900  1.00  0.00     0.005 C 
BRANCH  26  27
HETATM   27  C4  UNL     1     -19.432   5.428  50.410  1.00  0.00     0.002 C 
BRANCH  27  28
HETATM   28  C5  UNL     1     -20.334   5.334  49.226  1.00  0.00     0.026 C 
BRANCH  28  29
HETATM   29  C6  UNL     1     -20.628   6.743  48.752  1.00  0.00     0.164 C 
BRANCH  29  30
HETATM   30  O1  UNL     1     -20.903   6.718  47.385  1.00  0.00    -0.401 OA
ATOM     31  H1  UNL     1     -21.337   7.527  47.139  1.00  0.00     0.209 HD
ENDBRANCH  29  30
ENDBRANCH  28  29
ENDBRANCH  27  28
ENDBRANCH  26  27
ENDBRANCH  24  26
ENDBRANCH  16  24
ENDBRANCH   6   7
ENDBRANCH   4   5
BRANCH   4  32
HETATM   32  O3  UNL     1     -11.916  10.002  41.693  1.00  0.00    -0.390 OA
ATOM     33  H3  UNL     1     -11.369  10.758  41.868  1.00  0.00     0.210 HD
ENDBRANCH   4  32
ENDBRANCH   1   4
BRANCH   1  34
HETATM   34  C20 UNL     1     -13.444   7.354  43.555  1.00  0.00     0.022 C 
BRANCH  34  35
HETATM   35  C21 UNL     1     -14.728   7.007  44.252  1.00  0.00     0.007 C 
BRANCH  35  36
HETATM   36  C22 UNL     1     -15.299   5.716  43.667  1.00  0.00     0.071 C 
BRANCH  36  37
HETATM   37  C23 UNL     1     -16.552   5.350  44.424  1.00  0.00     0.353 C 
HETATM   38  F1  UNL     1     -17.652   5.779  43.739  1.00  0.00    -0.214 F 
HETATM   39  F2  UNL     1     -16.553   3.969  44.574  1.00  0.00    -0.214 F 
ENDBRANCH  36  37
ENDBRANCH  35  36
ENDBRANCH  34  35
ENDBRANCH   1  34
TORSDOF 15
ENDMDL
MODEL 3
REMARK VINA RESULT: -6.595283926      1.013      1.080
REMARK  15 active torsions:
REMARK  status: ('A' for Active; 'I' for Inactive)
REMARK    1  A    between atoms: C2_2  and  C3_3 
REMARK    2  A    between atoms: C2_2  and  C7_9 
REMARK    3  A    between atoms: C3_3  and  C4_4 
REMARK    4  A    between atoms: C4_4  and  C5_5 
REMARK    5  A    between atoms: C5_5  and  C6_6 
REMARK    6  A    between atoms: C6_6  and  O1_7 
REMARK    7  A    between atoms: C8_10  and  O2_11 
REMARK    8  A    between atoms: C14_18  and  C15_19 
REMARK    9  A    between atoms: C16_20  and  C17_21 
REMARK   10  A    between atoms: C17_21  and  O3_22 
REMARK   11  A    between atoms: C17_21  and  C18_24 
REMARK   12  A    between atoms: C18_24  and  C20_27 
REMARK   13  A    between atoms: C20_27  and  C21_28 
REMARK   14  A    between atoms: C21_28  and  C22_29 
REMARK   15  A    between atoms: C22_29  and  C23_30 
ROOT
HETATM    1  C18 UNL     1     -13.406  10.458  41.494  1.00  0.00     0.125 C 
HETATM    2  C19 UNL     1     -13.729  11.165  40.215  1.00  0.00     0.067 C 
HETATM    3  N1  UNL     1     -13.973  11.694  39.217  1.00  0.00    -0.197 NA
ENDROOT
BRANCH   1   4
HETATM    4  C17 UNL     1     -13.274   8.977  41.196  1.00  0.00     0.158 C 
BRANCH   4   5
HETATM    5  C16 UNL     1     -12.389   8.292  42.140  1.00  0.00     0.003 C 
HETATM    6  C15 UNL     1     -12.624   7.719  43.282  1.00  0.00    -0.016 C 
BRANCH   6   7
HETATM    7  C14 UNL     1     -13.797   7.506  44.101  1.00  0.00     0.078 C 
HETATM    8  C13 UNL     1     -14.721   6.393  43.819  1.00  0.00     0.016 C 
HETATM    9  C12 UNL     1     -15.669   6.249  44.997  1.00  0.00     0.007 C 
HETATM   10  C11 UNL     1     -15.833   7.521  45.805  1.00  0.00     0.002 C 
HETATM   11  C10 UNL     1     -16.813   7.184  46.882  1.00  0.00     0.001 C 
HETATM   12  C25 UNL     1     -14.502   7.854  46.493  1.00  0.00     0.060 C 
HETATM   13  C9  UNL     1     -18.253   7.280  46.515  1.00  0.00     0.038 C 
HETATM   14  C28 UNL     1     -16.740   8.091  48.106  1.00  0.00    -0.034 C 
HETATM   15  C8  UNL     1     -18.859   7.035  47.911  1.00  0.00     0.123 C 
HETATM   16  C7  UNL     1     -18.009   7.945  48.820  1.00  0.00     0.026 C 
HETATM   17  C27 UNL     1     -15.463   7.741  48.781  1.00  0.00     0.011 C 
HETATM   18  C29 UNL     1     -16.661   9.548  47.620  1.00  0.00     0.016 C 
HETATM   19  C26 UNL     1     -14.419   7.167  47.808  1.00  0.00     0.013 C 
HETATM   20  C24 UNL     1     -13.435   7.358  45.577  1.00  0.00     0.139 C 
HETATM   21  O4  UNL     1     -12.389   6.885  45.931  1.00  0.00    -0.297 OA
BRANCH  15  22
HETATM   22  O2  UNL     1     -18.668   5.694  48.180  1.00  0.00    -0.395 OA
ATOM     23  H2  UNL     1     -19.267   5.138  47.695  1.00  0.00     0.210 HD
ENDBRANCH  15  22
BRANCH  16  24
HETATM   24  C2  UNL     1     -18.020   7.461  50.227  1.00  0.00    -0.011 C 
HETATM   25  C1  UNL     1     -19.470   7.745  50.715  1.00  0.00     0.010 C 
BRANCH  24  26
HETATM   26  C3  UNL     1     -17.190   8.378  51.110  1.00  0.00     0.005 C 
BRANCH  26  27
HETATM   27  C4  UNL     1     -17.813   9.743  51.248  1.00  0.00     0.002 C 
BRANCH  27  28
HETATM   28  C5  UNL     1     -17.376  10.483  52.467  1.00  0.00     0.026 C 
BRANCH  28  29
HETATM   29  C6  UNL     1     -18.293  10.086  53.607  1.00  0.00     0.164 C 
BRANCH  29  30
HETATM   30  O1  UNL     1     -19.619  10.194  53.187  1.00  0.00    -0.401 OA
ATOM     31  H1  UNL     1     -19.875  11.109  53.195  1.00  0.00     0.209 HD
ENDBRANCH  29  30
ENDBRANCH  28  29
ENDBRANCH  27  28
ENDBRANCH  26  27
ENDBRANCH  24  26
ENDBRANCH  16  24
ENDBRANCH   6   7
ENDBRANCH   4   5
BRANCH   4  32
HETATM   32  O3  UNL     1     -12.894   8.747  39.887  1.00  0.00    -0.390 OA
ATOM     33  H3  UNL     1     -12.016   9.067  39.717  1.00  0.00     0.210 HD
ENDBRANCH   4  32
ENDBRANCH   1   4
BRANCH   1  34
HETATM   34  C20 UNL     1     -14.418  10.829  42.509  1.00  0.00     0.022 C 
BRANCH  34  35
HETATM   35  C21 UNL     1     -13.953  11.742  43.607  1.00  0.00     0.007 C 
BRANCH  35  36
HETATM   36  C22 UNL     1     -14.321  11.143  44.964  1.00  0.00     0.071 C 
BRANCH  36  37
HETATM   37  C23 UNL     1     -13.115  11.211  45.869  1.00  0.00     0.353 C 
HETATM   38  F1  UNL     1     -13.453  10.802  47.127  1.00  0.00    -0.214 F 
HETATM   39  F2  UNL     1     -12.139  10.392  45.314  1.00  0.00    -0.214 F 
ENDBRANCH  36  37
ENDBRANCH  35  36
ENDBRANCH  34  35
ENDBRANCH   1  34
TORSDOF 15
ENDMDL
MODEL 4
REMARK VINA RESULT: -6.413962826      2.549      4.491
REMARK  15 active torsions:
REMARK  status: ('A' for Active; 'I' for Inactive)
REMARK    1  A    between atoms: C2_2  and  C3_3 
REMARK    2  A    between atoms: C2_2  and  C7_9 
REMARK    3  A    between atoms: C3_3  and  C4_4 
REMARK    4  A    between atoms: C4_4  and  C5_5 
REMARK    5  A    between atoms: C5_5  and  C6_6 
REMARK    6  A    between atoms: C6_6  and  O1_7 
REMARK    7  A    between atoms: C8_10  and  O2_11 
REMARK    8  A    between atoms: C14_18  and  C15_19 
REMARK    9  A    between atoms: C16_20  and  C17_21 
REMARK   10  A    between atoms: C17_21  and  O3_22 
REMARK   11  A    between atoms: C17_21  and  C18_24 
REMARK   12  A    between atoms: C18_24  and  C20_27 
REMARK   13  A    between atoms: C20_27  and  C21_28 
REMARK   14  A    between atoms: C21_28  and  C22_29 
REMARK   15  A    between atoms: C22_29  and  C23_30 
ROOT
HETATM    1  C18 UNL     1     -13.158   8.140  42.381  1.00  0.00     0.125 C 
HETATM    2  C19 UNL     1     -13.152   8.391  40.906  1.00  0.00     0.067 C 
HETATM    3  N1  UNL     1     -13.126   8.584  39.767  1.00  0.00    -0.197 NA
ENDROOT
BRANCH   1   4
HETATM    4  C17 UNL     1     -11.772   7.677  42.788  1.00  0.00     0.158 C 
BRANCH   4   5
HETATM    5  C16 UNL     1     -10.911   8.786  43.205  1.00  0.00     0.003 C 
HETATM    6  C15 UNL     1     -10.864   9.476  44.304  1.00  0.00    -0.016 C 
BRANCH   6   7
HETATM    7  C14 UNL     1     -11.597   9.470  45.550  1.00  0.00     0.078 C 
HETATM    8  C13 UNL     1     -11.025  10.081  46.764  1.00  0.00     0.016 C 
HETATM    9  C12 UNL     1     -12.122  10.184  47.810  1.00  0.00     0.007 C 
HETATM   10  C11 UNL     1     -13.246   9.188  47.612  1.00  0.00     0.002 C 
HETATM   11  C10 UNL     1     -14.194   9.427  48.743  1.00  0.00     0.001 C 
HETATM   12  C25 UNL     1     -13.995   9.525  46.315  1.00  0.00     0.060 C 
HETATM   13  C9  UNL     1     -13.871   8.747  50.027  1.00  0.00     0.038 C 
HETATM   14  C28 UNL     1     -15.619   8.948  48.483  1.00  0.00    -0.034 C 
HETATM   15  C8  UNL     1     -15.149   9.115  50.807  1.00  0.00     0.123 C 
HETATM   16  C7  UNL     1     -16.269   8.823  49.788  1.00  0.00     0.026 C 
HETATM   17  C27 UNL     1     -16.168   9.880  47.465  1.00  0.00     0.011 C 
HETATM   18  C29 UNL     1     -15.548   7.537  47.877  1.00  0.00     0.016 C 
HETATM   19  C26 UNL     1     -15.073  10.511  46.588  1.00  0.00     0.013 C 
HETATM   20  C24 UNL     1     -12.976  10.108  45.396  1.00  0.00     0.139 C 
HETATM   21  O4  UNL     1     -13.184  10.989  44.607  1.00  0.00    -0.297 OA
BRANCH  15  22
HETATM   22  O2  UNL     1     -15.042  10.460  51.101  1.00  0.00    -0.395 OA
ATOM     23  H2  UNL     1     -14.190  10.687  51.454  1.00  0.00     0.210 HD
ENDBRANCH  15  22
BRANCH  16  24
HETATM   24  C2  UNL     1     -17.492   9.616  50.090  1.00  0.00    -0.011 C 
HETATM   25  C1  UNL     1     -17.683   9.450  51.624  1.00  0.00     0.010 C 
BRANCH  24  26
HETATM   26  C3  UNL     1     -18.723   8.927  49.527  1.00  0.00     0.005 C 
BRANCH  26  27
HETATM   27  C4  UNL     1     -18.744   7.456  49.853  1.00  0.00     0.002 C 
BRANCH  27  28
HETATM   28  C5  UNL     1     -19.027   6.584  48.676  1.00  0.00     0.026 C 
BRANCH  28  29
HETATM   29  C6  UNL     1     -20.528   6.405  48.578  1.00  0.00     0.164 C 
BRANCH  29  30
HETATM   30  O1  UNL     1     -20.950   6.768  47.300  1.00  0.00    -0.401 OA
ATOM     31  H1  UNL     1     -21.758   7.264  47.367  1.00  0.00     0.209 HD
ENDBRANCH  29  30
ENDBRANCH  28  29
ENDBRANCH  27  28
ENDBRANCH  26  27
ENDBRANCH  24  26
ENDBRANCH  16  24
ENDBRANCH   6   7
ENDBRANCH   4   5
BRANCH   4  32
HETATM   32  O3  UNL     1     -11.175   6.913  41.804  1.00  0.00    -0.390 OA
ATOM     33  H3  UNL     1     -11.632   6.993  40.975  1.00  0.00     0.210 HD
ENDBRANCH   4  32
ENDBRANCH   1   4
BRANCH   1  34
HETATM   34  C20 UNL     1     -14.271   7.218  42.700  1.00  0.00     0.022 C 
BRANCH  34  35
HETATM   35  C21 UNL     1     -14.231   6.571  44.055  1.00  0.00     0.007 C 
BRANCH  35  36
HETATM   36  C22 UNL     1     -15.605   5.993  44.391  1.00  0.00     0.071 C 
BRANCH  36  37
HETATM   37  C23 UNL     1     -15.432   4.576  44.879  1.00  0.00     0.353 C 
HETATM   38  F1  UNL     1     -16.610   3.896  44.763  1.00  0.00    -0.214 F 
HETATM   39  F2  UNL     1     -14.432   3.996  44.108  1.00  0.00    -0.214 F 
ENDBRANCH  36  37
ENDBRANCH  35  36
ENDBRANCH  34  35
ENDBRANCH   1  34
TORSDOF 15
ENDMDL
MODEL 5
REMARK VINA RESULT: -6.296434313      1.506      1.636
REMARK  15 active torsions:
REMARK  status: ('A' for Active; 'I' for Inactive)
REMARK    1  A    between atoms: C2_2  and  C3_3 
REMARK    2  A    between atoms: C2_2  and  C7_9 
REMARK    3  A    between atoms: C3_3  and  C4_4 
REMARK    4  A    between atoms: C4_4  and  C5_5 
REMARK    5  A    between atoms: C5_5  and  C6_6 
REMARK    6  A    between atoms: C6_6  and  O1_7 
REMARK    7  A    between atoms: C8_10  and  O2_11 
REMARK    8  A    between atoms: C14_18  and  C15_19 
REMARK    9  A    between atoms: C16_20  and  C17_21 
REMARK   10  A    between atoms: C17_21  and  O3_22 
REMARK   11  A    between atoms: C17_21  and  C18_24 
REMARK   12  A    between atoms: C18_24  and  C20_27 
REMARK   13  A    between atoms: C20_27  and  C21_28 
REMARK   14  A    between atoms: C21_28  and  C22_29 
REMARK   15  A    between atoms: C22_29  and  C23_30 
ROOT
HETATM    1  C18 UNL     1     -13.460   9.597  43.290  1.00  0.00     0.125 C 
HETATM    2  C19 UNL     1     -12.053   9.638  43.798  1.00  0.00     0.067 C 
HETATM    3  N1  UNL     1     -10.962   9.654  44.176  1.00  0.00    -0.197 NA
ENDROOT
BRANCH   1   4
HETATM    4  C17 UNL     1     -13.482   8.768  42.022  1.00  0.00     0.158 C 
BRANCH   4   5
HETATM    5  C16 UNL     1     -13.210   7.351  42.273  1.00  0.00     0.003 C 
HETATM    6  C15 UNL     1     -13.798   6.482  43.039  1.00  0.00    -0.016 C 
BRANCH   6   7
HETATM    7  C14 UNL     1     -14.925   6.510  43.944  1.00  0.00     0.078 C 
HETATM    8  C13 UNL     1     -16.104   5.657  43.707  1.00  0.00     0.016 C 
HETATM    9  C12 UNL     1     -16.971   5.682  44.954  1.00  0.00     0.007 C 
HETATM   10  C11 UNL     1     -16.772   6.918  45.809  1.00  0.00     0.002 C 
HETATM   11  C10 UNL     1     -17.722   6.768  46.952  1.00  0.00     0.001 C 
HETATM   12  C25 UNL     1     -15.353   6.900  46.395  1.00  0.00     0.060 C 
HETATM   13  C9  UNL     1     -19.121   7.214  46.708  1.00  0.00     0.038 C 
HETATM   14  C28 UNL     1     -17.348   7.575  48.192  1.00  0.00    -0.034 C 
HETATM   15  C8  UNL     1     -19.666   7.052  48.141  1.00  0.00     0.123 C 
HETATM   16  C7  UNL     1     -18.561   7.695  49.002  1.00  0.00     0.026 C 
HETATM   17  C27 UNL     1     -16.144   6.906  48.749  1.00  0.00     0.011 C 
HETATM   18  C29 UNL     1     -16.964   8.995  47.743  1.00  0.00     0.016 C 
HETATM   19  C26 UNL     1     -15.338   6.152  47.678  1.00  0.00     0.013 C 
HETATM   20  C24 UNL     1     -14.502   6.213  45.381  1.00  0.00     0.139 C 
HETATM   21  O4  UNL     1     -13.574   5.493  45.635  1.00  0.00    -0.297 OA
BRANCH  15  22
HETATM   22  O2  UNL     1     -19.776   5.692  48.354  1.00  0.00    -0.395 OA
ATOM     23  H2  UNL     1     -20.499   5.473  48.931  1.00  0.00     0.210 HD
ENDBRANCH  15  22
BRANCH  16  24
HETATM   24  C2  UNL     1     -18.583   7.162  50.392  1.00  0.00    -0.011 C 
HETATM   25  C1  UNL     1     -19.971   7.596  50.943  1.00  0.00     0.010 C 
BRANCH  24  26
HETATM   26  C3  UNL     1     -17.620   7.938  51.274  1.00  0.00     0.005 C 
BRANCH  26  27
HETATM   27  C4  UNL     1     -18.099   9.344  51.530  1.00  0.00     0.002 C 
BRANCH  27  28
HETATM   28  C5  UNL     1     -17.072  10.388  51.250  1.00  0.00     0.026 C 
BRANCH  28  29
HETATM   29  C6  UNL     1     -15.706   9.760  51.436  1.00  0.00     0.164 C 
BRANCH  29  30
HETATM   30  O1  UNL     1     -14.893  10.105  50.356  1.00  0.00    -0.401 OA
ATOM     31  H1  UNL     1     -14.078   9.620  50.412  1.00  0.00     0.209 HD
ENDBRANCH  29  30
ENDBRANCH  28  29
ENDBRANCH  27  28
ENDBRANCH  26  27
ENDBRANCH  24  26
ENDBRANCH  16  24
ENDBRANCH   6   7
ENDBRANCH   4   5
BRANCH   4  32
HETATM   32  O3  UNL     1     -12.638   9.282  41.056  1.00  0.00    -0.390 OA
ATOM     33  H3  UNL     1     -12.796   8.885  40.207  1.00  0.00     0.210 HD
ENDBRANCH   4  32
ENDBRANCH   1   4
BRANCH   1  34
HETATM   34  C20 UNL     1     -13.961  10.985  43.169  1.00  0.00     0.022 C 
BRANCH  34  35
HETATM   35  C21 UNL     1     -13.917  11.819  44.417  1.00  0.00     0.007 C 
BRANCH  35  36
HETATM   36  C22 UNL     1     -14.799  11.185  45.492  1.00  0.00     0.071 C 
BRANCH  36  37
HETATM   37  C23 UNL     1     -13.948  10.871  46.697  1.00  0.00     0.353 C 
HETATM   38  F1  UNL     1     -13.606   9.549  46.694  1.00  0.00    -0.214 F 
HETATM   39  F2  UNL     1     -12.824  11.686  46.630  1.00  0.00    -0.214 F 
ENDBRANCH  36  37
ENDBRANCH  35  36
ENDBRANCH  34  35
ENDBRANCH   1  34
TORSDOF 15
ENDMDL
