MODEL 1
REMARK VINA RESULT: -7.782556529      0.000      0.000
REMARK  16 active torsions:
REMARK  status: ('A' for Active; 'I' for Inactive)
REMARK    1  A    between atoms: C2_2  and  C3_3 
REMARK    2  A    between atoms: C2_2  and  C18_19 
REMARK    3  A    between atoms: C3_3  and  C4_4 
REMARK    4  A    between atoms: C4_4  and  C5_5 
REMARK    5  A    between atoms: C18_19  and  C19_20 
REMARK    6  A    between atoms: C19_20  and  O2_21 
REMARK    7  A    between atoms: C19_20  and  C20_23 
REMARK    8  A    between atoms: C20_23  and  C21_24 
REMARK    9  A    between atoms: C21_24  and  C22_25 
REMARK   10  A    between atoms: C21_24  and  C30_35 
REMARK   11  A    between atoms: C22_25  and  C23_26 
REMARK   12  A    between atoms: C23_26  and  C24_27 
REMARK   13  A    between atoms: C30_35  and  C31_36 
REMARK   14  A    between atoms: C31_36  and  O3_37 
REMARK   15  A    between atoms: C31_36  and  C32_39 
REMARK   16  A    between atoms: C32_39  and  O4_40 
ROOT
HETATM    1  C19 UNL     1      -4.348 -16.193   4.528  1.00  0.00     0.118 C 
ENDROOT
BRANCH   1   2
HETATM    2  C18 UNL     1      -3.734 -16.748   5.728  1.00  0.00     0.035 C 
BRANCH   2   3
HETATM    3  C2  UNL     1      -2.376 -16.330   6.133  1.00  0.00    -0.016 C 
HETATM    4  C1  UNL     1      -1.292 -16.434   5.126  1.00  0.00     0.010 C 
BRANCH   3   5
HETATM    5  C3  UNL     1      -2.331 -14.953   6.776  1.00  0.00     0.005 C 
BRANCH   5   6
HETATM    6  C4  UNL     1      -3.376 -14.940   7.867  1.00  0.00     0.011 C 
BRANCH   6   7
HETATM    7  C5  UNL     1      -2.808 -14.683   9.234  1.00  0.00    -0.028 C 
HETATM    8  C6  UNL     1      -1.818 -13.593   9.326  1.00  0.00     0.027 C 
HETATM    9  C7  UNL     1      -1.718 -13.022  10.734  1.00  0.00     0.018 C 
HETATM   10  C8  UNL     1      -0.439 -12.253  10.947  1.00  0.00     0.023 C 
HETATM   11  C9  UNL     1      -1.884 -14.149  11.703  1.00  0.00     0.022 C 
HETATM   12  C14 UNL     1      -2.836 -12.021  10.844  1.00  0.00     0.135 C 
HETATM   13  C10 UNL     1      -2.694 -15.293  11.204  1.00  0.00    -0.000 C 
HETATM   14  C11 UNL     1      -3.823 -14.793  10.288  1.00  0.00    -0.000 C 
HETATM   15  C15 UNL     1      -2.147 -15.899   9.906  1.00  0.00    -0.036 C 
HETATM   16  C12 UNL     1      -4.576 -13.676  10.777  1.00  0.00     0.013 C 
HETATM   17  C13 UNL     1      -4.221 -12.294  10.351  1.00  0.00     0.079 C 
HETATM   18  C16 UNL     1      -0.674 -15.965   9.799  1.00  0.00     0.016 C 
HETATM   19  C17 UNL     1      -2.807 -17.213   9.665  1.00  0.00     0.016 C 
HETATM   20  O1  UNL     1      -2.605 -10.949  11.353  1.00  0.00    -0.297 OA
ENDBRANCH   6   7
ENDBRANCH   5   6
ENDBRANCH   3   5
ENDBRANCH   2   3
ENDBRANCH   1   2
BRANCH   1  21
HETATM   21  O2  UNL     1      -4.514 -17.079   3.458  1.00  0.00    -0.396 OA
ATOM     22  H2  UNL     1      -5.365 -17.497   3.391  1.00  0.00     0.210 HD
ENDBRANCH   1  21
BRANCH   1  23
HETATM   23  C20 UNL     1      -5.561 -15.332   4.633  1.00  0.00     0.036 C 
BRANCH  23  24
HETATM   24  C21 UNL     1      -6.819 -16.014   4.940  1.00  0.00    -0.010 C 
BRANCH  24  25
HETATM   25  C22 UNL     1      -7.485 -15.559   6.249  1.00  0.00     0.005 C 
BRANCH  25  26
HETATM   26  C23 UNL     1      -6.816 -16.056   7.427  1.00  0.00     0.013 C 
BRANCH  26  27
HETATM   27  C24 UNL     1      -7.431 -15.986   8.775  1.00  0.00     0.002 A 
HETATM   28  C25 UNL     1      -7.665 -14.482   9.111  1.00  0.00     0.019 C 
HETATM   29  C26 UNL     1      -8.535 -16.817   9.271  1.00  0.00    -0.001 A 
HETATM   30  C27 UNL     1      -8.964 -18.111   8.649  1.00  0.00     0.019 C 
HETATM   31  C28 UNL     1      -9.650 -16.210  10.140  1.00  0.00     0.019 C 
HETATM   32  C29 UNL     1      -7.136 -16.790   9.943  1.00  0.00     0.129 A 
HETATM   33 CL1  UNL     1      -7.082 -16.001  11.569  1.00  0.00    -0.100 Cl
HETATM   34 CL2  UNL     1      -6.233 -18.304   9.961  1.00  0.00    -0.100 Cl
ENDBRANCH  26  27
ENDBRANCH  25  26
ENDBRANCH  24  25
BRANCH  24  35
HETATM   35  C30 UNL     1      -7.863 -15.924   3.883  1.00  0.00     0.038 C 
BRANCH  35  36
HETATM   36  C31 UNL     1      -7.421 -15.923   2.452  1.00  0.00     0.142 C 
BRANCH  36  37
HETATM   37  O3  UNL     1      -7.254 -17.115   1.833  1.00  0.00    -0.393 OA
ATOM     38  H3  UNL     1      -7.793 -17.308   1.075  1.00  0.00     0.210 HD
ENDBRANCH  36  37
BRANCH  36  39
HETATM   39  C32 UNL     1      -8.357 -14.953   1.714  1.00  0.00     0.195 C 
BRANCH  39  40
HETATM   40  O4  UNL     1      -7.714 -13.734   1.652  1.00  0.00    -0.398 OA
ATOM     41  H4  UNL     1      -8.225 -13.121   2.166  1.00  0.00     0.209 HD
ENDBRANCH  39  40
ENDBRANCH  36  39
ENDBRANCH  35  36
ENDBRANCH  24  35
ENDBRANCH  23  24
ENDBRANCH   1  23
TORSDOF 16
ENDMDL
MODEL 2
REMARK VINA RESULT: -7.658405374      1.024      1.551
REMARK  16 active torsions:
REMARK  status: ('A' for Active; 'I' for Inactive)
REMARK    1  A    between atoms: C2_2  and  C3_3 
REMARK    2  A    between atoms: C2_2  and  C18_19 
REMARK    3  A    between atoms: C3_3  and  C4_4 
REMARK    4  A    between atoms: C4_4  and  C5_5 
REMARK    5  A    between atoms: C18_19  and  C19_20 
REMARK    6  A    between atoms: C19_20  and  O2_21 
REMARK    7  A    between atoms: C19_20  and  C20_23 
REMARK    8  A    between atoms: C20_23  and  C21_24 
REMARK    9  A    between atoms: C21_24  and  C22_25 
REMARK   10  A    between atoms: C21_24  and  C30_35 
REMARK   11  A    between atoms: C22_25  and  C23_26 
REMARK   12  A    between atoms: C23_26  and  C24_27 
REMARK   13  A    between atoms: C30_35  and  C31_36 
REMARK   14  A    between atoms: C31_36  and  O3_37 
REMARK   15  A    between atoms: C31_36  and  C32_39 
REMARK   16  A    between atoms: C32_39  and  O4_40 
ROOT
HETATM    1  C19 UNL     1      -4.605 -15.903   4.081  1.00  0.00     0.118 C 
ENDROOT
BRANCH   1   2
HETATM    2  C18 UNL     1      -3.328 -15.308   4.452  1.00  0.00     0.035 C 
BRANCH   2   3
HETATM    3  C2  UNL     1      -2.558 -15.845   5.593  1.00  0.00    -0.016 C 
HETATM    4  C1  UNL     1      -1.306 -16.582   5.296  1.00  0.00     0.010 C 
BRANCH   3   5
HETATM    5  C3  UNL     1      -2.287 -14.817   6.680  1.00  0.00     0.005 C 
BRANCH   5   6
HETATM    6  C4  UNL     1      -3.325 -15.029   7.758  1.00  0.00     0.011 C 
BRANCH   6   7
HETATM    7  C5  UNL     1      -2.809 -14.765   9.144  1.00  0.00    -0.028 C 
HETATM    8  C6  UNL     1      -1.858 -13.645   9.274  1.00  0.00     0.027 C 
HETATM    9  C7  UNL     1      -1.819 -13.082  10.688  1.00  0.00     0.018 C 
HETATM   10  C8  UNL     1      -0.573 -12.275  10.947  1.00  0.00     0.023 C 
HETATM   11  C9  UNL     1      -1.980 -14.221  11.644  1.00  0.00     0.022 C 
HETATM   12  C14 UNL     1      -2.972 -12.119  10.770  1.00  0.00     0.135 C 
HETATM   13  C10 UNL     1      -2.737 -15.387  11.112  1.00  0.00    -0.000 C 
HETATM   14  C11 UNL     1      -3.852 -14.916  10.165  1.00  0.00    -0.000 C 
HETATM   15  C15 UNL     1      -2.130 -15.964   9.827  1.00  0.00    -0.036 C 
HETATM   16  C12 UNL     1      -4.655 -13.827  10.637  1.00  0.00     0.013 C 
HETATM   17  C13 UNL     1      -4.331 -12.431  10.233  1.00  0.00     0.079 C 
HETATM   18  C16 UNL     1      -0.653 -15.983   9.766  1.00  0.00     0.016 C 
HETATM   19  C17 UNL     1      -2.739 -17.297   9.557  1.00  0.00     0.016 C 
HETATM   20  O1  UNL     1      -2.791 -11.043  11.294  1.00  0.00    -0.297 OA
ENDBRANCH   6   7
ENDBRANCH   5   6
ENDBRANCH   3   5
ENDBRANCH   2   3
ENDBRANCH   1   2
BRANCH   1  21
HETATM   21  O2  UNL     1      -4.769 -17.254   4.405  1.00  0.00    -0.396 OA
ATOM     22  H2  UNL     1      -4.841 -17.853   3.670  1.00  0.00     0.210 HD
ENDBRANCH   1  21
BRANCH   1  23
HETATM   23  C20 UNL     1      -5.880 -15.183   4.362  1.00  0.00     0.036 C 
BRANCH  23  24
HETATM   24  C21 UNL     1      -7.047 -16.016   4.662  1.00  0.00    -0.010 C 
BRANCH  24  25
HETATM   25  C22 UNL     1      -7.789 -15.629   5.951  1.00  0.00     0.005 C 
BRANCH  25  26
HETATM   26  C23 UNL     1      -6.949 -15.685   7.124  1.00  0.00     0.013 C 
BRANCH  26  27
HETATM   27  C24 UNL     1      -6.960 -16.845   8.050  1.00  0.00     0.002 A 
HETATM   28  C25 UNL     1      -5.765 -17.769   7.664  1.00  0.00     0.019 C 
HETATM   29  C26 UNL     1      -7.139 -16.793   9.506  1.00  0.00    -0.001 A 
HETATM   30  C27 UNL     1      -7.716 -15.624  10.245  1.00  0.00     0.019 C 
HETATM   31  C28 UNL     1      -6.312 -17.697  10.435  1.00  0.00     0.019 C 
HETATM   32  C29 UNL     1      -8.098 -17.574   8.568  1.00  0.00     0.129 A 
HETATM   33 CL1  UNL     1      -8.007 -19.374   8.705  1.00  0.00    -0.100 Cl
HETATM   34 CL2  UNL     1      -9.778 -17.042   8.527  1.00  0.00    -0.100 Cl
ENDBRANCH  26  27
ENDBRANCH  25  26
ENDBRANCH  24  25
BRANCH  24  35
HETATM   35  C30 UNL     1      -8.074 -16.075   3.586  1.00  0.00     0.038 C 
BRANCH  35  36
HETATM   36  C31 UNL     1      -7.611 -16.027   2.163  1.00  0.00     0.142 C 
BRANCH  36  37
HETATM   37  O3  UNL     1      -7.569 -17.185   1.463  1.00  0.00    -0.393 OA
ATOM     38  H3  UNL     1      -8.151 -17.282   0.719  1.00  0.00     0.210 HD
ENDBRANCH  36  37
BRANCH  36  39
HETATM   39  C32 UNL     1      -8.420 -14.909   1.486  1.00  0.00     0.195 C 
BRANCH  39  40
HETATM   40  O4  UNL     1      -7.695 -13.742   1.623  1.00  0.00    -0.398 OA
ATOM     41  H4  UNL     1      -7.699 -13.309   0.778  1.00  0.00     0.209 HD
ENDBRANCH  39  40
ENDBRANCH  36  39
ENDBRANCH  35  36
ENDBRANCH  24  35
ENDBRANCH  23  24
ENDBRANCH   1  23
TORSDOF 16
ENDMDL
MODEL 3
REMARK VINA RESULT: -7.544400932      2.553      4.119
REMARK  16 active torsions:
REMARK  status: ('A' for Active; 'I' for Inactive)
REMARK    1  A    between atoms: C2_2  and  C3_3 
REMARK    2  A    between atoms: C2_2  and  C18_19 
REMARK    3  A    between atoms: C3_3  and  C4_4 
REMARK    4  A    between atoms: C4_4  and  C5_5 
REMARK    5  A    between atoms: C18_19  and  C19_20 
REMARK    6  A    between atoms: C19_20  and  O2_21 
REMARK    7  A    between atoms: C19_20  and  C20_23 
REMARK    8  A    between atoms: C20_23  and  C21_24 
REMARK    9  A    between atoms: C21_24  and  C22_25 
REMARK   10  A    between atoms: C21_24  and  C30_35 
REMARK   11  A    between atoms: C22_25  and  C23_26 
REMARK   12  A    between atoms: C23_26  and  C24_27 
REMARK   13  A    between atoms: C30_35  and  C31_36 
REMARK   14  A    between atoms: C31_36  and  O3_37 
REMARK   15  A    between atoms: C31_36  and  C32_39 
REMARK   16  A    between atoms: C32_39  and  O4_40 
ROOT
HETATM    1  C19 UNL     1      -3.905 -18.260   5.826  1.00  0.00     0.118 C 
ENDROOT
BRANCH   1   2
HETATM    2  C18 UNL     1      -4.095 -16.820   5.945  1.00  0.00     0.035 C 
BRANCH   2   3
HETATM    3  C2  UNL     1      -3.015 -15.890   5.557  1.00  0.00    -0.016 C 
HETATM    4  C1  UNL     1      -3.257 -14.995   4.400  1.00  0.00     0.010 C 
BRANCH   3   5
HETATM    5  C3  UNL     1      -2.472 -15.072   6.717  1.00  0.00     0.005 C 
BRANCH   5   6
HETATM    6  C4  UNL     1      -3.464 -15.196   7.850  1.00  0.00     0.011 C 
BRANCH   6   7
HETATM    7  C5  UNL     1      -2.887 -14.841   9.191  1.00  0.00    -0.028 C 
HETATM    8  C6  UNL     1      -1.998 -13.665   9.218  1.00  0.00     0.027 C 
HETATM    9  C7  UNL     1      -1.913 -13.037  10.602  1.00  0.00     0.018 C 
HETATM   10  C8  UNL     1      -0.704 -12.150  10.753  1.00  0.00     0.023 C 
HETATM   11  C9  UNL     1      -1.953 -14.138  11.613  1.00  0.00     0.022 C 
HETATM   12  C14 UNL     1      -3.114 -12.137  10.711  1.00  0.00     0.135 C 
HETATM   13  C10 UNL     1      -2.669 -15.368  11.176  1.00  0.00    -0.000 C 
HETATM   14  C11 UNL     1      -3.861 -15.004  10.277  1.00  0.00    -0.000 C 
HETATM   15  C15 UNL     1      -2.102 -15.968   9.884  1.00  0.00    -0.036 C 
HETATM   16  C12 UNL     1      -4.699 -13.941  10.748  1.00  0.00     0.013 C 
HETATM   17  C13 UNL     1      -4.481 -12.549  10.267  1.00  0.00     0.079 C 
HETATM   18  C16 UNL     1      -0.633 -15.907   9.737  1.00  0.00     0.016 C 
HETATM   19  C17 UNL     1      -2.647 -17.343   9.706  1.00  0.00     0.016 C 
HETATM   20  O1  UNL     1      -2.968 -11.030  11.177  1.00  0.00    -0.297 OA
ENDBRANCH   6   7
ENDBRANCH   5   6
ENDBRANCH   3   5
ENDBRANCH   2   3
ENDBRANCH   1   2
BRANCH   1  21
HETATM   21  O2  UNL     1      -2.641 -18.743   6.184  1.00  0.00    -0.396 OA
ATOM     22  H2  UNL     1      -2.621 -19.368   6.900  1.00  0.00     0.210 HD
ENDBRANCH   1  21
BRANCH   1  23
HETATM   23  C20 UNL     1      -4.942 -19.201   6.337  1.00  0.00     0.036 C 
BRANCH  23  24
HETATM   24  C21 UNL     1      -4.759 -19.693   7.704  1.00  0.00    -0.010 C 
BRANCH  24  25
HETATM   25  C22 UNL     1      -5.874 -19.285   8.681  1.00  0.00     0.005 C 
BRANCH  25  26
HETATM   26  C23 UNL     1      -5.805 -17.897   9.068  1.00  0.00     0.013 C 
BRANCH  26  27
HETATM   27  C24 UNL     1      -7.014 -17.118   9.437  1.00  0.00     0.002 A 
HETATM   28  C25 UNL     1      -6.983 -16.900  10.980  1.00  0.00     0.019 C 
HETATM   29  C26 UNL     1      -7.527 -15.930   8.745  1.00  0.00    -0.001 A 
HETATM   30  C27 UNL     1      -7.149 -15.536   7.350  1.00  0.00     0.019 C 
HETATM   31  C28 UNL     1      -8.090 -14.738   9.537  1.00  0.00     0.019 C 
HETATM   32  C29 UNL     1      -8.356 -17.232   8.907  1.00  0.00     0.129 A 
HETATM   33 CL1  UNL     1      -9.766 -17.110  10.031  1.00  0.00    -0.100 Cl
HETATM   34 CL2  UNL     1      -8.819 -18.068   7.425  1.00  0.00    -0.100 Cl
ENDBRANCH  26  27
ENDBRANCH  25  26
ENDBRANCH  24  25
BRANCH  24  35
HETATM   35  C30 UNL     1      -4.606 -21.168   7.831  1.00  0.00     0.038 C 
BRANCH  35  36
HETATM   36  C31 UNL     1      -3.229 -21.723   8.029  1.00  0.00     0.142 C 
BRANCH  36  37
HETATM   37  O3  UNL     1      -2.408 -21.796   6.956  1.00  0.00    -0.393 OA
ATOM     38  H3  UNL     1      -2.673 -22.338   6.223  1.00  0.00     0.210 HD
ENDBRANCH  36  37
BRANCH  36  39
HETATM   39  C32 UNL     1      -2.633 -20.974   9.232  1.00  0.00     0.195 C 
BRANCH  39  40
HETATM   40  O4  UNL     1      -1.263 -21.130   9.170  1.00  0.00    -0.398 OA
ATOM     41  H4  UNL     1      -1.095 -21.984   8.790  1.00  0.00     0.209 HD
ENDBRANCH  39  40
ENDBRANCH  36  39
ENDBRANCH  35  36
ENDBRANCH  24  35
ENDBRANCH  23  24
ENDBRANCH   1  23
TORSDOF 16
ENDMDL
MODEL 4
REMARK VINA RESULT: -7.505213369      2.718      4.204
REMARK  16 active torsions:
REMARK  status: ('A' for Active; 'I' for Inactive)
REMARK    1  A    between atoms: C2_2  and  C3_3 
REMARK    2  A    between atoms: C2_2  and  C18_19 
REMARK    3  A    between atoms: C3_3  and  C4_4 
REMARK    4  A    between atoms: C4_4  and  C5_5 
REMARK    5  A    between atoms: C18_19  and  C19_20 
REMARK    6  A    between atoms: C19_20  and  O2_21 
REMARK    7  A    between atoms: C19_20  and  C20_23 
REMARK    8  A    between atoms: C20_23  and  C21_24 
REMARK    9  A    between atoms: C21_24  and  C22_25 
REMARK   10  A    between atoms: C21_24  and  C30_35 
REMARK   11  A    between atoms: C22_25  and  C23_26 
REMARK   12  A    between atoms: C23_26  and  C24_27 
REMARK   13  A    between atoms: C30_35  and  C31_36 
REMARK   14  A    between atoms: C31_36  and  O3_37 
REMARK   15  A    between atoms: C31_36  and  C32_39 
REMARK   16  A    between atoms: C32_39  and  O4_40 
ROOT
HETATM    1  C19 UNL     1      -3.891 -18.140   5.880  1.00  0.00     0.118 C 
ENDROOT
BRANCH   1   2
HETATM    2  C18 UNL     1      -3.869 -16.722   6.217  1.00  0.00     0.035 C 
BRANCH   2   3
HETATM    3  C2  UNL     1      -2.770 -15.858   5.739  1.00  0.00    -0.016 C 
HETATM    4  C1  UNL     1      -2.946 -15.174   4.435  1.00  0.00     0.010 C 
BRANCH   3   5
HETATM    5  C3  UNL     1      -2.296 -14.850   6.773  1.00  0.00     0.005 C 
BRANCH   5   6
HETATM    6  C4  UNL     1      -3.269 -14.909   7.928  1.00  0.00     0.011 C 
BRANCH   6   7
HETATM    7  C5  UNL     1      -2.636 -14.614   9.258  1.00  0.00    -0.028 C 
HETATM    8  C6  UNL     1      -1.580 -13.584   9.253  1.00  0.00     0.027 C 
HETATM    9  C7  UNL     1      -1.393 -12.944  10.622  1.00  0.00     0.018 C 
HETATM   10  C8  UNL     1      -0.064 -12.245  10.747  1.00  0.00     0.023 C 
HETATM   11  C9  UNL     1      -1.590 -14.003  11.659  1.00  0.00     0.022 C 
HETATM   12  C14 UNL     1      -2.444 -11.872  10.713  1.00  0.00     0.135 C 
HETATM   13  C10 UNL     1      -2.485 -15.121  11.254  1.00  0.00    -0.000 C 
HETATM   14  C11 UNL     1      -3.616 -14.603  10.351  1.00  0.00    -0.000 C 
HETATM   15  C15 UNL     1      -2.024 -15.829   9.975  1.00  0.00    -0.036 C 
HETATM   16  C12 UNL     1      -4.281 -13.417  10.800  1.00  0.00     0.013 C 
HETATM   17  C13 UNL     1      -3.861 -12.085  10.284  1.00  0.00     0.079 C 
HETATM   18  C16 UNL     1      -0.563 -15.993   9.821  1.00  0.00     0.016 C 
HETATM   19  C17 UNL     1      -2.770 -17.111   9.832  1.00  0.00     0.016 C 
HETATM   20  O1  UNL     1      -2.131 -10.789  11.152  1.00  0.00    -0.297 OA
ENDBRANCH   6   7
ENDBRANCH   5   6
ENDBRANCH   3   5
ENDBRANCH   2   3
ENDBRANCH   1   2
BRANCH   1  21
HETATM   21  O2  UNL     1      -2.648 -18.783   5.853  1.00  0.00    -0.396 OA
ATOM     22  H2  UNL     1      -2.057 -18.577   6.568  1.00  0.00     0.210 HD
ENDBRANCH   1  21
BRANCH   1  23
HETATM   23  C20 UNL     1      -4.890 -19.048   6.513  1.00  0.00     0.036 C 
BRANCH  23  24
HETATM   24  C21 UNL     1      -4.706 -19.327   7.939  1.00  0.00    -0.010 C 
BRANCH  24  25
HETATM   25  C22 UNL     1      -5.962 -19.104   8.796  1.00  0.00     0.005 C 
BRANCH  25  26
HETATM   26  C23 UNL     1      -6.261 -17.708   9.008  1.00  0.00     0.013 C 
BRANCH  26  27
HETATM   27  C24 UNL     1      -7.580 -17.249   9.509  1.00  0.00     0.002 A 
HETATM   28  C25 UNL     1      -8.611 -18.387   9.238  1.00  0.00     0.019 C 
HETATM   29  C26 UNL     1      -7.841 -16.595  10.797  1.00  0.00    -0.001 A 
HETATM   30  C27 UNL     1      -6.789 -15.943  11.642  1.00  0.00     0.019 C 
HETATM   31  C28 UNL     1      -9.091 -16.947  11.622  1.00  0.00     0.019 C 
HETATM   32  C29 UNL     1      -8.162 -15.926   9.434  1.00  0.00     0.129 A 
HETATM   33 CL1  UNL     1      -9.922 -15.753   9.060  1.00  0.00    -0.100 Cl
HETATM   34 CL2  UNL     1      -7.302 -14.433   9.059  1.00  0.00    -0.100 Cl
ENDBRANCH  26  27
ENDBRANCH  25  26
ENDBRANCH  24  25
BRANCH  24  35
HETATM   35  C30 UNL     1      -4.215 -20.695   8.258  1.00  0.00     0.038 C 
BRANCH  35  36
HETATM   36  C31 UNL     1      -2.923 -20.827   9.004  1.00  0.00     0.142 C 
BRANCH  36  37
HETATM   37  O3  UNL     1      -2.970 -20.929  10.353  1.00  0.00    -0.393 OA
ATOM     38  H3  UNL     1      -3.123 -20.139  10.858  1.00  0.00     0.210 HD
ENDBRANCH  36  37
BRANCH  36  39
HETATM   39  C32 UNL     1      -2.140 -21.953   8.311  1.00  0.00     0.195 C 
BRANCH  39  40
HETATM   40  O4  UNL     1      -2.340 -21.813   6.953  1.00  0.00    -0.398 OA
ATOM     41  H4  UNL     1      -1.558 -22.135   6.520  1.00  0.00     0.209 HD
ENDBRANCH  39  40
ENDBRANCH  36  39
ENDBRANCH  35  36
ENDBRANCH  24  35
ENDBRANCH  23  24
ENDBRANCH   1  23
TORSDOF 16
ENDMDL
MODEL 5
REMARK VINA RESULT: -7.495718968      1.844      3.138
REMARK  16 active torsions:
REMARK  status: ('A' for Active; 'I' for Inactive)
REMARK    1  A    between atoms: C2_2  and  C3_3 
REMARK    2  A    between atoms: C2_2  and  C18_19 
REMARK    3  A    between atoms: C3_3  and  C4_4 
REMARK    4  A    between atoms: C4_4  and  C5_5 
REMARK    5  A    between atoms: C18_19  and  C19_20 
REMARK    6  A    between atoms: C19_20  and  O2_21 
REMARK    7  A    between atoms: C19_20  and  C20_23 
REMARK    8  A    between atoms: C20_23  and  C21_24 
REMARK    9  A    between atoms: C21_24  and  C22_25 
REMARK   10  A    between atoms: C21_24  and  C30_35 
REMARK   11  A    between atoms: C22_25  and  C23_26 
REMARK   12  A    between atoms: C23_26  and  C24_27 
REMARK   13  A    between atoms: C30_35  and  C31_36 
REMARK   14  A    between atoms: C31_36  and  O3_37 
REMARK   15  A    between atoms: C31_36  and  C32_39 
REMARK   16  A    between atoms: C32_39  and  O4_40 
ROOT
HETATM    1  C19 UNL     1      -5.025 -15.767   4.692  1.00  0.00     0.118 C 
ENDROOT
BRANCH   1   2
HETATM    2  C18 UNL     1      -3.637 -15.324   4.651  1.00  0.00     0.035 C 
BRANCH   2   3
HETATM    3  C2  UNL     1      -2.663 -15.831   5.639  1.00  0.00    -0.016 C 
HETATM    4  C1  UNL     1      -1.446 -16.504   5.127  1.00  0.00     0.010 C 
BRANCH   3   5
HETATM    5  C3  UNL     1      -2.262 -14.798   6.681  1.00  0.00     0.005 C 
BRANCH   5   6
HETATM    6  C4  UNL     1      -3.336 -14.802   7.745  1.00  0.00     0.011 C 
BRANCH   6   7
HETATM    7  C5  UNL     1      -2.801 -14.601   9.134  1.00  0.00    -0.028 C 
HETATM    8  C6  UNL     1      -1.780 -13.546   9.284  1.00  0.00     0.027 C 
HETATM    9  C7  UNL     1      -1.703 -13.016  10.709  1.00  0.00     0.018 C 
HETATM   10  C8  UNL     1      -0.408 -12.294  10.980  1.00  0.00     0.023 C 
HETATM   11  C9  UNL     1      -1.934 -14.162  11.642  1.00  0.00     0.022 C 
HETATM   12  C14 UNL     1      -2.792 -11.983  10.815  1.00  0.00     0.135 C 
HETATM   13  C10 UNL     1      -2.764 -15.266  11.088  1.00  0.00    -0.000 C 
HETATM   14  C11 UNL     1      -3.849 -14.706  10.155  1.00  0.00    -0.000 C 
HETATM   15  C15 UNL     1      -2.198 -15.854   9.790  1.00  0.00    -0.036 C 
HETATM   16  C12 UNL     1      -4.580 -13.578  10.652  1.00  0.00     0.013 C 
HETATM   17  C13 UNL     1      -4.170 -12.198  10.275  1.00  0.00     0.079 C 
HETATM   18  C16 UNL     1      -0.726 -15.965   9.724  1.00  0.00     0.016 C 
HETATM   19  C17 UNL     1      -2.891 -17.139   9.494  1.00  0.00     0.016 C 
HETATM   20  O1  UNL     1      -2.543 -10.932  11.360  1.00  0.00    -0.297 OA
ENDBRANCH   6   7
ENDBRANCH   5   6
ENDBRANCH   3   5
ENDBRANCH   2   3
ENDBRANCH   1   2
BRANCH   1  21
HETATM   21  O2  UNL     1      -5.824 -15.382   3.609  1.00  0.00    -0.396 OA
ATOM     22  H2  UNL     1      -5.859 -15.992   2.880  1.00  0.00     0.210 HD
ENDBRANCH   1  21
BRANCH   1  23
HETATM   23  C20 UNL     1      -5.355 -17.175   5.057  1.00  0.00     0.036 C 
BRANCH  23  24
HETATM   24  C21 UNL     1      -5.195 -17.537   6.467  1.00  0.00    -0.010 C 
BRANCH  24  25
HETATM   25  C22 UNL     1      -6.119 -16.771   7.428  1.00  0.00     0.005 C 
BRANCH  25  26
HETATM   26  C23 UNL     1      -6.550 -17.567   8.551  1.00  0.00     0.013 C 
BRANCH  26  27
HETATM   27  C24 UNL     1      -7.152 -16.960   9.765  1.00  0.00     0.002 A 
HETATM   28  C25 UNL     1      -7.704 -15.558   9.369  1.00  0.00     0.019 C 
HETATM   29  C26 UNL     1      -8.043 -17.630  10.720  1.00  0.00    -0.001 A 
HETATM   30  C27 UNL     1      -8.186 -19.116  10.844  1.00  0.00     0.019 C 
HETATM   31  C28 UNL     1      -9.254 -16.893  11.318  1.00  0.00     0.019 C 
HETATM   32  C29 UNL     1      -6.677 -17.019  11.132  1.00  0.00     0.129 A 
HETATM   33 CL1  UNL     1      -6.778 -15.541  12.167  1.00  0.00    -0.100 Cl
HETATM   34 CL2  UNL     1      -5.466 -18.134  11.763  1.00  0.00    -0.100 Cl
ENDBRANCH  26  27
ENDBRANCH  25  26
ENDBRANCH  24  25
BRANCH  24  35
HETATM   35  C30 UNL     1      -5.374 -18.982   6.773  1.00  0.00     0.038 C 
BRANCH  35  36
HETATM   36  C31 UNL     1      -4.149 -19.826   6.942  1.00  0.00     0.142 C 
BRANCH  36  37
HETATM   37  O3  UNL     1      -2.958 -19.312   6.554  1.00  0.00    -0.393 OA
ATOM     38  H3  UNL     1      -2.180 -19.844   6.669  1.00  0.00     0.210 HD
ENDBRANCH  36  37
BRANCH  36  39
HETATM   39  C32 UNL     1      -4.175 -20.337   8.391  1.00  0.00     0.195 C 
BRANCH  39  40
HETATM   40  O4  UNL     1      -4.524 -21.672   8.346  1.00  0.00    -0.398 OA
ATOM     41  H4  UNL     1      -5.367 -21.756   8.774  1.00  0.00     0.209 HD
ENDBRANCH  39  40
ENDBRANCH  36  39
ENDBRANCH  35  36
ENDBRANCH  24  35
ENDBRANCH  23  24
ENDBRANCH   1  23
TORSDOF 16
ENDMDL
