MODEL 1
REMARK VINA RESULT: -8.890172127      0.000      0.000
REMARK  3 active torsions:
REMARK  status: ('A' for Active; 'I' for Inactive)
REMARK    1  A    between atoms: C2_2  and  C3_4 
REMARK    2  A    between atoms: C4_5  and  O2_6 
REMARK    3  A    between atoms: C8_12  and  O3_13 
ROOT
HETATM    1  C3  UNL     1      13.792  12.916  -8.627  1.00  0.00     0.078 A 
HETATM    2  C4  UNL     1      13.788  14.213  -9.063  1.00  0.00     0.107 A 
HETATM    3  C5  UNL     1      14.643  14.609 -10.112  1.00  0.00     0.087 A 
HETATM    4  N1  UNL     1      14.634  15.936 -10.552  1.00  0.00    -0.099 NA
HETATM    5  C6  UNL     1      15.470  13.685 -10.681  1.00  0.00    -0.014 A 
HETATM    6  C7  UNL     1      15.509  12.371 -10.276  1.00  0.00     0.052 A 
HETATM    7  C8  UNL     1      14.660  11.972  -9.234  1.00  0.00     0.096 A 
HETATM    8  C9  UNL     1      16.339  11.279 -10.781  1.00  0.00     0.164 C 
HETATM    9  O4  UNL     1      16.568  10.371  -9.951  1.00  0.00    -0.292 OA
HETATM   10  C10 UNL     1      16.890  11.200 -12.158  1.00  0.00     0.100 C 
HETATM   11  C11 UNL     1      17.775  12.325 -12.522  1.00  0.00     0.070 C 
HETATM   12  S1  UNL     1      19.506  11.749 -12.309  1.00  0.00    -0.092 SA
HETATM   13  C12 UNL     1      17.642  13.577 -11.733  1.00  0.00     0.001 C 
HETATM   14  C13 UNL     1      18.751  14.526 -12.176  1.00  0.00     0.011 C 
HETATM   15  C14 UNL     1      16.319  14.260 -11.791  1.00  0.00     0.047 C 
ENDROOT
BRANCH   1  16
HETATM   16  C2  UNL     1      12.933  12.426  -7.542  1.00  0.00     0.161 C 
HETATM   17  C1  UNL     1      13.081  12.772  -6.128  1.00  0.00     0.097 C 
HETATM   18  O1  UNL     1      11.990  11.643  -7.839  1.00  0.00    -0.293 OA
ENDBRANCH   1  16
BRANCH   2  19
HETATM   19  O2  UNL     1      12.988  15.160  -8.531  1.00  0.00    -0.358 OA
ATOM     20  H2  UNL     1      13.305  16.018  -8.278  1.00  0.00     0.217 HD
ENDBRANCH   2  19
BRANCH   7  21
HETATM   21  O3  UNL     1      14.714  10.711  -8.864  1.00  0.00    -0.359 OA
ATOM     22  H3  UNL     1      15.439  10.139  -9.086  1.00  0.00     0.217 HD
ENDBRANCH   7  21
TORSDOF 3
ENDMDL
MODEL 2
REMARK VINA RESULT: -8.585069840      2.410      3.418
REMARK  3 active torsions:
REMARK  status: ('A' for Active; 'I' for Inactive)
REMARK    1  A    between atoms: C2_2  and  C3_4 
REMARK    2  A    between atoms: C4_5  and  O2_6 
REMARK    3  A    between atoms: C8_12  and  O3_13 
ROOT
HETATM    1  C3  UNL     1      15.560  10.279  -8.020  1.00  0.00     0.078 A 
HETATM    2  C4  UNL     1      14.340  10.880  -7.874  1.00  0.00     0.107 A 
HETATM    3  C5  UNL     1      13.996  11.986  -8.677  1.00  0.00     0.087 A 
HETATM    4  N1  UNL     1      12.746  12.595  -8.522  1.00  0.00    -0.099 NA
HETATM    5  C6  UNL     1      14.893  12.447  -9.595  1.00  0.00    -0.014 A 
HETATM    6  C7  UNL     1      16.132  11.877  -9.777  1.00  0.00     0.052 A 
HETATM    7  C8  UNL     1      16.478  10.775  -8.981  1.00  0.00     0.096 A 
HETATM    8  C9  UNL     1      17.191  12.260 -10.707  1.00  0.00     0.164 C 
HETATM    9  O4  UNL     1      18.347  11.954 -10.336  1.00  0.00    -0.292 OA
HETATM   10  C10 UNL     1      16.973  12.956 -12.001  1.00  0.00     0.100 C 
HETATM   11  C11 UNL     1      16.313  14.272 -11.878  1.00  0.00     0.070 C 
HETATM   12  S1  UNL     1      17.627  15.552 -11.956  1.00  0.00    -0.092 SA
HETATM   13  C12 UNL     1      15.539  14.529 -10.636  1.00  0.00     0.001 C 
HETATM   14  C13 UNL     1      15.090  15.987 -10.662  1.00  0.00     0.011 C 
HETATM   15  C14 UNL     1      14.378  13.633 -10.379  1.00  0.00     0.047 C 
ENDROOT
BRANCH   1  16
HETATM   16  C2  UNL     1      15.993   9.124  -7.224  1.00  0.00     0.161 C 
HETATM   17  C1  UNL     1      16.328   9.160  -5.799  1.00  0.00     0.097 C 
HETATM   18  O1  UNL     1      16.088   8.007  -7.801  1.00  0.00    -0.293 OA
ENDBRANCH   1  16
BRANCH   2  19
HETATM   19  O2  UNL     1      13.421  10.459  -6.980  1.00  0.00    -0.358 OA
ATOM     20  H2  UNL     1      13.513  10.596  -6.045  1.00  0.00     0.217 HD
ENDBRANCH   2  19
BRANCH   7  21
HETATM   21  O3  UNL     1      17.666  10.245  -9.173  1.00  0.00    -0.359 OA
ATOM     22  H3  UNL     1      18.427  10.484  -8.656  1.00  0.00     0.217 HD
ENDBRANCH   7  21
TORSDOF 3
ENDMDL
MODEL 3
REMARK VINA RESULT: -8.488730554      2.797      4.000
REMARK  3 active torsions:
REMARK  status: ('A' for Active; 'I' for Inactive)
REMARK    1  A    between atoms: C2_2  and  C3_4 
REMARK    2  A    between atoms: C4_5  and  O2_6 
REMARK    3  A    between atoms: C8_12  and  O3_13 
ROOT
HETATM    1  C3  UNL     1      15.513  10.112  -7.133  1.00  0.00     0.078 A 
HETATM    2  C4  UNL     1      14.362  10.690  -6.671  1.00  0.00     0.107 A 
HETATM    3  C5  UNL     1      13.789  11.776  -7.362  1.00  0.00     0.087 A 
HETATM    4  N1  UNL     1      12.613  12.362  -6.884  1.00  0.00    -0.099 NA
HETATM    5  C6  UNL     1      14.397  12.241  -8.491  1.00  0.00    -0.014 A 
HETATM    6  C7  UNL     1      15.555  11.694  -8.993  1.00  0.00     0.052 A 
HETATM    7  C8  UNL     1      16.128  10.612  -8.309  1.00  0.00     0.096 A 
HETATM    8  C9  UNL     1      16.317  12.084 -10.177  1.00  0.00     0.164 C 
HETATM    9  O4  UNL     1      17.537  11.807 -10.127  1.00  0.00    -0.292 OA
HETATM   10  C10 UNL     1      15.744  12.755 -11.372  1.00  0.00     0.100 C 
HETATM   11  C11 UNL     1      15.110  14.059 -11.088  1.00  0.00     0.070 C 
HETATM   12  S1  UNL     1      16.324  15.365 -11.528  1.00  0.00    -0.092 SA
HETATM   13  C12 UNL     1      14.691  14.320  -9.687  1.00  0.00     0.001 C 
HETATM   14  C13 UNL     1      14.217  15.768  -9.606  1.00  0.00     0.011 C 
HETATM   15  C14 UNL     1      13.662  13.403  -9.119  1.00  0.00     0.047 C 
ENDROOT
BRANCH   1  16
HETATM   16  C2  UNL     1      16.170   8.979  -6.471  1.00  0.00     0.161 C 
HETATM   17  C1  UNL     1      16.517   8.918  -5.050  1.00  0.00     0.097 C 
HETATM   18  O1  UNL     1      16.466   7.972  -7.171  1.00  0.00    -0.293 OA
ENDBRANCH   1  16
BRANCH   2  19
HETATM   19  O2  UNL     1      13.726  10.264  -5.559  1.00  0.00    -0.358 OA
ATOM     20  H2  UNL     1      14.168  10.151  -4.726  1.00  0.00     0.217 HD
ENDBRANCH   2  19
BRANCH   7  21
HETATM   21  O3  UNL     1      17.234  10.103  -8.808  1.00  0.00    -0.359 OA
ATOM     22  H3  UNL     1      17.494   9.200  -8.669  1.00  0.00     0.217 HD
ENDBRANCH   7  21
TORSDOF 3
ENDMDL
MODEL 4
REMARK VINA RESULT: -8.160025062      1.209      1.327
REMARK  3 active torsions:
REMARK  status: ('A' for Active; 'I' for Inactive)
REMARK    1  A    between atoms: C2_2  and  C3_4 
REMARK    2  A    between atoms: C4_5  and  O2_6 
REMARK    3  A    between atoms: C8_12  and  O3_13 
ROOT
HETATM    1  C3  UNL     1      14.540  11.861  -8.781  1.00  0.00     0.078 A 
HETATM    2  C4  UNL     1      14.071  13.111  -9.076  1.00  0.00     0.107 A 
HETATM    3  C5  UNL     1      14.742  13.914 -10.020  1.00  0.00     0.087 A 
HETATM    4  N1  UNL     1      14.256  15.192 -10.317  1.00  0.00    -0.099 NA
HETATM    5  C6  UNL     1      15.861  13.429 -10.631  1.00  0.00    -0.014 A 
HETATM    6  C7  UNL     1      16.371  12.179 -10.366  1.00  0.00     0.052 A 
HETATM    7  C8  UNL     1      15.706  11.376  -9.428  1.00  0.00     0.096 A 
HETATM    8  C9  UNL     1      17.553  11.531 -10.931  1.00  0.00     0.164 C 
HETATM    9  O4  UNL     1      18.082  10.673 -10.188  1.00  0.00    -0.292 OA
HETATM   10  C10 UNL     1      18.122  11.825 -12.270  1.00  0.00     0.100 C 
HETATM   11  C11 UNL     1      18.541  13.229 -12.456  1.00  0.00     0.070 C 
HETATM   12  S1  UNL     1      20.358  13.296 -12.195  1.00  0.00    -0.092 SA
HETATM   13  C12 UNL     1      17.942  14.242 -11.549  1.00  0.00     0.001 C 
HETATM   14  C13 UNL     1      18.635  15.574 -11.817  1.00  0.00     0.011 C 
HETATM   15  C14 UNL     1      16.463  14.403 -11.618  1.00  0.00     0.047 C 
ENDROOT
BRANCH   1  16
HETATM   16  C2  UNL     1      13.899  10.965  -7.811  1.00  0.00     0.161 C 
HETATM   17  C1  UNL     1      13.982  11.099  -6.356  1.00  0.00     0.097 C 
HETATM   18  O1  UNL     1      13.220   9.999  -8.254  1.00  0.00    -0.293 OA
ENDBRANCH   1  16
BRANCH   2  19
HETATM   19  O2  UNL     1      12.968  13.633  -8.498  1.00  0.00    -0.358 OA
ATOM     20  H2  UNL     1      12.603  14.471  -8.752  1.00  0.00     0.217 HD
ENDBRANCH   2  19
BRANCH   7  21
HETATM   21  O3  UNL     1      16.210  10.185  -9.192  1.00  0.00    -0.359 OA
ATOM     22  H3  UNL     1      15.818   9.384  -9.520  1.00  0.00     0.217 HD
ENDBRANCH   7  21
TORSDOF 3
ENDMDL
MODEL 5
REMARK VINA RESULT: -7.965796267      4.270      6.035
REMARK  3 active torsions:
REMARK  status: ('A' for Active; 'I' for Inactive)
REMARK    1  A    between atoms: C2_2  and  C3_4 
REMARK    2  A    between atoms: C4_5  and  O2_6 
REMARK    3  A    between atoms: C8_12  and  O3_13 
ROOT
HETATM    1  C3  UNL     1      18.767  12.588 -12.011  1.00  0.00     0.078 A 
HETATM    2  C4  UNL     1      19.973  13.211 -12.184  1.00  0.00     0.107 A 
HETATM    3  C5  UNL     1      20.039  14.617 -12.254  1.00  0.00     0.087 A 
HETATM    4  N1  UNL     1      21.275  15.247 -12.431  1.00  0.00    -0.099 NA
HETATM    5  C6  UNL     1      18.889  15.343 -12.149  1.00  0.00    -0.014 A 
HETATM    6  C7  UNL     1      17.654  14.761 -11.975  1.00  0.00     0.052 A 
HETATM    7  C8  UNL     1      17.584  13.363 -11.904  1.00  0.00     0.096 A 
HETATM    8  C9  UNL     1      16.346  15.402 -11.854  1.00  0.00     0.164 C 
HETATM    9  O4  UNL     1      15.382  14.693 -12.222  1.00  0.00    -0.292 OA
HETATM   10  C10 UNL     1      16.120  16.777 -11.342  1.00  0.00     0.100 C 
HETATM   11  C11 UNL     1      16.802  17.833 -12.117  1.00  0.00     0.070 C 
HETATM   12  S1  UNL     1      15.559  18.565 -13.254  1.00  0.00    -0.092 SA
HETATM   13  C12 UNL     1      17.957  17.420 -12.956  1.00  0.00     0.001 C 
HETATM   14  C13 UNL     1      18.392  18.631 -13.777  1.00  0.00     0.011 C 
HETATM   15  C14 UNL     1      19.123  16.834 -12.238  1.00  0.00     0.047 C 
ENDROOT
BRANCH   1  16
HETATM   16  C2  UNL     1      18.616  11.130 -11.928  1.00  0.00     0.161 C 
HETATM   17  C1  UNL     1      18.716  10.206 -13.059  1.00  0.00     0.097 C 
HETATM   18  O1  UNL     1      18.379  10.621 -10.799  1.00  0.00    -0.293 OA
ENDBRANCH   1  16
BRANCH   2  19
HETATM   19  O2  UNL     1      21.136  12.534 -12.292  1.00  0.00    -0.358 OA
ATOM     20  H2  UNL     1      21.984  12.958 -12.236  1.00  0.00     0.217 HD
ENDBRANCH   2  19
BRANCH   7  21
HETATM   21  O3  UNL     1      16.394  12.828 -11.737  1.00  0.00    -0.359 OA
ATOM     22  H3  UNL     1      15.633  13.335 -11.478  1.00  0.00     0.217 HD
ENDBRANCH   7  21
TORSDOF 3
ENDMDL
