MODEL 1
REMARK VINA RESULT: -7.157159596      0.000      0.000
REMARK  3 active torsions:
REMARK  status: ('A' for Active; 'I' for Inactive)
REMARK    1  A    between atoms: O1_1  and  C1_3 
REMARK    2  A    between atoms: C4_6  and  O2_7 
REMARK    3  A    between atoms: N1_9  and  C5_10 
ROOT
HETATM    1  C1  UNL     1     -21.021   0.024 -25.281  1.00  0.00     0.151 A 
HETATM    2  C2  UNL     1     -20.800   0.598 -24.067  1.00  0.00     0.007 A 
HETATM    3  C3  UNL     1     -21.588   1.731 -24.032  1.00  0.00     0.021 A 
HETATM    4  C4  UNL     1     -22.246   1.773 -25.241  1.00  0.00     0.153 A 
HETATM    5  N1  UNL     1     -21.905   0.728 -26.015  1.00  0.00    -0.303 N 
HETATM    6  C11 UNL     1     -21.517   2.541 -22.789  1.00  0.00     0.157 C 
HETATM    7  N2  UNL     1     -21.652   1.651 -21.678  1.00  0.00    -0.417 N 
ATOM      8  H2  UNL     1     -22.412   1.732 -21.003  1.00  0.00     0.153 HD
HETATM    9  C12 UNL     1     -20.648   0.642 -21.580  1.00  0.00     0.118 C 
HETATM   10  C13 UNL     1     -19.960   0.303 -22.861  1.00  0.00     0.063 C 
ENDROOT
BRANCH   5  11
HETATM   11  C5  UNL     1     -22.366   0.410 -27.334  1.00  0.00     0.094 C 
HETATM   12  C6  UNL     1     -22.344  -1.099 -27.586  1.00  0.00     0.026 C 
HETATM   13  C7  UNL     1     -22.809  -1.404 -28.967  1.00  0.00     0.002 C 
HETATM   14  C8  UNL     1     -22.051  -0.684 -30.042  1.00  0.00     0.000 C 
HETATM   15  C9  UNL     1     -20.956   0.129 -29.364  1.00  0.00     0.002 C 
HETATM   16  C10 UNL     1     -21.646   1.123 -28.427  1.00  0.00     0.026 C 
ENDBRANCH   5  11
BRANCH   1  17
HETATM   17  O1  UNL     1     -20.385  -1.165 -25.684  1.00  0.00    -0.345 OA
ATOM     18  H1  UNL     1     -20.668  -1.665 -26.441  1.00  0.00     0.219 HD
ENDBRANCH   1  17
BRANCH   4  19
HETATM   19  O2  UNL     1     -23.143   2.783 -25.581  1.00  0.00    -0.345 OA
ATOM     20  H2  UNL     1     -23.757   2.707 -26.302  1.00  0.00     0.219 HD
ENDBRANCH   4  19
TORSDOF 3
ENDMDL
MODEL 2
REMARK VINA RESULT: -7.150395903      1.951      3.190
REMARK  3 active torsions:
REMARK  status: ('A' for Active; 'I' for Inactive)
REMARK    1  A    between atoms: O1_1  and  C1_3 
REMARK    2  A    between atoms: C4_6  and  O2_7 
REMARK    3  A    between atoms: N1_9  and  C5_10 
ROOT
HETATM    1  C1  UNL     1     -21.944  -0.045 -25.272  1.00  0.00     0.151 A 
HETATM    2  C2  UNL     1     -22.153  -0.614 -24.053  1.00  0.00     0.007 A 
HETATM    3  C3  UNL     1     -21.364  -1.746 -24.019  1.00  0.00     0.021 A 
HETATM    4  C4  UNL     1     -20.717  -1.793 -25.234  1.00  0.00     0.153 A 
HETATM    5  N1  UNL     1     -21.066  -0.752 -26.010  1.00  0.00    -0.303 N 
HETATM    6  C11 UNL     1     -21.422  -2.549 -22.772  1.00  0.00     0.157 C 
HETATM    7  N2  UNL     1     -21.277  -1.653 -21.666  1.00  0.00    -0.417 N 
ATOM      8  H2  UNL     1     -20.510  -1.730 -20.998  1.00  0.00     0.153 HD
HETATM    9  C12 UNL     1     -22.281  -0.645 -21.564  1.00  0.00     0.118 C 
HETATM   10  C13 UNL     1     -22.982  -0.313 -22.840  1.00  0.00     0.063 C 
ENDROOT
BRANCH   5  11
HETATM   11  C5  UNL     1     -20.619  -0.440 -27.336  1.00  0.00     0.094 C 
HETATM   12  C6  UNL     1     -20.622   1.069 -27.587  1.00  0.00     0.026 C 
HETATM   13  C7  UNL     1     -20.172   1.367 -28.974  1.00  0.00     0.002 C 
HETATM   14  C8  UNL     1     -20.954   0.659 -30.039  1.00  0.00     0.000 C 
HETATM   15  C9  UNL     1     -22.051  -0.139 -29.347  1.00  0.00     0.002 C 
HETATM   16  C10 UNL     1     -21.363  -1.143 -28.419  1.00  0.00     0.026 C 
ENDBRANCH   5  11
BRANCH   1  17
HETATM   17  O1  UNL     1     -22.585   1.141 -25.675  1.00  0.00    -0.345 OA
ATOM     18  H1  UNL     1     -22.490   1.503 -26.549  1.00  0.00     0.219 HD
ENDBRANCH   1  17
BRANCH   4  19
HETATM   19  O2  UNL     1     -19.823  -2.803 -25.578  1.00  0.00    -0.345 OA
ATOM     20  H2  UNL     1     -20.067  -3.549 -26.115  1.00  0.00     0.219 HD
ENDBRANCH   4  19
TORSDOF 3
ENDMDL
MODEL 3
REMARK VINA RESULT: -7.047279742      1.537      5.397
REMARK  3 active torsions:
REMARK  status: ('A' for Active; 'I' for Inactive)
REMARK    1  A    between atoms: O1_1  and  C1_3 
REMARK    2  A    between atoms: C4_6  and  O2_7 
REMARK    3  A    between atoms: N1_9  and  C5_10 
ROOT
HETATM    1  C1  UNL     1     -20.883  -1.138 -26.004  1.00  0.00     0.151 A 
HETATM    2  C2  UNL     1     -21.262  -0.637 -27.211  1.00  0.00     0.007 A 
HETATM    3  C3  UNL     1     -21.891   0.563 -26.946  1.00  0.00     0.021 A 
HETATM    4  C4  UNL     1     -21.853   0.716 -25.578  1.00  0.00     0.153 A 
HETATM    5  N1  UNL     1     -21.236  -0.323 -24.990  1.00  0.00    -0.303 N 
HETATM    6  C11 UNL     1     -22.401   1.311 -28.123  1.00  0.00     0.157 C 
HETATM    7  N2  UNL     1     -21.358   1.355 -29.100  1.00  0.00    -0.417 N 
ATOM      8  H2  UNL     1     -20.963   2.232 -29.437  1.00  0.00     0.153 HD
HETATM    9  C12 UNL     1     -20.910   0.085 -29.571  1.00  0.00     0.118 C 
HETATM   10  C13 UNL     1     -21.159  -1.060 -28.646  1.00  0.00     0.063 C 
ENDROOT
BRANCH   5  11
HETATM   11  C5  UNL     1     -20.994  -0.542 -23.595  1.00  0.00     0.094 C 
HETATM   12  C6  UNL     1     -22.302  -0.614 -22.804  1.00  0.00     0.026 C 
HETATM   13  C7  UNL     1     -22.026  -0.824 -21.357  1.00  0.00     0.002 C 
HETATM   14  C8  UNL     1     -21.108   0.196 -20.754  1.00  0.00     0.000 C 
HETATM   15  C9  UNL     1     -20.769   1.207 -21.841  1.00  0.00     0.002 C 
HETATM   16  C10 UNL     1     -20.069   0.443 -22.967  1.00  0.00     0.026 C 
ENDBRANCH   5  11
BRANCH   1  17
HETATM   17  O1  UNL     1     -20.205  -2.364 -25.871  1.00  0.00    -0.345 OA
ATOM     18  H1  UNL     1     -19.420  -2.570 -26.364  1.00  0.00     0.219 HD
ENDBRANCH   1  17
BRANCH   4  19
HETATM   19  O2  UNL     1     -22.395   1.819 -24.923  1.00  0.00    -0.345 OA
ATOM     20  H2  UNL     1     -23.266   1.819 -24.542  1.00  0.00     0.219 HD
ENDBRANCH   4  19
TORSDOF 3
ENDMDL
MODEL 4
REMARK VINA RESULT: -7.042266216      1.585      5.864
REMARK  3 active torsions:
REMARK  status: ('A' for Active; 'I' for Inactive)
REMARK    1  A    between atoms: O1_1  and  C1_3 
REMARK    2  A    between atoms: C4_6  and  O2_7 
REMARK    3  A    between atoms: N1_9  and  C5_10 
ROOT
HETATM    1  C1  UNL     1     -22.075   1.140 -26.023  1.00  0.00     0.151 A 
HETATM    2  C2  UNL     1     -21.705   0.627 -27.228  1.00  0.00     0.007 A 
HETATM    3  C3  UNL     1     -21.088  -0.578 -26.957  1.00  0.00     0.021 A 
HETATM    4  C4  UNL     1     -21.125  -0.723 -25.587  1.00  0.00     0.153 A 
HETATM    5  N1  UNL     1     -21.729   0.327 -25.005  1.00  0.00    -0.303 N 
HETATM    6  C11 UNL     1     -20.589  -1.339 -28.130  1.00  0.00     0.157 C 
HETATM    7  N2  UNL     1     -21.634  -1.377 -29.105  1.00  0.00    -0.417 N 
ATOM      8  H2  UNL     1     -22.040  -2.252 -29.436  1.00  0.00     0.153 HD
HETATM    9  C12 UNL     1     -22.069  -0.105 -29.582  1.00  0.00     0.118 C 
HETATM   10  C13 UNL     1     -21.806   1.043 -28.665  1.00  0.00     0.063 C 
ENDROOT
BRANCH   5  11
HETATM   11  C5  UNL     1     -21.966   0.557 -23.610  1.00  0.00     0.094 C 
HETATM   12  C6  UNL     1     -20.655   0.630 -22.825  1.00  0.00     0.026 C 
HETATM   13  C7  UNL     1     -20.926   0.852 -21.378  1.00  0.00     0.002 C 
HETATM   14  C8  UNL     1     -21.845  -0.161 -20.765  1.00  0.00     0.000 C 
HETATM   15  C9  UNL     1     -22.191  -1.179 -21.844  1.00  0.00     0.002 C 
HETATM   16  C10 UNL     1     -22.892  -0.421 -22.972  1.00  0.00     0.026 C 
ENDBRANCH   5  11
BRANCH   1  17
HETATM   17  O1  UNL     1     -22.739   2.374 -25.896  1.00  0.00    -0.345 OA
ATOM     18  H1  UNL     1     -22.966   2.749 -25.053  1.00  0.00     0.219 HD
ENDBRANCH   1  17
BRANCH   4  19
HETATM   19  O2  UNL     1     -20.594  -1.828 -24.928  1.00  0.00    -0.345 OA
ATOM     20  H2  UNL     1     -21.128  -2.546 -24.608  1.00  0.00     0.219 HD
ENDBRANCH   4  19
TORSDOF 3
ENDMDL
MODEL 5
REMARK VINA RESULT: -6.919629377      0.793      2.239
REMARK  3 active torsions:
REMARK  status: ('A' for Active; 'I' for Inactive)
REMARK    1  A    between atoms: O1_1  and  C1_3 
REMARK    2  A    between atoms: C4_6  and  O2_7 
REMARK    3  A    between atoms: N1_9  and  C5_10 
ROOT
HETATM    1  C1  UNL     1     -22.423   1.517 -25.556  1.00  0.00     0.151 A 
HETATM    2  C2  UNL     1     -21.906   1.409 -24.302  1.00  0.00     0.007 A 
HETATM    3  C3  UNL     1     -21.118   0.276 -24.310  1.00  0.00     0.021 A 
HETATM    4  C4  UNL     1     -21.207  -0.238 -25.585  1.00  0.00     0.153 A 
HETATM    5  N1  UNL     1     -22.006   0.517 -26.358  1.00  0.00    -0.303 N 
HETATM    6  C11 UNL     1     -20.435  -0.058 -23.035  1.00  0.00     0.157 C 
HETATM    7  N2  UNL     1     -19.813   1.133 -22.546  1.00  0.00    -0.417 N 
ATOM      8  H2  UNL     1     -18.806   1.202 -22.399  1.00  0.00     0.153 HD
HETATM    9  C12 UNL     1     -20.699   2.218 -22.277  1.00  0.00     0.118 C 
HETATM   10  C13 UNL     1     -21.994   2.180 -23.020  1.00  0.00     0.063 C 
ENDROOT
BRANCH   5  11
HETATM   11  C5  UNL     1     -22.356   0.323 -27.734  1.00  0.00     0.094 C 
HETATM   12  C6  UNL     1     -22.290  -1.154 -28.126  1.00  0.00     0.026 C 
HETATM   13  C7  UNL     1     -22.639  -1.330 -29.562  1.00  0.00     0.002 C 
HETATM   14  C8  UNL     1     -21.810  -0.504 -30.499  1.00  0.00     0.000 C 
HETATM   15  C9  UNL     1     -20.786   0.251 -29.662  1.00  0.00     0.002 C 
HETATM   16  C10 UNL     1     -21.564   1.144 -28.693  1.00  0.00     0.026 C 
ENDBRANCH   5  11
BRANCH   1  17
HETATM   17  O1  UNL     1     -23.286   2.563 -25.933  1.00  0.00    -0.345 OA
ATOM     18  H1  UNL     1     -24.096   2.750 -25.472  1.00  0.00     0.219 HD
ENDBRANCH   1  17
BRANCH   4  19
HETATM   19  O2  UNL     1     -20.541  -1.394 -25.984  1.00  0.00    -0.345 OA
ATOM     20  H2  UNL     1     -19.710  -1.668 -25.611  1.00  0.00     0.219 HD
ENDBRANCH   4  19
TORSDOF 3
ENDMDL
