MODEL 1
REMARK VINA RESULT: -7.166583924      0.000      0.000
REMARK  16 active torsions:
REMARK  status: ('A' for Active; 'I' for Inactive)
REMARK    1  A    between atoms: N1_1  and  C1_4 
REMARK    2  A    between atoms: N3_9  and  C3_10 
REMARK    3  A    between atoms: C4_12  and  C5_13 
REMARK    4  A    between atoms: C5_13  and  O2_14 
REMARK    5  A    between atoms: O2_14  and  C6_15 
REMARK    6  A    between atoms: C6_15  and  C7_17 
REMARK    7  A    between atoms: C7_17  and  N4_18 
REMARK    8  A    between atoms: C7_17  and  O4_22 
REMARK    9  A    between atoms: O4_22  and  C8_23 
REMARK   10  A    between atoms: C9_26  and  O6_27 
REMARK   11  A    between atoms: O6_27  and  C10_28 
REMARK   12  A    between atoms: C11_30  and  N6_31 
REMARK   13  A    between atoms: N6_31  and  N7_32 
REMARK   14  A    between atoms: C12_38  and  O8_39 
REMARK   15  A    between atoms: C13_41  and  O9_42 
REMARK   16  A    between atoms: C14_44  and  O10_45 
ROOT
HETATM    1  C3  UNL     1      16.012 -20.070  -7.754  1.00  0.00     0.206 C 
HETATM    2  S1  UNL     1      14.240 -19.726  -7.399  1.00  0.00    -0.129 SA
HETATM    3  C4  UNL     1      14.475 -19.205  -5.649  1.00  0.00     0.105 C 
HETATM    4  C9  UNL     1      15.979 -19.137  -5.602  1.00  0.00     0.172 C 
HETATM    5  C14 UNL     1      16.475 -20.364  -6.338  1.00  0.00     0.183 C 
ENDROOT
BRANCH   4   6
HETATM    6  O6  UNL     1      16.495 -18.987  -4.350  1.00  0.00    -0.349 OA
BRANCH   6   7
HETATM    7  C10 UNL     1      16.970 -17.714  -4.169  1.00  0.00     0.297 C 
HETATM    8  O7  UNL     1      17.652 -17.571  -2.944  1.00  0.00    -0.312 OA
HETATM    9  C11 UNL     1      17.812 -16.217  -2.725  1.00  0.00     0.442 C 
HETATM   10  N8  UNL     1      18.791 -15.637  -3.645  1.00  0.00    -0.004 N 
HETATM   11  C12 UNL     1      18.271 -15.801  -4.971  1.00  0.00     0.357 C 
ATOM     12  H82 UNL     1      19.025 -14.669  -3.424  1.00  0.00     0.285 HD
ATOM     13  H81 UNL     1      19.727 -16.027  -3.531  1.00  0.00     0.285 HD
HETATM   14  C13 UNL     1      17.934 -17.261  -5.239  1.00  0.00     0.229 C 
BRANCH   9  15
HETATM   15  N6  UNL     1      18.156 -15.873  -1.381  1.00  0.00    -0.087 NA
BRANCH  15  16
HETATM   16  N7  UNL     1      18.466 -14.508  -1.352  1.00  0.00    -0.344 N 
ATOM     17  H72 UNL     1      18.351 -13.861  -2.132  1.00  0.00     0.172 HD
ATOM     18  H71 UNL     1      18.821 -14.286  -0.422  1.00  0.00     0.172 HD
ENDBRANCH  15  16
ENDBRANCH   9  15
BRANCH  11  19
HETATM   19  O8  UNL     1      19.225 -15.402  -5.932  1.00  0.00    -0.368 OA
ATOM     20  H8  UNL     1      19.006 -14.548  -6.285  1.00  0.00     0.212 HD
ENDBRANCH  11  19
BRANCH  14  21
HETATM   21  O9  UNL     1      19.143 -17.962  -5.179  1.00  0.00    -0.386 OA
ATOM     22  H9  UNL     1      19.866 -17.448  -5.518  1.00  0.00     0.210 HD
ENDBRANCH  14  21
ENDBRANCH   6   7
ENDBRANCH   4   6
BRANCH   3  23
HETATM   23  C5  UNL     1      13.876 -20.195  -4.720  1.00  0.00     0.197 C 
BRANCH  23  24
HETATM   24  O2  UNL     1      13.897 -19.607  -3.409  1.00  0.00    -0.317 OA
BRANCH  24  25
HETATM   25  C6  UNL     1      13.505 -20.294  -2.285  1.00  0.00     0.316 C 
HETATM   26  O3  UNL     1      12.270 -20.412  -2.067  1.00  0.00    -0.260 OA
BRANCH  25  27
HETATM   27  C7  UNL     1      14.489 -20.892  -1.330  1.00  0.00     0.428 C 
BRANCH  27  28
HETATM   28  N4  UNL     1      15.811 -20.725  -1.902  1.00  0.00    -0.043 N 
ATOM     29  H43 UNL     1      16.208 -21.600  -2.246  1.00  0.00     0.278 HD
ATOM     30  H42 UNL     1      15.799 -20.225  -2.791  1.00  0.00     0.278 HD
ATOM     31  H41 UNL     1      16.397 -20.273  -1.200  1.00  0.00     0.278 HD
ENDBRANCH  27  28
BRANCH  27  32
HETATM   32  O4  UNL     1      14.446 -20.265  -0.087  1.00  0.00    -0.263 OA
BRANCH  32  33
HETATM   33  C8  UNL     1      14.669 -18.917   0.032  1.00  0.00     0.375 C 
HETATM   34  N5  UNL     1      15.982 -18.350  -0.062  1.00  0.00    -0.032 NA
HETATM   35  O5  UNL     1      13.735 -18.088   0.232  1.00  0.00    -0.242 OA
ENDBRANCH  32  33
ENDBRANCH  27  32
ENDBRANCH  25  27
ENDBRANCH  24  25
ENDBRANCH  23  24
ENDBRANCH   3  23
BRANCH   5  36
HETATM   36  O10 UNL     1      17.818 -20.552  -6.235  1.00  0.00    -0.390 OA
ATOM     37  H10 UNL     1      18.226 -20.013  -5.568  1.00  0.00     0.210 HD
ENDBRANCH   5  36
BRANCH   1  38
HETATM   38  N3  UNL     1      16.175 -21.155  -8.649  1.00  0.00    -0.210 N 
HETATM   39  C2  UNL     1      15.915 -21.154  -9.965  1.00  0.00     0.357 A 
HETATM   40  N2  UNL     1      16.201 -22.375 -10.452  1.00  0.00    -0.139 N 
HETATM   41  O1  UNL     1      15.478 -20.151 -10.582  1.00  0.00    -0.244 OA
HETATM   42  C1  UNL     1      16.646 -23.150  -9.434  1.00  0.00     0.694 A 
ATOM     43  H2  UNL     1      16.101 -22.668 -11.425  1.00  0.00     0.189 HD
HETATM   44  N9  UNL     1      16.618 -22.360  -8.326  1.00  0.00    -0.125 N 
ATOM     45  H9  UNL     1      16.895 -22.652  -7.388  1.00  0.00     0.206 HD
BRANCH  42  46
HETATM   46  N1  UNL     1      17.015 -24.384  -9.531  1.00  0.00    -0.233 N 
ATOM     47  H12 UNL     1      16.920 -25.014 -10.328  1.00  0.00     0.174 HD
ATOM     48  H11 UNL     1      17.469 -24.929  -8.799  1.00  0.00     0.174 HD
ENDBRANCH  42  46
ENDBRANCH   1  38
TORSDOF 16
ENDMDL
MODEL 2
REMARK VINA RESULT: -6.973650963      3.431      7.960
REMARK  16 active torsions:
REMARK  status: ('A' for Active; 'I' for Inactive)
REMARK    1  A    between atoms: N1_1  and  C1_4 
REMARK    2  A    between atoms: N3_9  and  C3_10 
REMARK    3  A    between atoms: C4_12  and  C5_13 
REMARK    4  A    between atoms: C5_13  and  O2_14 
REMARK    5  A    between atoms: O2_14  and  C6_15 
REMARK    6  A    between atoms: C6_15  and  C7_17 
REMARK    7  A    between atoms: C7_17  and  N4_18 
REMARK    8  A    between atoms: C7_17  and  O4_22 
REMARK    9  A    between atoms: O4_22  and  C8_23 
REMARK   10  A    between atoms: C9_26  and  O6_27 
REMARK   11  A    between atoms: O6_27  and  C10_28 
REMARK   12  A    between atoms: C11_30  and  N6_31 
REMARK   13  A    between atoms: N6_31  and  N7_32 
REMARK   14  A    between atoms: C12_38  and  O8_39 
REMARK   15  A    between atoms: C13_41  and  O9_42 
REMARK   16  A    between atoms: C14_44  and  O10_45 
ROOT
HETATM    1  C3  UNL     1      18.548 -18.587  -5.736  1.00  0.00     0.206 C 
HETATM    2  S1  UNL     1      17.214 -19.162  -4.608  1.00  0.00    -0.129 SA
HETATM    3  C4  UNL     1      16.159 -19.931  -5.906  1.00  0.00     0.105 C 
HETATM    4  C9  UNL     1      17.100 -19.853  -7.080  1.00  0.00     0.172 C 
HETATM    5  C14 UNL     1      17.735 -18.479  -7.014  1.00  0.00     0.183 C 
ENDROOT
BRANCH   4   6
HETATM    6  O6  UNL     1      16.526 -20.149  -8.279  1.00  0.00    -0.349 OA
BRANCH   6   7
HETATM    7  C10 UNL     1      17.038 -21.315  -8.788  1.00  0.00     0.297 C 
HETATM    8  O7  UNL     1      16.574 -22.448  -8.089  1.00  0.00    -0.312 OA
HETATM    9  C11 UNL     1      17.369 -23.511  -8.469  1.00  0.00     0.442 C 
HETATM   10  N8  UNL     1      17.097 -23.919  -9.848  1.00  0.00    -0.004 N 
HETATM   11  C12 UNL     1      17.432 -22.807 -10.689  1.00  0.00     0.357 C 
ATOM     12  H82 UNL     1      17.575 -24.780 -10.113  1.00  0.00     0.285 HD
ATOM     13  H81 UNL     1      16.142 -24.251  -9.986  1.00  0.00     0.285 HD
HETATM   14  C13 UNL     1      16.698 -21.553 -10.239  1.00  0.00     0.229 C 
BRANCH   9  15
HETATM   15  N6  UNL     1      17.284 -24.649  -7.608  1.00  0.00    -0.087 NA
BRANCH  15  16
HETATM   16  N7  UNL     1      16.522 -25.627  -8.260  1.00  0.00    -0.344 N 
ATOM     17  H72 UNL     1      15.549 -25.850  -8.053  1.00  0.00     0.172 HD
ATOM     18  H71 UNL     1      17.112 -26.064  -8.968  1.00  0.00     0.172 HD
ENDBRANCH  15  16
ENDBRANCH   9  15
BRANCH  11  19
HETATM   19  O8  UNL     1      17.058 -23.063 -12.025  1.00  0.00    -0.368 OA
ATOM     20  H8  UNL     1      17.726 -23.575 -12.467  1.00  0.00     0.212 HD
ENDBRANCH  11  19
BRANCH  14  21
HETATM   21  O9  UNL     1      15.335 -21.809 -10.418  1.00  0.00    -0.386 OA
ATOM     22  H9  UNL     1      15.187 -22.587 -10.943  1.00  0.00     0.210 HD
ENDBRANCH  14  21
ENDBRANCH   6   7
ENDBRANCH   4   6
BRANCH   3  23
HETATM   23  C5  UNL     1      14.897 -19.170  -6.079  1.00  0.00     0.197 C 
BRANCH  23  24
HETATM   24  O2  UNL     1      13.959 -20.052  -6.717  1.00  0.00    -0.317 OA
BRANCH  24  25
HETATM   25  C6  UNL     1      12.797 -19.601  -7.296  1.00  0.00     0.316 C 
HETATM   26  O3  UNL     1      11.749 -19.608  -6.596  1.00  0.00    -0.260 OA
BRANCH  25  27
HETATM   27  C7  UNL     1      12.745 -19.112  -8.709  1.00  0.00     0.428 C 
BRANCH  27  28
HETATM   28  N4  UNL     1      13.931 -19.602  -9.385  1.00  0.00    -0.043 N 
ATOM     29  H43 UNL     1      14.467 -18.859  -9.834  1.00  0.00     0.278 HD
ATOM     30  H42 UNL     1      14.654 -19.918  -8.740  1.00  0.00     0.278 HD
ATOM     31  H41 UNL     1      13.636 -20.328 -10.038  1.00  0.00     0.278 HD
ENDBRANCH  27  28
BRANCH  27  32
HETATM   32  O4  UNL     1      11.613 -19.579  -9.373  1.00  0.00    -0.263 OA
BRANCH  32  33
HETATM   33  C8  UNL     1      11.550 -19.580 -10.744  1.00  0.00     0.375 C 
HETATM   34  N5  UNL     1      10.747 -20.518 -11.470  1.00  0.00    -0.032 NA
HETATM   35  O5  UNL     1      12.197 -18.756 -11.454  1.00  0.00    -0.242 OA
ENDBRANCH  32  33
ENDBRANCH  27  32
ENDBRANCH  25  27
ENDBRANCH  24  25
ENDBRANCH  23  24
ENDBRANCH   3  23
BRANCH   5  36
HETATM   36  O10 UNL     1      18.482 -18.174  -8.109  1.00  0.00    -0.390 OA
ATOM     37  H10 UNL     1      18.281 -18.712  -8.866  1.00  0.00     0.210 HD
ENDBRANCH   5  36
BRANCH   1  38
HETATM   38  N3  UNL     1      19.114 -17.360  -5.311  1.00  0.00    -0.210 N 
HETATM   39  C2  UNL     1      20.196 -16.757  -5.826  1.00  0.00     0.357 A 
HETATM   40  N2  UNL     1      20.405 -15.615  -5.145  1.00  0.00    -0.139 N 
HETATM   41  O1  UNL     1      20.860 -17.228  -6.781  1.00  0.00    -0.244 OA
HETATM   42  C1  UNL     1      19.446 -15.499  -4.195  1.00  0.00     0.694 A 
ATOM     43  H2  UNL     1      21.159 -14.949  -5.316  1.00  0.00     0.189 HD
HETATM   44  N9  UNL     1      18.659 -16.602  -4.326  1.00  0.00    -0.125 N 
ATOM     45  H9  UNL     1      17.841 -16.812  -3.752  1.00  0.00     0.206 HD
BRANCH  42  46
HETATM   46  N1  UNL     1      19.332 -14.526  -3.353  1.00  0.00    -0.233 N 
ATOM     47  H12 UNL     1      19.610 -13.551  -3.468  1.00  0.00     0.174 HD
ATOM     48  H11 UNL     1      18.934 -14.593  -2.417  1.00  0.00     0.174 HD
ENDBRANCH  42  46
ENDBRANCH   1  38
TORSDOF 16
ENDMDL
MODEL 3
REMARK VINA RESULT: -6.862585184      1.193      1.904
REMARK  16 active torsions:
REMARK  status: ('A' for Active; 'I' for Inactive)
REMARK    1  A    between atoms: N1_1  and  C1_4 
REMARK    2  A    between atoms: N3_9  and  C3_10 
REMARK    3  A    between atoms: C4_12  and  C5_13 
REMARK    4  A    between atoms: C5_13  and  O2_14 
REMARK    5  A    between atoms: O2_14  and  C6_15 
REMARK    6  A    between atoms: C6_15  and  C7_17 
REMARK    7  A    between atoms: C7_17  and  N4_18 
REMARK    8  A    between atoms: C7_17  and  O4_22 
REMARK    9  A    between atoms: O4_22  and  C8_23 
REMARK   10  A    between atoms: C9_26  and  O6_27 
REMARK   11  A    between atoms: O6_27  and  C10_28 
REMARK   12  A    between atoms: C11_30  and  N6_31 
REMARK   13  A    between atoms: N6_31  and  N7_32 
REMARK   14  A    between atoms: C12_38  and  O8_39 
REMARK   15  A    between atoms: C13_41  and  O9_42 
REMARK   16  A    between atoms: C14_44  and  O10_45 
ROOT
HETATM    1  C3  UNL     1      16.408 -20.420  -7.738  1.00  0.00     0.206 C 
HETATM    2  S1  UNL     1      14.762 -19.699  -7.343  1.00  0.00    -0.129 SA
HETATM    3  C4  UNL     1      15.060 -19.471  -5.541  1.00  0.00     0.105 C 
HETATM    4  C9  UNL     1      16.534 -19.779  -5.485  1.00  0.00     0.172 C 
HETATM    5  C14 UNL     1      16.740 -20.990  -6.370  1.00  0.00     0.183 C 
ENDROOT
BRANCH   4   6
HETATM    6  O6  UNL     1      17.030 -19.915  -4.223  1.00  0.00    -0.349 OA
BRANCH   6   7
HETATM    7  C10 UNL     1      17.641 -18.757  -3.814  1.00  0.00     0.297 C 
HETATM    8  O7  UNL     1      17.479 -17.713  -4.747  1.00  0.00    -0.312 OA
HETATM    9  C11 UNL     1      18.369 -16.717  -4.398  1.00  0.00     0.442 C 
HETATM   10  N8  UNL     1      17.961 -16.040  -3.167  1.00  0.00    -0.004 N 
HETATM   11  C12 UNL     1      17.980 -17.022  -2.121  1.00  0.00     0.357 C 
ATOM     12  H82 UNL     1      18.527 -15.218  -2.955  1.00  0.00     0.285 HD
ATOM     13  H81 UNL     1      17.063 -15.563  -3.251  1.00  0.00     0.285 HD
HETATM   14  C13 UNL     1      17.128 -18.224  -2.498  1.00  0.00     0.229 C 
BRANCH   9  15
HETATM   15  N6  UNL     1      18.601 -15.747  -5.423  1.00  0.00    -0.087 NA
BRANCH  15  16
HETATM   16  N7  UNL     1      19.592 -14.869  -4.968  1.00  0.00    -0.344 N 
ATOM     17  H72 UNL     1      20.588 -15.079  -4.921  1.00  0.00     0.172 HD
ATOM     18  H71 UNL     1      19.138 -13.996  -4.698  1.00  0.00     0.172 HD
ENDBRANCH  15  16
ENDBRANCH   9  15
BRANCH  11  19
HETATM   19  O8  UNL     1      17.454 -16.485  -0.927  1.00  0.00    -0.368 OA
ATOM     20  H8  UNL     1      17.338 -17.168  -0.276  1.00  0.00     0.212 HD
ENDBRANCH  11  19
BRANCH  14  21
HETATM   21  O9  UNL     1      15.813 -17.759  -2.604  1.00  0.00    -0.386 OA
ATOM     22  H9  UNL     1      15.429 -17.590  -1.751  1.00  0.00     0.210 HD
ENDBRANCH  14  21
ENDBRANCH   6   7
ENDBRANCH   4   6
BRANCH   3  23
HETATM   23  C5  UNL     1      14.210 -20.390  -4.746  1.00  0.00     0.197 C 
BRANCH  23  24
HETATM   24  O2  UNL     1      13.995 -19.766  -3.470  1.00  0.00    -0.317 OA
BRANCH  24  25
HETATM   25  C6  UNL     1      13.458 -20.439  -2.398  1.00  0.00     0.316 C 
HETATM   26  O3  UNL     1      12.208 -20.408  -2.249  1.00  0.00    -0.260 OA
BRANCH  25  27
HETATM   27  C7  UNL     1      14.305 -21.192  -1.422  1.00  0.00     0.428 C 
BRANCH  27  28
HETATM   28  N4  UNL     1      15.669 -21.170  -1.917  1.00  0.00    -0.043 N 
ATOM     29  H43 UNL     1      15.946 -22.049  -2.354  1.00  0.00     0.278 HD
ATOM     30  H42 UNL     1      15.785 -20.571  -2.735  1.00  0.00     0.278 HD
ATOM     31  H41 UNL     1      16.274 -20.904  -1.141  1.00  0.00     0.278 HD
ENDBRANCH  27  28
BRANCH  27  32
HETATM   32  O4  UNL     1      14.269 -20.613  -0.155  1.00  0.00    -0.263 OA
BRANCH  32  33
HETATM   33  C8  UNL     1      14.813 -19.375   0.070  1.00  0.00     0.375 C 
HETATM   34  N5  UNL     1      14.010 -18.190   0.142  1.00  0.00    -0.032 NA
HETATM   35  O5  UNL     1      16.056 -19.197   0.228  1.00  0.00    -0.242 OA
ENDBRANCH  32  33
ENDBRANCH  27  32
ENDBRANCH  25  27
ENDBRANCH  24  25
ENDBRANCH  23  24
ENDBRANCH   3  23
BRANCH   5  36
HETATM   36  O10 UNL     1      17.994 -21.513  -6.290  1.00  0.00    -0.390 OA
ATOM     37  H10 UNL     1      18.022 -22.367  -5.875  1.00  0.00     0.210 HD
ENDBRANCH   5  36
BRANCH   1  38
HETATM   38  N3  UNL     1      16.331 -21.395  -8.762  1.00  0.00    -0.210 N 
HETATM   39  C2  UNL     1      15.884 -21.207 -10.014  1.00  0.00     0.357 A 
HETATM   40  N2  UNL     1      15.974 -22.376 -10.673  1.00  0.00    -0.139 N 
HETATM   41  O1  UNL     1      15.464 -20.103 -10.438  1.00  0.00    -0.244 OA
HETATM   42  C1  UNL     1      16.484 -23.307  -9.829  1.00  0.00     0.694 A 
ATOM     43  H2  UNL     1      15.706 -22.536 -11.644  1.00  0.00     0.189 HD
HETATM   44  N9  UNL     1      16.694 -22.662  -8.649  1.00  0.00    -0.125 N 
ATOM     45  H9  UNL     1      17.075 -23.091  -7.805  1.00  0.00     0.206 HD
BRANCH  42  46
HETATM   46  N1  UNL     1      16.710 -24.545 -10.120  1.00  0.00    -0.233 N 
ATOM     47  H12 UNL     1      16.208 -25.374  -9.801  1.00  0.00     0.174 HD
ATOM     48  H11 UNL     1      17.451 -24.887 -10.731  1.00  0.00     0.174 HD
ENDBRANCH  42  46
ENDBRANCH   1  38
TORSDOF 16
ENDMDL
MODEL 4
REMARK VINA RESULT: -6.829699537      1.172      1.226
REMARK  16 active torsions:
REMARK  status: ('A' for Active; 'I' for Inactive)
REMARK    1  A    between atoms: N1_1  and  C1_4 
REMARK    2  A    between atoms: N3_9  and  C3_10 
REMARK    3  A    between atoms: C4_12  and  C5_13 
REMARK    4  A    between atoms: C5_13  and  O2_14 
REMARK    5  A    between atoms: O2_14  and  C6_15 
REMARK    6  A    between atoms: C6_15  and  C7_17 
REMARK    7  A    between atoms: C7_17  and  N4_18 
REMARK    8  A    between atoms: C7_17  and  O4_22 
REMARK    9  A    between atoms: O4_22  and  C8_23 
REMARK   10  A    between atoms: C9_26  and  O6_27 
REMARK   11  A    between atoms: O6_27  and  C10_28 
REMARK   12  A    between atoms: C11_30  and  N6_31 
REMARK   13  A    between atoms: N6_31  and  N7_32 
REMARK   14  A    between atoms: C12_38  and  O8_39 
REMARK   15  A    between atoms: C13_41  and  O9_42 
REMARK   16  A    between atoms: C14_44  and  O10_45 
ROOT
HETATM    1  C3  UNL     1      16.839 -20.369  -7.622  1.00  0.00     0.206 C 
HETATM    2  S1  UNL     1      15.024 -20.073  -7.580  1.00  0.00    -0.129 SA
HETATM    3  C4  UNL     1      14.954 -19.443  -5.851  1.00  0.00     0.105 C 
HETATM    4  C9  UNL     1      16.428 -19.314  -5.567  1.00  0.00     0.172 C 
HETATM    5  C14 UNL     1      17.072 -20.562  -6.134  1.00  0.00     0.183 C 
ENDROOT
BRANCH   4   6
HETATM    6  O6  UNL     1      16.727 -19.073  -4.260  1.00  0.00    -0.349 OA
BRANCH   6   7
HETATM    7  C10 UNL     1      17.129 -17.773  -4.086  1.00  0.00     0.297 C 
HETATM    8  O7  UNL     1      17.761 -17.575  -2.842  1.00  0.00    -0.312 OA
HETATM    9  C11 UNL     1      17.842 -16.211  -2.642  1.00  0.00     0.442 C 
HETATM   10  N8  UNL     1      18.820 -15.595  -3.539  1.00  0.00    -0.004 N 
HETATM   11  C12 UNL     1      18.355 -15.808  -4.879  1.00  0.00     0.357 C 
ATOM     12  H82 UNL     1      18.995 -14.613  -3.327  1.00  0.00     0.285 HD
ATOM     13  H81 UNL     1      19.771 -15.933  -3.388  1.00  0.00     0.285 HD
HETATM   14  C13 UNL     1      18.104 -17.287  -5.131  1.00  0.00     0.229 C 
BRANCH   9  15
HETATM   15  N6  UNL     1      18.122 -15.828  -1.293  1.00  0.00    -0.087 NA
BRANCH  15  16
HETATM   16  N7  UNL     1      18.433 -14.463  -1.289  1.00  0.00    -0.344 N 
ATOM     17  H72 UNL     1      17.758 -13.705  -1.394  1.00  0.00     0.172 HD
ATOM     18  H71 UNL     1      19.441 -14.370  -1.163  1.00  0.00     0.172 HD
ENDBRANCH  15  16
ENDBRANCH   9  15
BRANCH  11  19
HETATM   19  O8  UNL     1      19.318 -15.374  -5.814  1.00  0.00    -0.368 OA
ATOM     20  H8  UNL     1      18.990 -15.470  -6.701  1.00  0.00     0.212 HD
ENDBRANCH  11  19
BRANCH  14  21
HETATM   21  O9  UNL     1      19.345 -17.922  -5.020  1.00  0.00    -0.386 OA
ATOM     22  H9  UNL     1      20.006 -17.344  -4.660  1.00  0.00     0.210 HD
ENDBRANCH  14  21
ENDBRANCH   6   7
ENDBRANCH   4   6
BRANCH   3  23
HETATM   23  C5  UNL     1      14.240 -20.400  -4.970  1.00  0.00     0.197 C 
BRANCH  23  24
HETATM   24  O2  UNL     1      13.990 -19.721  -3.729  1.00  0.00    -0.317 OA
BRANCH  24  25
HETATM   25  C6  UNL     1      13.485 -20.364  -2.624  1.00  0.00     0.316 C 
HETATM   26  O3  UNL     1      12.240 -20.324  -2.437  1.00  0.00    -0.260 OA
BRANCH  25  27
HETATM   27  C7  UNL     1      14.360 -21.094  -1.656  1.00  0.00     0.428 C 
BRANCH  27  28
HETATM   28  N4  UNL     1      15.710 -21.075  -2.185  1.00  0.00    -0.043 N 
ATOM     29  H43 UNL     1      16.300 -21.810  -1.794  1.00  0.00     0.278 HD
ATOM     30  H42 UNL     1      15.759 -21.367  -3.160  1.00  0.00     0.278 HD
ATOM     31  H41 UNL     1      16.088 -20.140  -2.031  1.00  0.00     0.278 HD
ENDBRANCH  27  28
BRANCH  27  32
HETATM   32  O4  UNL     1      14.351 -20.493  -0.399  1.00  0.00    -0.263 OA
BRANCH  32  33
HETATM   33  C8  UNL     1      14.778 -19.200  -0.233  1.00  0.00     0.375 C 
HETATM   34  N5  UNL     1      13.903 -18.160   0.220  1.00  0.00    -0.032 NA
HETATM   35  O5  UNL     1      15.967 -18.841  -0.472  1.00  0.00    -0.242 OA
ENDBRANCH  32  33
ENDBRANCH  27  32
ENDBRANCH  25  27
ENDBRANCH  24  25
ENDBRANCH  23  24
ENDBRANCH   3  23
BRANCH   5  36
HETATM   36  O10 UNL     1      18.385 -20.693  -5.803  1.00  0.00    -0.390 OA
ATOM     37  H10 UNL     1      18.935 -20.958  -6.531  1.00  0.00     0.210 HD
ENDBRANCH   5  36
BRANCH   1  38
HETATM   38  N3  UNL     1      17.177 -21.498  -8.407  1.00  0.00    -0.210 N 
HETATM   39  C2  UNL     1      18.398 -21.818  -8.865  1.00  0.00     0.357 A 
HETATM   40  N2  UNL     1      18.297 -22.961  -9.567  1.00  0.00    -0.139 N 
HETATM   41  O1  UNL     1      19.422 -21.127  -8.642  1.00  0.00    -0.244 OA
HETATM   42  C1  UNL     1      17.003 -23.363  -9.551  1.00  0.00     0.694 A 
ATOM     43  H2  UNL     1      19.066 -23.444 -10.033  1.00  0.00     0.189 HD
HETATM   44  N9  UNL     1      16.333 -22.430  -8.820  1.00  0.00    -0.125 N 
ATOM     45  H9  UNL     1      15.333 -22.447  -8.621  1.00  0.00     0.206 HD
BRANCH  42  46
HETATM   46  N1  UNL     1      16.535 -24.423 -10.122  1.00  0.00    -0.233 N 
ATOM     47  H12 UNL     1      15.583 -24.605 -10.440  1.00  0.00     0.174 HD
ATOM     48  H11 UNL     1      17.068 -25.262 -10.347  1.00  0.00     0.174 HD
ENDBRANCH  42  46
ENDBRANCH   1  38
TORSDOF 16
ENDMDL
MODEL 5
REMARK VINA RESULT: -6.816005628      2.717      7.274
REMARK  16 active torsions:
REMARK  status: ('A' for Active; 'I' for Inactive)
REMARK    1  A    between atoms: N1_1  and  C1_4 
REMARK    2  A    between atoms: N3_9  and  C3_10 
REMARK    3  A    between atoms: C4_12  and  C5_13 
REMARK    4  A    between atoms: C5_13  and  O2_14 
REMARK    5  A    between atoms: O2_14  and  C6_15 
REMARK    6  A    between atoms: C6_15  and  C7_17 
REMARK    7  A    between atoms: C7_17  and  N4_18 
REMARK    8  A    between atoms: C7_17  and  O4_22 
REMARK    9  A    between atoms: O4_22  and  C8_23 
REMARK   10  A    between atoms: C9_26  and  O6_27 
REMARK   11  A    between atoms: O6_27  and  C10_28 
REMARK   12  A    between atoms: C11_30  and  N6_31 
REMARK   13  A    between atoms: N6_31  and  N7_32 
REMARK   14  A    between atoms: C12_38  and  O8_39 
REMARK   15  A    between atoms: C13_41  and  O9_42 
REMARK   16  A    between atoms: C14_44  and  O10_45 
ROOT
HETATM    1  C3  UNL     1      19.729 -16.621  -3.977  1.00  0.00     0.206 C 
HETATM    2  S1  UNL     1      18.750 -17.593  -2.760  1.00  0.00    -0.129 SA
HETATM    3  C4  UNL     1      17.545 -18.287  -3.966  1.00  0.00     0.105 C 
HETATM    4  C9  UNL     1      18.196 -17.854  -5.254  1.00  0.00     0.172 C 
HETATM    5  C14 UNL     1      18.654 -16.428  -5.032  1.00  0.00     0.183 C 
ENDROOT
BRANCH   4   6
HETATM    6  O6  UNL     1      17.419 -18.028  -6.360  1.00  0.00    -0.349 OA
BRANCH   6   7
HETATM    7  C10 UNL     1      17.649 -19.255  -6.928  1.00  0.00     0.297 C 
HETATM    8  O7  UNL     1      16.897 -19.445  -8.105  1.00  0.00    -0.312 OA
HETATM    9  C11 UNL     1      16.962 -20.789  -8.414  1.00  0.00     0.442 C 
HETATM   10  N8  UNL     1      18.295 -21.166  -8.886  1.00  0.00    -0.004 N 
HETATM   11  C12 UNL     1      19.207 -20.928  -7.805  1.00  0.00     0.357 C 
ATOM     12  H82 UNL     1      18.338 -22.121  -9.243  1.00  0.00     0.285 HD
ATOM     13  H81 UNL     1      18.563 -20.692  -9.748  1.00  0.00     0.285 HD
HETATM   14  C13 UNL     1      19.090 -19.494  -7.311  1.00  0.00     0.229 C 
BRANCH   9  15
HETATM   15  N6  UNL     1      15.979 -21.226  -9.356  1.00  0.00    -0.087 NA
BRANCH  15  16
HETATM   16  N7  UNL     1      15.017 -20.217  -9.474  1.00  0.00    -0.344 N 
ATOM     17  H72 UNL     1      15.054 -19.310  -9.009  1.00  0.00     0.172 HD
ATOM     18  H71 UNL     1      14.285 -20.551 -10.102  1.00  0.00     0.172 HD
ENDBRANCH  15  16
ENDBRANCH   9  15
BRANCH  11  19
HETATM   19  O8  UNL     1      20.539 -21.125  -8.226  1.00  0.00    -0.368 OA
ATOM     20  H8  UNL     1      20.911 -20.313  -8.550  1.00  0.00     0.212 HD
ENDBRANCH  11  19
BRANCH  14  21
HETATM   21  O9  UNL     1      19.487 -18.676  -8.374  1.00  0.00    -0.386 OA
ATOM     22  H9  UNL     1      20.388 -18.391  -8.283  1.00  0.00     0.210 HD
ENDBRANCH  14  21
ENDBRANCH   6   7
ENDBRANCH   4   6
BRANCH   3  23
HETATM   23  C5  UNL     1      16.191 -17.723  -3.743  1.00  0.00     0.197 C 
BRANCH  23  24
HETATM   24  O2  UNL     1      15.249 -18.673  -4.266  1.00  0.00    -0.317 OA
BRANCH  24  25
HETATM   25  C6  UNL     1      14.425 -19.419  -3.457  1.00  0.00     0.316 C 
HETATM   26  O3  UNL     1      14.419 -19.161  -2.224  1.00  0.00    -0.260 OA
BRANCH  25  27
HETATM   27  C7  UNL     1      13.553 -20.509  -3.993  1.00  0.00     0.428 C 
BRANCH  27  28
HETATM   28  N4  UNL     1      12.892 -21.137  -2.865  1.00  0.00    -0.043 N 
ATOM     29  H43 UNL     1      13.190 -20.754  -1.967  1.00  0.00     0.278 HD
ATOM     30  H42 UNL     1      11.906 -20.889  -2.795  1.00  0.00     0.278 HD
ATOM     31  H41 UNL     1      13.046 -22.142  -2.938  1.00  0.00     0.278 HD
ENDBRANCH  27  28
BRANCH  27  32
HETATM   32  O4  UNL     1      12.590 -20.014  -4.870  1.00  0.00    -0.263 OA
BRANCH  32  33
HETATM   33  C8  UNL     1      12.756 -20.114  -6.228  1.00  0.00     0.375 C 
HETATM   34  N5  UNL     1      11.741 -19.705  -7.153  1.00  0.00    -0.032 NA
HETATM   35  O5  UNL     1      13.812 -20.573  -6.752  1.00  0.00    -0.242 OA
ENDBRANCH  32  33
ENDBRANCH  27  32
ENDBRANCH  25  27
ENDBRANCH  24  25
ENDBRANCH  23  24
ENDBRANCH   3  23
BRANCH   5  36
HETATM   36  O10 UNL     1      19.105 -15.821  -6.162  1.00  0.00    -0.390 OA
ATOM     37  H10 UNL     1      18.799 -16.232  -6.962  1.00  0.00     0.210 HD
ENDBRANCH   5  36
BRANCH   1  38
HETATM   38  N3  UNL     1      20.216 -15.411  -3.425  1.00  0.00    -0.210 N 
HETATM   39  C2  UNL     1      21.286 -15.269  -2.628  1.00  0.00     0.357 A 
HETATM   40  N2  UNL     1      21.412 -13.965  -2.322  1.00  0.00    -0.139 N 
HETATM   41  O1  UNL     1      22.007 -16.229  -2.262  1.00  0.00    -0.244 OA
HETATM   42  C1  UNL     1      20.414 -13.281  -2.934  1.00  0.00     0.694 A 
ATOM     43  H2  UNL     1      22.137 -13.558  -1.730  1.00  0.00     0.189 HD
HETATM   44  N9  UNL     1      19.688 -14.212  -3.612  1.00  0.00    -0.125 N 
ATOM     45  H9  UNL     1      18.863 -14.015  -4.179  1.00  0.00     0.206 HD
BRANCH  42  46
HETATM   46  N1  UNL     1      20.221 -12.006  -2.865  1.00  0.00    -0.233 N 
ATOM     47  H12 UNL     1      19.528 -11.497  -2.315  1.00  0.00     0.174 HD
ATOM     48  H11 UNL     1      20.751 -11.296  -3.370  1.00  0.00     0.174 HD
ENDBRANCH  42  46
ENDBRANCH   1  38
TORSDOF 16
ENDMDL
