MODEL 1
REMARK VINA RESULT: -7.316717775      0.000      0.000
REMARK  15 active torsions:
REMARK  status: ('A' for Active; 'I' for Inactive)
REMARK    1  A    between atoms: N1_2  and  C2_3 
REMARK    2  A    between atoms: N1_2  and  C4_7 
REMARK    3  A    between atoms: C2_3  and  C3_4 
REMARK    4  A    between atoms: C4_7  and  C5_8 
REMARK    5  A    between atoms: C7_10  and  N2_11 
REMARK    6  A    between atoms: N2_11  and  C8_13 
REMARK    7  A    between atoms: C8_13  and  O3_14 
REMARK    8  A    between atoms: C8_13  and  C9_16 
REMARK    9  A    between atoms: C10_17  and  O4_18 
REMARK   10  A    between atoms: C11_20  and  N3_21 
REMARK   11  A    between atoms: C14_30  and  N7_31 
REMARK   12  A    between atoms: N9_37  and  O6_38 
REMARK   13  A    between atoms: C15_40  and  O7_41 
REMARK   14  A    between atoms: C16_43  and  O8_44 
REMARK   15  A    between atoms: C17_46  and  O9_47 
ROOT
HETATM    1  C9  UNL     1      14.463 -19.745  -7.254  1.00  0.00     0.243 C 
HETATM    2  C10 UNL     1      15.439 -20.961  -7.216  1.00  0.00     0.222 C 
HETATM    3  C11 UNL     1      16.405 -20.576  -8.276  1.00  0.00     0.139 C 
HETATM    4  N8  UNL     1      16.384 -19.279  -8.407  1.00  0.00    -0.264 N 
ATOM      5  H8  UNL     1      16.948 -18.739  -9.063  1.00  0.00     0.190 HD
HETATM    6  N9  UNL     1      15.427 -18.728  -7.467  1.00  0.00    -0.184 N 
ENDROOT
BRANCH   1   7
HETATM    7  C8  UNL     1      13.502 -19.760  -6.164  1.00  0.00     0.142 C 
BRANCH   7   8
HETATM    8  N2  UNL     1      13.790 -20.340  -4.955  1.00  0.00    -0.365 N 
ATOM      9  H2  UNL     1      14.058 -21.324  -4.971  1.00  0.00     0.161 HD
BRANCH   8  10
HETATM   10  C7  UNL     1      13.752 -19.711  -3.690  1.00  0.00     0.115 C 
HETATM   11  C6  UNL     1      15.111 -19.044  -3.522  1.00  0.00     0.036 C 
HETATM   12  C5  UNL     1      15.562 -18.798  -2.138  1.00  0.00     0.037 C 
HETATM   13  C17 UNL     1      14.889 -19.610  -1.077  1.00  0.00     0.155 C 
HETATM   14  C16 UNL     1      14.428 -20.944  -1.586  1.00  0.00     0.178 C 
HETATM   15  C15 UNL     1      13.417 -20.726  -2.658  1.00  0.00     0.172 C 
BRANCH  12  16
HETATM   16  C4  UNL     1      17.073 -19.038  -2.127  1.00  0.00     0.129 C 
BRANCH  16  17
HETATM   17  N1  UNL     1      17.849 -17.888  -2.280  1.00  0.00    -0.388 N 
HETATM   18  C1  UNL     1      17.432 -16.710  -1.664  1.00  0.00     0.149 C 
BRANCH  17  19
HETATM   19  C2  UNL     1      18.699 -17.877  -3.384  1.00  0.00     0.170 C 
BRANCH  19  20
HETATM   20  C3  UNL     1      18.074 -17.711  -4.715  1.00  0.00     0.214 C 
HETATM   21  O1  UNL     1      17.624 -16.592  -5.058  1.00  0.00    -0.644 OA
HETATM   22  O2  UNL     1      17.993 -18.802  -5.566  1.00  0.00    -0.644 OA
ENDBRANCH  19  20
ENDBRANCH  17  19
ENDBRANCH  16  17
ENDBRANCH  12  16
BRANCH  13  23
HETATM   23  O9  UNL     1      13.744 -18.912  -0.670  1.00  0.00    -0.392 OA
ATOM     24  H9  UNL     1      14.026 -18.189  -0.121  1.00  0.00     0.210 HD
ENDBRANCH  13  23
BRANCH  14  25
HETATM   25  O8  UNL     1      15.489 -21.714  -1.992  1.00  0.00    -0.390 OA
ATOM     26  H8  UNL     1      16.267 -21.589  -1.461  1.00  0.00     0.210 HD
ENDBRANCH  14  25
BRANCH  15  27
HETATM   27  O7  UNL     1      12.212 -20.329  -2.029  1.00  0.00    -0.391 OA
ATOM     28  H7  UNL     1      11.797 -21.106  -1.672  1.00  0.00     0.210 HD
ENDBRANCH  15  27
ENDBRANCH   8  10
ENDBRANCH   7   8
BRANCH   7  29
HETATM   29  O3  UNL     1      12.199 -19.973  -6.690  1.00  0.00    -0.348 OA
ATOM     30  H3  UNL     1      12.029 -20.814  -7.099  1.00  0.00     0.219 HD
ENDBRANCH   7  29
ENDBRANCH   1   7
BRANCH   2  31
HETATM   31  O4  UNL     1      15.973 -21.144  -5.980  1.00  0.00    -0.385 OA
ATOM     32  H4  UNL     1      15.834 -22.027  -5.660  1.00  0.00     0.210 HD
ENDBRANCH   2  31
BRANCH   6  33
HETATM   33  O6  UNL     1      15.514 -17.509  -6.944  1.00  0.00    -0.271 OA
ATOM     34  H6  UNL     1      15.084 -17.137  -6.182  1.00  0.00     0.246 HD
ENDBRANCH   6  33
BRANCH   3  35
HETATM   35  N3  UNL     1      17.189 -21.496  -9.062  1.00  0.00    -0.239 N 
HETATM   36  C12 UNL     1      16.745 -21.903 -10.326  1.00  0.00     0.333 A 
HETATM   37  O5  UNL     1      15.583 -21.629 -10.745  1.00  0.00    -0.246 OA
HETATM   38  N4  UNL     1      17.634 -22.660 -11.164  1.00  0.00    -0.282 N 
HETATM   39  C13 UNL     1      18.927 -22.999 -10.703  1.00  0.00     0.195 A 
ATOM     40  H4  UNL     1      17.332 -22.953 -12.093  1.00  0.00     0.173 HD
HETATM   41  N5  UNL     1      19.830 -23.718 -11.560  1.00  0.00    -0.063 NA
HETATM   42  N6  UNL     1      19.280 -22.652  -9.530  1.00  0.00    -0.320 N 
HETATM   43  C14 UNL     1      18.481 -21.933  -8.567  1.00  0.00     0.400 A 
ATOM     44  H6  UNL     1      20.224 -22.909  -9.242  1.00  0.00     0.166 HD
BRANCH  43  45
HETATM   45  N7  UNL     1      18.187 -22.846  -7.438  1.00  0.00    -0.040 N 
ATOM     46  H73 UNL     1      18.149 -22.379  -6.533  1.00  0.00     0.279 HD
ATOM     47  H72 UNL     1      17.228 -23.196  -7.434  1.00  0.00     0.279 HD
ATOM     48  H71 UNL     1      18.891 -23.582  -7.490  1.00  0.00     0.279 HD
ENDBRANCH  43  45
ENDBRANCH   3  35
TORSDOF 15
ENDMDL
MODEL 2
REMARK VINA RESULT: -7.311864936      1.034      1.170
REMARK  15 active torsions:
REMARK  status: ('A' for Active; 'I' for Inactive)
REMARK    1  A    between atoms: N1_2  and  C2_3 
REMARK    2  A    between atoms: N1_2  and  C4_7 
REMARK    3  A    between atoms: C2_3  and  C3_4 
REMARK    4  A    between atoms: C4_7  and  C5_8 
REMARK    5  A    between atoms: C7_10  and  N2_11 
REMARK    6  A    between atoms: N2_11  and  C8_13 
REMARK    7  A    between atoms: C8_13  and  O3_14 
REMARK    8  A    between atoms: C8_13  and  C9_16 
REMARK    9  A    between atoms: C10_17  and  O4_18 
REMARK   10  A    between atoms: C11_20  and  N3_21 
REMARK   11  A    between atoms: C14_30  and  N7_31 
REMARK   12  A    between atoms: N9_37  and  O6_38 
REMARK   13  A    between atoms: C15_40  and  O7_41 
REMARK   14  A    between atoms: C16_43  and  O8_44 
REMARK   15  A    between atoms: C17_46  and  O9_47 
ROOT
HETATM    1  C9  UNL     1      14.488 -19.841  -7.003  1.00  0.00     0.243 C 
HETATM    2  C10 UNL     1      15.564 -20.970  -7.011  1.00  0.00     0.222 C 
HETATM    3  C11 UNL     1      16.350 -20.597  -8.214  1.00  0.00     0.139 C 
HETATM    4  N8  UNL     1      16.199 -19.319  -8.430  1.00  0.00    -0.264 N 
ATOM      5  H8  UNL     1      16.626 -18.791  -9.191  1.00  0.00     0.190 HD
HETATM    6  N9  UNL     1      15.324 -18.771  -7.411  1.00  0.00    -0.184 N 
ENDROOT
BRANCH   1   7
HETATM    7  C8  UNL     1      13.678 -19.844  -5.796  1.00  0.00     0.142 C 
BRANCH   7   8
HETATM    8  N2  UNL     1      14.196 -20.209  -4.580  1.00  0.00    -0.365 N 
ATOM      9  H2  UNL     1      14.482 -21.183  -4.477  1.00  0.00     0.161 HD
BRANCH   8  10
HETATM   10  C7  UNL     1      14.373 -19.371  -3.455  1.00  0.00     0.115 C 
HETATM   11  C6  UNL     1      15.514 -18.429  -3.820  1.00  0.00     0.036 C 
HETATM   12  C5  UNL     1      16.272 -17.841  -2.698  1.00  0.00     0.037 C 
HETATM   13  C17 UNL     1      16.158 -18.553  -1.388  1.00  0.00     0.155 C 
HETATM   14  C16 UNL     1      15.914 -20.024  -1.556  1.00  0.00     0.178 C 
HETATM   15  C15 UNL     1      14.614 -20.218  -2.258  1.00  0.00     0.172 C 
BRANCH  12  16
HETATM   16  C4  UNL     1      17.731 -17.771  -3.153  1.00  0.00     0.129 C 
BRANCH  16  17
HETATM   17  N1  UNL     1      18.179 -16.492  -3.487  1.00  0.00    -0.388 N 
HETATM   18  C1  UNL     1      18.456 -15.589  -2.463  1.00  0.00     0.149 C 
BRANCH  17  19
HETATM   19  C2  UNL     1      17.876 -16.066  -4.779  1.00  0.00     0.170 C 
BRANCH  19  20
HETATM   20  C3  UNL     1      18.735 -16.569  -5.874  1.00  0.00     0.214 C 
HETATM   21  O1  UNL     1      19.833 -16.013  -6.111  1.00  0.00    -0.644 OA
HETATM   22  O2  UNL     1      18.309 -17.653  -6.625  1.00  0.00    -0.644 OA
ENDBRANCH  19  20
ENDBRANCH  17  19
ENDBRANCH  16  17
ENDBRANCH  12  16
BRANCH  13  23
HETATM   23  O9  UNL     1      15.045 -18.031  -0.714  1.00  0.00    -0.392 OA
ATOM     24  H9  UNL     1      14.742 -18.692  -0.102  1.00  0.00     0.210 HD
ENDBRANCH  13  23
BRANCH  14  25
HETATM   25  O8  UNL     1      16.967 -20.632  -2.193  1.00  0.00    -0.390 OA
ATOM     26  H8  UNL     1      17.019 -21.565  -2.022  1.00  0.00     0.210 HD
ENDBRANCH  14  25
BRANCH  15  27
HETATM   27  O7  UNL     1      13.585 -19.955  -1.322  1.00  0.00    -0.391 OA
ATOM     28  H7  UNL     1      13.790 -20.422  -0.520  1.00  0.00     0.210 HD
ENDBRANCH  15  27
ENDBRANCH   8  10
ENDBRANCH   7   8
BRANCH   7  29
HETATM   29  O3  UNL     1      12.372 -20.308  -6.109  1.00  0.00    -0.348 OA
ATOM     30  H3  UNL     1      11.685 -19.655  -6.173  1.00  0.00     0.219 HD
ENDBRANCH   7  29
ENDBRANCH   1   7
BRANCH   2  31
HETATM   31  O4  UNL     1      16.265 -21.011  -5.847  1.00  0.00    -0.385 OA
ATOM     32  H4  UNL     1      16.418 -21.902  -5.557  1.00  0.00     0.210 HD
ENDBRANCH   2  31
BRANCH   6  33
HETATM   33  O6  UNL     1      15.369 -17.511  -6.990  1.00  0.00    -0.271 OA
ATOM     34  H6  UNL     1      15.925 -16.793  -7.268  1.00  0.00     0.246 HD
ENDBRANCH   6  33
BRANCH   3  35
HETATM   35  N3  UNL     1      17.106 -21.512  -9.033  1.00  0.00    -0.239 N 
HETATM   36  C12 UNL     1      16.643 -21.873 -10.303  1.00  0.00     0.333 A 
HETATM   37  O5  UNL     1      15.484 -21.560 -10.705  1.00  0.00    -0.246 OA
HETATM   38  N4  UNL     1      17.507 -22.626 -11.170  1.00  0.00    -0.282 N 
HETATM   39  C13 UNL     1      18.795 -23.009 -10.730  1.00  0.00     0.195 A 
ATOM     40  H4  UNL     1      17.191 -22.885 -12.104  1.00  0.00     0.173 HD
HETATM   41  N5  UNL     1      19.674 -23.724 -11.614  1.00  0.00    -0.063 NA
HETATM   42  N6  UNL     1      19.165 -22.704  -9.550  1.00  0.00    -0.320 N 
HETATM   43  C14 UNL     1      18.392 -21.993  -8.561  1.00  0.00     0.400 A 
ATOM     44  H6  UNL     1      20.105 -22.991  -9.277  1.00  0.00     0.166 HD
BRANCH  43  45
HETATM   45  N7  UNL     1      18.084 -22.931  -7.456  1.00  0.00    -0.040 N 
ATOM     46  H73 UNL     1      18.905 -23.402  -7.078  1.00  0.00     0.279 HD
ATOM     47  H72 UNL     1      17.803 -22.467  -6.591  1.00  0.00     0.279 HD
ATOM     48  H71 UNL     1      17.380 -23.569  -7.826  1.00  0.00     0.279 HD
ENDBRANCH  43  45
ENDBRANCH   3  35
TORSDOF 15
ENDMDL
MODEL 3
REMARK VINA RESULT: -6.995470255      1.242      1.705
REMARK  15 active torsions:
REMARK  status: ('A' for Active; 'I' for Inactive)
REMARK    1  A    between atoms: N1_2  and  C2_3 
REMARK    2  A    between atoms: N1_2  and  C4_7 
REMARK    3  A    between atoms: C2_3  and  C3_4 
REMARK    4  A    between atoms: C4_7  and  C5_8 
REMARK    5  A    between atoms: C7_10  and  N2_11 
REMARK    6  A    between atoms: N2_11  and  C8_13 
REMARK    7  A    between atoms: C8_13  and  O3_14 
REMARK    8  A    between atoms: C8_13  and  C9_16 
REMARK    9  A    between atoms: C10_17  and  O4_18 
REMARK   10  A    between atoms: C11_20  and  N3_21 
REMARK   11  A    between atoms: C14_30  and  N7_31 
REMARK   12  A    between atoms: N9_37  and  O6_38 
REMARK   13  A    between atoms: C15_40  and  O7_41 
REMARK   14  A    between atoms: C16_43  and  O8_44 
REMARK   15  A    between atoms: C17_46  and  O9_47 
ROOT
HETATM    1  C9  UNL     1      14.443 -19.807  -7.229  1.00  0.00     0.243 C 
HETATM    2  C10 UNL     1      15.455 -20.992  -7.185  1.00  0.00     0.222 C 
HETATM    3  C11 UNL     1      16.384 -20.605  -8.278  1.00  0.00     0.139 C 
HETATM    4  N8  UNL     1      16.320 -19.313  -8.440  1.00  0.00    -0.264 N 
ATOM      5  H8  UNL     1      16.853 -18.773  -9.123  1.00  0.00     0.190 HD
HETATM    6  N9  UNL     1      15.370 -18.767  -7.490  1.00  0.00    -0.184 N 
ENDROOT
BRANCH   1   7
HETATM    7  C8  UNL     1      13.509 -19.823  -6.116  1.00  0.00     0.142 C 
BRANCH   7   8
HETATM    8  N2  UNL     1      13.819 -20.423  -4.922  1.00  0.00    -0.365 N 
ATOM      9  H2  UNL     1      14.092 -21.405  -4.960  1.00  0.00     0.161 HD
BRANCH   8  10
HETATM   10  C7  UNL     1      13.797 -19.818  -3.645  1.00  0.00     0.115 C 
HETATM   11  C6  UNL     1      14.934 -18.803  -3.652  1.00  0.00     0.036 C 
HETATM   12  C5  UNL     1      15.499 -18.432  -2.340  1.00  0.00     0.037 C 
HETATM   13  C17 UNL     1      15.234 -19.388  -1.220  1.00  0.00     0.155 C 
HETATM   14  C16 UNL     1      15.083 -20.802  -1.700  1.00  0.00     0.178 C 
HETATM   15  C15 UNL     1      13.905 -20.877  -2.609  1.00  0.00     0.172 C 
BRANCH  12  16
HETATM   16  C4  UNL     1      17.003 -18.250  -2.553  1.00  0.00     0.129 C 
BRANCH  16  17
HETATM   17  N1  UNL     1      17.419 -16.925  -2.688  1.00  0.00    -0.388 N 
HETATM   18  C1  UNL     1      17.963 -16.512  -3.903  1.00  0.00     0.149 C 
BRANCH  17  19
HETATM   19  C2  UNL     1      17.691 -16.254  -1.497  1.00  0.00     0.170 C 
BRANCH  19  20
HETATM   20  C3  UNL     1      18.395 -17.015  -0.441  1.00  0.00     0.214 C 
HETATM   21  O1  UNL     1      19.618 -17.265  -0.562  1.00  0.00    -0.644 OA
HETATM   22  O2  UNL     1      17.687 -17.444   0.670  1.00  0.00    -0.644 OA
ENDBRANCH  19  20
ENDBRANCH  17  19
ENDBRANCH  16  17
ENDBRANCH  12  16
BRANCH  13  23
HETATM   23  O9  UNL     1      14.015 -19.026  -0.631  1.00  0.00    -0.392 OA
ATOM     24  H9  UNL     1      13.319 -19.284  -1.224  1.00  0.00     0.210 HD
ENDBRANCH  13  23
BRANCH  14  25
HETATM   25  O8  UNL     1      16.242 -21.256  -2.278  1.00  0.00    -0.390 OA
ATOM     26  H8  UNL     1      16.481 -20.776  -3.063  1.00  0.00     0.210 HD
ENDBRANCH  14  25
BRANCH  15  27
HETATM   27  O7  UNL     1      12.743 -20.819  -1.801  1.00  0.00    -0.391 OA
ATOM     28  H7  UNL     1      12.950 -20.310  -1.026  1.00  0.00     0.210 HD
ENDBRANCH  15  27
ENDBRANCH   8  10
ENDBRANCH   7   8
BRANCH   7  29
HETATM   29  O3  UNL     1      12.190 -20.009  -6.611  1.00  0.00    -0.348 OA
ATOM     30  H3  UNL     1      12.073 -20.659  -7.294  1.00  0.00     0.219 HD
ENDBRANCH   7  29
ENDBRANCH   1   7
BRANCH   2  31
HETATM   31  O4  UNL     1      16.025 -21.127  -5.959  1.00  0.00    -0.385 OA
ATOM     32  H4  UNL     1      16.889 -20.734  -5.923  1.00  0.00     0.210 HD
ENDBRANCH   2  31
BRANCH   6  33
HETATM   33  O6  UNL     1      15.433 -17.533  -6.999  1.00  0.00    -0.271 OA
ATOM     34  H6  UNL     1      15.236 -16.700  -7.411  1.00  0.00     0.246 HD
ENDBRANCH   6  33
BRANCH   3  35
HETATM   35  N3  UNL     1      17.176 -21.521  -9.061  1.00  0.00    -0.239 N 
HETATM   36  C12 UNL     1      16.739 -21.931 -10.326  1.00  0.00     0.333 A 
HETATM   37  O5  UNL     1      15.577 -21.664 -10.750  1.00  0.00    -0.246 OA
HETATM   38  N4  UNL     1      17.636 -22.684 -11.161  1.00  0.00    -0.282 N 
HETATM   39  C13 UNL     1      18.929 -23.015 -10.695  1.00  0.00     0.195 A 
ATOM     40  H4  UNL     1      17.339 -22.978 -12.090  1.00  0.00     0.173 HD
HETATM   41  N5  UNL     1      19.839 -23.729 -11.547  1.00  0.00    -0.063 NA
HETATM   42  N6  UNL     1      19.275 -22.666  -9.520  1.00  0.00    -0.320 N 
HETATM   43  C14 UNL     1      18.469 -21.951  -8.560  1.00  0.00     0.400 A 
ATOM     44  H6  UNL     1      20.220 -22.918  -9.228  1.00  0.00     0.166 HD
BRANCH  43  45
HETATM   45  N7  UNL     1      18.175 -22.865  -7.432  1.00  0.00    -0.040 N 
ATOM     46  H73 UNL     1      18.821 -23.651  -7.363  1.00  0.00     0.279 HD
ATOM     47  H72 UNL     1      18.374 -22.463  -6.516  1.00  0.00     0.279 HD
ATOM     48  H71 UNL     1      17.201 -23.145  -7.554  1.00  0.00     0.279 HD
ENDBRANCH  43  45
ENDBRANCH   3  35
TORSDOF 15
ENDMDL
MODEL 4
REMARK VINA RESULT: -6.982567618      2.507      7.757
REMARK  15 active torsions:
REMARK  status: ('A' for Active; 'I' for Inactive)
REMARK    1  A    between atoms: N1_2  and  C2_3 
REMARK    2  A    between atoms: N1_2  and  C4_7 
REMARK    3  A    between atoms: C2_3  and  C3_4 
REMARK    4  A    between atoms: C4_7  and  C5_8 
REMARK    5  A    between atoms: C7_10  and  N2_11 
REMARK    6  A    between atoms: N2_11  and  C8_13 
REMARK    7  A    between atoms: C8_13  and  O3_14 
REMARK    8  A    between atoms: C8_13  and  C9_16 
REMARK    9  A    between atoms: C10_17  and  O4_18 
REMARK   10  A    between atoms: C11_20  and  N3_21 
REMARK   11  A    between atoms: C14_30  and  N7_31 
REMARK   12  A    between atoms: N9_37  and  O6_38 
REMARK   13  A    between atoms: C15_40  and  O7_41 
REMARK   14  A    between atoms: C16_43  and  O8_44 
REMARK   15  A    between atoms: C17_46  and  O9_47 
ROOT
HETATM    1  C9  UNL     1      14.109 -19.222  -4.689  1.00  0.00     0.243 C 
HETATM    2  C10 UNL     1      15.222 -19.739  -3.728  1.00  0.00     0.222 C 
HETATM    3  C11 UNL     1      14.402 -20.240  -2.596  1.00  0.00     0.139 C 
HETATM    4  N8  UNL     1      13.212 -20.533  -3.042  1.00  0.00    -0.264 N 
ATOM      5  H8  UNL     1      12.442 -20.900  -2.483  1.00  0.00     0.190 HD
HETATM    6  N9  UNL     1      13.162 -20.253  -4.464  1.00  0.00    -0.184 N 
ENDROOT
BRANCH   1   7
HETATM    7  C8  UNL     1      14.624 -18.841  -5.994  1.00  0.00     0.142 C 
BRANCH   7   8
HETATM    8  N2  UNL     1      15.707 -18.011  -6.128  1.00  0.00    -0.365 N 
ATOM      9  H2  UNL     1      15.703 -17.158  -5.568  1.00  0.00     0.161 HD
BRANCH   8  10
HETATM   10  C7  UNL     1      16.828 -18.218  -6.963  1.00  0.00     0.115 C 
HETATM   11  C6  UNL     1      16.710 -19.653  -7.461  1.00  0.00     0.036 C 
HETATM   12  C5  UNL     1      17.962 -20.316  -7.877  1.00  0.00     0.037 C 
HETATM   13  C17 UNL     1      19.226 -19.709  -7.357  1.00  0.00     0.155 C 
HETATM   14  C16 UNL     1      19.033 -19.037  -6.029  1.00  0.00     0.178 C 
HETATM   15  C15 UNL     1      18.063 -17.918  -6.194  1.00  0.00     0.172 C 
BRANCH  12  16
HETATM   16  C4  UNL     1      17.842 -21.778  -7.442  1.00  0.00     0.129 C 
BRANCH  16  17
HETATM   17  N1  UNL     1      17.559 -22.674  -8.473  1.00  0.00    -0.388 N 
HETATM   18  C1  UNL     1      17.302 -24.006  -8.154  1.00  0.00     0.149 C 
BRANCH  17  19
HETATM   19  C2  UNL     1      18.003 -22.295  -9.739  1.00  0.00     0.170 C 
BRANCH  19  20
HETATM   20  C3  UNL     1      17.002 -22.283 -10.829  1.00  0.00     0.214 C 
HETATM   21  O1  UNL     1      15.888 -21.737 -10.647  1.00  0.00    -0.644 OA
HETATM   22  O2  UNL     1      17.313 -22.882 -12.040  1.00  0.00    -0.644 OA
ENDBRANCH  19  20
ENDBRANCH  17  19
ENDBRANCH  16  17
ENDBRANCH  12  16
BRANCH  13  23
HETATM   23  O9  UNL     1      19.626 -18.716  -8.262  1.00  0.00    -0.392 OA
ATOM     24  H9  UNL     1      18.991 -18.011  -8.216  1.00  0.00     0.210 HD
ENDBRANCH  13  23
BRANCH  14  25
HETATM   25  O8  UNL     1      18.658 -19.939  -5.066  1.00  0.00    -0.390 OA
ATOM     26  H8  UNL     1      18.570 -19.550  -4.203  1.00  0.00     0.210 HD
ENDBRANCH  14  25
BRANCH  15  27
HETATM   27  O7  UNL     1      18.742 -16.863  -6.852  1.00  0.00    -0.391 OA
ATOM     28  H7  UNL     1      19.656 -16.894  -6.591  1.00  0.00     0.210 HD
ENDBRANCH  15  27
ENDBRANCH   8  10
ENDBRANCH   7   8
BRANCH   7  29
HETATM   29  O3  UNL     1      13.537 -18.637  -6.886  1.00  0.00    -0.348 OA
ATOM     30  H3  UNL     1      13.060 -19.407  -7.170  1.00  0.00     0.219 HD
ENDBRANCH   7  29
ENDBRANCH   1   7
BRANCH   2  31
HETATM   31  O4  UNL     1      16.018 -20.665  -4.324  1.00  0.00    -0.385 OA
ATOM     32  H4  UNL     1      16.930 -20.561  -4.077  1.00  0.00     0.210 HD
ENDBRANCH   2  31
BRANCH   6  33
HETATM   33  O6  UNL     1      12.370 -20.890  -5.322  1.00  0.00    -0.271 OA
ATOM     34  H6  UNL     1      11.424 -20.881  -5.402  1.00  0.00     0.246 HD
ENDBRANCH   6  33
BRANCH   3  35
HETATM   35  N3  UNL     1      14.841 -20.331  -1.225  1.00  0.00    -0.239 N 
HETATM   36  C12 UNL     1      14.966 -19.176  -0.445  1.00  0.00     0.333 A 
HETATM   37  O5  UNL     1      14.874 -18.019  -0.947  1.00  0.00    -0.246 OA
HETATM   38  N4  UNL     1      15.213 -19.314   0.965  1.00  0.00    -0.282 N 
HETATM   39  C13 UNL     1      15.345 -20.598   1.540  1.00  0.00     0.195 A 
ATOM     40  H4  UNL     1      15.293 -18.483   1.551  1.00  0.00     0.173 HD
HETATM   41  N5  UNL     1      15.548 -20.735   2.957  1.00  0.00    -0.063 NA
HETATM   42  N6  UNL     1      15.272 -21.626   0.792  1.00  0.00    -0.320 N 
HETATM   43  C14 UNL     1      15.073 -21.638  -0.638  1.00  0.00     0.400 A 
ATOM     44  H6  UNL     1      15.363 -22.533   1.249  1.00  0.00     0.166 HD
BRANCH  43  45
HETATM   45  N7  UNL     1      16.313 -22.144  -1.271  1.00  0.00    -0.040 N 
ATOM     46  H73 UNL     1      16.155 -22.904  -1.932  1.00  0.00     0.279 HD
ATOM     47  H72 UNL     1      16.729 -21.491  -1.936  1.00  0.00     0.279 HD
ATOM     48  H71 UNL     1      16.932 -22.395  -0.500  1.00  0.00     0.279 HD
ENDBRANCH  43  45
ENDBRANCH   3  35
TORSDOF 15
ENDMDL
MODEL 5
REMARK VINA RESULT: -6.963054271      2.225      3.001
REMARK  15 active torsions:
REMARK  status: ('A' for Active; 'I' for Inactive)
REMARK    1  A    between atoms: N1_2  and  C2_3 
REMARK    2  A    between atoms: N1_2  and  C4_7 
REMARK    3  A    between atoms: C2_3  and  C3_4 
REMARK    4  A    between atoms: C4_7  and  C5_8 
REMARK    5  A    between atoms: C7_10  and  N2_11 
REMARK    6  A    between atoms: N2_11  and  C8_13 
REMARK    7  A    between atoms: C8_13  and  O3_14 
REMARK    8  A    between atoms: C8_13  and  C9_16 
REMARK    9  A    between atoms: C10_17  and  O4_18 
REMARK   10  A    between atoms: C11_20  and  N3_21 
REMARK   11  A    between atoms: C14_30  and  N7_31 
REMARK   12  A    between atoms: N9_37  and  O6_38 
REMARK   13  A    between atoms: C15_40  and  O7_41 
REMARK   14  A    between atoms: C16_43  and  O8_44 
REMARK   15  A    between atoms: C17_46  and  O9_47 
ROOT
HETATM    1  C9  UNL     1      15.345 -20.116  -7.011  1.00  0.00     0.243 C 
HETATM    2  C10 UNL     1      16.484 -19.123  -6.629  1.00  0.00     0.222 C 
HETATM    3  C11 UNL     1      17.463 -19.390  -7.714  1.00  0.00     0.139 C 
HETATM    4  N8  UNL     1      16.821 -19.874  -8.742  1.00  0.00    -0.264 N 
ATOM      5  H8  UNL     1      17.243 -20.148  -9.629  1.00  0.00     0.190 HD
HETATM    6  N9  UNL     1      15.410 -19.958  -8.418  1.00  0.00    -0.184 N 
ENDROOT
BRANCH   1   7
HETATM    7  C8  UNL     1      14.146 -19.931  -6.212  1.00  0.00     0.142 C 
BRANCH   7   8
HETATM    8  N2  UNL     1      13.998 -20.523  -4.983  1.00  0.00    -0.365 N 
ATOM      9  H2  UNL     1      14.027 -21.542  -4.958  1.00  0.00     0.161 HD
BRANCH   8  10
HETATM   10  C7  UNL     1      13.810 -19.862  -3.748  1.00  0.00     0.115 C 
HETATM   11  C6  UNL     1      15.115 -19.124  -3.474  1.00  0.00     0.036 C 
HETATM   12  C5  UNL     1      15.420 -18.818  -2.063  1.00  0.00     0.037 C 
HETATM   13  C17 UNL     1      14.687 -19.632  -1.044  1.00  0.00     0.155 C 
HETATM   14  C16 UNL     1      14.339 -21.001  -1.550  1.00  0.00     0.178 C 
HETATM   15  C15 UNL     1      13.426 -20.863  -2.720  1.00  0.00     0.172 C 
BRANCH  12  16
HETATM   16  C4  UNL     1      16.933 -18.982  -1.902  1.00  0.00     0.129 C 
BRANCH  16  17
HETATM   17  N1  UNL     1      17.582 -17.892  -1.321  1.00  0.00    -0.388 N 
HETATM   18  C1  UNL     1      17.853 -17.922   0.045  1.00  0.00     0.149 C 
BRANCH  17  19
HETATM   19  C2  UNL     1      17.492 -16.693  -2.026  1.00  0.00     0.170 C 
BRANCH  19  20
HETATM   20  C3  UNL     1      18.061 -16.668  -3.391  1.00  0.00     0.214 C 
HETATM   21  O1  UNL     1      17.311 -16.479  -4.377  1.00  0.00    -0.644 OA
HETATM   22  O2  UNL     1      19.424 -16.859  -3.559  1.00  0.00    -0.644 OA
ENDBRANCH  19  20
ENDBRANCH  17  19
ENDBRANCH  16  17
ENDBRANCH  12  16
BRANCH  13  23
HETATM   23  O9  UNL     1      13.477 -18.980  -0.769  1.00  0.00    -0.392 OA
ATOM     24  H9  UNL     1      12.776 -19.500  -1.147  1.00  0.00     0.210 HD
ENDBRANCH  13  23
BRANCH  14  25
HETATM   25  O8  UNL     1      15.468 -21.729  -1.830  1.00  0.00    -0.390 OA
ATOM     26  H8  UNL     1      16.126 -21.230  -2.302  1.00  0.00     0.210 HD
ENDBRANCH  14  25
BRANCH  15  27
HETATM   27  O7  UNL     1      12.149 -20.508  -2.220  1.00  0.00    -0.391 OA
ATOM     28  H7  UNL     1      12.122 -20.734  -1.297  1.00  0.00     0.210 HD
ENDBRANCH  15  27
ENDBRANCH   8  10
ENDBRANCH   7   8
BRANCH   7  29
HETATM   29  O3  UNL     1      13.010 -19.920  -7.065  1.00  0.00    -0.348 OA
ATOM     30  H3  UNL     1      13.172 -19.926  -8.001  1.00  0.00     0.219 HD
ENDBRANCH   7  29
ENDBRANCH   1   7
BRANCH   2  31
HETATM   31  O4  UNL     1      16.036 -17.842  -6.553  1.00  0.00    -0.385 OA
ATOM     32  H4  UNL     1      16.351 -17.312  -7.276  1.00  0.00     0.210 HD
ENDBRANCH   2  31
BRANCH   6  33
HETATM   33  O6  UNL     1      14.434 -19.879  -9.317  1.00  0.00    -0.271 OA
ATOM     34  H6  UNL     1      14.343 -19.311 -10.073  1.00  0.00     0.246 HD
ENDBRANCH   6  33
BRANCH   3  35
HETATM   35  N3  UNL     1      18.888 -19.197  -7.617  1.00  0.00    -0.239 N 
HETATM   36  C12 UNL     1      19.731 -20.279  -7.333  1.00  0.00     0.333 A 
HETATM   37  O5  UNL     1      19.275 -21.406  -6.983  1.00  0.00    -0.246 OA
HETATM   38  N4  UNL     1      21.153 -20.097  -7.436  1.00  0.00    -0.282 N 
HETATM   39  C13 UNL     1      21.683 -18.838  -7.800  1.00  0.00     0.195 A 
ATOM     40  H4  UNL     1      21.781 -20.878  -7.247  1.00  0.00     0.173 HD
HETATM   41  N5  UNL     1      23.103 -18.670  -7.946  1.00  0.00    -0.063 NA
HETATM   42  N6  UNL     1      20.888 -17.864  -8.005  1.00  0.00    -0.320 N 
HETATM   43  C14 UNL     1      19.450 -17.888  -7.895  1.00  0.00     0.400 A 
ATOM     44  H6  UNL     1      21.313 -16.976  -8.275  1.00  0.00     0.166 HD
BRANCH  43  45
HETATM   45  N7  UNL     1      19.060 -17.036  -6.747  1.00  0.00    -0.040 N 
ATOM     46  H73 UNL     1      18.614 -17.550  -5.988  1.00  0.00     0.279 HD
ATOM     47  H72 UNL     1      19.854 -16.689  -6.208  1.00  0.00     0.279 HD
ATOM     48  H71 UNL     1      18.477 -16.298  -7.140  1.00  0.00     0.279 HD
ENDBRANCH  43  45
ENDBRANCH   3  35
TORSDOF 15
ENDMDL
