MODEL 1
REMARK VINA RESULT: -6.868340452      0.000      0.000
REMARK  14 active torsions:
REMARK  status: ('A' for Active; 'I' for Inactive)
REMARK    1  A    between atoms: O1_1  and  C1_3 
REMARK    2  A    between atoms: C1_3  and  N1_4 
REMARK    3  A    between atoms: C1_3  and  N4_27 
REMARK    4  A    between atoms: N1_4  and  C2_7 
REMARK    5  A    between atoms: C2_7  and  C3_8 
REMARK    6  A    between atoms: C3_8  and  N2_9 
REMARK    7  A    between atoms: N2_9  and  C4_12 
REMARK    8  A    between atoms: C4_12  and  C5_13 
REMARK    9  A    between atoms: C5_13  and  C6_14 
REMARK   10  A    between atoms: C6_14  and  C7_15 
REMARK   11  A    between atoms: C7_15  and  C8_16 
REMARK   12  A    between atoms: C8_16  and  N3_17 
REMARK   13  A    between atoms: N3_17  and  C9_19 
REMARK   14  A    between atoms: N4_27  and  C15_29 
ROOT
HETATM    1  N2  UNL     1      -1.564 -36.082  16.027  1.00  0.00    -0.074 N 
ATOM      2  H21 UNL     1      -0.702 -35.552  16.159  1.00  0.00     0.277 HD
ATOM      3  H22 UNL     1      -1.943 -36.024  16.972  1.00  0.00     0.277 HD
ENDROOT
BRANCH   1   4
HETATM    4  C3  UNL     1      -1.274 -37.458  15.671  1.00  0.00     0.260 C 
BRANCH   4   5
HETATM    5  C2  UNL     1      -0.424 -38.029  16.791  1.00  0.00     0.265 C 
BRANCH   5   6
HETATM    6  N1  UNL     1       0.975 -37.928  16.523  1.00  0.00    -0.029 N 
ATOM      7  H12 UNL     1       1.135 -37.390  15.671  1.00  0.00     0.282 HD
ATOM      8  H11 UNL     1       1.347 -38.832  16.232  1.00  0.00     0.282 HD
BRANCH   6   9
HETATM    9  C1  UNL     1       1.746 -37.397  17.597  1.00  0.00     0.427 C 
BRANCH   9  10
HETATM   10  O1  UNL     1       2.785 -38.303  17.915  1.00  0.00    -0.354 OA
ATOM     11  H1  UNL     1       3.598 -37.991  17.535  1.00  0.00     0.214 HD
ENDBRANCH   9  10
BRANCH   9  12
HETATM   12  N4  UNL     1       1.025 -37.123  18.785  1.00  0.00    -0.328 N 
ATOM     13  H4  UNL     1       0.235 -37.713  19.044  1.00  0.00     0.165 HD
BRANCH  12  14
HETATM   14  C15 UNL     1       1.393 -36.037  19.616  1.00  0.00     0.103 A 
HETATM   15  C16 UNL     1       2.294 -35.054  19.235  1.00  0.00     0.048 A 
HETATM   16  C17 UNL     1       2.644 -34.010  20.060  1.00  0.00     0.005 A 
HETATM   17  C18 UNL     1       2.081 -33.939  21.308  1.00  0.00     0.017 A 
HETATM   18  C19 UNL     1       1.175 -34.925  21.697  1.00  0.00     0.089 A 
HETATM   19  N5  UNL     1       0.869 -35.910  20.868  1.00  0.00    -0.352 N 
ATOM     20  H5  UNL     1       0.202 -36.615  21.184  1.00  0.00     0.166 HD
ENDBRANCH  12  14
ENDBRANCH   9  12
ENDBRANCH   6   9
ENDBRANCH   5   6
ENDBRANCH   4   5
ENDBRANCH   1   4
BRANCH   1  21
HETATM   21  C4  UNL     1      -2.424 -35.428  15.093  1.00  0.00     0.232 C 
BRANCH  21  22
HETATM   22  C5  UNL     1      -3.028 -34.137  15.593  1.00  0.00     0.027 C 
BRANCH  22  23
HETATM   23  C6  UNL     1      -2.418 -33.032  14.724  1.00  0.00     0.003 C 
BRANCH  23  24
HETATM   24  C7  UNL     1      -1.672 -32.040  15.528  1.00  0.00     0.020 C 
BRANCH  24  25
HETATM   25  C8  UNL     1      -0.270 -32.490  15.815  1.00  0.00     0.120 C 
BRANCH  25  26
HETATM   26  N3  UNL     1      -0.046 -33.034  17.098  1.00  0.00    -0.389 N 
ATOM     27  H3  UNL     1       0.190 -34.026  17.126  1.00  0.00     0.159 HD
BRANCH  26  28
HETATM   28  C9  UNL     1      -0.107 -32.375  18.358  1.00  0.00     0.051 A 
HETATM   29  C10 UNL     1       0.560 -31.211  18.645  1.00  0.00     0.054 A 
HETATM   30  C11 UNL     1       0.475 -30.552  19.844  1.00  0.00     0.036 A 
HETATM   31 CL1  UNL     1       1.362 -29.053  20.143  1.00  0.00    -0.084 Cl
HETATM   32  C12 UNL     1      -0.331 -31.081  20.830  1.00  0.00     0.026 A 
HETATM   33  C13 UNL     1      -1.019 -32.253  20.573  1.00  0.00     0.028 A 
HETATM   34  C14 UNL     1      -0.922 -32.898  19.373  1.00  0.00     0.060 A 
HETATM   35 CL2  UNL     1      -1.808 -34.387  19.067  1.00  0.00    -0.082 Cl
ENDBRANCH  26  28
ENDBRANCH  25  26
ENDBRANCH  24  25
ENDBRANCH  23  24
ENDBRANCH  22  23
ENDBRANCH  21  22
ENDBRANCH   1  21
TORSDOF 14
ENDMDL
MODEL 2
REMARK VINA RESULT: -6.866409440      1.304      2.730
REMARK  14 active torsions:
REMARK  status: ('A' for Active; 'I' for Inactive)
REMARK    1  A    between atoms: O1_1  and  C1_3 
REMARK    2  A    between atoms: C1_3  and  N1_4 
REMARK    3  A    between atoms: C1_3  and  N4_27 
REMARK    4  A    between atoms: N1_4  and  C2_7 
REMARK    5  A    between atoms: C2_7  and  C3_8 
REMARK    6  A    between atoms: C3_8  and  N2_9 
REMARK    7  A    between atoms: N2_9  and  C4_12 
REMARK    8  A    between atoms: C4_12  and  C5_13 
REMARK    9  A    between atoms: C5_13  and  C6_14 
REMARK   10  A    between atoms: C6_14  and  C7_15 
REMARK   11  A    between atoms: C7_15  and  C8_16 
REMARK   12  A    between atoms: C8_16  and  N3_17 
REMARK   13  A    between atoms: N3_17  and  C9_19 
REMARK   14  A    between atoms: N4_27  and  C15_29 
ROOT
HETATM    1  N2  UNL     1      -2.507 -34.390  14.377  1.00  0.00    -0.074 N 
ATOM      2  H21 UNL     1      -3.256 -34.667  13.741  1.00  0.00     0.277 HD
ATOM      3  H22 UNL     1      -1.779 -35.035  14.071  1.00  0.00     0.277 HD
ENDROOT
BRANCH   1   4
HETATM    4  C3  UNL     1      -2.879 -34.646  15.755  1.00  0.00     0.260 C 
BRANCH   4   5
HETATM    5  C2  UNL     1      -2.255 -35.976  16.136  1.00  0.00     0.265 C 
BRANCH   5   6
HETATM    6  N1  UNL     1      -0.857 -35.867  16.407  1.00  0.00    -0.029 N 
ATOM      7  H12 UNL     1      -0.692 -35.192  17.153  1.00  0.00     0.282 HD
ATOM      8  H11 UNL     1      -0.381 -35.397  15.636  1.00  0.00     0.282 HD
BRANCH   6   9
HETATM    9  C1  UNL     1      -0.214 -37.103  16.706  1.00  0.00     0.427 C 
BRANCH   9  10
HETATM   10  O1  UNL     1      -0.863 -37.711  17.806  1.00  0.00    -0.354 OA
ATOM     11  H1  UNL     1      -0.240 -38.253  18.274  1.00  0.00     0.214 HD
ENDBRANCH   9  10
BRANCH   9  12
HETATM   12  N4  UNL     1       1.167 -37.012  17.008  1.00  0.00    -0.328 N 
ATOM     13  H4  UNL     1       1.837 -37.577  16.487  1.00  0.00     0.165 HD
BRANCH  12  14
HETATM   14  C15 UNL     1       1.624 -36.143  18.029  1.00  0.00     0.103 A 
HETATM   15  C16 UNL     1       2.408 -35.025  17.786  1.00  0.00     0.048 A 
HETATM   16  C17 UNL     1       2.847 -34.196  18.792  1.00  0.00     0.005 A 
HETATM   17  C18 UNL     1       2.497 -34.487  20.086  1.00  0.00     0.017 A 
HETATM   18  C19 UNL     1       1.709 -35.610  20.336  1.00  0.00     0.089 A 
HETATM   19  N5  UNL     1       1.309 -36.377  19.334  1.00  0.00    -0.352 N 
ATOM     20  H5  UNL     1       0.734 -37.191  19.552  1.00  0.00     0.166 HD
ENDBRANCH  12  14
ENDBRANCH   9  12
ENDBRANCH   6   9
ENDBRANCH   5   6
ENDBRANCH   4   5
ENDBRANCH   1   4
BRANCH   1  21
HETATM   21  C4  UNL     1      -2.117 -33.036  14.142  1.00  0.00     0.232 C 
BRANCH  21  22
HETATM   22  C5  UNL     1      -2.122 -32.159  15.371  1.00  0.00     0.027 C 
BRANCH  22  23
HETATM   23  C6  UNL     1      -0.980 -31.159  15.170  1.00  0.00     0.003 C 
BRANCH  23  24
HETATM   24  C7  UNL     1       0.317 -31.832  14.943  1.00  0.00     0.020 C 
BRANCH  24  25
HETATM   25  C8  UNL     1       1.214 -31.741  16.143  1.00  0.00     0.120 C 
BRANCH  25  26
HETATM   26  N3  UNL     1       0.671 -31.091  17.272  1.00  0.00    -0.389 N 
ATOM     27  H3  UNL     1       0.646 -30.072  17.230  1.00  0.00     0.159 HD
BRANCH  26  28
HETATM   28  C9  UNL     1       0.153 -31.677  18.462  1.00  0.00     0.051 A 
HETATM   29  C10 UNL     1      -0.571 -32.842  18.488  1.00  0.00     0.054 A 
HETATM   30  C11 UNL     1      -1.039 -33.430  19.634  1.00  0.00     0.036 A 
HETATM   31 CL1  UNL     1      -1.964 -34.935  19.593  1.00  0.00    -0.084 Cl
HETATM   32  C12 UNL     1      -0.770 -32.822  20.843  1.00  0.00     0.026 A 
HETATM   33  C13 UNL     1      -0.041 -31.647  20.852  1.00  0.00     0.028 A 
HETATM   34  C14 UNL     1       0.417 -31.074  19.701  1.00  0.00     0.060 A 
HETATM   35 CL2  UNL     1       1.344 -29.579  19.736  1.00  0.00    -0.082 Cl
ENDBRANCH  26  28
ENDBRANCH  25  26
ENDBRANCH  24  25
ENDBRANCH  23  24
ENDBRANCH  22  23
ENDBRANCH  21  22
ENDBRANCH   1  21
TORSDOF 14
ENDMDL
MODEL 3
REMARK VINA RESULT: -6.802607103      3.294      5.695
REMARK  14 active torsions:
REMARK  status: ('A' for Active; 'I' for Inactive)
REMARK    1  A    between atoms: O1_1  and  C1_3 
REMARK    2  A    between atoms: C1_3  and  N1_4 
REMARK    3  A    between atoms: C1_3  and  N4_27 
REMARK    4  A    between atoms: N1_4  and  C2_7 
REMARK    5  A    between atoms: C2_7  and  C3_8 
REMARK    6  A    between atoms: C3_8  and  N2_9 
REMARK    7  A    between atoms: N2_9  and  C4_12 
REMARK    8  A    between atoms: C4_12  and  C5_13 
REMARK    9  A    between atoms: C5_13  and  C6_14 
REMARK   10  A    between atoms: C6_14  and  C7_15 
REMARK   11  A    between atoms: C7_15  and  C8_16 
REMARK   12  A    between atoms: C8_16  and  N3_17 
REMARK   13  A    between atoms: N3_17  and  C9_19 
REMARK   14  A    between atoms: N4_27  and  C15_29 
ROOT
HETATM    1  N2  UNL     1       0.621 -33.400  21.911  1.00  0.00    -0.074 N 
ATOM      2  H21 UNL     1       1.236 -32.752  22.402  1.00  0.00     0.277 HD
ATOM      3  H22 UNL     1      -0.005 -33.652  22.676  1.00  0.00     0.277 HD
ENDROOT
BRANCH   1   4
HETATM    4  C3  UNL     1       1.360 -34.560  21.446  1.00  0.00     0.260 C 
BRANCH   4   5
HETATM    5  C2  UNL     1       0.391 -35.396  20.631  1.00  0.00     0.265 C 
BRANCH   5   6
HETATM    6  N1  UNL     1      -0.187 -36.460  21.388  1.00  0.00    -0.029 N 
ATOM      7  H12 UNL     1      -1.113 -36.195  21.722  1.00  0.00     0.282 HD
ATOM      8  H11 UNL     1       0.298 -36.564  22.280  1.00  0.00     0.282 HD
BRANCH   6   9
HETATM    9  C1  UNL     1      -0.245 -37.709  20.706  1.00  0.00     0.427 C 
BRANCH   9  10
HETATM   10  O1  UNL     1      -1.544 -38.253  20.840  1.00  0.00    -0.354 OA
ATOM     11  H1  UNL     1      -2.079 -37.657  21.350  1.00  0.00     0.214 HD
ENDBRANCH   9  10
BRANCH   9  12
HETATM   12  N4  UNL     1       0.685 -38.685  21.145  1.00  0.00    -0.328 N 
ATOM     13  H4  UNL     1       1.637 -38.405  21.380  1.00  0.00     0.165 HD
BRANCH  12  14
HETATM   14  C15 UNL     1       0.302 -40.043  21.259  1.00  0.00     0.103 A 
HETATM   15  C16 UNL     1       0.726 -41.033  20.385  1.00  0.00     0.048 A 
HETATM   16  C17 UNL     1       0.337 -42.346  20.510  1.00  0.00     0.005 A 
HETATM   17  C18 UNL     1      -0.504 -42.691  21.537  1.00  0.00     0.017 A 
HETATM   18  C19 UNL     1      -0.934 -41.699  22.418  1.00  0.00     0.089 A 
HETATM   19  N5  UNL     1      -0.532 -40.449  22.258  1.00  0.00    -0.352 N 
ATOM     20  H5  UNL     1      -0.866 -39.748  22.921  1.00  0.00     0.166 HD
ENDBRANCH  12  14
ENDBRANCH   9  12
ENDBRANCH   6   9
ENDBRANCH   5   6
ENDBRANCH   4   5
ENDBRANCH   1   4
BRANCH   1  21
HETATM   21  C4  UNL     1      -0.093 -32.734  20.869  1.00  0.00     0.232 C 
BRANCH  21  22
HETATM   22  C5  UNL     1      -0.608 -31.363  21.238  1.00  0.00     0.027 C 
BRANCH  22  23
HETATM   23  C6  UNL     1       0.230 -30.373  20.422  1.00  0.00     0.003 C 
BRANCH  23  24
HETATM   24  C7  UNL     1       1.068 -31.054  19.411  1.00  0.00     0.020 C 
BRANCH  24  25
HETATM   25  C8  UNL     1       0.705 -30.644  18.014  1.00  0.00     0.120 C 
BRANCH  25  26
HETATM   26  N3  UNL     1       0.640 -31.685  17.062  1.00  0.00    -0.389 N 
ATOM     27  H3  UNL     1       1.491 -31.851  16.524  1.00  0.00     0.159 HD
BRANCH  26  28
HETATM   28  C9  UNL     1      -0.461 -32.534  16.758  1.00  0.00     0.051 A 
HETATM   29  C10 UNL     1      -0.713 -33.720  17.400  1.00  0.00     0.054 A 
HETATM   30  C11 UNL     1      -1.793 -34.521  17.138  1.00  0.00     0.036 A 
HETATM   31 CL1  UNL     1      -2.057 -36.036  18.008  1.00  0.00    -0.084 Cl
HETATM   32  C12 UNL     1      -2.691 -34.120  16.170  1.00  0.00     0.026 A 
HETATM   33  C13 UNL     1      -2.467 -32.929  15.504  1.00  0.00     0.028 A 
HETATM   34  C14 UNL     1      -1.385 -32.142  15.777  1.00  0.00     0.060 A 
HETATM   35 CL2  UNL     1      -1.121 -30.629  14.919  1.00  0.00    -0.082 Cl
ENDBRANCH  26  28
ENDBRANCH  25  26
ENDBRANCH  24  25
ENDBRANCH  23  24
ENDBRANCH  22  23
ENDBRANCH  21  22
ENDBRANCH   1  21
TORSDOF 14
ENDMDL
MODEL 4
REMARK VINA RESULT: -6.748699727      2.505      4.273
REMARK  14 active torsions:
REMARK  status: ('A' for Active; 'I' for Inactive)
REMARK    1  A    between atoms: O1_1  and  C1_3 
REMARK    2  A    between atoms: C1_3  and  N1_4 
REMARK    3  A    between atoms: C1_3  and  N4_27 
REMARK    4  A    between atoms: N1_4  and  C2_7 
REMARK    5  A    between atoms: C2_7  and  C3_8 
REMARK    6  A    between atoms: C3_8  and  N2_9 
REMARK    7  A    between atoms: N2_9  and  C4_12 
REMARK    8  A    between atoms: C4_12  and  C5_13 
REMARK    9  A    between atoms: C5_13  and  C6_14 
REMARK   10  A    between atoms: C6_14  and  C7_15 
REMARK   11  A    between atoms: C7_15  and  C8_16 
REMARK   12  A    between atoms: C8_16  and  N3_17 
REMARK   13  A    between atoms: N3_17  and  C9_19 
REMARK   14  A    between atoms: N4_27  and  C15_29 
ROOT
HETATM    1  N2  UNL     1      -1.113 -37.125  18.503  1.00  0.00    -0.074 N 
ATOM      2  H21 UNL     1      -0.575 -36.271  18.354  1.00  0.00     0.277 HD
ATOM      3  H22 UNL     1      -2.024 -36.716  18.710  1.00  0.00     0.277 HD
ENDROOT
BRANCH   1   4
HETATM    4  C3  UNL     1      -0.606 -37.861  19.646  1.00  0.00     0.260 C 
BRANCH   4   5
HETATM    5  C2  UNL     1       0.616 -37.111  20.141  1.00  0.00     0.265 C 
BRANCH   5   6
HETATM    6  N1  UNL     1       0.356 -36.361  21.328  1.00  0.00    -0.029 N 
ATOM      7  H12 UNL     1       0.764 -36.826  22.138  1.00  0.00     0.282 HD
ATOM      8  H11 UNL     1      -0.633 -36.417  21.573  1.00  0.00     0.282 HD
BRANCH   6   9
HETATM    9  C1  UNL     1       0.777 -35.000  21.273  1.00  0.00     0.427 C 
BRANCH   9  10
HETATM   10  O1  UNL     1       1.307 -34.627  22.530  1.00  0.00    -0.354 OA
ATOM     11  H1  UNL     1       1.998 -35.233  22.769  1.00  0.00     0.214 HD
ENDBRANCH   9  10
BRANCH   9  12
HETATM   12  N4  UNL     1      -0.231 -34.066  20.929  1.00  0.00    -0.328 N 
ATOM     13  H4  UNL     1      -1.198 -34.378  20.834  1.00  0.00     0.165 HD
BRANCH  12  14
HETATM   14  C15 UNL     1       0.093 -32.704  20.715  1.00  0.00     0.103 A 
HETATM   15  C16 UNL     1      -0.781 -31.661  20.979  1.00  0.00     0.048 A 
HETATM   16  C17 UNL     1      -0.449 -30.344  20.759  1.00  0.00     0.005 A 
HETATM   17  C18 UNL     1       0.794 -30.052  20.258  1.00  0.00     0.017 A 
HETATM   18  C19 UNL     1       1.676 -31.097  19.991  1.00  0.00     0.089 A 
HETATM   19  N5  UNL     1       1.312 -32.349  20.219  1.00  0.00    -0.352 N 
ATOM     20  H5  UNL     1       1.982 -33.090  20.013  1.00  0.00     0.166 HD
ENDBRANCH  12  14
ENDBRANCH   9  12
ENDBRANCH   6   9
ENDBRANCH   5   6
ENDBRANCH   4   5
ENDBRANCH   1   4
BRANCH   1  21
HETATM   21  C4  UNL     1      -1.166 -37.906  17.309  1.00  0.00     0.232 C 
BRANCH  21  22
HETATM   22  C5  UNL     1      -0.878 -37.137  16.041  1.00  0.00     0.027 C 
BRANCH  22  23
HETATM   23  C6  UNL     1      -2.246 -36.728  15.486  1.00  0.00     0.003 C 
BRANCH  23  24
HETATM   24  C7  UNL     1      -2.337 -35.271  15.246  1.00  0.00     0.020 C 
BRANCH  24  25
HETATM   25  C8  UNL     1      -2.652 -34.514  16.503  1.00  0.00     0.120 C 
BRANCH  25  26
HETATM   26  N3  UNL     1      -1.838 -33.392  16.768  1.00  0.00    -0.389 N 
ATOM     27  H3  UNL     1      -2.327 -32.547  17.066  1.00  0.00     0.159 HD
BRANCH  26  28
HETATM   28  C9  UNL     1      -0.422 -33.288  16.673  1.00  0.00     0.051 A 
HETATM   29  C10 UNL     1       0.451 -34.120  17.328  1.00  0.00     0.054 A 
HETATM   30  C11 UNL     1       1.815 -34.049  17.211  1.00  0.00     0.036 A 
HETATM   31 CL1  UNL     1       2.879 -35.158  18.083  1.00  0.00    -0.084 Cl
HETATM   32  C12 UNL     1       2.355 -33.086  16.383  1.00  0.00     0.026 A 
HETATM   33  C13 UNL     1       1.503 -32.232  15.708  1.00  0.00     0.028 A 
HETATM   34  C14 UNL     1       0.146 -32.316  15.837  1.00  0.00     0.060 A 
HETATM   35 CL2  UNL     1      -0.919 -31.219  14.966  1.00  0.00    -0.082 Cl
ENDBRANCH  26  28
ENDBRANCH  25  26
ENDBRANCH  24  25
ENDBRANCH  23  24
ENDBRANCH  22  23
ENDBRANCH  21  22
ENDBRANCH   1  21
TORSDOF 14
ENDMDL
MODEL 5
REMARK VINA RESULT: -6.732354428      2.272      4.022
REMARK  14 active torsions:
REMARK  status: ('A' for Active; 'I' for Inactive)
REMARK    1  A    between atoms: O1_1  and  C1_3 
REMARK    2  A    between atoms: C1_3  and  N1_4 
REMARK    3  A    between atoms: C1_3  and  N4_27 
REMARK    4  A    between atoms: N1_4  and  C2_7 
REMARK    5  A    between atoms: C2_7  and  C3_8 
REMARK    6  A    between atoms: C3_8  and  N2_9 
REMARK    7  A    between atoms: N2_9  and  C4_12 
REMARK    8  A    between atoms: C4_12  and  C5_13 
REMARK    9  A    between atoms: C5_13  and  C6_14 
REMARK   10  A    between atoms: C6_14  and  C7_15 
REMARK   11  A    between atoms: C7_15  and  C8_16 
REMARK   12  A    between atoms: C8_16  and  N3_17 
REMARK   13  A    between atoms: N3_17  and  C9_19 
REMARK   14  A    between atoms: N4_27  and  C15_29 
ROOT
HETATM    1  N2  UNL     1       2.647 -36.588  17.863  1.00  0.00    -0.074 N 
ATOM      2  H21 UNL     1       3.537 -36.627  17.366  1.00  0.00     0.277 HD
ATOM      3  H22 UNL     1       2.991 -36.482  18.817  1.00  0.00     0.277 HD
ENDROOT
BRANCH   1   4
HETATM    4  C3  UNL     1       1.917 -37.833  17.713  1.00  0.00     0.260 C 
BRANCH   4   5
HETATM    5  C2  UNL     1       0.473 -37.538  18.072  1.00  0.00     0.265 C 
BRANCH   5   6
HETATM    6  N1  UNL     1       0.014 -38.315  19.179  1.00  0.00    -0.029 N 
ATOM      7  H12 UNL     1       0.136 -39.309  18.989  1.00  0.00     0.282 HD
ATOM      8  H11 UNL     1      -1.003 -38.273  19.245  1.00  0.00     0.282 HD
BRANCH   6   9
HETATM    9  C1  UNL     1       0.606 -37.972  20.429  1.00  0.00     0.427 C 
BRANCH   9  10
HETATM   10  O1  UNL     1       0.593 -39.105  21.276  1.00  0.00    -0.354 OA
ATOM     11  H1  UNL     1       0.275 -38.849  22.133  1.00  0.00     0.214 HD
ENDBRANCH   9  10
BRANCH   9  12
HETATM   12  N4  UNL     1      -0.012 -36.902  21.121  1.00  0.00    -0.328 N 
ATOM     13  H4  UNL     1      -0.857 -37.073  21.666  1.00  0.00     0.165 HD
BRANCH  12  14
HETATM   14  C15 UNL     1       0.533 -35.596  21.062  1.00  0.00     0.103 A 
HETATM   15  C16 UNL     1      -0.220 -34.465  20.785  1.00  0.00     0.048 A 
HETATM   16  C17 UNL     1       0.330 -33.206  20.726  1.00  0.00     0.005 A 
HETATM   17  C18 UNL     1       1.676 -33.063  20.949  1.00  0.00     0.017 A 
HETATM   18  C19 UNL     1       2.438 -34.197  21.228  1.00  0.00     0.089 A 
HETATM   19  N5  UNL     1       1.864 -35.388  21.275  1.00  0.00    -0.352 N 
ATOM     20  H5  UNL     1       2.450 -36.197  21.481  1.00  0.00     0.166 HD
ENDBRANCH  12  14
ENDBRANCH   9  12
ENDBRANCH   6   9
ENDBRANCH   5   6
ENDBRANCH   4   5
ENDBRANCH   1   4
BRANCH   1  21
HETATM   21  C4  UNL     1       1.893 -35.443  17.465  1.00  0.00     0.232 C 
BRANCH  21  22
HETATM   22  C5  UNL     1       2.632 -34.131  17.587  1.00  0.00     0.027 C 
BRANCH  22  23
HETATM   23  C6  UNL     1       2.508 -33.458  16.217  1.00  0.00     0.003 C 
BRANCH  23  24
HETATM   24  C7  UNL     1       2.460 -31.983  16.322  1.00  0.00     0.020 C 
BRANCH  24  25
HETATM   25  C8  UNL     1       1.612 -31.530  17.475  1.00  0.00     0.120 C 
BRANCH  25  26
HETATM   26  N3  UNL     1       0.250 -31.297  17.186  1.00  0.00    -0.389 N 
ATOM     27  H3  UNL     1      -0.063 -30.330  17.271  1.00  0.00     0.159 HD
BRANCH  26  28
HETATM   28  C9  UNL     1      -0.741 -32.239  16.791  1.00  0.00     0.051 A 
HETATM   29  C10 UNL     1      -1.065 -33.357  17.516  1.00  0.00     0.054 A 
HETATM   30  C11 UNL     1      -2.045 -34.247  17.160  1.00  0.00     0.036 A 
HETATM   31 CL1  UNL     1      -2.411 -35.667  18.146  1.00  0.00    -0.084 Cl
HETATM   32  C12 UNL     1      -2.757 -34.013  16.001  1.00  0.00     0.026 A 
HETATM   33  C13 UNL     1      -2.456 -32.894  15.247  1.00  0.00     0.028 A 
HETATM   34  C14 UNL     1      -1.476 -32.017  15.616  1.00  0.00     0.060 A 
HETATM   35 CL2  UNL     1      -1.111 -30.598  14.642  1.00  0.00    -0.082 Cl
ENDBRANCH  26  28
ENDBRANCH  25  26
ENDBRANCH  24  25
ENDBRANCH  23  24
ENDBRANCH  22  23
ENDBRANCH  21  22
ENDBRANCH   1  21
TORSDOF 14
ENDMDL
