MODEL 1
REMARK VINA RESULT: -8.078907570      0.000      0.000
REMARK  14 active torsions:
REMARK  status: ('A' for Active; 'I' for Inactive)
REMARK    1  A    between atoms: C2_2  and  C3_3 
REMARK    2  A    between atoms: C3_3  and  N1_4 
REMARK    3  A    between atoms: C3_3  and  C23_35 
REMARK       I    between atoms: N1_4  and  C4_6 
REMARK    4  A    between atoms: C4_6  and  C5_8 
REMARK       I    between atoms: N2_13  and  C10_14 
REMARK    5  A    between atoms: C10_14  and  C11_16 
REMARK    6  A    between atoms: C11_16  and  C12_17 
REMARK    7  A    between atoms: C11_16  and  N4_25 
REMARK    8  A    between atoms: C12_17  and  C13_18 
REMARK    9  A    between atoms: C13_18  and  C14_19 
REMARK   10  A    between atoms: C14_19  and  C15_20 
REMARK   11  A    between atoms: C15_20  and  N3_21 
REMARK       I    between atoms: N4_25  and  C16_27 
REMARK   12  A    between atoms: C16_27  and  C17_29 
REMARK   13  A    between atoms: C17_29  and  C18_30 
REMARK       I    between atoms: C23_35  and  N5_37 
REMARK   14  A    between atoms: C27_41  and  C28_42 
ROOT
HETATM    1  C5  UNL     1      30.531   6.262  13.361  1.00  0.00     0.179 C 
HETATM    2  C6  UNL     1      31.389   5.584  14.428  1.00  0.00     0.035 C 
HETATM    3  C7  UNL     1      31.850   6.592  15.454  1.00  0.00     0.004 C 
HETATM    4  C8  UNL     1      32.778   7.542  14.690  1.00  0.00     0.020 C 
HETATM    5  C9  UNL     1      31.909   8.331  13.763  1.00  0.00     0.127 C 
HETATM    6  N2  UNL     1      31.158   7.437  12.849  1.00  0.00    -0.337 N 
HETATM    7  C10 UNL     1      31.123   7.805  11.509  1.00  0.00     0.243 C 
HETATM    8  O2  UNL     1      31.735   8.909  11.213  1.00  0.00    -0.271 OA
ENDROOT
BRANCH   1   9
HETATM    9  C4  UNL     1      29.160   6.399  13.854  1.00  0.00     0.241 C 
HETATM   10  N1  UNL     1      27.955   6.297  13.164  1.00  0.00    -0.346 N 
ATOM     11  H1  UNL     1      27.982   6.094  12.165  1.00  0.00     0.163 HD
HETATM   12  O1  UNL     1      29.038   6.651  15.121  1.00  0.00    -0.271 OA
BRANCH  10  13
HETATM   13  C3  UNL     1      26.652   6.467  13.803  1.00  0.00     0.176 C 
BRANCH  13  14
HETATM   14  C2  UNL     1      25.845   5.194  13.694  1.00  0.00     0.030 C 
HETATM   15  C1  UNL     1      26.615   4.004  14.207  1.00  0.00     0.007 C 
ENDBRANCH  13  14
BRANCH  13  16
HETATM   16  C23 UNL     1      25.959   7.630  13.238  1.00  0.00     0.243 C 
HETATM   17  O4  UNL     1      25.273   7.495  12.197  1.00  0.00    -0.271 OA
HETATM   18  N5  UNL     1      26.018   8.945  13.809  1.00  0.00    -0.337 N 
HETATM   19  C24 UNL     1      26.776   9.377  14.961  1.00  0.00     0.127 C 
HETATM   20  C27 UNL     1      25.298  10.105  13.332  1.00  0.00     0.176 C 
HETATM   21  C25 UNL     1      27.249  10.756  14.544  1.00  0.00     0.022 C 
HETATM   22  C26 UNL     1      26.302  11.217  13.469  1.00  0.00     0.036 C 
BRANCH  20  23
HETATM   23  C28 UNL     1      24.127  10.433  14.202  1.00  0.00     0.254 C 
HETATM   24  N6  UNL     1      23.879  11.734  14.701  1.00  0.00    -0.060 NA
HETATM   25  O5  UNL     1      23.298   9.522  14.528  1.00  0.00    -0.275 OA
ENDBRANCH  20  23
ENDBRANCH  13  16
ENDBRANCH  10  13
ENDBRANCH   1   9
BRANCH   7  26
HETATM   26  C11 UNL     1      30.497   7.153  10.350  1.00  0.00     0.176 C 
BRANCH  26  27
HETATM   27  C12 UNL     1      31.426   6.691   9.277  1.00  0.00     0.035 C 
BRANCH  27  28
HETATM   28  C13 UNL     1      30.929   6.679   7.879  1.00  0.00     0.004 C 
BRANCH  28  29
HETATM   29  C14 UNL     1      31.402   5.413   7.163  1.00  0.00     0.027 C 
BRANCH  29  30
HETATM   30  C15 UNL     1      31.289   4.249   8.144  1.00  0.00     0.229 C 
BRANCH  30  31
HETATM   31  N3  UNL     1      30.199   3.380   7.823  1.00  0.00    -0.079 N 
ATOM     32  H33 UNL     1      29.522   3.844   7.218  1.00  0.00     0.274 HD
ATOM     33  H32 UNL     1      30.493   2.634   7.193  1.00  0.00     0.274 HD
ATOM     34  H31 UNL     1      29.751   3.003   8.658  1.00  0.00     0.274 HD
ENDBRANCH  30  31
ENDBRANCH  29  30
ENDBRANCH  28  29
ENDBRANCH  27  28
ENDBRANCH  26  27
BRANCH  26  35
HETATM   35  N4  UNL     1      29.708   8.222   9.680  1.00  0.00    -0.348 N 
HETATM   36  C16 UNL     1      28.302   8.210   9.599  1.00  0.00     0.218 C 
HETATM   37  O3  UNL     1      27.564   7.325  10.075  1.00  0.00    -0.274 OA
ATOM     38  H4  UNL     1      30.210   9.003   9.258  1.00  0.00     0.163 HD
BRANCH  36  39
HETATM   39  C17 UNL     1      27.597   9.342   8.890  1.00  0.00     0.107 C 
BRANCH  39  40
HETATM   40  C18 UNL     1      26.752  10.134   9.892  1.00  0.00    -0.006 C 
HETATM   41  C19 UNL     1      27.089  11.587   9.838  1.00  0.00     0.005 C 
HETATM   42  C20 UNL     1      25.863  12.287   9.282  1.00  0.00     0.000 C 
HETATM   43  C21 UNL     1      24.720  11.383   9.651  1.00  0.00     0.000 C 
HETATM   44  C22 UNL     1      25.316  10.025   9.530  1.00  0.00     0.005 C 
ENDBRANCH  39  40
ENDBRANCH  36  39
ENDBRANCH  26  35
ENDBRANCH   7  26
TORSDOF 14
ENDMDL
MODEL 2
REMARK VINA RESULT: -8.056649883      1.923      5.815
REMARK  14 active torsions:
REMARK  status: ('A' for Active; 'I' for Inactive)
REMARK    1  A    between atoms: C2_2  and  C3_3 
REMARK    2  A    between atoms: C3_3  and  N1_4 
REMARK    3  A    between atoms: C3_3  and  C23_35 
REMARK       I    between atoms: N1_4  and  C4_6 
REMARK    4  A    between atoms: C4_6  and  C5_8 
REMARK       I    between atoms: N2_13  and  C10_14 
REMARK    5  A    between atoms: C10_14  and  C11_16 
REMARK    6  A    between atoms: C11_16  and  C12_17 
REMARK    7  A    between atoms: C11_16  and  N4_25 
REMARK    8  A    between atoms: C12_17  and  C13_18 
REMARK    9  A    between atoms: C13_18  and  C14_19 
REMARK   10  A    between atoms: C14_19  and  C15_20 
REMARK   11  A    between atoms: C15_20  and  N3_21 
REMARK       I    between atoms: N4_25  and  C16_27 
REMARK   12  A    between atoms: C16_27  and  C17_29 
REMARK   13  A    between atoms: C17_29  and  C18_30 
REMARK       I    between atoms: C23_35  and  N5_37 
REMARK   14  A    between atoms: C27_41  and  C28_42 
ROOT
HETATM    1  C5  UNL     1      28.470  10.117  10.789  1.00  0.00     0.179 C 
HETATM    2  C6  UNL     1      27.735  11.343  10.250  1.00  0.00     0.035 C 
HETATM    3  C7  UNL     1      26.260  11.056  10.112  1.00  0.00     0.004 C 
HETATM    4  C8  UNL     1      26.163   9.980   9.025  1.00  0.00     0.020 C 
HETATM    5  C9  UNL     1      26.728   8.728   9.617  1.00  0.00     0.127 C 
HETATM    6  N2  UNL     1      28.126   8.936  10.067  1.00  0.00    -0.337 N 
HETATM    7  C10 UNL     1      29.041   7.944   9.735  1.00  0.00     0.243 C 
HETATM    8  O2  UNL     1      28.560   6.930   9.085  1.00  0.00    -0.271 OA
ENDROOT
BRANCH   1   9
HETATM    9  C4  UNL     1      28.335  10.071  12.246  1.00  0.00     0.241 C 
HETATM   10  N1  UNL     1      27.941   9.018  13.068  1.00  0.00    -0.346 N 
ATOM     11  H1  UNL     1      27.705   8.126  12.635  1.00  0.00     0.163 HD
HETATM   12  O1  UNL     1      28.626  11.168  12.875  1.00  0.00    -0.271 OA
BRANCH  10  13
HETATM   13  C3  UNL     1      27.850   9.131  14.521  1.00  0.00     0.176 C 
BRANCH  13  14
HETATM   14  C2  UNL     1      29.230   9.240  15.126  1.00  0.00     0.030 C 
HETATM   15  C1  UNL     1      29.172   9.290  16.632  1.00  0.00     0.007 C 
ENDBRANCH  13  14
BRANCH  13  16
HETATM   16  C23 UNL     1      27.077   8.010  15.068  1.00  0.00     0.243 C 
HETATM   17  O4  UNL     1      26.062   8.243  15.767  1.00  0.00    -0.271 OA
HETATM   18  N5  UNL     1      27.414   6.632  14.854  1.00  0.00    -0.337 N 
HETATM   19  C24 UNL     1      28.553   6.099  14.141  1.00  0.00     0.127 C 
HETATM   20  C27 UNL     1      26.646   5.495  15.310  1.00  0.00     0.176 C 
HETATM   21  C25 UNL     1      28.934   4.899  14.985  1.00  0.00     0.022 C 
HETATM   22  C26 UNL     1      27.701   4.522  15.760  1.00  0.00     0.036 C 
BRANCH  20  23
HETATM   23  C28 UNL     1      25.878   4.856  14.197  1.00  0.00     0.254 C 
HETATM   24  N6  UNL     1      25.248   5.598  13.170  1.00  0.00    -0.060 NA
HETATM   25  O5  UNL     1      25.766   3.587  14.144  1.00  0.00    -0.275 OA
ENDBRANCH  20  23
ENDBRANCH  13  16
ENDBRANCH  10  13
ENDBRANCH   1   9
BRANCH   7  26
HETATM   26  C11 UNL     1      30.482   7.838  10.002  1.00  0.00     0.176 C 
BRANCH  26  27
HETATM   27  C12 UNL     1      31.170   6.646   9.424  1.00  0.00     0.035 C 
BRANCH  27  28
HETATM   28  C13 UNL     1      31.711   6.751   8.047  1.00  0.00     0.004 C 
BRANCH  28  29
HETATM   29  C14 UNL     1      31.676   5.383   7.362  1.00  0.00     0.027 C 
BRANCH  29  30
HETATM   30  C15 UNL     1      31.106   4.376   8.356  1.00  0.00     0.229 C 
BRANCH  30  31
HETATM   31  N3  UNL     1      30.258   3.413   7.719  1.00  0.00    -0.079 N 
ATOM     32  H33 UNL     1      29.503   3.868   7.208  1.00  0.00     0.274 HD
ATOM     33  H32 UNL     1      30.733   2.961   6.938  1.00  0.00     0.274 HD
ATOM     34  H31 UNL     1      29.897   2.726   8.380  1.00  0.00     0.274 HD
ENDBRANCH  30  31
ENDBRANCH  29  30
ENDBRANCH  28  29
ENDBRANCH  27  28
ENDBRANCH  26  27
BRANCH  26  35
HETATM   35  N4  UNL     1      30.593   7.617  11.469  1.00  0.00    -0.348 N 
HETATM   36  C16 UNL     1      31.504   8.310  12.289  1.00  0.00     0.218 C 
HETATM   37  O3  UNL     1      32.306   9.179  11.894  1.00  0.00    -0.274 OA
ATOM     38  H4  UNL     1      29.977   6.929  11.903  1.00  0.00     0.163 HD
BRANCH  36  39
HETATM   39  C17 UNL     1      31.540   8.006  13.768  1.00  0.00     0.107 C 
BRANCH  39  40
HETATM   40  C18 UNL     1      32.593   6.929  14.049  1.00  0.00    -0.006 C 
HETATM   41  C19 UNL     1      32.330   6.259  15.355  1.00  0.00     0.005 C 
HETATM   42  C20 UNL     1      31.938   4.830  15.028  1.00  0.00     0.000 C 
HETATM   43  C21 UNL     1      32.599   4.556  13.707  1.00  0.00     0.000 C 
HETATM   44  C22 UNL     1      32.512   5.870  13.011  1.00  0.00     0.005 C 
ENDBRANCH  39  40
ENDBRANCH  36  39
ENDBRANCH  26  35
ENDBRANCH   7  26
TORSDOF 14
ENDMDL
MODEL 3
REMARK VINA RESULT: -7.990662743      2.534      7.872
REMARK  14 active torsions:
REMARK  status: ('A' for Active; 'I' for Inactive)
REMARK    1  A    between atoms: C2_2  and  C3_3 
REMARK    2  A    between atoms: C3_3  and  N1_4 
REMARK    3  A    between atoms: C3_3  and  C23_35 
REMARK       I    between atoms: N1_4  and  C4_6 
REMARK    4  A    between atoms: C4_6  and  C5_8 
REMARK       I    between atoms: N2_13  and  C10_14 
REMARK    5  A    between atoms: C10_14  and  C11_16 
REMARK    6  A    between atoms: C11_16  and  C12_17 
REMARK    7  A    between atoms: C11_16  and  N4_25 
REMARK    8  A    between atoms: C12_17  and  C13_18 
REMARK    9  A    between atoms: C13_18  and  C14_19 
REMARK   10  A    between atoms: C14_19  and  C15_20 
REMARK   11  A    between atoms: C15_20  and  N3_21 
REMARK       I    between atoms: N4_25  and  C16_27 
REMARK   12  A    between atoms: C16_27  and  C17_29 
REMARK   13  A    between atoms: C17_29  and  C18_30 
REMARK       I    between atoms: C23_35  and  N5_37 
REMARK   14  A    between atoms: C27_41  and  C28_42 
ROOT
HETATM    1  C5  UNL     1      28.012   8.261  10.890  1.00  0.00     0.179 C 
HETATM    2  C6  UNL     1      26.486   8.282  10.824  1.00  0.00     0.035 C 
HETATM    3  C7  UNL     1      26.014   9.319   9.834  1.00  0.00     0.004 C 
HETATM    4  C8  UNL     1      26.440  10.664  10.433  1.00  0.00     0.020 C 
HETATM    5  C9  UNL     1      27.932  10.717  10.339  1.00  0.00     0.127 C 
HETATM    6  N2  UNL     1      28.550   9.573  11.052  1.00  0.00    -0.337 N 
HETATM    7  C10 UNL     1      29.639   9.862  11.866  1.00  0.00     0.243 C 
HETATM    8  O2  UNL     1      30.008  11.105  11.891  1.00  0.00    -0.271 OA
ENDROOT
BRANCH   1   9
HETATM    9  C4  UNL     1      28.536   7.457   9.785  1.00  0.00     0.241 C 
HETATM   10  N1  UNL     1      29.453   6.409   9.807  1.00  0.00    -0.346 N 
ATOM     11  H1  UNL     1      29.841   6.122  10.705  1.00  0.00     0.163 HD
HETATM   12  O1  UNL     1      28.084   7.755   8.606  1.00  0.00    -0.271 OA
BRANCH  10  13
HETATM   13  C3  UNL     1      29.885   5.701   8.605  1.00  0.00     0.176 C 
BRANCH  13  14
HETATM   14  C2  UNL     1      30.329   4.300   8.953  1.00  0.00     0.030 C 
HETATM   15  C1  UNL     1      30.799   4.207  10.383  1.00  0.00     0.007 C 
ENDBRANCH  13  14
BRANCH  13  16
HETATM   16  C23 UNL     1      30.923   6.471   7.910  1.00  0.00     0.243 C 
HETATM   17  O4  UNL     1      31.686   7.215   8.572  1.00  0.00    -0.271 OA
HETATM   18  N5  UNL     1      31.127   6.431   6.491  1.00  0.00    -0.337 N 
HETATM   19  C24 UNL     1      30.357   5.707   5.505  1.00  0.00     0.127 C 
HETATM   20  C27 UNL     1      32.179   7.114   5.770  1.00  0.00     0.176 C 
HETATM   21  C25 UNL     1      30.314   6.680   4.344  1.00  0.00     0.022 C 
HETATM   22  C26 UNL     1      31.485   7.607   4.530  1.00  0.00     0.036 C 
BRANCH  20  23
HETATM   23  C28 UNL     1      33.265   6.177   5.347  1.00  0.00     0.254 C 
HETATM   24  N6  UNL     1      33.880   5.260   6.231  1.00  0.00    -0.060 NA
HETATM   25  O5  UNL     1      33.678   6.182   4.140  1.00  0.00    -0.275 OA
ENDBRANCH  20  23
ENDBRANCH  13  16
ENDBRANCH  10  13
ENDBRANCH   1   9
BRANCH   7  26
HETATM   26  C11 UNL     1      30.464   8.989  12.713  1.00  0.00     0.176 C 
BRANCH  26  27
HETATM   27  C12 UNL     1      31.409   8.083  11.996  1.00  0.00     0.035 C 
BRANCH  27  28
HETATM   28  C13 UNL     1      31.972   6.930  12.741  1.00  0.00     0.004 C 
BRANCH  28  29
HETATM   29  C14 UNL     1      32.985   7.417  13.779  1.00  0.00     0.027 C 
BRANCH  29  30
HETATM   30  C15 UNL     1      32.478   7.006  15.157  1.00  0.00     0.229 C 
BRANCH  30  31
HETATM   31  N3  UNL     1      32.179   8.138  15.980  1.00  0.00    -0.079 N 
ATOM     32  H33 UNL     1      32.127   7.877  16.964  1.00  0.00     0.274 HD
ATOM     33  H32 UNL     1      32.969   8.782  16.026  1.00  0.00     0.274 HD
ATOM     34  H31 UNL     1      31.329   8.616  15.679  1.00  0.00     0.274 HD
ENDBRANCH  30  31
ENDBRANCH  29  30
ENDBRANCH  28  29
ENDBRANCH  27  28
ENDBRANCH  26  27
BRANCH  26  35
HETATM   35  N4  UNL     1      29.506   8.045  13.350  1.00  0.00    -0.348 N 
HETATM   36  C16 UNL     1      29.001   8.219  14.653  1.00  0.00     0.218 C 
HETATM   37  O3  UNL     1      29.283   9.168  15.411  1.00  0.00    -0.274 OA
ATOM     38  H4  UNL     1      29.199   7.232  12.816  1.00  0.00     0.163 HD
BRANCH  36  39
HETATM   39  C17 UNL     1      28.036   7.198  15.209  1.00  0.00     0.107 C 
BRANCH  39  40
HETATM   40  C18 UNL     1      27.622   6.222  14.104  1.00  0.00    -0.006 C 
HETATM   41  C19 UNL     1      28.220   4.875  14.334  1.00  0.00     0.005 C 
HETATM   42  C20 UNL     1      27.065   3.946  14.654  1.00  0.00     0.000 C 
HETATM   43  C21 UNL     1      25.881   4.579  13.979  1.00  0.00     0.000 C 
HETATM   44  C22 UNL     1      26.148   6.035  14.131  1.00  0.00     0.005 C 
ENDBRANCH  39  40
ENDBRANCH  36  39
ENDBRANCH  26  35
ENDBRANCH   7  26
TORSDOF 14
ENDMDL
MODEL 4
REMARK VINA RESULT: -7.972968896      2.480      5.019
REMARK  14 active torsions:
REMARK  status: ('A' for Active; 'I' for Inactive)
REMARK    1  A    between atoms: C2_2  and  C3_3 
REMARK    2  A    between atoms: C3_3  and  N1_4 
REMARK    3  A    between atoms: C3_3  and  C23_35 
REMARK       I    between atoms: N1_4  and  C4_6 
REMARK    4  A    between atoms: C4_6  and  C5_8 
REMARK       I    between atoms: N2_13  and  C10_14 
REMARK    5  A    between atoms: C10_14  and  C11_16 
REMARK    6  A    between atoms: C11_16  and  C12_17 
REMARK    7  A    between atoms: C11_16  and  N4_25 
REMARK    8  A    between atoms: C12_17  and  C13_18 
REMARK    9  A    between atoms: C13_18  and  C14_19 
REMARK   10  A    between atoms: C14_19  and  C15_20 
REMARK   11  A    between atoms: C15_20  and  N3_21 
REMARK       I    between atoms: N4_25  and  C16_27 
REMARK   12  A    between atoms: C16_27  and  C17_29 
REMARK   13  A    between atoms: C17_29  and  C18_30 
REMARK       I    between atoms: C23_35  and  N5_37 
REMARK   14  A    between atoms: C27_41  and  C28_42 
ROOT
HETATM    1  C5  UNL     1      28.601   8.767  14.509  1.00  0.00     0.179 C 
HETATM    2  C6  UNL     1      27.803   9.176  15.745  1.00  0.00     0.035 C 
HETATM    3  C7  UNL     1      27.862  10.672  15.940  1.00  0.00     0.004 C 
HETATM    4  C8  UNL     1      29.331  10.976  16.252  1.00  0.00     0.020 C 
HETATM    5  C9  UNL     1      30.092  10.739  14.986  1.00  0.00     0.127 C 
HETATM    6  N2  UNL     1      29.904   9.349  14.505  1.00  0.00    -0.337 N 
HETATM    7  C10 UNL     1      31.045   8.678  14.081  1.00  0.00     0.243 C 
HETATM    8  O2  UNL     1      32.148   9.357  14.133  1.00  0.00    -0.271 OA
ENDROOT
BRANCH   1   9
HETATM    9  C4  UNL     1      27.781   8.962  13.313  1.00  0.00     0.241 C 
HETATM   10  N1  UNL     1      28.101   9.582  12.108  1.00  0.00    -0.346 N 
ATOM     11  H1  UNL     1      29.037   9.970  11.995  1.00  0.00     0.163 HD
HETATM   12  O1  UNL     1      26.574   8.488  13.373  1.00  0.00    -0.271 OA
BRANCH  10  13
HETATM   13  C3  UNL     1      27.160   9.704  10.998  1.00  0.00     0.176 C 
BRANCH  13  14
HETATM   14  C2  UNL     1      27.867   9.471   9.683  1.00  0.00     0.030 C 
HETATM   15  C1  UNL     1      26.920   9.592   8.516  1.00  0.00     0.007 C 
ENDBRANCH  13  14
BRANCH  13  16
HETATM   16  C23 UNL     1      26.476  11.001  11.054  1.00  0.00     0.243 C 
HETATM   17  O4  UNL     1      27.153  12.056  11.044  1.00  0.00    -0.271 OA
HETATM   18  N5  UNL     1      25.051  11.146  11.124  1.00  0.00    -0.337 N 
HETATM   19  C24 UNL     1      24.057  10.100  11.206  1.00  0.00     0.127 C 
HETATM   20  C27 UNL     1      24.329  12.399  11.109  1.00  0.00     0.176 C 
HETATM   21  C25 UNL     1      23.040  10.688  12.165  1.00  0.00     0.022 C 
HETATM   22  C26 UNL     1      23.234  12.180  12.118  1.00  0.00     0.036 C 
BRANCH  20  23
HETATM   23  C28 UNL     1      23.686  12.658   9.784  1.00  0.00     0.254 C 
HETATM   24  N6  UNL     1      24.233  12.204   8.560  1.00  0.00    -0.060 NA
HETATM   25  O5  UNL     1      22.596  13.316   9.721  1.00  0.00    -0.275 OA
ENDBRANCH  20  23
ENDBRANCH  13  16
ENDBRANCH  10  13
ENDBRANCH   1   9
BRANCH   7  26
HETATM   26  C11 UNL     1      31.221   7.311  13.571  1.00  0.00     0.176 C 
BRANCH  26  27
HETATM   27  C12 UNL     1      32.448   6.594  14.028  1.00  0.00     0.035 C 
BRANCH  27  28
HETATM   28  C13 UNL     1      32.777   5.295  13.391  1.00  0.00     0.004 C 
BRANCH  28  29
HETATM   29  C14 UNL     1      31.598   4.330  13.526  1.00  0.00     0.027 C 
BRANCH  29  30
HETATM   30  C15 UNL     1      31.263   3.803  12.134  1.00  0.00     0.229 C 
BRANCH  30  31
HETATM   31  N3  UNL     1      29.850   3.725  11.914  1.00  0.00    -0.079 N 
ATOM     32  H33 UNL     1      29.371   3.340  12.728  1.00  0.00     0.274 HD
ATOM     33  H32 UNL     1      29.426   4.652  11.901  1.00  0.00     0.274 HD
ATOM     34  H31 UNL     1      29.623   3.201  11.069  1.00  0.00     0.274 HD
ENDBRANCH  30  31
ENDBRANCH  29  30
ENDBRANCH  28  29
ENDBRANCH  27  28
ENDBRANCH  26  27
BRANCH  26  35
HETATM   35  N4  UNL     1      31.443   7.466  12.108  1.00  0.00    -0.348 N 
HETATM   36  C16 UNL     1      30.474   7.137  11.140  1.00  0.00     0.218 C 
HETATM   37  O3  UNL     1      29.336   6.693  11.387  1.00  0.00    -0.274 OA
ATOM     38  H4  UNL     1      32.342   7.830  11.790  1.00  0.00     0.163 HD
BRANCH  36  39
HETATM   39  C17 UNL     1      30.803   7.327   9.678  1.00  0.00     0.107 C 
BRANCH  39  40
HETATM   40  C18 UNL     1      30.149   6.215   8.852  1.00  0.00    -0.006 C 
HETATM   41  C19 UNL     1      29.878   6.678   7.460  1.00  0.00     0.005 C 
HETATM   42  C20 UNL     1      30.799   5.877   6.559  1.00  0.00     0.000 C 
HETATM   43  C21 UNL     1      31.052   4.606   7.320  1.00  0.00     0.000 C 
HETATM   44  C22 UNL     1      31.083   5.066   8.735  1.00  0.00     0.005 C 
ENDBRANCH  39  40
ENDBRANCH  36  39
ENDBRANCH  26  35
ENDBRANCH   7  26
TORSDOF 14
ENDMDL
MODEL 5
REMARK VINA RESULT: -7.935797793      2.532      5.159
REMARK  14 active torsions:
REMARK  status: ('A' for Active; 'I' for Inactive)
REMARK    1  A    between atoms: C2_2  and  C3_3 
REMARK    2  A    between atoms: C3_3  and  N1_4 
REMARK    3  A    between atoms: C3_3  and  C23_35 
REMARK       I    between atoms: N1_4  and  C4_6 
REMARK    4  A    between atoms: C4_6  and  C5_8 
REMARK       I    between atoms: N2_13  and  C10_14 
REMARK    5  A    between atoms: C10_14  and  C11_16 
REMARK    6  A    between atoms: C11_16  and  C12_17 
REMARK    7  A    between atoms: C11_16  and  N4_25 
REMARK    8  A    between atoms: C12_17  and  C13_18 
REMARK    9  A    between atoms: C13_18  and  C14_19 
REMARK   10  A    between atoms: C14_19  and  C15_20 
REMARK   11  A    between atoms: C15_20  and  N3_21 
REMARK       I    between atoms: N4_25  and  C16_27 
REMARK   12  A    between atoms: C16_27  and  C17_29 
REMARK   13  A    between atoms: C17_29  and  C18_30 
REMARK       I    between atoms: C23_35  and  N5_37 
REMARK   14  A    between atoms: C27_41  and  C28_42 
ROOT
HETATM    1  C5  UNL     1      28.930   8.776  13.022  1.00  0.00     0.179 C 
HETATM    2  C6  UNL     1      28.426   8.945  14.455  1.00  0.00     0.035 C 
HETATM    3  C7  UNL     1      28.575  10.379  14.901  1.00  0.00     0.004 C 
HETATM    4  C8  UNL     1      30.086  10.631  14.941  1.00  0.00     0.020 C 
HETATM    5  C9  UNL     1      30.553  10.636  13.519  1.00  0.00     0.127 C 
HETATM    6  N2  UNL     1      30.221   9.358  12.845  1.00  0.00    -0.337 N 
HETATM    7  C10 UNL     1      31.223   8.784  12.072  1.00  0.00     0.243 C 
HETATM    8  O2  UNL     1      32.334   9.449  12.008  1.00  0.00    -0.271 OA
ENDROOT
BRANCH   1   9
HETATM    9  C4  UNL     1      27.881   9.184  12.086  1.00  0.00     0.241 C 
HETATM   10  N1  UNL     1      27.958  10.022  10.978  1.00  0.00    -0.346 N 
ATOM     11  H1  UNL     1      28.860  10.435  10.742  1.00  0.00     0.163 HD
HETATM   12  O1  UNL     1      26.701   8.694  12.313  1.00  0.00    -0.271 OA
BRANCH  10  13
HETATM   13  C3  UNL     1      26.808  10.340  10.136  1.00  0.00     0.176 C 
BRANCH  13  14
HETATM   14  C2  UNL     1      27.216  10.376   8.682  1.00  0.00     0.030 C 
HETATM   15  C1  UNL     1      27.580   9.003   8.175  1.00  0.00     0.007 C 
ENDBRANCH  13  14
BRANCH  13  16
HETATM   16  C23 UNL     1      26.184  11.591  10.582  1.00  0.00     0.243 C 
HETATM   17  O4  UNL     1      26.886  12.624  10.696  1.00  0.00    -0.271 OA
HETATM   18  N5  UNL     1      24.792  11.714  10.908  1.00  0.00    -0.337 N 
HETATM   19  C24 UNL     1      23.789  10.674  10.914  1.00  0.00     0.127 C 
HETATM   20  C27 UNL     1      24.119  12.938  11.282  1.00  0.00     0.176 C 
HETATM   21  C25 UNL     1      22.953  11.033  12.127  1.00  0.00     0.022 C 
HETATM   22  C26 UNL     1      23.187  12.498  12.378  1.00  0.00     0.036 C 
BRANCH  20  23
HETATM   23  C28 UNL     1      23.288  13.483  10.164  1.00  0.00     0.254 C 
HETATM   24  N6  UNL     1      23.734  13.526   8.822  1.00  0.00    -0.060 NA
HETATM   25  O5  UNL     1      22.120  13.938  10.400  1.00  0.00    -0.275 OA
ENDBRANCH  20  23
ENDBRANCH  13  16
ENDBRANCH  10  13
ENDBRANCH   1   9
BRANCH   7  26
HETATM   26  C11 UNL     1      31.242   7.536  11.296  1.00  0.00     0.176 C 
BRANCH  26  27
HETATM   27  C12 UNL     1      30.508   7.562   9.996  1.00  0.00     0.035 C 
BRANCH  27  28
HETATM   28  C13 UNL     1      31.053   6.765   8.870  1.00  0.00     0.004 C 
BRANCH  28  29
HETATM   29  C14 UNL     1      29.978   5.823   8.322  1.00  0.00     0.027 C 
BRANCH  29  30
HETATM   30  C15 UNL     1      30.274   4.421   8.844  1.00  0.00     0.229 C 
BRANCH  30  31
HETATM   31  N3  UNL     1      30.218   3.438   7.804  1.00  0.00    -0.079 N 
ATOM     32  H33 UNL     1      29.590   3.728   7.055  1.00  0.00     0.274 HD
ATOM     33  H32 UNL     1      31.091   3.406   7.277  1.00  0.00     0.274 HD
ATOM     34  H31 UNL     1      29.968   2.517   8.162  1.00  0.00     0.274 HD
ENDBRANCH  30  31
ENDBRANCH  29  30
ENDBRANCH  28  29
ENDBRANCH  27  28
ENDBRANCH  26  27
BRANCH  26  35
HETATM   35  N4  UNL     1      30.464   6.560  12.106  1.00  0.00    -0.348 N 
HETATM   36  C16 UNL     1      30.954   5.289  12.465  1.00  0.00     0.218 C 
HETATM   37  O3  UNL     1      32.076   4.841  12.159  1.00  0.00    -0.274 OA
ATOM     38  H4  UNL     1      29.530   6.825  12.419  1.00  0.00     0.163 HD
BRANCH  36  39
HETATM   39  C17 UNL     1      30.080   4.371  13.286  1.00  0.00     0.107 C 
BRANCH  39  40
HETATM   40  C18 UNL     1      28.947   5.175  13.932  1.00  0.00    -0.006 C 
HETATM   41  C19 UNL     1      27.681   4.386  13.949  1.00  0.00     0.005 C 
HETATM   42  C20 UNL     1      27.387   4.086  15.407  1.00  0.00     0.000 C 
HETATM   43  C21 UNL     1      28.060   5.201  16.159  1.00  0.00     0.000 C 
HETATM   44  C22 UNL     1      29.283   5.458  15.351  1.00  0.00     0.005 C 
ENDBRANCH  39  40
ENDBRANCH  36  39
ENDBRANCH  26  35
ENDBRANCH   7  26
TORSDOF 14
ENDMDL
