MODEL 1
REMARK VINA RESULT: -9.197782158      0.000      0.000
REMARK  14 active torsions:
REMARK  status: ('A' for Active; 'I' for Inactive)
REMARK    1  A    between atoms: C2_2  and  N1_3 
REMARK    2  A    between atoms: C6_7  and  C7_8 
REMARK       I    between atoms: C7_8  and  N2_10 
REMARK    3  A    between atoms: N2_10  and  C8_12 
REMARK    4  A    between atoms: C8_12  and  C9_13 
REMARK    5  A    between atoms: C8_12  and  C14_22 
REMARK    6  A    between atoms: C9_13  and  C10_14 
REMARK    7  A    between atoms: C10_14  and  C11_15 
REMARK    8  A    between atoms: C11_15  and  C12_16 
REMARK    9  A    between atoms: C12_16  and  N3_17 
REMARK       I    between atoms: C14_22  and  N6_24 
REMARK   10  A    between atoms: N6_24  and  C15_26 
REMARK   11  A    between atoms: C15_26  and  C16_27 
REMARK   12  A    between atoms: C15_26  and  C23_34 
REMARK   13  A    between atoms: C16_27  and  C17_28 
REMARK       I    between atoms: C23_34  and  N7_36 
REMARK   14  A    between atoms: C26_39  and  O4_40 
ROOT
HETATM    1  C14 UNL     1      30.250   5.484   7.749  1.00  0.00     0.241 C 
HETATM    2  O2  UNL     1      30.078   4.447   8.486  1.00  0.00    -0.271 OA
HETATM    3  N6  UNL     1      30.124   6.804   8.199  1.00  0.00    -0.346 N 
ATOM      4  H6  UNL     1      30.270   7.571   7.543  1.00  0.00     0.163 HD
ENDROOT
BRANCH   1   5
HETATM    5  C8  UNL     1      30.612   5.110   6.329  1.00  0.00     0.176 C 
BRANCH   5   6
HETATM    6  N2  UNL     1      32.015   4.869   6.304  1.00  0.00    -0.346 N 
HETATM    7  C7  UNL     1      33.053   5.802   6.406  1.00  0.00     0.252 C 
HETATM    8  O1  UNL     1      32.761   7.028   6.544  1.00  0.00    -0.271 OA
ATOM      9  H2  UNL     1      32.299   3.896   6.198  1.00  0.00     0.163 HD
BRANCH   7  10
HETATM   10  C6  UNL     1      34.488   5.448   6.362  1.00  0.00     0.314 C 
HETATM   11  N1  UNL     1      34.734   4.133   5.871  1.00  0.00     0.101 N 
HETATM   12  C3  UNL     1      34.951   4.166   4.462  1.00  0.00     0.273 C 
HETATM   13  C4  UNL     1      35.613   5.511   4.254  1.00  0.00     0.033 C 
HETATM   14  C5  UNL     1      35.187   6.363   5.406  1.00  0.00     0.047 C 
BRANCH  11  15
HETATM   15  C2  UNL     1      35.903   3.578   6.522  1.00  0.00     0.269 C 
HETATM   16  C1  UNL     1      36.332   2.269   5.868  1.00  0.00     0.037 C 
ENDBRANCH  11  15
ENDBRANCH   7  10
ENDBRANCH   5   6
BRANCH   5  17
HETATM   17  C9  UNL     1      30.090   6.162   5.424  1.00  0.00     0.035 C 
BRANCH  17  18
HETATM   18  C10 UNL     1      30.255   5.796   3.953  1.00  0.00     0.004 C 
BRANCH  18  19
HETATM   19  C11 UNL     1      31.174   6.798   3.263  1.00  0.00     0.020 C 
BRANCH  19  20
HETATM   20  C12 UNL     1      30.839   8.168   3.833  1.00  0.00     0.122 C 
BRANCH  20  21
HETATM   21  N3  UNL     1      29.706   8.733   3.141  1.00  0.00    -0.367 N 
HETATM   22  C13 UNL     1      28.743   9.353   3.713  1.00  0.00     0.196 C 
HETATM   23  N4  UNL     1      28.742   9.525   5.122  1.00  0.00    -0.067 NA
HETATM   24  N5  UNL     1      27.702   9.836   2.881  1.00  0.00    -0.067 NA
ATOM     25  H3  UNL     1      29.670   8.631   2.126  1.00  0.00     0.161 HD
ENDBRANCH  20  21
ENDBRANCH  19  20
ENDBRANCH  18  19
ENDBRANCH  17  18
ENDBRANCH   5  17
ENDBRANCH   1   5
BRANCH   3  26
HETATM   26  C15 UNL     1      29.791   7.107   9.579  1.00  0.00     0.177 C 
BRANCH  26  27
HETATM   27  C16 UNL     1      31.035   7.453  10.335  1.00  0.00     0.039 C 
BRANCH  27  28
HETATM   28  C17 UNL     1      31.486   6.438  11.326  1.00  0.00    -0.012 C 
HETATM   29  C18 UNL     1      31.980   7.087  12.604  1.00  0.00     0.005 C 
HETATM   30  C19 UNL     1      32.435   6.008  13.560  1.00  0.00     0.000 C 
HETATM   31  C20 UNL     1      32.539   4.672  12.902  1.00  0.00     0.000 C 
HETATM   32  C21 UNL     1      31.316   4.162  12.244  1.00  0.00     0.000 C 
HETATM   33  C22 UNL     1      30.562   5.317  11.566  1.00  0.00     0.005 C 
ENDBRANCH  27  28
ENDBRANCH  26  27
BRANCH  26  34
HETATM   34  C23 UNL     1      28.686   8.073   9.633  1.00  0.00     0.242 C 
HETATM   35  O3  UNL     1      28.149   8.430   8.510  1.00  0.00    -0.271 OA
HETATM   36  N7  UNL     1      28.133   8.665  10.792  1.00  0.00    -0.350 N 
HETATM   37  C24 UNL     1      27.076   9.693  10.616  1.00  0.00     0.128 C 
HETATM   38  C28 UNL     1      28.533   8.254  12.094  1.00  0.00     0.128 C 
HETATM   39  C25 UNL     1      25.862   9.128  11.318  1.00  0.00     0.051 C 
HETATM   40  C26 UNL     1      26.219   9.012  12.780  1.00  0.00     0.121 C 
HETATM   41  C27 UNL     1      27.403   8.189  13.087  1.00  0.00     0.051 C 
BRANCH  40  42
HETATM   42  O4  UNL     1      25.071   8.490  13.413  1.00  0.00    -0.395 OA
ATOM     43  H4  UNL     1      25.138   7.545  13.327  1.00  0.00     0.210 HD
ENDBRANCH  40  42
ENDBRANCH  26  34
ENDBRANCH   3  26
TORSDOF 14
ENDMDL
MODEL 2
REMARK VINA RESULT: -9.138300560      1.490      5.289
REMARK  14 active torsions:
REMARK  status: ('A' for Active; 'I' for Inactive)
REMARK    1  A    between atoms: C2_2  and  N1_3 
REMARK    2  A    between atoms: C6_7  and  C7_8 
REMARK       I    between atoms: C7_8  and  N2_10 
REMARK    3  A    between atoms: N2_10  and  C8_12 
REMARK    4  A    between atoms: C8_12  and  C9_13 
REMARK    5  A    between atoms: C8_12  and  C14_22 
REMARK    6  A    between atoms: C9_13  and  C10_14 
REMARK    7  A    between atoms: C10_14  and  C11_15 
REMARK    8  A    between atoms: C11_15  and  C12_16 
REMARK    9  A    between atoms: C12_16  and  N3_17 
REMARK       I    between atoms: C14_22  and  N6_24 
REMARK   10  A    between atoms: N6_24  and  C15_26 
REMARK   11  A    between atoms: C15_26  and  C16_27 
REMARK   12  A    between atoms: C15_26  and  C23_34 
REMARK   13  A    between atoms: C16_27  and  C17_28 
REMARK       I    between atoms: C23_34  and  N7_36 
REMARK   14  A    between atoms: C26_39  and  O4_40 
ROOT
HETATM    1  C14 UNL     1      31.674   6.071   7.936  1.00  0.00     0.241 C 
HETATM    2  O2  UNL     1      31.543   4.903   8.452  1.00  0.00    -0.271 OA
HETATM    3  N6  UNL     1      31.057   7.227   8.429  1.00  0.00    -0.346 N 
ATOM      4  H6  UNL     1      31.209   8.115   7.952  1.00  0.00     0.163 HD
ENDROOT
BRANCH   1   5
HETATM    5  C8  UNL     1      32.582   6.052   6.727  1.00  0.00     0.176 C 
BRANCH   5   6
HETATM    6  N2  UNL     1      31.823   6.539   5.626  1.00  0.00    -0.346 N 
HETATM    7  C7  UNL     1      31.866   7.810   5.041  1.00  0.00     0.252 C 
HETATM    8  O1  UNL     1      32.669   8.672   5.512  1.00  0.00    -0.271 OA
ATOM      9  H2  UNL     1      31.165   5.880   5.211  1.00  0.00     0.163 HD
BRANCH   7  10
HETATM   10  C6  UNL     1      31.025   8.221   3.896  1.00  0.00     0.314 C 
HETATM   11  N1  UNL     1      29.743   7.599   3.881  1.00  0.00     0.101 N 
HETATM   12  C3  UNL     1      28.790   8.417   4.558  1.00  0.00     0.273 C 
HETATM   13  C4  UNL     1      29.287   9.818   4.275  1.00  0.00     0.033 C 
HETATM   14  C5  UNL     1      30.750   9.689   3.996  1.00  0.00     0.047 C 
BRANCH  11  15
HETATM   15  C2  UNL     1      29.313   7.398   2.512  1.00  0.00     0.269 C 
HETATM   16  C1  UNL     1      30.387   6.689   1.694  1.00  0.00     0.037 C 
ENDBRANCH  11  15
ENDBRANCH   7  10
ENDBRANCH   5   6
BRANCH   5  17
HETATM   17  C9  UNL     1      33.160   4.693   6.600  1.00  0.00     0.035 C 
BRANCH  17  18
HETATM   18  C10 UNL     1      34.582   4.716   6.048  1.00  0.00     0.004 C 
BRANCH  18  19
HETATM   19  C11 UNL     1      34.796   3.540   5.103  1.00  0.00     0.020 C 
BRANCH  19  20
HETATM   20  C12 UNL     1      36.208   3.030   5.347  1.00  0.00     0.122 C 
BRANCH  20  21
HETATM   21  N3  UNL     1      36.367   2.644   6.728  1.00  0.00    -0.367 N 
HETATM   22  C13 UNL     1      36.871   1.533   7.117  1.00  0.00     0.196 C 
HETATM   23  N4  UNL     1      37.323   0.582   6.164  1.00  0.00    -0.067 NA
HETATM   24  N5  UNL     1      36.943   1.311   8.515  1.00  0.00    -0.067 NA
ATOM     25  H3  UNL     1      36.055   3.300   7.444  1.00  0.00     0.161 HD
ENDBRANCH  20  21
ENDBRANCH  19  20
ENDBRANCH  18  19
ENDBRANCH  17  18
ENDBRANCH   5  17
ENDBRANCH   1   5
BRANCH   3  26
HETATM   26  C15 UNL     1      30.206   7.191   9.604  1.00  0.00     0.177 C 
BRANCH  26  27
HETATM   27  C16 UNL     1      30.986   7.626  10.806  1.00  0.00     0.039 C 
BRANCH  27  28
HETATM   28  C17 UNL     1      31.481   6.529  11.681  1.00  0.00    -0.012 C 
HETATM   29  C18 UNL     1      32.060   7.066  12.975  1.00  0.00     0.005 C 
HETATM   30  C19 UNL     1      32.556   5.908  13.811  1.00  0.00     0.000 C 
HETATM   31  C20 UNL     1      32.602   4.629  13.040  1.00  0.00     0.000 C 
HETATM   32  C21 UNL     1      31.335   4.187  12.418  1.00  0.00     0.000 C 
HETATM   33  C22 UNL     1      30.558   5.401  11.885  1.00  0.00     0.005 C 
ENDBRANCH  27  28
ENDBRANCH  26  27
BRANCH  26  34
HETATM   34  C23 UNL     1      28.943   7.891   9.338  1.00  0.00     0.242 C 
HETATM   35  O3  UNL     1      28.459   7.814   8.139  1.00  0.00    -0.271 OA
HETATM   36  N7  UNL     1      28.183   8.649  10.258  1.00  0.00    -0.350 N 
HETATM   37  C24 UNL     1      26.977   9.355   9.755  1.00  0.00     0.128 C 
HETATM   38  C28 UNL     1      28.527   8.696  11.638  1.00  0.00     0.128 C 
HETATM   39  C25 UNL     1      25.827   8.767  10.541  1.00  0.00     0.051 C 
HETATM   40  C26 UNL     1      26.058   9.126  11.988  1.00  0.00     0.121 C 
HETATM   41  C27 UNL     1      27.338   8.675  12.563  1.00  0.00     0.051 C 
BRANCH  40  42
HETATM   42  O4  UNL     1      24.971   8.573  12.697  1.00  0.00    -0.395 OA
ATOM     43  H4  UNL     1      24.826   9.151  13.438  1.00  0.00     0.210 HD
ENDBRANCH  40  42
ENDBRANCH  26  34
ENDBRANCH   3  26
TORSDOF 14
ENDMDL
MODEL 3
REMARK VINA RESULT: -9.095852975      0.981      1.376
REMARK  14 active torsions:
REMARK  status: ('A' for Active; 'I' for Inactive)
REMARK    1  A    between atoms: C2_2  and  N1_3 
REMARK    2  A    between atoms: C6_7  and  C7_8 
REMARK       I    between atoms: C7_8  and  N2_10 
REMARK    3  A    between atoms: N2_10  and  C8_12 
REMARK    4  A    between atoms: C8_12  and  C9_13 
REMARK    5  A    between atoms: C8_12  and  C14_22 
REMARK    6  A    between atoms: C9_13  and  C10_14 
REMARK    7  A    between atoms: C10_14  and  C11_15 
REMARK    8  A    between atoms: C11_15  and  C12_16 
REMARK    9  A    between atoms: C12_16  and  N3_17 
REMARK       I    between atoms: C14_22  and  N6_24 
REMARK   10  A    between atoms: N6_24  and  C15_26 
REMARK   11  A    between atoms: C15_26  and  C16_27 
REMARK   12  A    between atoms: C15_26  and  C23_34 
REMARK   13  A    between atoms: C16_27  and  C17_28 
REMARK       I    between atoms: C23_34  and  N7_36 
REMARK   14  A    between atoms: C26_39  and  O4_40 
ROOT
HETATM    1  C14 UNL     1      30.419   5.202   8.316  1.00  0.00     0.241 C 
HETATM    2  O2  UNL     1      30.269   4.069   8.901  1.00  0.00    -0.271 OA
HETATM    3  N6  UNL     1      30.375   6.440   8.969  1.00  0.00    -0.346 N 
ATOM      4  H6  UNL     1      30.495   7.294   8.425  1.00  0.00     0.163 HD
ENDROOT
BRANCH   1   5
HETATM    5  C8  UNL     1      30.652   5.041   6.831  1.00  0.00     0.176 C 
BRANCH   5   6
HETATM    6  N2  UNL     1      32.047   4.818   6.648  1.00  0.00    -0.346 N 
HETATM    7  C7  UNL     1      33.084   5.757   6.685  1.00  0.00     0.252 C 
HETATM    8  O1  UNL     1      32.799   6.972   6.909  1.00  0.00    -0.271 OA
ATOM      9  H2  UNL     1      32.325   3.853   6.469  1.00  0.00     0.163 HD
BRANCH   7  10
HETATM   10  C6  UNL     1      34.509   5.422   6.476  1.00  0.00     0.314 C 
HETATM   11  N1  UNL     1      34.714   4.109   5.960  1.00  0.00     0.101 N 
HETATM   12  C3  UNL     1      34.766   4.141   4.535  1.00  0.00     0.273 C 
HETATM   13  C4  UNL     1      35.381   5.494   4.251  1.00  0.00     0.033 C 
HETATM   14  C5  UNL     1      35.079   6.344   5.444  1.00  0.00     0.047 C 
BRANCH  11  15
HETATM   15  C2  UNL     1      35.958   3.572   6.472  1.00  0.00     0.269 C 
HETATM   16  C1  UNL     1      36.311   2.252   5.794  1.00  0.00     0.037 C 
ENDBRANCH  11  15
ENDBRANCH   7  10
ENDBRANCH   5   6
BRANCH   5  17
HETATM   17  C9  UNL     1      30.059   6.209   6.137  1.00  0.00     0.035 C 
BRANCH  17  18
HETATM   18  C10 UNL     1      29.849   5.955   4.648  1.00  0.00     0.004 C 
BRANCH  18  19
HETATM   19  C11 UNL     1      30.937   6.650   3.839  1.00  0.00     0.020 C 
BRANCH  19  20
HETATM   20  C12 UNL     1      30.801   8.141   4.107  1.00  0.00     0.122 C 
BRANCH  20  21
HETATM   21  N3  UNL     1      29.708   8.689   3.341  1.00  0.00    -0.367 N 
HETATM   22  C13 UNL     1      28.759   9.393   3.834  1.00  0.00     0.196 C 
HETATM   23  N4  UNL     1      28.735   9.686   5.223  1.00  0.00    -0.067 NA
HETATM   24  N5  UNL     1      27.758   9.844   2.937  1.00  0.00    -0.067 NA
ATOM     25  H3  UNL     1      29.690   8.502   2.339  1.00  0.00     0.161 HD
ENDBRANCH  20  21
ENDBRANCH  19  20
ENDBRANCH  18  19
ENDBRANCH  17  18
ENDBRANCH   5  17
ENDBRANCH   1   5
BRANCH   3  26
HETATM   26  C15 UNL     1      30.163   6.536  10.401  1.00  0.00     0.177 C 
BRANCH  26  27
HETATM   27  C16 UNL     1      31.438   6.940  11.074  1.00  0.00     0.039 C 
BRANCH  27  28
HETATM   28  C17 UNL     1      31.677   6.332  12.411  1.00  0.00    -0.012 C 
HETATM   29  C18 UNL     1      32.044   4.865  12.299  1.00  0.00     0.005 C 
HETATM   30  C19 UNL     1      32.259   4.304  13.687  1.00  0.00     0.000 C 
HETATM   31  C20 UNL     1      31.790   5.236  14.756  1.00  0.00     0.000 C 
HETATM   32  C21 UNL     1      32.378   6.593  14.754  1.00  0.00     0.000 C 
HETATM   33  C22 UNL     1      32.568   7.083  13.310  1.00  0.00     0.005 C 
ENDBRANCH  27  28
ENDBRANCH  26  27
BRANCH  26  34
HETATM   34  C23 UNL     1      28.972   7.348  10.684  1.00  0.00     0.242 C 
HETATM   35  O3  UNL     1      28.418   7.962   9.688  1.00  0.00    -0.271 OA
HETATM   36  N7  UNL     1      28.353   7.535  11.941  1.00  0.00    -0.350 N 
HETATM   37  C24 UNL     1      27.206   8.475  12.022  1.00  0.00     0.128 C 
HETATM   38  C28 UNL     1      28.774   6.806  13.088  1.00  0.00     0.128 C 
HETATM   39  C25 UNL     1      26.043   7.630  12.490  1.00  0.00     0.051 C 
HETATM   40  C26 UNL     1      26.391   7.135  13.872  1.00  0.00     0.121 C 
HETATM   41  C27 UNL     1      27.643   6.363  13.979  1.00  0.00     0.051 C 
BRANCH  40  42
HETATM   42  O4  UNL     1      25.290   6.356  14.287  1.00  0.00    -0.395 OA
ATOM     43  H4  UNL     1      25.328   6.342  15.237  1.00  0.00     0.210 HD
ENDBRANCH  40  42
ENDBRANCH  26  34
ENDBRANCH   3  26
TORSDOF 14
ENDMDL
MODEL 4
REMARK VINA RESULT: -9.080424951      1.540      2.040
REMARK  14 active torsions:
REMARK  status: ('A' for Active; 'I' for Inactive)
REMARK    1  A    between atoms: C2_2  and  N1_3 
REMARK    2  A    between atoms: C6_7  and  C7_8 
REMARK       I    between atoms: C7_8  and  N2_10 
REMARK    3  A    between atoms: N2_10  and  C8_12 
REMARK    4  A    between atoms: C8_12  and  C9_13 
REMARK    5  A    between atoms: C8_12  and  C14_22 
REMARK    6  A    between atoms: C9_13  and  C10_14 
REMARK    7  A    between atoms: C10_14  and  C11_15 
REMARK    8  A    between atoms: C11_15  and  C12_16 
REMARK    9  A    between atoms: C12_16  and  N3_17 
REMARK       I    between atoms: C14_22  and  N6_24 
REMARK   10  A    between atoms: N6_24  and  C15_26 
REMARK   11  A    between atoms: C15_26  and  C16_27 
REMARK   12  A    between atoms: C15_26  and  C23_34 
REMARK   13  A    between atoms: C16_27  and  C17_28 
REMARK       I    between atoms: C23_34  and  N7_36 
REMARK   14  A    between atoms: C26_39  and  O4_40 
ROOT
HETATM    1  C14 UNL     1      30.781   5.214   8.033  1.00  0.00     0.241 C 
HETATM    2  O2  UNL     1      30.183   4.126   8.361  1.00  0.00    -0.271 OA
HETATM    3  N6  UNL     1      30.968   6.303   8.894  1.00  0.00    -0.346 N 
ATOM      4  H6  UNL     1      31.448   7.134   8.549  1.00  0.00     0.163 HD
ENDROOT
BRANCH   1   5
HETATM    5  C8  UNL     1      31.267   5.179   6.602  1.00  0.00     0.176 C 
BRANCH   5   6
HETATM    6  N2  UNL     1      32.668   4.928   6.642  1.00  0.00    -0.346 N 
HETATM    7  C7  UNL     1      33.573   4.911   5.575  1.00  0.00     0.252 C 
HETATM    8  O1  UNL     1      33.143   5.147   4.405  1.00  0.00    -0.271 OA
ATOM      9  H2  UNL     1      33.061   4.737   7.563  1.00  0.00     0.163 HD
BRANCH   7  10
HETATM   10  C6  UNL     1      35.018   4.631   5.723  1.00  0.00     0.314 C 
HETATM   11  N1  UNL     1      35.319   3.244   5.843  1.00  0.00     0.101 N 
HETATM   12  C3  UNL     1      35.593   2.686   4.559  1.00  0.00     0.273 C 
HETATM   13  C4  UNL     1      36.227   3.842   3.817  1.00  0.00     0.033 C 
HETATM   14  C5  UNL     1      35.730   5.084   4.486  1.00  0.00     0.047 C 
BRANCH  11  15
HETATM   15  C2  UNL     1      36.475   3.066   6.698  1.00  0.00     0.269 C 
HETATM   16  C1  UNL     1      36.993   1.634   6.637  1.00  0.00     0.037 C 
ENDBRANCH  11  15
ENDBRANCH   7  10
ENDBRANCH   5   6
BRANCH   5  17
HETATM   17  C9  UNL     1      30.822   6.422   5.930  1.00  0.00     0.035 C 
BRANCH  17  18
HETATM   18  C10 UNL     1      29.821   6.152   4.812  1.00  0.00     0.004 C 
BRANCH  18  19
HETATM   19  C11 UNL     1      30.188   6.958   3.572  1.00  0.00     0.020 C 
BRANCH  19  20
HETATM   20  C12 UNL     1      29.003   7.863   3.267  1.00  0.00     0.122 C 
BRANCH  20  21
HETATM   21  N3  UNL     1      29.398   9.248   3.355  1.00  0.00    -0.367 N 
HETATM   22  C13 UNL     1      29.176  10.001   4.367  1.00  0.00     0.196 C 
HETATM   23  N4  UNL     1      28.502   9.488   5.506  1.00  0.00    -0.067 NA
HETATM   24  N5  UNL     1      29.623  11.344   4.281  1.00  0.00    -0.067 NA
ATOM     25  H3  UNL     1      29.886   9.654   2.557  1.00  0.00     0.161 HD
ENDBRANCH  20  21
ENDBRANCH  19  20
ENDBRANCH  18  19
ENDBRANCH  17  18
ENDBRANCH   5  17
ENDBRANCH   1   5
BRANCH   3  26
HETATM   26  C15 UNL     1      30.494   6.277  10.265  1.00  0.00     0.177 C 
BRANCH  26  27
HETATM   27  C16 UNL     1      31.400   5.421  11.095  1.00  0.00     0.039 C 
BRANCH  27  28
HETATM   28  C17 UNL     1      31.209   5.526  12.567  1.00  0.00    -0.012 C 
HETATM   29  C18 UNL     1      29.972   4.779  13.025  1.00  0.00     0.005 C 
HETATM   30  C19 UNL     1      29.826   4.936  14.521  1.00  0.00     0.000 C 
HETATM   31  C20 UNL     1      30.741   5.979  15.075  1.00  0.00     0.000 C 
HETATM   32  C21 UNL     1      32.185   5.801  14.809  1.00  0.00     0.000 C 
HETATM   33  C22 UNL     1      32.394   5.241  13.393  1.00  0.00     0.005 C 
ENDBRANCH  27  28
ENDBRANCH  26  27
BRANCH  26  34
HETATM   34  C23 UNL     1      30.244   7.643  10.742  1.00  0.00     0.242 C 
HETATM   35  O3  UNL     1      31.267   8.431  10.858  1.00  0.00    -0.271 OA
HETATM   36  N7  UNL     1      28.995   8.205  11.092  1.00  0.00    -0.350 N 
HETATM   37  C24 UNL     1      28.978   9.584  11.641  1.00  0.00     0.128 C 
HETATM   38  C28 UNL     1      27.781   7.495  10.876  1.00  0.00     0.128 C 
HETATM   39  C25 UNL     1      28.142  10.381  10.666  1.00  0.00     0.051 C 
HETATM   40  C26 UNL     1      26.749   9.800  10.708  1.00  0.00     0.121 C 
HETATM   41  C27 UNL     1      26.646   8.363  10.397  1.00  0.00     0.051 C 
BRANCH  40  42
HETATM   42  O4  UNL     1      25.989  10.563   9.797  1.00  0.00    -0.395 OA
ATOM     43  H4  UNL     1      25.091  10.272   9.905  1.00  0.00     0.210 HD
ENDBRANCH  40  42
ENDBRANCH  26  34
ENDBRANCH   3  26
TORSDOF 14
ENDMDL
MODEL 5
REMARK VINA RESULT: -9.025728650      1.892      5.578
REMARK  14 active torsions:
REMARK  status: ('A' for Active; 'I' for Inactive)
REMARK    1  A    between atoms: C2_2  and  N1_3 
REMARK    2  A    between atoms: C6_7  and  C7_8 
REMARK       I    between atoms: C7_8  and  N2_10 
REMARK    3  A    between atoms: N2_10  and  C8_12 
REMARK    4  A    between atoms: C8_12  and  C9_13 
REMARK    5  A    between atoms: C8_12  and  C14_22 
REMARK    6  A    between atoms: C9_13  and  C10_14 
REMARK    7  A    between atoms: C10_14  and  C11_15 
REMARK    8  A    between atoms: C11_15  and  C12_16 
REMARK    9  A    between atoms: C12_16  and  N3_17 
REMARK       I    between atoms: C14_22  and  N6_24 
REMARK   10  A    between atoms: N6_24  and  C15_26 
REMARK   11  A    between atoms: C15_26  and  C16_27 
REMARK   12  A    between atoms: C15_26  and  C23_34 
REMARK   13  A    between atoms: C16_27  and  C17_28 
REMARK       I    between atoms: C23_34  and  N7_36 
REMARK   14  A    between atoms: C26_39  and  O4_40 
ROOT
HETATM    1  C14 UNL     1      31.662   5.971   7.768  1.00  0.00     0.241 C 
HETATM    2  O2  UNL     1      30.880   4.972   7.568  1.00  0.00    -0.271 OA
HETATM    3  N6  UNL     1      31.646   6.768   8.920  1.00  0.00    -0.346 N 
ATOM      4  H6  UNL     1      32.297   7.549   8.994  1.00  0.00     0.163 HD
ENDROOT
BRANCH   1   5
HETATM    5  C8  UNL     1      32.608   6.185   6.609  1.00  0.00     0.176 C 
BRANCH   5   6
HETATM    6  N2  UNL     1      31.836   6.699   5.528  1.00  0.00    -0.346 N 
HETATM    7  C7  UNL     1      31.844   7.995   5.001  1.00  0.00     0.252 C 
HETATM    8  O1  UNL     1      32.621   8.858   5.511  1.00  0.00    -0.271 OA
ATOM      9  H2  UNL     1      31.198   6.040   5.083  1.00  0.00     0.163 HD
BRANCH   7  10
HETATM   10  C6  UNL     1      30.993   8.432   3.873  1.00  0.00     0.314 C 
HETATM   11  N1  UNL     1      29.708   7.815   3.858  1.00  0.00     0.101 N 
HETATM   12  C3  UNL     1      28.765   8.623   4.561  1.00  0.00     0.273 C 
HETATM   13  C4  UNL     1      29.265  10.027   4.301  1.00  0.00     0.033 C 
HETATM   14  C5  UNL     1      30.725   9.899   4.005  1.00  0.00     0.047 C 
BRANCH  11  15
HETATM   15  C2  UNL     1      29.264   7.643   2.490  1.00  0.00     0.269 C 
HETATM   16  C1  UNL     1      30.336   6.967   1.641  1.00  0.00     0.037 C 
ENDBRANCH  11  15
ENDBRANCH   7  10
ENDBRANCH   5   6
BRANCH   5  17
HETATM   17  C9  UNL     1      33.346   4.922   6.372  1.00  0.00     0.035 C 
BRANCH  17  18
HETATM   18  C10 UNL     1      34.238   4.994   5.137  1.00  0.00     0.004 C 
BRANCH  18  19
HETATM   19  C11 UNL     1      35.677   4.658   5.508  1.00  0.00     0.020 C 
BRANCH  19  20
HETATM   20  C12 UNL     1      35.771   3.141   5.581  1.00  0.00     0.122 C 
BRANCH  20  21
HETATM   21  N3  UNL     1      36.251   2.733   6.879  1.00  0.00    -0.367 N 
HETATM   22  C13 UNL     1      36.890   1.647   7.107  1.00  0.00     0.196 C 
HETATM   23  N4  UNL     1      37.172   0.749   6.045  1.00  0.00    -0.067 NA
HETATM   24  N5  UNL     1      37.280   1.397   8.447  1.00  0.00    -0.067 NA
ATOM     25  H3  UNL     1      36.069   3.352   7.669  1.00  0.00     0.161 HD
ENDBRANCH  20  21
ENDBRANCH  19  20
ENDBRANCH  18  19
ENDBRANCH  17  18
ENDBRANCH   5  17
ENDBRANCH   1   5
BRANCH   3  26
HETATM   26  C15 UNL     1      30.726   6.507  10.011  1.00  0.00     0.177 C 
BRANCH  26  27
HETATM   27  C16 UNL     1      31.244   5.381  10.851  1.00  0.00     0.039 C 
BRANCH  27  28
HETATM   28  C17 UNL     1      31.143   5.580  12.322  1.00  0.00    -0.012 C 
HETATM   29  C18 UNL     1      29.979   4.806  12.910  1.00  0.00     0.005 C 
HETATM   30  C19 UNL     1      29.922   5.060  14.400  1.00  0.00     0.000 C 
HETATM   31  C20 UNL     1      30.813   6.183  14.820  1.00  0.00     0.000 C 
HETATM   32  C21 UNL     1      32.244   6.057  14.469  1.00  0.00     0.000 C 
HETATM   33  C22 UNL     1      32.392   5.411  13.082  1.00  0.00     0.005 C 
ENDBRANCH  27  28
ENDBRANCH  26  27
BRANCH  26  34
HETATM   34  C23 UNL     1      30.393   7.759  10.704  1.00  0.00     0.242 C 
HETATM   35  O3  UNL     1      31.378   8.509  11.088  1.00  0.00    -0.271 OA
HETATM   36  N7  UNL     1      29.100   8.246  11.002  1.00  0.00    -0.350 N 
HETATM   37  C24 UNL     1      28.989   9.496  11.797  1.00  0.00     0.128 C 
HETATM   38  C28 UNL     1      27.935   7.593  10.513  1.00  0.00     0.128 C 
HETATM   39  C25 UNL     1      28.257  10.465  10.897  1.00  0.00     0.051 C 
HETATM   40  C26 UNL     1      26.882   9.889  10.662  1.00  0.00     0.121 C 
HETATM   41  C27 UNL     1      26.845   8.537  10.075  1.00  0.00     0.051 C 
BRANCH  40  42
HETATM   42  O4  UNL     1      26.218  10.813   9.827  1.00  0.00    -0.395 OA
ATOM     43  H4  UNL     1      25.443  10.363   9.511  1.00  0.00     0.210 HD
ENDBRANCH  40  42
ENDBRANCH  26  34
ENDBRANCH   3  26
TORSDOF 14
ENDMDL
