MODEL 1
REMARK VINA RESULT: -7.540443830      0.000      0.000
REMARK  12 active torsions:
REMARK  status: ('A' for Active; 'I' for Inactive)
REMARK    1  A    between atoms: C3_3  and  N1_4 
REMARK    2  A    between atoms: N1_4  and  S1_6 
REMARK    3  A    between atoms: S1_6  and  N2_9 
REMARK    4  A    between atoms: N2_9  and  C4_11 
REMARK    5  A    between atoms: C4_11  and  C5_12 
REMARK    6  A    between atoms: C5_12  and  N4_16 
REMARK    7  A    between atoms: N4_16  and  N5_18 
REMARK    8  A    between atoms: N5_18  and  C6_19 
REMARK    9  A    between atoms: C6_19  and  O3_20 
REMARK   10  A    between atoms: C6_19  and  N6_22 
REMARK   11  A    between atoms: N6_22  and  N7_23 
REMARK       I    between atoms: N7_23  and  C7_24 
REMARK   12  A    between atoms: C7_24  and  C8_26 
ROOT
HETATM    1  C1  UNL     1     -34.956 -55.303   5.703  1.00  0.00     0.014 C 
HETATM    2  C2  UNL     1     -34.928 -55.372   6.888  1.00  0.00    -0.097 C 
HETATM    3  C3  UNL     1     -34.872 -55.514   8.366  1.00  0.00     0.226 C 
ENDROOT
BRANCH   3   4
HETATM    4  N1  UNL     1     -33.917 -56.550   8.657  1.00  0.00    -0.292 N 
ATOM      5  H1  UNL     1     -34.154 -57.541   8.635  1.00  0.00     0.174 HD
BRANCH   4   6
HETATM    6  S1  UNL     1     -32.362 -55.987   9.041  1.00  0.00     0.316 S 
HETATM    7  O1  UNL     1     -31.925 -56.524  10.385  1.00  0.00    -0.183 OA
HETATM    8  O2  UNL     1     -32.307 -54.466   9.009  1.00  0.00    -0.183 OA
BRANCH   6   9
HETATM    9  N2  UNL     1     -31.216 -56.603   7.886  1.00  0.00    -0.296 N 
ATOM     10  H2  UNL     1     -31.358 -56.716   6.882  1.00  0.00     0.174 HD
BRANCH   9  11
HETATM   11  C4  UNL     1     -30.034 -56.920   8.627  1.00  0.00     0.211 C 
BRANCH  11  12
HETATM   12  C5  UNL     1     -29.144 -55.789   8.939  1.00  0.00     0.120 C 
HETATM   13  N3  UNL     1     -28.752 -55.649  10.151  1.00  0.00    -0.386 N 
ATOM     14  H32 UNL     1     -29.054 -56.268  10.903  1.00  0.00     0.157 HD
ATOM     15  H31 UNL     1     -28.135 -54.866  10.367  1.00  0.00     0.157 HD
BRANCH  12  16
HETATM   16  N4  UNL     1     -28.721 -54.922   7.887  1.00  0.00    -0.217 N 
ATOM     17  H4  UNL     1     -27.716 -54.905   7.713  1.00  0.00     0.203 HD
BRANCH  16  18
HETATM   18  N5  UNL     1     -29.437 -54.144   7.114  1.00  0.00    -0.263 NA
BRANCH  18  19
HETATM   19  C6  UNL     1     -30.131 -53.233   6.334  1.00  0.00     0.427 C 
BRANCH  19  20
HETATM   20  O3  UNL     1     -31.261 -52.723   6.881  1.00  0.00    -0.307 OA
ATOM     21  H3  UNL     1     -31.824 -52.234   6.293  1.00  0.00     0.223 HD
ENDBRANCH  19  20
BRANCH  19  22
HETATM   22  N6  UNL     1     -29.718 -52.860   5.114  1.00  0.00    -0.181 NA
BRANCH  22  23
HETATM   23  N7  UNL     1     -29.093 -52.560   3.958  1.00  0.00    -0.194 NA
HETATM   24  C7  UNL     1     -28.501 -52.280   2.839  1.00  0.00     0.414 C 
HETATM   25  O4  UNL     1     -28.797 -52.704   1.647  1.00  0.00    -0.243 OA
BRANCH  24  26
HETATM   26  C8  UNL     1     -27.293 -51.353   2.752  1.00  0.00     0.340 C 
HETATM   27  N8  UNL     1     -26.001 -51.911   2.738  1.00  0.00    -0.051 NA
HETATM   28  O5  UNL     1     -27.545 -50.146   2.685  1.00  0.00    -0.264 OA
ENDBRANCH  24  26
ENDBRANCH  22  23
ENDBRANCH  19  22
ENDBRANCH  18  19
ENDBRANCH  16  18
ENDBRANCH  12  16
ENDBRANCH  11  12
ENDBRANCH   9  11
ENDBRANCH   6   9
ENDBRANCH   4   6
ENDBRANCH   3   4
TORSDOF 12
ENDMDL
MODEL 2
REMARK VINA RESULT: -7.498931881      2.179      3.131
REMARK  12 active torsions:
REMARK  status: ('A' for Active; 'I' for Inactive)
REMARK    1  A    between atoms: C3_3  and  N1_4 
REMARK    2  A    between atoms: N1_4  and  S1_6 
REMARK    3  A    between atoms: S1_6  and  N2_9 
REMARK    4  A    between atoms: N2_9  and  C4_11 
REMARK    5  A    between atoms: C4_11  and  C5_12 
REMARK    6  A    between atoms: C5_12  and  N4_16 
REMARK    7  A    between atoms: N4_16  and  N5_18 
REMARK    8  A    between atoms: N5_18  and  C6_19 
REMARK    9  A    between atoms: C6_19  and  O3_20 
REMARK   10  A    between atoms: C6_19  and  N6_22 
REMARK   11  A    between atoms: N6_22  and  N7_23 
REMARK       I    between atoms: N7_23  and  C7_24 
REMARK   12  A    between atoms: C7_24  and  C8_26 
ROOT
HETATM    1  C1  UNL     1     -29.125 -59.834   9.388  1.00  0.00     0.014 C 
HETATM    2  C2  UNL     1     -29.766 -59.577  10.354  1.00  0.00    -0.097 C 
HETATM    3  C3  UNL     1     -30.543 -59.202  11.564  1.00  0.00     0.226 C 
ENDROOT
BRANCH   3   4
HETATM    4  N1  UNL     1     -30.607 -57.765  11.598  1.00  0.00    -0.292 N 
ATOM      5  H1  UNL     1     -29.889 -57.190  12.039  1.00  0.00     0.174 HD
BRANCH   4   6
HETATM    6  S1  UNL     1     -31.977 -57.103  10.845  1.00  0.00     0.316 S 
HETATM    7  O1  UNL     1     -32.866 -56.431  11.867  1.00  0.00    -0.183 OA
HETATM    8  O2  UNL     1     -32.738 -58.165  10.062  1.00  0.00    -0.183 OA
BRANCH   6   9
HETATM    9  N2  UNL     1     -31.489 -55.850   9.741  1.00  0.00    -0.296 N 
ATOM     10  H2  UNL     1     -31.905 -54.924   9.643  1.00  0.00     0.174 HD
BRANCH   9  11
HETATM   11  C4  UNL     1     -30.387 -56.379   8.998  1.00  0.00     0.211 C 
BRANCH  11  12
HETATM   12  C5  UNL     1     -29.138 -55.602   9.052  1.00  0.00     0.120 C 
HETATM   13  N3  UNL     1     -28.455 -55.636  10.136  1.00  0.00    -0.386 N 
ATOM     14  H32 UNL     1     -28.758 -56.154  10.962  1.00  0.00     0.157 HD
ATOM     15  H31 UNL     1     -27.590 -55.098  10.174  1.00  0.00     0.157 HD
BRANCH  12  16
HETATM   16  N4  UNL     1     -28.714 -54.877   7.898  1.00  0.00    -0.217 N 
ATOM     17  H4  UNL     1     -27.723 -54.961   7.669  1.00  0.00     0.203 HD
BRANCH  16  18
HETATM   18  N5  UNL     1     -29.414 -54.120   7.089  1.00  0.00    -0.263 NA
BRANCH  18  19
HETATM   19  C6  UNL     1     -30.118 -53.229   6.296  1.00  0.00     0.427 C 
BRANCH  19  20
HETATM   20  O3  UNL     1     -31.241 -52.706   6.845  1.00  0.00    -0.307 OA
ATOM     21  H3  UNL     1     -31.941 -53.321   7.029  1.00  0.00     0.223 HD
ENDBRANCH  19  20
BRANCH  19  22
HETATM   22  N6  UNL     1     -29.721 -52.887   5.062  1.00  0.00    -0.181 NA
BRANCH  22  23
HETATM   23  N7  UNL     1     -29.106 -52.562   3.908  1.00  0.00    -0.194 NA
HETATM   24  C7  UNL     1     -28.524 -52.257   2.790  1.00  0.00     0.414 C 
HETATM   25  O4  UNL     1     -28.827 -52.659   1.592  1.00  0.00    -0.243 OA
BRANCH  24  26
HETATM   26  C8  UNL     1     -27.320 -51.323   2.712  1.00  0.00     0.340 C 
HETATM   27  N8  UNL     1     -26.025 -51.875   2.708  1.00  0.00    -0.051 NA
HETATM   28  O5  UNL     1     -27.577 -50.118   2.644  1.00  0.00    -0.264 OA
ENDBRANCH  24  26
ENDBRANCH  22  23
ENDBRANCH  19  22
ENDBRANCH  18  19
ENDBRANCH  16  18
ENDBRANCH  12  16
ENDBRANCH  11  12
ENDBRANCH   9  11
ENDBRANCH   6   9
ENDBRANCH   4   6
ENDBRANCH   3   4
TORSDOF 12
ENDMDL
MODEL 3
REMARK VINA RESULT: -7.451653477      1.622      1.894
REMARK  12 active torsions:
REMARK  status: ('A' for Active; 'I' for Inactive)
REMARK    1  A    between atoms: C3_3  and  N1_4 
REMARK    2  A    between atoms: N1_4  and  S1_6 
REMARK    3  A    between atoms: S1_6  and  N2_9 
REMARK    4  A    between atoms: N2_9  and  C4_11 
REMARK    5  A    between atoms: C4_11  and  C5_12 
REMARK    6  A    between atoms: C5_12  and  N4_16 
REMARK    7  A    between atoms: N4_16  and  N5_18 
REMARK    8  A    between atoms: N5_18  and  C6_19 
REMARK    9  A    between atoms: C6_19  and  O3_20 
REMARK   10  A    between atoms: C6_19  and  N6_22 
REMARK   11  A    between atoms: N6_22  and  N7_23 
REMARK       I    between atoms: N7_23  and  C7_24 
REMARK   12  A    between atoms: C7_24  and  C8_26 
ROOT
HETATM    1  C1  UNL     1     -35.615 -59.406   8.999  1.00  0.00     0.014 C 
HETATM    2  C2  UNL     1     -35.135 -58.510   8.385  1.00  0.00    -0.097 C 
HETATM    3  C3  UNL     1     -34.508 -57.371   7.666  1.00  0.00     0.226 C 
ENDROOT
BRANCH   3   4
HETATM    4  N1  UNL     1     -33.348 -56.978   8.423  1.00  0.00    -0.292 N 
ATOM      5  H1  UNL     1     -32.763 -57.647   8.923  1.00  0.00     0.174 HD
BRANCH   4   6
HETATM    6  S1  UNL     1     -33.035 -55.310   8.417  1.00  0.00     0.316 S 
HETATM    7  O1  UNL     1     -33.950 -54.599   9.389  1.00  0.00    -0.183 OA
HETATM    8  O2  UNL     1     -33.163 -54.734   7.014  1.00  0.00    -0.183 OA
BRANCH   6   9
HETATM    9  N2  UNL     1     -31.417 -55.017   8.987  1.00  0.00    -0.296 N 
ATOM     10  H2  UNL     1     -31.065 -54.163   9.418  1.00  0.00     0.174 HD
BRANCH   9  11
HETATM   11  C4  UNL     1     -30.680 -56.216   8.729  1.00  0.00     0.211 C 
BRANCH  11  12
HETATM   12  C5  UNL     1     -29.223 -56.058   8.577  1.00  0.00     0.120 C 
HETATM   13  N3  UNL     1     -28.466 -56.971   9.062  1.00  0.00    -0.386 N 
ATOM     14  H32 UNL     1     -28.831 -57.777   9.569  1.00  0.00     0.157 HD
ATOM     15  H31 UNL     1     -27.458 -56.862   8.957  1.00  0.00     0.157 HD
BRANCH  12  16
HETATM   16  N4  UNL     1     -28.712 -54.929   7.868  1.00  0.00    -0.217 N 
ATOM     17  H4  UNL     1     -27.704 -54.789   7.940  1.00  0.00     0.203 HD
BRANCH  16  18
HETATM   18  N5  UNL     1     -29.351 -54.048   7.139  1.00  0.00    -0.263 NA
BRANCH  18  19
HETATM   19  C6  UNL     1     -30.035 -53.197   6.286  1.00  0.00     0.427 C 
BRANCH  19  20
HETATM   20  O3  UNL     1     -31.190 -52.678   6.767  1.00  0.00    -0.307 OA
ATOM     21  H3  UNL     1     -31.502 -51.888   6.340  1.00  0.00     0.223 HD
ENDBRANCH  19  20
BRANCH  19  22
HETATM   22  N6  UNL     1     -29.590 -52.888   5.059  1.00  0.00    -0.181 NA
BRANCH  22  23
HETATM   23  N7  UNL     1     -28.932 -52.565   3.928  1.00  0.00    -0.194 NA
HETATM   24  C7  UNL     1     -28.309 -52.262   2.832  1.00  0.00     0.414 C 
HETATM   25  O4  UNL     1     -28.543 -52.697   1.630  1.00  0.00    -0.243 OA
BRANCH  24  26
HETATM   26  C8  UNL     1     -27.134 -51.290   2.791  1.00  0.00     0.340 C 
HETATM   27  N8  UNL     1     -27.388 -49.918   2.605  1.00  0.00    -0.051 NA
HETATM   28  O5  UNL     1     -26.016 -51.791   2.940  1.00  0.00    -0.264 OA
ENDBRANCH  24  26
ENDBRANCH  22  23
ENDBRANCH  19  22
ENDBRANCH  18  19
ENDBRANCH  16  18
ENDBRANCH  12  16
ENDBRANCH  11  12
ENDBRANCH   9  11
ENDBRANCH   6   9
ENDBRANCH   4   6
ENDBRANCH   3   4
TORSDOF 12
ENDMDL
MODEL 4
REMARK VINA RESULT: -7.424140544      2.600      5.050
REMARK  12 active torsions:
REMARK  status: ('A' for Active; 'I' for Inactive)
REMARK    1  A    between atoms: C3_3  and  N1_4 
REMARK    2  A    between atoms: N1_4  and  S1_6 
REMARK    3  A    between atoms: S1_6  and  N2_9 
REMARK    4  A    between atoms: N2_9  and  C4_11 
REMARK    5  A    between atoms: C4_11  and  C5_12 
REMARK    6  A    between atoms: C5_12  and  N4_16 
REMARK    7  A    between atoms: N4_16  and  N5_18 
REMARK    8  A    between atoms: N5_18  and  C6_19 
REMARK    9  A    between atoms: C6_19  and  O3_20 
REMARK   10  A    between atoms: C6_19  and  N6_22 
REMARK   11  A    between atoms: N6_22  and  N7_23 
REMARK       I    between atoms: N7_23  and  C7_24 
REMARK   12  A    between atoms: C7_24  and  C8_26 
ROOT
HETATM    1  C1  UNL     1     -27.357 -58.071   9.020  1.00  0.00     0.014 C 
HETATM    2  C2  UNL     1     -28.246 -57.290   9.121  1.00  0.00    -0.097 C 
HETATM    3  C3  UNL     1     -29.379 -56.344   9.295  1.00  0.00     0.226 C 
ENDROOT
BRANCH   3   4
HETATM    4  N1  UNL     1     -29.799 -56.433  10.668  1.00  0.00    -0.292 N 
ATOM      5  H1  UNL     1     -29.415 -55.838  11.402  1.00  0.00     0.174 HD
BRANCH   4   6
HETATM    6  S1  UNL     1     -30.986 -57.608  10.968  1.00  0.00     0.316 S 
HETATM    7  O1  UNL     1     -32.181 -56.986  11.655  1.00  0.00    -0.183 OA
HETATM    8  O2  UNL     1     -30.420 -58.763  11.782  1.00  0.00    -0.183 OA
BRANCH   6   9
HETATM    9  N2  UNL     1     -31.580 -58.237   9.459  1.00  0.00    -0.296 N 
ATOM     10  H2  UNL     1     -31.166 -58.107   8.536  1.00  0.00     0.174 HD
BRANCH   9  11
HETATM   11  C4  UNL     1     -32.764 -58.976   9.773  1.00  0.00     0.211 C 
BRANCH  11  12
HETATM   12  C5  UNL     1     -33.973 -58.611   9.015  1.00  0.00     0.120 C 
HETATM   13  N3  UNL     1     -35.008 -59.357   9.139  1.00  0.00    -0.386 N 
ATOM     14  H32 UNL     1     -35.014 -60.199   9.714  1.00  0.00     0.157 HD
ATOM     15  H31 UNL     1     -35.845 -59.104   8.614  1.00  0.00     0.157 HD
BRANCH  12  16
HETATM   16  N4  UNL     1     -33.964 -57.433   8.210  1.00  0.00    -0.217 N 
ATOM     17  H4  UNL     1     -34.398 -57.528   7.291  1.00  0.00     0.203 HD
BRANCH  16  18
HETATM   18  N5  UNL     1     -33.479 -56.246   8.479  1.00  0.00    -0.263 NA
BRANCH  18  19
HETATM   19  C6  UNL     1     -32.939 -55.032   8.869  1.00  0.00     0.427 C 
BRANCH  19  20
HETATM   20  O3  UNL     1     -33.282 -54.598  10.105  1.00  0.00    -0.307 OA
ATOM     21  H3  UNL     1     -32.571 -54.513  10.730  1.00  0.00     0.223 HD
ENDBRANCH  19  20
BRANCH  19  22
HETATM   22  N6  UNL     1     -32.115 -54.320   8.085  1.00  0.00    -0.181 NA
BRANCH  22  23
HETATM   23  N7  UNL     1     -31.185 -53.810   7.254  1.00  0.00    -0.194 NA
HETATM   24  C7  UNL     1     -30.282 -53.314   6.466  1.00  0.00     0.414 C 
HETATM   25  O4  UNL     1     -29.195 -52.681   6.790  1.00  0.00    -0.243 OA
BRANCH  24  26
HETATM   26  C8  UNL     1     -30.370 -53.408   4.946  1.00  0.00     0.340 C 
HETATM   27  N8  UNL     1     -29.400 -52.755   4.162  1.00  0.00    -0.051 NA
HETATM   28  O5  UNL     1     -31.306 -54.080   4.501  1.00  0.00    -0.264 OA
ENDBRANCH  24  26
ENDBRANCH  22  23
ENDBRANCH  19  22
ENDBRANCH  18  19
ENDBRANCH  16  18
ENDBRANCH  12  16
ENDBRANCH  11  12
ENDBRANCH   9  11
ENDBRANCH   6   9
ENDBRANCH   4   6
ENDBRANCH   3   4
TORSDOF 12
ENDMDL
MODEL 5
REMARK VINA RESULT: -7.394903919      1.455      1.701
REMARK  12 active torsions:
REMARK  status: ('A' for Active; 'I' for Inactive)
REMARK    1  A    between atoms: C3_3  and  N1_4 
REMARK    2  A    between atoms: N1_4  and  S1_6 
REMARK    3  A    between atoms: S1_6  and  N2_9 
REMARK    4  A    between atoms: N2_9  and  C4_11 
REMARK    5  A    between atoms: C4_11  and  C5_12 
REMARK    6  A    between atoms: C5_12  and  N4_16 
REMARK    7  A    between atoms: N4_16  and  N5_18 
REMARK    8  A    between atoms: N5_18  and  C6_19 
REMARK    9  A    between atoms: C6_19  and  O3_20 
REMARK   10  A    between atoms: C6_19  and  N6_22 
REMARK   11  A    between atoms: N6_22  and  N7_23 
REMARK       I    between atoms: N7_23  and  C7_24 
REMARK   12  A    between atoms: C7_24  and  C8_26 
ROOT
HETATM    1  C1  UNL     1     -31.903 -55.007   3.245  1.00  0.00     0.014 C 
HETATM    2  C2  UNL     1     -32.482 -55.179   4.268  1.00  0.00    -0.097 C 
HETATM    3  C3  UNL     1     -33.162 -55.433   5.564  1.00  0.00     0.226 C 
ENDROOT
BRANCH   3   4
HETATM    4  N1  UNL     1     -32.154 -55.867   6.494  1.00  0.00    -0.292 N 
ATOM      5  H1  UNL     1     -31.254 -56.244   6.197  1.00  0.00     0.174 HD
BRANCH   4   6
HETATM    6  S1  UNL     1     -32.585 -55.703   8.127  1.00  0.00     0.316 S 
HETATM    7  O1  UNL     1     -33.064 -57.026   8.681  1.00  0.00    -0.183 OA
HETATM    8  O2  UNL     1     -33.634 -54.615   8.310  1.00  0.00    -0.183 OA
BRANCH   6   9
HETATM    9  N2  UNL     1     -31.181 -55.277   9.063  1.00  0.00    -0.296 N 
ATOM     10  H2  UNL     1     -31.026 -54.407   9.573  1.00  0.00     0.174 HD
BRANCH   9  11
HETATM   11  C4  UNL     1     -30.288 -56.391   8.973  1.00  0.00     0.211 C 
BRANCH  11  12
HETATM   12  C5  UNL     1     -28.907 -56.081   8.568  1.00  0.00     0.120 C 
HETATM   13  N3  UNL     1     -28.025 -57.004   8.682  1.00  0.00    -0.386 N 
ATOM     14  H32 UNL     1     -28.238 -57.925   9.066  1.00  0.00     0.157 HD
ATOM     15  H31 UNL     1     -27.069 -56.790   8.401  1.00  0.00     0.157 HD
BRANCH  12  16
HETATM   16  N4  UNL     1     -28.608 -54.793   8.031  1.00  0.00    -0.217 N 
ATOM     17  H4  UNL     1     -27.735 -54.377   8.354  1.00  0.00     0.203 HD
BRANCH  16  18
HETATM   18  N5  UNL     1     -29.294 -54.068   7.182  1.00  0.00    -0.263 NA
BRANCH  18  19
HETATM   19  C6  UNL     1     -30.069 -53.251   6.375  1.00  0.00     0.427 C 
BRANCH  19  20
HETATM   20  O3  UNL     1     -31.215 -52.785   6.928  1.00  0.00    -0.307 OA
ATOM     21  H3  UNL     1     -32.008 -52.926   6.424  1.00  0.00     0.223 HD
ENDBRANCH  19  20
BRANCH  19  22
HETATM   22  N6  UNL     1     -29.716 -52.923   5.123  1.00  0.00    -0.181 NA
BRANCH  22  23
HETATM   23  N7  UNL     1     -29.147 -52.567   3.955  1.00  0.00    -0.194 NA
HETATM   24  C7  UNL     1     -28.610 -52.232   2.823  1.00  0.00     0.414 C 
HETATM   25  O4  UNL     1     -28.983 -52.573   1.626  1.00  0.00    -0.243 OA
BRANCH  24  26
HETATM   26  C8  UNL     1     -27.383 -51.332   2.725  1.00  0.00     0.340 C 
HETATM   27  N8  UNL     1     -26.101 -51.910   2.798  1.00  0.00    -0.051 NA
HETATM   28  O5  UNL     1     -27.609 -50.128   2.571  1.00  0.00    -0.264 OA
ENDBRANCH  24  26
ENDBRANCH  22  23
ENDBRANCH  19  22
ENDBRANCH  18  19
ENDBRANCH  16  18
ENDBRANCH  12  16
ENDBRANCH  11  12
ENDBRANCH   9  11
ENDBRANCH   6   9
ENDBRANCH   4   6
ENDBRANCH   3   4
TORSDOF 12
ENDMDL
