MODEL 1
REMARK VINA RESULT: -7.759458154      0.000      0.000
REMARK  7 active torsions:
REMARK  status: ('A' for Active; 'I' for Inactive)
REMARK       I    between atoms: C1_4  and  N3_6 
REMARK    1  A    between atoms: N3_6  and  C2_8 
REMARK    2  A    between atoms: C2_8  and  C3_9 
REMARK    3  A    between atoms: C3_9  and  C4_10 
REMARK    4  A    between atoms: C4_10  and  N4_11 
REMARK    5  A    between atoms: C4_10  and  C5_15 
REMARK       I    between atoms: C5_15  and  N5_17 
REMARK    6  A    between atoms: N5_17  and  C6_19 
REMARK    7  A    between atoms: C6_19  and  N6_20 
ROOT
HETATM    1  C5  UNL     1     -31.643 -58.664  10.305  1.00  0.00     0.249 C 
HETATM    2  O1  UNL     1     -32.440 -59.226   9.518  1.00  0.00    -0.271 OA
HETATM    3  N5  UNL     1     -31.647 -57.222  10.269  1.00  0.00    -0.346 N 
ATOM      4  H5  UNL     1     -31.015 -56.719  10.892  1.00  0.00     0.163 HD
ENDROOT
BRANCH   3   5
HETATM    5  C6  UNL     1     -32.492 -56.468   9.404  1.00  0.00     0.238 C 
BRANCH   5   6
HETATM    6  N6  UNL     1     -31.799 -55.937   8.250  1.00  0.00    -0.202 NA
HETATM    7  C7  UNL     1     -32.366 -54.653   7.933  1.00  0.00     0.218 C 
HETATM    8  C8  UNL     1     -31.757 -54.016   6.736  1.00  0.00     0.233 C 
HETATM    9  O2  UNL     1     -31.169 -52.884   6.896  1.00  0.00    -0.272 OA
HETATM   10  N7  UNL     1     -31.761 -54.533   5.435  1.00  0.00    -0.344 N 
HETATM   11  C9  UNL     1     -32.898 -55.026   4.691  1.00  0.00     0.249 C 
ATOM     12  H7  UNL     1     -30.859 -54.565   4.959  1.00  0.00     0.164 HD
HETATM   13  N8  UNL     1     -33.992 -55.468   5.529  1.00  0.00    -0.337 N 
HETATM   14  C10 UNL     1     -34.034 -56.762   6.138  1.00  0.00     0.311 C 
ATOM     15  H8  UNL     1     -34.768 -54.827   5.694  1.00  0.00     0.164 HD
HETATM   16  O3  UNL     1     -35.168 -57.313   6.306  1.00  0.00    -0.262 OA
HETATM   17  C11 UNL     1     -32.835 -57.471   6.573  1.00  0.00     0.323 C 
HETATM   18  O4  UNL     1     -32.819 -58.729   6.327  1.00  0.00    -0.261 OA
HETATM   19  N9  UNL     1     -31.737 -56.843   7.227  1.00  0.00    -0.279 N 
ATOM     20  H9  UNL     1     -30.806 -57.096   6.897  1.00  0.00     0.184 HD
ENDBRANCH   5   6
ENDBRANCH   3   5
BRANCH   1  21
HETATM   21  C4  UNL     1     -30.769 -59.425  11.197  1.00  0.00     0.276 C 
BRANCH  21  22
HETATM   22  C3  UNL     1     -29.604 -60.073  10.527  1.00  0.00     0.062 C 
BRANCH  22  23
HETATM   23  C2  UNL     1     -29.108 -59.284   9.365  1.00  0.00     0.125 C 
BRANCH  23  24
HETATM   24  N3  UNL     1     -28.151 -58.266   9.763  1.00  0.00    -0.365 N 
HETATM   25  C1  UNL     1     -28.389 -56.886   9.622  1.00  0.00     0.181 C 
HETATM   26  N1  UNL     1     -28.494 -56.376   8.447  1.00  0.00    -0.374 N 
HETATM   27  N2  UNL     1     -28.521 -56.021  10.735  1.00  0.00    -0.064 NA
ATOM     28  H12 UNL     1     -28.666 -55.375   8.345  1.00  0.00     0.158 HD
ATOM     29  H11 UNL     1     -28.398 -56.999   7.645  1.00  0.00     0.158 HD
ATOM     30  H3  UNL     1     -27.263 -58.567  10.163  1.00  0.00     0.162 HD
ENDBRANCH  23  24
ENDBRANCH  22  23
ENDBRANCH  21  22
BRANCH  21  31
HETATM   31  N4  UNL     1     -30.292 -58.496  12.222  1.00  0.00    -0.066 N 
ATOM     32  H43 UNL     1     -29.300 -58.623  12.425  1.00  0.00     0.275 HD
ATOM     33  H42 UNL     1     -30.250 -57.536  11.882  1.00  0.00     0.275 HD
ATOM     34  H41 UNL     1     -30.869 -58.583  13.059  1.00  0.00     0.275 HD
ENDBRANCH  21  31
ENDBRANCH   1  21
TORSDOF 7
ENDMDL
MODEL 2
REMARK VINA RESULT: -7.744310565      1.346      1.646
REMARK  7 active torsions:
REMARK  status: ('A' for Active; 'I' for Inactive)
REMARK       I    between atoms: C1_4  and  N3_6 
REMARK    1  A    between atoms: N3_6  and  C2_8 
REMARK    2  A    between atoms: C2_8  and  C3_9 
REMARK    3  A    between atoms: C3_9  and  C4_10 
REMARK    4  A    between atoms: C4_10  and  N4_11 
REMARK    5  A    between atoms: C4_10  and  C5_15 
REMARK       I    between atoms: C5_15  and  N5_17 
REMARK    6  A    between atoms: N5_17  and  C6_19 
REMARK    7  A    between atoms: C6_19  and  N6_20 
ROOT
HETATM    1  C5  UNL     1     -32.147 -57.126  10.150  1.00  0.00     0.249 C 
HETATM    2  O1  UNL     1     -32.849 -57.764   9.330  1.00  0.00    -0.271 OA
HETATM    3  N5  UNL     1     -31.879 -55.752   9.802  1.00  0.00    -0.346 N 
ATOM      4  H5  UNL     1     -31.312 -55.192  10.438  1.00  0.00     0.163 HD
ENDROOT
BRANCH   3   5
HETATM    5  C6  UNL     1     -32.369 -55.141   8.611  1.00  0.00     0.238 C 
BRANCH   5   6
HETATM    6  N6  UNL     1     -31.443 -55.229   7.502  1.00  0.00    -0.202 NA
HETATM    7  C7  UNL     1     -31.413 -53.955   6.836  1.00  0.00     0.218 C 
HETATM    8  C8  UNL     1     -30.517 -53.928   5.649  1.00  0.00     0.233 C 
HETATM    9  O2  UNL     1     -29.530 -53.105   5.665  1.00  0.00    -0.272 OA
HETATM   10  N7  UNL     1     -30.644 -54.719   4.503  1.00  0.00    -0.344 N 
HETATM   11  C9  UNL     1     -31.831 -54.917   3.700  1.00  0.00     0.249 C 
ATOM     12  H7  UNL     1     -29.805 -55.214   4.199  1.00  0.00     0.164 HD
HETATM   13  N8  UNL     1     -33.064 -54.678   4.420  1.00  0.00    -0.337 N 
HETATM   14  C10 UNL     1     -33.673 -55.655   5.269  1.00  0.00     0.311 C 
ATOM     15  H8  UNL     1     -33.519 -53.771   4.317  1.00  0.00     0.164 HD
HETATM   16  O3  UNL     1     -34.941 -55.671   5.359  1.00  0.00    -0.262 OA
HETATM   17  C11 UNL     1     -32.900 -56.630   6.034  1.00  0.00     0.323 C 
HETATM   18  O4  UNL     1     -33.384 -57.817   6.062  1.00  0.00    -0.261 OA
HETATM   19  N9  UNL     1     -31.688 -56.321   6.715  1.00  0.00    -0.279 N 
ATOM     20  H9  UNL     1     -30.922 -56.984   6.604  1.00  0.00     0.184 HD
ENDBRANCH   5   6
ENDBRANCH   3   5
BRANCH   1  21
HETATM   21  C4  UNL     1     -31.637 -57.741  11.374  1.00  0.00     0.276 C 
BRANCH  21  22
HETATM   22  C3  UNL     1     -30.992 -59.073  11.183  1.00  0.00     0.062 C 
BRANCH  22  23
HETATM   23  C2  UNL     1     -29.505 -58.983  11.160  1.00  0.00     0.125 C 
BRANCH  23  24
HETATM   24  N3  UNL     1     -28.967 -59.161   9.823  1.00  0.00    -0.365 N 
HETATM   25  C1  UNL     1     -28.287 -58.146   9.123  1.00  0.00     0.181 C 
HETATM   26  N1  UNL     1     -28.922 -57.088   8.763  1.00  0.00    -0.374 N 
HETATM   27  N2  UNL     1     -26.914 -58.240   8.795  1.00  0.00    -0.064 NA
ATOM     28  H12 UNL     1     -28.430 -56.353   8.255  1.00  0.00     0.158 HD
ATOM     29  H11 UNL     1     -29.912 -57.021   8.999  1.00  0.00     0.158 HD
ATOM     30  H3  UNL     1     -29.087 -60.066   9.369  1.00  0.00     0.162 HD
ENDBRANCH  23  24
ENDBRANCH  22  23
ENDBRANCH  21  22
BRANCH  21  31
HETATM   31  N4  UNL     1     -30.671 -56.805  11.951  1.00  0.00    -0.066 N 
ATOM     32  H43 UNL     1     -30.058 -57.255  12.630  1.00  0.00     0.275 HD
ATOM     33  H42 UNL     1     -29.960 -56.523  11.277  1.00  0.00     0.275 HD
ATOM     34  H41 UNL     1     -31.164 -56.005  12.348  1.00  0.00     0.275 HD
ENDBRANCH  21  31
ENDBRANCH   1  21
TORSDOF 7
ENDMDL
MODEL 3
REMARK VINA RESULT: -7.689973655      1.758      2.987
REMARK  7 active torsions:
REMARK  status: ('A' for Active; 'I' for Inactive)
REMARK       I    between atoms: C1_4  and  N3_6 
REMARK    1  A    between atoms: N3_6  and  C2_8 
REMARK    2  A    between atoms: C2_8  and  C3_9 
REMARK    3  A    between atoms: C3_9  and  C4_10 
REMARK    4  A    between atoms: C4_10  and  N4_11 
REMARK    5  A    between atoms: C4_10  and  C5_15 
REMARK       I    between atoms: C5_15  and  N5_17 
REMARK    6  A    between atoms: N5_17  and  C6_19 
REMARK    7  A    between atoms: C6_19  and  N6_20 
ROOT
HETATM    1  C5  UNL     1     -31.777 -58.648  10.687  1.00  0.00     0.249 C 
HETATM    2  O1  UNL     1     -32.059 -57.678  11.430  1.00  0.00    -0.271 OA
HETATM    3  N5  UNL     1     -32.683 -58.874   9.589  1.00  0.00    -0.346 N 
ATOM      4  H5  UNL     1     -32.496 -59.652   8.956  1.00  0.00     0.163 HD
ENDROOT
BRANCH   3   5
HETATM    5  C6  UNL     1     -33.829 -58.062   9.345  1.00  0.00     0.238 C 
BRANCH   5   6
HETATM    6  N6  UNL     1     -34.201 -58.002   7.948  1.00  0.00    -0.202 NA
HETATM    7  C7  UNL     1     -33.042 -58.316   7.157  1.00  0.00     0.218 C 
HETATM    8  C8  UNL     1     -33.290 -58.254   5.692  1.00  0.00     0.233 C 
HETATM    9  O2  UNL     1     -33.124 -59.332   5.012  1.00  0.00    -0.272 OA
HETATM   10  N7  UNL     1     -33.691 -57.124   4.971  1.00  0.00    -0.344 N 
HETATM   11  C9  UNL     1     -33.097 -55.805   5.006  1.00  0.00     0.249 C 
ATOM     12  H7  UNL     1     -34.492 -57.243   4.352  1.00  0.00     0.164 HD
HETATM   13  N8  UNL     1     -32.372 -55.528   6.227  1.00  0.00    -0.337 N 
HETATM   14  C10 UNL     1     -33.010 -55.095   7.432  1.00  0.00     0.311 C 
ATOM     15  H8  UNL     1     -31.359 -55.648   6.229  1.00  0.00     0.164 HD
HETATM   16  O3  UNL     1     -32.372 -54.313   8.206  1.00  0.00    -0.262 OA
HETATM   17  C11 UNL     1     -34.357 -55.513   7.808  1.00  0.00     0.323 C 
HETATM   18  O4  UNL     1     -35.098 -54.596   8.312  1.00  0.00    -0.261 OA
HETATM   19  N9  UNL     1     -34.851 -56.838   7.640  1.00  0.00    -0.279 N 
ATOM     20  H9  UNL     1     -35.788 -56.929   7.248  1.00  0.00     0.184 HD
ENDBRANCH   5   6
ENDBRANCH   3   5
BRANCH   1  21
HETATM   21  C4  UNL     1     -30.606 -59.490  10.926  1.00  0.00     0.276 C 
BRANCH  21  22
HETATM   22  C3  UNL     1     -29.688 -59.630   9.757  1.00  0.00     0.062 C 
BRANCH  22  23
HETATM   23  C2  UNL     1     -28.784 -58.456   9.604  1.00  0.00     0.125 C 
BRANCH  23  24
HETATM   24  N3  UNL     1     -29.277 -57.510   8.618  1.00  0.00    -0.365 N 
HETATM   25  C1  UNL     1     -29.511 -56.152   8.901  1.00  0.00     0.181 C 
HETATM   26  N1  UNL     1     -30.440 -55.826   9.727  1.00  0.00    -0.374 N 
HETATM   27  N2  UNL     1     -28.755 -55.112   8.308  1.00  0.00    -0.064 NA
ATOM     28  H12 UNL     1     -30.609 -54.841   9.932  1.00  0.00     0.158 HD
ATOM     29  H11 UNL     1     -30.984 -56.575  10.154  1.00  0.00     0.158 HD
ATOM     30  H3  UNL     1     -29.463 -57.848   7.674  1.00  0.00     0.162 HD
ENDBRANCH  23  24
ENDBRANCH  22  23
ENDBRANCH  21  22
BRANCH  21  31
HETATM   31  N4  UNL     1     -29.880 -58.903  12.052  1.00  0.00    -0.066 N 
ATOM     32  H43 UNL     1     -29.079 -58.348  11.748  1.00  0.00     0.275 HD
ATOM     33  H42 UNL     1     -30.409 -58.158  12.505  1.00  0.00     0.275 HD
ATOM     34  H41 UNL     1     -29.611 -59.637  12.707  1.00  0.00     0.275 HD
ENDBRANCH  21  31
ENDBRANCH   1  21
TORSDOF 7
ENDMDL
MODEL 4
REMARK VINA RESULT: -7.674344206      2.110      5.190
REMARK  7 active torsions:
REMARK  status: ('A' for Active; 'I' for Inactive)
REMARK       I    between atoms: C1_4  and  N3_6 
REMARK    1  A    between atoms: N3_6  and  C2_8 
REMARK    2  A    between atoms: C2_8  and  C3_9 
REMARK    3  A    between atoms: C3_9  and  C4_10 
REMARK    4  A    between atoms: C4_10  and  N4_11 
REMARK    5  A    between atoms: C4_10  and  C5_15 
REMARK       I    between atoms: C5_15  and  N5_17 
REMARK    6  A    between atoms: N5_17  and  C6_19 
REMARK    7  A    between atoms: C6_19  and  N6_20 
ROOT
HETATM    1  C5  UNL     1     -33.670 -56.344   9.752  1.00  0.00     0.249 C 
HETATM    2  O1  UNL     1     -33.803 -57.579   9.587  1.00  0.00    -0.271 OA
HETATM    3  N5  UNL     1     -32.836 -55.951  10.861  1.00  0.00    -0.346 N 
ATOM      4  H5  UNL     1     -32.697 -54.956  11.036  1.00  0.00     0.163 HD
ENDROOT
BRANCH   3   5
HETATM    5  C6  UNL     1     -32.198 -56.887  11.725  1.00  0.00     0.238 C 
BRANCH   5   6
HETATM    6  N6  UNL     1     -30.761 -56.930  11.560  1.00  0.00    -0.202 NA
HETATM    7  C7  UNL     1     -30.435 -56.362  10.280  1.00  0.00     0.218 C 
HETATM    8  C8  UNL     1     -28.979 -56.380   9.976  1.00  0.00     0.233 C 
HETATM    9  O2  UNL     1     -28.394 -55.251   9.792  1.00  0.00    -0.272 OA
HETATM   10  N7  UNL     1     -28.174 -57.519   9.871  1.00  0.00    -0.344 N 
HETATM   11  C9  UNL     1     -28.432 -58.706   9.085  1.00  0.00     0.249 C 
ATOM     12  H7  UNL     1     -27.307 -57.512  10.408  1.00  0.00     0.164 HD
HETATM   13  N8  UNL     1     -29.834 -58.919   8.800  1.00  0.00    -0.337 N 
HETATM   14  C10 UNL     1     -30.735 -59.533   9.727  1.00  0.00     0.311 C 
ATOM     15  H8  UNL     1     -30.198 -58.616   7.897  1.00  0.00     0.164 HD
HETATM   16  O3  UNL     1     -31.693 -60.230   9.266  1.00  0.00    -0.262 OA
HETATM   17  C11 UNL     1     -30.598 -59.392  11.174  1.00  0.00     0.323 C 
HETATM   18  O4  UNL     1     -30.812 -60.458  11.854  1.00  0.00    -0.261 OA
HETATM   19  N9  UNL     1     -30.251 -58.173  11.822  1.00  0.00    -0.279 N 
ATOM     20  H9  UNL     1     -29.549 -58.232  12.558  1.00  0.00     0.184 HD
ENDBRANCH   5   6
ENDBRANCH   3   5
BRANCH   1  21
HETATM   21  C4  UNL     1     -34.320 -55.372   8.874  1.00  0.00     0.276 C 
BRANCH  21  22
HETATM   22  C3  UNL     1     -33.915 -55.455   7.440  1.00  0.00     0.062 C 
BRANCH  22  23
HETATM   23  C2  UNL     1     -32.437 -55.548   7.275  1.00  0.00     0.125 C 
BRANCH  23  24
HETATM   24  N3  UNL     1     -31.783 -54.265   7.464  1.00  0.00    -0.365 N 
HETATM   25  C1  UNL     1     -30.636 -53.871   6.750  1.00  0.00     0.181 C 
HETATM   26  N1  UNL     1     -29.529 -54.500   6.928  1.00  0.00    -0.374 N 
HETATM   27  N2  UNL     1     -30.648 -52.797   5.828  1.00  0.00    -0.064 NA
ATOM     28  H12 UNL     1     -28.698 -54.214   6.411  1.00  0.00     0.158 HD
ATOM     29  H11 UNL     1     -29.521 -55.273   7.593  1.00  0.00     0.158 HD
ATOM     30  H3  UNL     1     -32.175 -53.618   8.148  1.00  0.00     0.162 HD
ENDBRANCH  23  24
ENDBRANCH  22  23
ENDBRANCH  21  22
BRANCH  21  31
HETATM   31  N4  UNL     1     -35.763 -55.590   8.990  1.00  0.00    -0.066 N 
ATOM     32  H43 UNL     1     -36.203 -54.924   9.625  1.00  0.00     0.275 HD
ATOM     33  H42 UNL     1     -36.260 -55.331   8.139  1.00  0.00     0.275 HD
ATOM     34  H41 UNL     1     -35.942 -56.556   9.262  1.00  0.00     0.275 HD
ENDBRANCH  21  31
ENDBRANCH   1  21
TORSDOF 7
ENDMDL
MODEL 5
REMARK VINA RESULT: -7.610011249      1.913      3.753
REMARK  7 active torsions:
REMARK  status: ('A' for Active; 'I' for Inactive)
REMARK       I    between atoms: C1_4  and  N3_6 
REMARK    1  A    between atoms: N3_6  and  C2_8 
REMARK    2  A    between atoms: C2_8  and  C3_9 
REMARK    3  A    between atoms: C3_9  and  C4_10 
REMARK    4  A    between atoms: C4_10  and  N4_11 
REMARK    5  A    between atoms: C4_10  and  C5_15 
REMARK       I    between atoms: C5_15  and  N5_17 
REMARK    6  A    between atoms: N5_17  and  C6_19 
REMARK    7  A    between atoms: C6_19  and  N6_20 
ROOT
HETATM    1  C5  UNL     1     -28.684 -56.837   9.618  1.00  0.00     0.249 C 
HETATM    2  O1  UNL     1     -28.514 -55.887  10.418  1.00  0.00    -0.271 OA
HETATM    3  N5  UNL     1     -29.275 -56.484   8.350  1.00  0.00    -0.346 N 
ATOM      4  H5  UNL     1     -29.433 -57.223   7.665  1.00  0.00     0.163 HD
ENDROOT
BRANCH   3   5
HETATM    5  C6  UNL     1     -29.648 -55.152   8.010  1.00  0.00     0.238 C 
BRANCH   5   6
HETATM    6  N6  UNL     1     -31.073 -54.991   7.810  1.00  0.00    -0.202 NA
HETATM    7  C7  UNL     1     -31.609 -56.241   7.342  1.00  0.00     0.218 C 
HETATM    8  C8  UNL     1     -33.068 -56.193   7.065  1.00  0.00     0.233 C 
HETATM    9  O2  UNL     1     -33.831 -56.975   7.743  1.00  0.00    -0.272 OA
HETATM   10  N7  UNL     1     -33.703 -55.371   6.128  1.00  0.00    -0.344 N 
HETATM   11  C9  UNL     1     -33.354 -55.196   4.735  1.00  0.00     0.249 C 
ATOM     12  H7  UNL     1     -34.502 -54.833   6.465  1.00  0.00     0.164 HD
HETATM   13  N8  UNL     1     -31.972 -55.508   4.441  1.00  0.00    -0.337 N 
HETATM   14  C10 UNL     1     -30.901 -54.585   4.657  1.00  0.00     0.311 C 
ATOM     15  H8  UNL     1     -31.751 -56.429   4.062  1.00  0.00     0.164 HD
HETATM   16  O3  UNL     1     -29.902 -54.624   3.871  1.00  0.00    -0.262 OA
HETATM   17  C11 UNL     1     -30.908 -53.605   5.739  1.00  0.00     0.323 C 
HETATM   18  O4  UNL     1     -30.470 -52.440   5.430  1.00  0.00    -0.261 OA
HETATM   19  N9  UNL     1     -31.363 -53.885   7.059  1.00  0.00    -0.279 N 
ATOM     20  H9  UNL     1     -31.970 -53.187   7.489  1.00  0.00     0.184 HD
ENDBRANCH   5   6
ENDBRANCH   3   5
BRANCH   1  21
HETATM   21  C4  UNL     1     -28.306 -58.209   9.954  1.00  0.00     0.276 C 
BRANCH  21  22
HETATM   22  C3  UNL     1     -29.434 -59.188   9.943  1.00  0.00     0.062 C 
BRANCH  22  23
HETATM   23  C2  UNL     1     -29.904 -59.522  11.316  1.00  0.00     0.125 C 
BRANCH  23  24
HETATM   24  N3  UNL     1     -31.187 -58.913  11.619  1.00  0.00    -0.365 N 
HETATM   25  C1  UNL     1     -31.385 -57.521  11.680  1.00  0.00     0.181 C 
HETATM   26  N1  UNL     1     -30.805 -56.835  12.600  1.00  0.00    -0.374 N 
HETATM   27  N2  UNL     1     -32.207 -56.830  10.757  1.00  0.00    -0.064 NA
ATOM     28  H12 UNL     1     -30.948 -55.827  12.644  1.00  0.00     0.158 HD
ATOM     29  H11 UNL     1     -30.213 -57.334  13.265  1.00  0.00     0.158 HD
ATOM     30  H3  UNL     1     -31.984 -59.524  11.797  1.00  0.00     0.162 HD
ENDBRANCH  23  24
ENDBRANCH  22  23
ENDBRANCH  21  22
BRANCH  21  31
HETATM   31  N4  UNL     1     -27.290 -58.622   8.986  1.00  0.00    -0.066 N 
ATOM     32  H43 UNL     1     -26.378 -58.763   9.421  1.00  0.00     0.275 HD
ATOM     33  H42 UNL     1     -27.440 -59.573   8.651  1.00  0.00     0.275 HD
ATOM     34  H41 UNL     1     -27.251 -57.947   8.221  1.00  0.00     0.275 HD
ENDBRANCH  21  31
ENDBRANCH   1  21
TORSDOF 7
ENDMDL
