MODEL 1
REMARK VINA RESULT: -7.125259826      0.000      0.000
REMARK  7 active torsions:
REMARK  status: ('A' for Active; 'I' for Inactive)
REMARK    1  A    between atoms: C3_11  and  C4_12 
REMARK    2  A    between atoms: C4_12  and  C5_13 
REMARK    3  A    between atoms: C5_13  and  C6_14 
REMARK    4  A    between atoms: C6_14  and  C7_15 
REMARK    5  A    between atoms: C7_15  and  C8_16 
REMARK    6  A    between atoms: C8_16  and  C9_17 
REMARK    7  A    between atoms: N4_22  and  O2_23 
ROOT
HETATM    1  C4  UNL     1     -32.325 -55.951   5.888  1.00  0.00     0.035 C 
ENDROOT
BRANCH   1   2
HETATM    2  C3  UNL     1     -32.085 -54.891   6.965  1.00  0.00     0.177 C 
HETATM    3  C1  UNL     1     -31.338 -53.784   6.348  1.00  0.00     0.259 C 
HETATM    4  O1  UNL     1     -31.911 -52.691   6.109  1.00  0.00    -0.269 OA
HETATM    5  N1  UNL     1     -29.967 -53.970   6.030  1.00  0.00    -0.266 N 
HETATM    6  N2  UNL     1     -29.240 -54.920   6.746  1.00  0.00    -0.274 N 
ATOM      7  H1  UNL     1     -29.524 -53.420   5.294  1.00  0.00     0.190 HD
HETATM    8  C2  UNL     1     -29.901 -55.655   7.757  1.00  0.00     0.187 C 
ATOM      9  H2  UNL     1     -28.253 -55.081   6.544  1.00  0.00     0.189 HD
HETATM   10  S1  UNL     1     -29.089 -56.790   8.635  1.00  0.00    -0.040 SA
HETATM   11  N3  UNL     1     -31.287 -55.429   8.038  1.00  0.00    -0.353 N 
ATOM     12  H3  UNL     1     -31.688 -55.637   8.952  1.00  0.00     0.162 HD
ENDBRANCH   1   2
BRANCH   1  13
HETATM   13  C5  UNL     1     -33.554 -56.751   6.262  1.00  0.00     0.002 C 
BRANCH  13  14
HETATM   14  C6  UNL     1     -33.289 -58.242   6.179  1.00  0.00     0.000 C 
BRANCH  14  15
HETATM   15  C7  UNL     1     -33.867 -58.984   7.366  1.00  0.00     0.006 C 
BRANCH  15  16
HETATM   16  C8  UNL     1     -33.679 -58.162   8.599  1.00  0.00     0.059 C 
BRANCH  16  17
HETATM   17  C9  UNL     1     -32.571 -58.577   9.470  1.00  0.00     0.039 A 
HETATM   18  C10 UNL     1     -31.926 -59.787   9.326  1.00  0.00     0.027 A 
HETATM   19  C11 UNL     1     -30.883 -60.174  10.150  1.00  0.00     0.003 A 
HETATM   20  C12 UNL     1     -30.455 -59.335  11.159  1.00  0.00     0.020 A 
HETATM   21  C13 UNL     1     -31.117 -58.127  11.282  1.00  0.00     0.123 A 
HETATM   22  N4  UNL     1     -32.126 -57.778  10.469  1.00  0.00    -0.240 N 
BRANCH  22  23
HETATM   23  O2  UNL     1     -32.717 -56.553  10.678  1.00  0.00    -0.283 OA
ATOM     24  H2  UNL     1     -32.329 -55.773  10.300  1.00  0.00     0.245 HD
ENDBRANCH  22  23
ENDBRANCH  16  17
ENDBRANCH  15  16
ENDBRANCH  14  15
ENDBRANCH  13  14
ENDBRANCH   1  13
TORSDOF 7
ENDMDL
MODEL 2
REMARK VINA RESULT: -6.700245343      1.215      1.923
REMARK  7 active torsions:
REMARK  status: ('A' for Active; 'I' for Inactive)
REMARK    1  A    between atoms: C3_11  and  C4_12 
REMARK    2  A    between atoms: C4_12  and  C5_13 
REMARK    3  A    between atoms: C5_13  and  C6_14 
REMARK    4  A    between atoms: C6_14  and  C7_15 
REMARK    5  A    between atoms: C7_15  and  C8_16 
REMARK    6  A    between atoms: C8_16  and  C9_17 
REMARK    7  A    between atoms: N4_22  and  O2_23 
ROOT
HETATM    1  C4  UNL     1     -32.330 -55.954   5.976  1.00  0.00     0.035 C 
ENDROOT
BRANCH   1   2
HETATM    2  C3  UNL     1     -32.080 -54.836   6.990  1.00  0.00     0.177 C 
HETATM    3  C1  UNL     1     -31.291 -53.790   6.321  1.00  0.00     0.259 C 
HETATM    4  O1  UNL     1     -31.830 -52.699   6.003  1.00  0.00    -0.269 OA
HETATM    5  N1  UNL     1     -29.921 -54.031   6.042  1.00  0.00    -0.266 N 
HETATM    6  N2  UNL     1     -29.233 -54.954   6.829  1.00  0.00    -0.274 N 
ATOM      7  H1  UNL     1     -29.449 -53.540   5.282  1.00  0.00     0.190 HD
HETATM    8  C2  UNL     1     -29.933 -55.607   7.870  1.00  0.00     0.187 C 
ATOM      9  H2  UNL     1     -28.248 -55.154   6.657  1.00  0.00     0.189 HD
HETATM   10  S1  UNL     1     -29.168 -56.707   8.832  1.00  0.00    -0.040 SA
HETATM   11  N3  UNL     1     -31.316 -55.327   8.110  1.00  0.00    -0.353 N 
ATOM     12  H3  UNL     1     -31.740 -55.468   9.027  1.00  0.00     0.162 HD
ENDBRANCH   1   2
BRANCH   1  13
HETATM   13  C5  UNL     1     -33.617 -55.659   5.237  1.00  0.00     0.002 C 
BRANCH  13  14
HETATM   14  C6  UNL     1     -34.670 -55.089   6.168  1.00  0.00     0.000 C 
BRANCH  14  15
HETATM   15  C7  UNL     1     -35.582 -56.168   6.713  1.00  0.00     0.006 C 
BRANCH  15  16
HETATM   16  C8  UNL     1     -35.327 -56.337   8.175  1.00  0.00     0.059 C 
BRANCH  16  17
HETATM   17  C9  UNL     1     -34.389 -57.411   8.531  1.00  0.00     0.039 A 
HETATM   18  C10 UNL     1     -34.421 -58.653   7.934  1.00  0.00     0.027 A 
HETATM   19  C11 UNL     1     -33.536 -59.662   8.274  1.00  0.00     0.003 A 
HETATM   20  C12 UNL     1     -32.578 -59.440   9.243  1.00  0.00     0.020 A 
HETATM   21  C13 UNL     1     -32.568 -58.186   9.826  1.00  0.00     0.123 A 
HETATM   22  N4  UNL     1     -33.438 -57.227   9.476  1.00  0.00    -0.240 N 
BRANCH  22  23
HETATM   23  O2  UNL     1     -33.340 -56.014  10.119  1.00  0.00    -0.283 OA
ATOM     24  H2  UNL     1     -34.128 -55.527  10.329  1.00  0.00     0.245 HD
ENDBRANCH  22  23
ENDBRANCH  16  17
ENDBRANCH  15  16
ENDBRANCH  14  15
ENDBRANCH  13  14
ENDBRANCH   1  13
TORSDOF 7
ENDMDL
MODEL 3
REMARK VINA RESULT: -6.637957871      2.661      3.869
REMARK  7 active torsions:
REMARK  status: ('A' for Active; 'I' for Inactive)
REMARK    1  A    between atoms: C3_11  and  C4_12 
REMARK    2  A    between atoms: C4_12  and  C5_13 
REMARK    3  A    between atoms: C5_13  and  C6_14 
REMARK    4  A    between atoms: C6_14  and  C7_15 
REMARK    5  A    between atoms: C7_15  and  C8_16 
REMARK    6  A    between atoms: C8_16  and  C9_17 
REMARK    7  A    between atoms: N4_22  and  O2_23 
ROOT
HETATM    1  C4  UNL     1     -32.573 -55.280   7.527  1.00  0.00     0.035 C 
ENDROOT
BRANCH   1   2
HETATM    2  C3  UNL     1     -33.644 -55.858   6.601  1.00  0.00     0.177 C 
HETATM    3  C1  UNL     1     -34.939 -55.282   6.995  1.00  0.00     0.259 C 
HETATM    4  O1  UNL     1     -35.492 -54.416   6.270  1.00  0.00    -0.269 OA
HETATM    5  N1  UNL     1     -35.550 -55.718   8.200  1.00  0.00    -0.266 N 
HETATM    6  N2  UNL     1     -35.231 -56.984   8.688  1.00  0.00    -0.274 N 
ATOM      7  H1  UNL     1     -36.207 -55.118   8.698  1.00  0.00     0.190 HD
HETATM    8  C2  UNL     1     -34.314 -57.778   7.960  1.00  0.00     0.187 C 
ATOM      9  H2  UNL     1     -35.649 -57.331   9.552  1.00  0.00     0.189 HD
HETATM   10  S1  UNL     1     -33.902 -59.283   8.492  1.00  0.00    -0.040 SA
HETATM   11  N3  UNL     1     -33.726 -57.290   6.749  1.00  0.00    -0.353 N 
ATOM     12  H3  UNL     1     -33.382 -57.924   6.028  1.00  0.00     0.162 HD
ENDBRANCH   1   2
BRANCH   1  13
HETATM   13  C5  UNL     1     -31.213 -55.539   6.915  1.00  0.00     0.002 C 
BRANCH  13  14
HETATM   14  C6  UNL     1     -30.409 -56.518   7.749  1.00  0.00     0.000 C 
BRANCH  14  15
HETATM   15  C7  UNL     1     -29.120 -55.903   8.252  1.00  0.00     0.006 C 
BRANCH  15  16
HETATM   16  C8  UNL     1     -28.753 -56.527   9.558  1.00  0.00     0.059 C 
BRANCH  16  17
HETATM   17  C9  UNL     1     -29.401 -57.814   9.846  1.00  0.00     0.039 A 
HETATM   18  C10 UNL     1     -29.101 -58.968   9.153  1.00  0.00     0.027 A 
HETATM   19  C11 UNL     1     -29.715 -60.178   9.428  1.00  0.00     0.003 A 
HETATM   20  C12 UNL     1     -30.665 -60.257  10.426  1.00  0.00     0.020 A 
HETATM   21  C13 UNL     1     -30.948 -59.086  11.105  1.00  0.00     0.123 A 
HETATM   22  N4  UNL     1     -30.337 -57.927  10.817  1.00  0.00    -0.240 N 
BRANCH  22  23
HETATM   23  O2  UNL     1     -30.693 -56.821  11.555  1.00  0.00    -0.283 OA
ATOM     24  H2  UNL     1     -31.579 -56.741  11.887  1.00  0.00     0.245 HD
ENDBRANCH  22  23
ENDBRANCH  16  17
ENDBRANCH  15  16
ENDBRANCH  14  15
ENDBRANCH  13  14
ENDBRANCH   1  13
TORSDOF 7
ENDMDL
MODEL 4
REMARK VINA RESULT: -6.637598194      2.624      3.233
REMARK  7 active torsions:
REMARK  status: ('A' for Active; 'I' for Inactive)
REMARK    1  A    between atoms: C3_11  and  C4_12 
REMARK    2  A    between atoms: C4_12  and  C5_13 
REMARK    3  A    between atoms: C5_13  and  C6_14 
REMARK    4  A    between atoms: C6_14  and  C7_15 
REMARK    5  A    between atoms: C7_15  and  C8_16 
REMARK    6  A    between atoms: C8_16  and  C9_17 
REMARK    7  A    between atoms: N4_22  and  O2_23 
ROOT
HETATM    1  C4  UNL     1     -32.021 -55.324   7.884  1.00  0.00     0.035 C 
ENDROOT
BRANCH   1   2
HETATM    2  C3  UNL     1     -30.952 -55.749   6.875  1.00  0.00     0.177 C 
HETATM    3  C1  UNL     1     -30.056 -54.602   6.659  1.00  0.00     0.259 C 
HETATM    4  O1  UNL     1     -28.894 -54.610   7.137  1.00  0.00    -0.269 OA
HETATM    5  N1  UNL     1     -30.524 -53.494   5.905  1.00  0.00    -0.266 N 
HETATM    6  N2  UNL     1     -31.542 -53.701   4.976  1.00  0.00    -0.274 N 
ATOM      7  H1  UNL     1     -30.124 -52.565   6.041  1.00  0.00     0.190 HD
HETATM    8  C2  UNL     1     -32.062 -55.008   4.826  1.00  0.00     0.187 C 
ATOM      9  H2  UNL     1     -31.904 -52.929   4.418  1.00  0.00     0.189 HD
HETATM   10  S1  UNL     1     -33.266 -55.310   3.741  1.00  0.00    -0.040 SA
HETATM   11  N3  UNL     1     -31.555 -56.092   5.611  1.00  0.00    -0.353 N 
ATOM     12  H3  UNL     1     -31.616 -57.059   5.292  1.00  0.00     0.162 HD
ENDBRANCH   1   2
BRANCH   1  13
HETATM   13  C5  UNL     1     -32.809 -56.549   8.298  1.00  0.00     0.002 C 
BRANCH  13  14
HETATM   14  C6  UNL     1     -33.117 -56.531   9.783  1.00  0.00     0.000 C 
BRANCH  14  15
HETATM   15  C7  UNL     1     -32.606 -57.775  10.478  1.00  0.00     0.006 C 
BRANCH  15  16
HETATM   16  C8  UNL     1     -31.223 -57.524  10.983  1.00  0.00     0.059 C 
BRANCH  16  17
HETATM   17  C9  UNL     1     -30.138 -58.015  10.122  1.00  0.00     0.039 A 
HETATM   18  C10 UNL     1     -30.025 -59.339   9.752  1.00  0.00     0.027 A 
HETATM   19  C11 UNL     1     -29.001 -59.797   8.942  1.00  0.00     0.003 A 
HETATM   20  C12 UNL     1     -28.046 -58.916   8.475  1.00  0.00     0.020 A 
HETATM   21  C13 UNL     1     -28.182 -57.596   8.860  1.00  0.00     0.123 A 
HETATM   22  N4  UNL     1     -29.186 -57.179   9.647  1.00  0.00    -0.240 N 
BRANCH  22  23
HETATM   23  O2  UNL     1     -29.227 -55.842   9.971  1.00  0.00    -0.283 OA
ATOM     24  H2  UNL     1     -29.441 -55.202   9.302  1.00  0.00     0.245 HD
ENDBRANCH  22  23
ENDBRANCH  16  17
ENDBRANCH  15  16
ENDBRANCH  14  15
ENDBRANCH  13  14
ENDBRANCH   1  13
TORSDOF 7
ENDMDL
MODEL 5
REMARK VINA RESULT: -6.560596271      2.385      4.535
REMARK  7 active torsions:
REMARK  status: ('A' for Active; 'I' for Inactive)
REMARK    1  A    between atoms: C3_11  and  C4_12 
REMARK    2  A    between atoms: C4_12  and  C5_13 
REMARK    3  A    between atoms: C5_13  and  C6_14 
REMARK    4  A    between atoms: C6_14  and  C7_15 
REMARK    5  A    between atoms: C7_15  and  C8_16 
REMARK    6  A    between atoms: C8_16  and  C9_17 
REMARK    7  A    between atoms: N4_22  and  O2_23 
ROOT
HETATM    1  C4  UNL     1     -29.106 -59.221   8.616  1.00  0.00     0.035 C 
ENDROOT
BRANCH   1   2
HETATM    2  C3  UNL     1     -28.070 -58.097   8.683  1.00  0.00     0.177 C 
HETATM    3  C1  UNL     1     -28.077 -57.558  10.052  1.00  0.00     0.259 C 
HETATM    4  O1  UNL     1     -27.124 -57.804  10.833  1.00  0.00    -0.269 OA
HETATM    5  N1  UNL     1     -29.173 -56.760  10.473  1.00  0.00    -0.266 N 
HETATM    6  N2  UNL     1     -29.911 -56.078   9.507  1.00  0.00    -0.274 N 
ATOM      7  H1  UNL     1     -29.416 -56.688  11.461  1.00  0.00     0.190 HD
HETATM    8  C2  UNL     1     -29.534 -56.212   8.150  1.00  0.00     0.187 C 
ATOM      9  H2  UNL     1     -30.706 -55.497   9.772  1.00  0.00     0.189 HD
HETATM   10  S1  UNL     1     -30.371 -55.426   6.967  1.00  0.00    -0.040 SA
HETATM   11  N3  UNL     1     -28.419 -57.030   7.778  1.00  0.00    -0.353 N 
ATOM     12  H3  UNL     1     -27.899 -56.865   6.917  1.00  0.00     0.162 HD
ENDBRANCH   1   2
BRANCH   1  13
HETATM   13  C5  UNL     1     -29.445 -59.651  10.027  1.00  0.00     0.002 C 
BRANCH  13  14
HETATM   14  C6  UNL     1     -30.921 -59.971  10.167  1.00  0.00     0.000 C 
BRANCH  14  15
HETATM   15  C7  UNL     1     -31.708 -59.538   8.948  1.00  0.00     0.006 C 
BRANCH  15  16
HETATM   16  C8  UNL     1     -33.071 -59.100   9.373  1.00  0.00     0.059 C 
BRANCH  16  17
HETATM   17  C9  UNL     1     -33.505 -57.795   8.855  1.00  0.00     0.039 A 
HETATM   18  C10 UNL     1     -34.239 -57.663   7.696  1.00  0.00     0.027 A 
HETATM   19  C11 UNL     1     -34.643 -56.430   7.212  1.00  0.00     0.003 A 
HETATM   20  C12 UNL     1     -34.313 -55.278   7.897  1.00  0.00     0.020 A 
HETATM   21  C13 UNL     1     -33.577 -55.439   9.056  1.00  0.00     0.123 A 
HETATM   22  N4  UNL     1     -33.198 -56.646   9.503  1.00  0.00    -0.240 N 
BRANCH  22  23
HETATM   23  O2  UNL     1     -32.467 -56.693  10.668  1.00  0.00    -0.283 OA
ATOM     24  H2  UNL     1     -32.828 -57.126  11.433  1.00  0.00     0.245 HD
ENDBRANCH  22  23
ENDBRANCH  16  17
ENDBRANCH  15  16
ENDBRANCH  14  15
ENDBRANCH  13  14
ENDBRANCH   1  13
TORSDOF 7
ENDMDL
