MODEL 1
REMARK VINA RESULT: -6.133611965      0.000      0.000
REMARK  13 active torsions:
REMARK  status: ('A' for Active; 'I' for Inactive)
REMARK    1  A    between atoms: N1_1  and  C1_4 
REMARK    2  A    between atoms: C4_7  and  C5_8 
REMARK    3  A    between atoms: C6_9  and  C7_10 
REMARK    4  A    between atoms: N2_13  and  C10_14 
REMARK    5  A    between atoms: C10_14  and  C11_15 
REMARK    6  A    between atoms: C11_15  and  C12_16 
REMARK    7  A    between atoms: C12_16  and  C13_17 
REMARK    8  A    between atoms: C18_23  and  N4_24 
REMARK    9  A    between atoms: N6_30  and  C20_31 
REMARK   10  A    between atoms: C20_31  and  C21_32 
REMARK   11  A    between atoms: C21_32  and  C22_33 
REMARK   12  A    between atoms: C22_33  and  C23_34 
REMARK   13  A    between atoms: C23_34  and  S1_35 
ROOT
HETATM    1  C13 UNL     1     -29.303   6.288  53.278  1.00  0.00    -0.054 A 
HETATM    2  C14 UNL     1     -29.704   7.348  52.458  1.00  0.00     0.026 A 
HETATM    3  C15 UNL     1     -29.837   8.638  52.912  1.00  0.00     0.117 A 
HETATM    4  N3  UNL     1     -29.567   8.895  54.221  1.00  0.00    -0.261 N 
HETATM    5  C16 UNL     1     -29.183   7.904  55.020  1.00  0.00     0.100 A 
HETATM    6  C17 UNL     1     -29.040   6.592  54.588  1.00  0.00     0.042 A 
HETATM    7  C18 UNL     1     -28.900   8.129  56.360  1.00  0.00     0.129 A 
HETATM    8  N5  UNL     1     -29.029   9.374  56.809  1.00  0.00    -0.336 N 
ATOM      9  H5  UNL     1     -28.832   9.585  57.788  1.00  0.00     0.168 HD
HETATM   10  C19 UNL     1     -29.423  10.369  55.966  1.00  0.00     0.202 A 
HETATM   11  N6  UNL     1     -29.696  10.154  54.672  1.00  0.00    -0.281 N 
ENDROOT
BRANCH   1  12
HETATM   12  C12 UNL     1     -29.211   4.934  52.692  1.00  0.00     0.040 C 
BRANCH  12  13
HETATM   13  C11 UNL     1     -28.504   4.996  51.371  1.00  0.00     0.025 C 
BRANCH  13  14
HETATM   14  C10 UNL     1     -27.029   4.960  51.571  1.00  0.00     0.128 C 
BRANCH  14  15
HETATM   15  N2  UNL     1     -26.330   5.905  50.712  1.00  0.00    -0.366 N 
HETATM   16  C9  UNL     1     -25.062   6.282  50.979  1.00  0.00     0.092 A 
HETATM   17  C8  UNL     1     -24.416   7.184  50.146  1.00  0.00     0.038 A 
HETATM   18  C7  UNL     1     -25.054   7.705  49.045  1.00  0.00     0.020 A 
HETATM   19  C25 UNL     1     -26.354   7.290  48.811  1.00  0.00     0.038 A 
HETATM   20  C24 UNL     1     -26.992   6.386  49.651  1.00  0.00     0.092 A 
BRANCH  18  21
HETATM   21  C6  UNL     1     -24.369   8.639  48.196  1.00  0.00    -0.061 C 
HETATM   22  C5  UNL     1     -23.784   9.432  47.498  1.00  0.00    -0.060 C 
BRANCH  22  23
HETATM   23  C4  UNL     1     -23.099  10.394  46.682  1.00  0.00     0.033 A 
HETATM   24  C3  UNL     1     -23.757  11.082  45.677  1.00  0.00     0.026 A 
HETATM   25  C2  UNL     1     -23.088  12.004  44.902  1.00  0.00     0.049 A 
HETATM   26  C1  UNL     1     -21.756  12.255  45.112  1.00  0.00     0.098 A 
HETATM   27  N7  UNL     1     -21.118  11.591  46.083  1.00  0.00    -0.351 N 
HETATM   28  C26 UNL     1     -21.754  10.693  46.845  1.00  0.00     0.110 A 
ATOM     29  H7  UNL     1     -20.128  11.773  46.246  1.00  0.00     0.166 HD
BRANCH  26  30
HETATM   30  N1  UNL     1     -21.089  13.117  44.401  1.00  0.00    -0.385 N 
ATOM     31  H12 UNL     1     -21.524  14.014  44.182  1.00  0.00     0.157 HD
ATOM     32  H11 UNL     1     -20.148  12.928  44.055  1.00  0.00     0.157 HD
ENDBRANCH  26  30
ENDBRANCH  22  23
ENDBRANCH  18  21
ENDBRANCH  14  15
ENDBRANCH  13  14
ENDBRANCH  12  13
ENDBRANCH   1  12
BRANCH   7  33
HETATM   33  N4  UNL     1     -28.527   7.147  57.131  1.00  0.00    -0.384 N 
ATOM     34  H42 UNL     1     -28.910   6.207  57.039  1.00  0.00     0.157 HD
ATOM     35  H41 UNL     1     -27.828   7.298  57.858  1.00  0.00     0.157 HD
ENDBRANCH   7  33
BRANCH  11  36
HETATM   36  C20 UNL     1     -30.096  11.197  53.740  1.00  0.00     0.150 C 
BRANCH  36  37
HETATM   37  C21 UNL     1     -29.182  12.366  53.680  1.00  0.00     0.023 C 
BRANCH  37  38
HETATM   38  C22 UNL     1     -28.036  12.165  52.754  1.00  0.00     0.018 C 
BRANCH  38  39
HETATM   39  C23 UNL     1     -26.909  11.348  53.302  1.00  0.00     0.157 C 
BRANCH  39  40
HETATM   40  S1  UNL     1     -26.507  10.175  52.259  1.00  0.00     0.250 S 
HETATM   41  O1  UNL     1     -26.489   8.884  52.599  1.00  0.00    -0.212 OA
HETATM   42  O2  UNL     1     -25.757  10.566  51.002  1.00  0.00    -0.212 OA
ENDBRANCH  39  40
ENDBRANCH  38  39
ENDBRANCH  37  38
ENDBRANCH  36  37
ENDBRANCH  11  36
TORSDOF 13
ENDMDL
MODEL 2
REMARK VINA RESULT: -6.004906811      6.254     11.215
REMARK  13 active torsions:
REMARK  status: ('A' for Active; 'I' for Inactive)
REMARK    1  A    between atoms: N1_1  and  C1_4 
REMARK    2  A    between atoms: C4_7  and  C5_8 
REMARK    3  A    between atoms: C6_9  and  C7_10 
REMARK    4  A    between atoms: N2_13  and  C10_14 
REMARK    5  A    between atoms: C10_14  and  C11_15 
REMARK    6  A    between atoms: C11_15  and  C12_16 
REMARK    7  A    between atoms: C12_16  and  C13_17 
REMARK    8  A    between atoms: C18_23  and  N4_24 
REMARK    9  A    between atoms: N6_30  and  C20_31 
REMARK   10  A    between atoms: C20_31  and  C21_32 
REMARK   11  A    between atoms: C21_32  and  C22_33 
REMARK   12  A    between atoms: C22_33  and  C23_34 
REMARK   13  A    between atoms: C23_34  and  S1_35 
ROOT
HETATM    1  C13 UNL     1     -18.990   9.197  43.656  1.00  0.00    -0.054 A 
HETATM    2  C14 UNL     1     -19.215   9.049  45.028  1.00  0.00     0.026 A 
HETATM    3  C15 UNL     1     -20.308   9.580  45.671  1.00  0.00     0.117 A 
HETATM    4  N3  UNL     1     -21.213  10.282  44.936  1.00  0.00    -0.261 N 
HETATM    5  C16 UNL     1     -21.022  10.436  43.629  1.00  0.00     0.100 A 
HETATM    6  C17 UNL     1     -19.927   9.910  42.955  1.00  0.00     0.042 A 
HETATM    7  C18 UNL     1     -21.923  11.146  42.848  1.00  0.00     0.129 A 
HETATM    8  N5  UNL     1     -22.982  11.665  43.462  1.00  0.00    -0.336 N 
ATOM      9  H5  UNL     1     -23.670  12.196  42.927  1.00  0.00     0.168 HD
HETATM   10  C19 UNL     1     -23.152  11.490  44.802  1.00  0.00     0.202 A 
HETATM   11  N6  UNL     1     -22.283  10.804  45.557  1.00  0.00    -0.281 N 
ENDROOT
BRANCH   1  12
HETATM   12  C12 UNL     1     -17.770   8.603  43.070  1.00  0.00     0.040 C 
BRANCH  12  13
HETATM   13  C11 UNL     1     -17.445   7.314  43.765  1.00  0.00     0.025 C 
BRANCH  13  14
HETATM   14  C10 UNL     1     -17.576   6.169  42.823  1.00  0.00     0.128 C 
BRANCH  14  15
HETATM   15  N2  UNL     1     -18.958   5.749  42.650  1.00  0.00    -0.366 N 
HETATM   16  C9  UNL     1     -19.586   5.888  41.463  1.00  0.00     0.092 A 
HETATM   17  C8  UNL     1     -20.904   5.480  41.323  1.00  0.00     0.038 A 
HETATM   18  C7  UNL     1     -21.587   4.932  42.382  1.00  0.00     0.020 A 
HETATM   19  C25 UNL     1     -20.904   4.808  43.580  1.00  0.00     0.038 A 
HETATM   20  C24 UNL     1     -19.583   5.219  43.711  1.00  0.00     0.092 A 
BRANCH  18  21
HETATM   21  C6  UNL     1     -22.952   4.516  42.217  1.00  0.00    -0.061 C 
HETATM   22  C5  UNL     1     -24.099   4.176  42.059  1.00  0.00    -0.060 C 
BRANCH  22  23
HETATM   23  C4  UNL     1     -25.472   3.797  41.871  1.00  0.00     0.033 A 
HETATM   24  C3  UNL     1     -26.294   3.520  42.950  1.00  0.00     0.026 A 
HETATM   25  C2  UNL     1     -27.610   3.159  42.756  1.00  0.00     0.049 A 
HETATM   26  C1  UNL     1     -28.127   3.065  41.488  1.00  0.00     0.098 A 
HETATM   27  N7  UNL     1     -27.333   3.333  40.445  1.00  0.00    -0.351 N 
HETATM   28  C26 UNL     1     -26.053   3.686  40.618  1.00  0.00     0.110 A 
ATOM     29  H7  UNL     1     -27.710   3.267  39.499  1.00  0.00     0.166 HD
BRANCH  26  30
HETATM   30  N1  UNL     1     -29.363   2.727  41.264  1.00  0.00    -0.385 N 
ATOM     31  H12 UNL     1     -29.918   2.356  42.035  1.00  0.00     0.157 HD
ATOM     32  H11 UNL     1     -29.795   2.819  40.344  1.00  0.00     0.157 HD
ENDBRANCH  26  30
ENDBRANCH  22  23
ENDBRANCH  18  21
ENDBRANCH  14  15
ENDBRANCH  13  14
ENDBRANCH  12  13
ENDBRANCH   1  12
BRANCH   7  33
HETATM   33  N4  UNL     1     -21.721  11.288  41.569  1.00  0.00    -0.384 N 
ATOM     34  H42 UNL     1     -21.054  10.712  41.056  1.00  0.00     0.157 HD
ATOM     35  H41 UNL     1     -22.234  11.992  41.039  1.00  0.00     0.157 HD
ENDBRANCH   7  33
BRANCH  11  36
HETATM   36  C20 UNL     1     -22.447  10.579  46.985  1.00  0.00     0.150 C 
BRANCH  36  37
HETATM   37  C21 UNL     1     -23.851  10.401  47.433  1.00  0.00     0.023 C 
BRANCH  37  38
HETATM   38  C22 UNL     1     -24.223   8.976  47.639  1.00  0.00     0.018 C 
BRANCH  38  39
HETATM   39  C23 UNL     1     -25.065   8.704  48.843  1.00  0.00     0.157 C 
BRANCH  39  40
HETATM   40  S1  UNL     1     -24.637   9.682  50.061  1.00  0.00     0.250 S 
HETATM   41  O1  UNL     1     -23.455   9.592  50.676  1.00  0.00    -0.212 OA
HETATM   42  O2  UNL     1     -25.731  10.442  50.783  1.00  0.00    -0.212 OA
ENDBRANCH  39  40
ENDBRANCH  38  39
ENDBRANCH  37  38
ENDBRANCH  36  37
ENDBRANCH  11  36
TORSDOF 13
ENDMDL
MODEL 3
REMARK VINA RESULT: -5.945048026      2.954      3.736
REMARK  13 active torsions:
REMARK  status: ('A' for Active; 'I' for Inactive)
REMARK    1  A    between atoms: N1_1  and  C1_4 
REMARK    2  A    between atoms: C4_7  and  C5_8 
REMARK    3  A    between atoms: C6_9  and  C7_10 
REMARK    4  A    between atoms: N2_13  and  C10_14 
REMARK    5  A    between atoms: C10_14  and  C11_15 
REMARK    6  A    between atoms: C11_15  and  C12_16 
REMARK    7  A    between atoms: C12_16  and  C13_17 
REMARK    8  A    between atoms: C18_23  and  N4_24 
REMARK    9  A    between atoms: N6_30  and  C20_31 
REMARK   10  A    between atoms: C20_31  and  C21_32 
REMARK   11  A    between atoms: C21_32  and  C22_33 
REMARK   12  A    between atoms: C22_33  and  C23_34 
REMARK   13  A    between atoms: C23_34  and  S1_35 
ROOT
HETATM    1  C13 UNL     1     -28.682   7.271  52.458  1.00  0.00    -0.054 A 
HETATM    2  C14 UNL     1     -29.576   7.654  53.463  1.00  0.00     0.026 A 
HETATM    3  C15 UNL     1     -29.605   8.919  53.998  1.00  0.00     0.117 A 
HETATM    4  N3  UNL     1     -28.720   9.841  53.529  1.00  0.00    -0.261 N 
HETATM    5  C16 UNL     1     -27.860   9.501  52.574  1.00  0.00     0.100 A 
HETATM    6  C17 UNL     1     -27.810   8.230  52.015  1.00  0.00     0.042 A 
HETATM    7  C18 UNL     1     -26.943  10.414  52.072  1.00  0.00     0.129 A 
HETATM    8  N5  UNL     1     -26.961  11.640  52.586  1.00  0.00    -0.336 N 
ATOM      9  H5  UNL     1     -26.304  12.343  52.247  1.00  0.00     0.168 HD
HETATM   10  C19 UNL     1     -27.855  11.960  53.563  1.00  0.00     0.202 A 
HETATM   11  N6  UNL     1     -28.741  11.080  54.048  1.00  0.00    -0.281 N 
ENDROOT
BRANCH   1  12
HETATM   12  C12 UNL     1     -28.723   5.877  51.968  1.00  0.00     0.040 C 
BRANCH  12  13
HETATM   13  C11 UNL     1     -27.531   5.121  52.476  1.00  0.00     0.025 C 
BRANCH  13  14
HETATM   14  C10 UNL     1     -26.771   4.527  51.342  1.00  0.00     0.128 C 
BRANCH  14  15
HETATM   15  N2  UNL     1     -26.137   5.539  50.509  1.00  0.00    -0.366 N 
HETATM   16  C9  UNL     1     -26.659   5.884  49.313  1.00  0.00     0.092 A 
HETATM   17  C8  UNL     1     -26.037   6.850  48.537  1.00  0.00     0.038 A 
HETATM   18  C7  UNL     1     -24.887   7.467  48.970  1.00  0.00     0.020 A 
HETATM   19  C25 UNL     1     -24.388   7.082  50.203  1.00  0.00     0.038 A 
HETATM   20  C24 UNL     1     -25.019   6.113  50.973  1.00  0.00     0.092 A 
BRANCH  18  21
HETATM   21  C6  UNL     1     -24.257   8.465  48.152  1.00  0.00    -0.061 C 
HETATM   22  C5  UNL     1     -23.727   9.317  47.480  1.00  0.00    -0.060 C 
BRANCH  22  23
HETATM   23  C4  UNL     1     -23.119  10.346  46.685  1.00  0.00     0.033 A 
HETATM   24  C3  UNL     1     -23.856  11.072  45.764  1.00  0.00     0.026 A 
HETATM   25  C2  UNL     1     -23.259  12.057  45.008  1.00  0.00     0.049 A 
HETATM   26  C1  UNL     1     -21.923  12.335  45.153  1.00  0.00     0.098 A 
HETATM   27  N7  UNL     1     -21.211  11.635  46.043  1.00  0.00    -0.351 N 
HETATM   28  C26 UNL     1     -21.776  10.675  46.786  1.00  0.00     0.110 A 
ATOM     29  H7  UNL     1     -20.217  11.836  46.158  1.00  0.00     0.166 HD
BRANCH  26  30
HETATM   30  N1  UNL     1     -21.325  13.258  44.458  1.00  0.00    -0.385 N 
ATOM     31  H12 UNL     1     -21.334  13.189  43.440  1.00  0.00     0.157 HD
ATOM     32  H11 UNL     1     -20.846  14.046  44.895  1.00  0.00     0.157 HD
ENDBRANCH  26  30
ENDBRANCH  22  23
ENDBRANCH  18  21
ENDBRANCH  14  15
ENDBRANCH  13  14
ENDBRANCH  12  13
ENDBRANCH   1  12
BRANCH   7  33
HETATM   33  N4  UNL     1     -26.106  10.064  51.137  1.00  0.00    -0.384 N 
ATOM     34  H42 UNL     1     -25.109   9.942  51.315  1.00  0.00     0.157 HD
ATOM     35  H41 UNL     1     -26.433   9.899  50.185  1.00  0.00     0.157 HD
ENDBRANCH   7  33
BRANCH  11  36
HETATM   36  C20 UNL     1     -29.724  11.396  55.073  1.00  0.00     0.150 C 
BRANCH  36  37
HETATM   37  C21 UNL     1     -29.199  11.403  56.463  1.00  0.00     0.023 C 
BRANCH  37  38
HETATM   38  C22 UNL     1     -30.074  10.678  57.421  1.00  0.00     0.018 C 
BRANCH  38  39
HETATM   39  C23 UNL     1     -31.500  10.531  56.998  1.00  0.00     0.157 C 
BRANCH  39  40
HETATM   40  S1  UNL     1     -32.439  11.563  57.820  1.00  0.00     0.250 S 
HETATM   41  O1  UNL     1     -33.483  12.185  57.266  1.00  0.00    -0.212 OA
HETATM   42  O2  UNL     1     -31.900  12.143  59.112  1.00  0.00    -0.212 OA
ENDBRANCH  39  40
ENDBRANCH  38  39
ENDBRANCH  37  38
ENDBRANCH  36  37
ENDBRANCH  11  36
TORSDOF 13
ENDMDL
MODEL 4
REMARK VINA RESULT: -5.862206307      1.996      2.857
REMARK  13 active torsions:
REMARK  status: ('A' for Active; 'I' for Inactive)
REMARK    1  A    between atoms: N1_1  and  C1_4 
REMARK    2  A    between atoms: C4_7  and  C5_8 
REMARK    3  A    between atoms: C6_9  and  C7_10 
REMARK    4  A    between atoms: N2_13  and  C10_14 
REMARK    5  A    between atoms: C10_14  and  C11_15 
REMARK    6  A    between atoms: C11_15  and  C12_16 
REMARK    7  A    between atoms: C12_16  and  C13_17 
REMARK    8  A    between atoms: C18_23  and  N4_24 
REMARK    9  A    between atoms: N6_30  and  C20_31 
REMARK   10  A    between atoms: C20_31  and  C21_32 
REMARK   11  A    between atoms: C21_32  and  C22_33 
REMARK   12  A    between atoms: C22_33  and  C23_34 
REMARK   13  A    between atoms: C23_34  and  S1_35 
ROOT
HETATM    1  C13 UNL     1     -28.347   7.046  52.480  1.00  0.00    -0.054 A 
HETATM    2  C14 UNL     1     -29.550   7.582  52.948  1.00  0.00     0.026 A 
HETATM    3  C15 UNL     1     -29.742   8.927  53.155  1.00  0.00     0.117 A 
HETATM    4  N3  UNL     1     -28.711   9.776  52.892  1.00  0.00    -0.261 N 
HETATM    5  C16 UNL     1     -27.556   9.290  52.445  1.00  0.00     0.100 A 
HETATM    6  C17 UNL     1     -27.336   7.935  52.227  1.00  0.00     0.042 A 
HETATM    7  C18 UNL     1     -26.483  10.125  52.168  1.00  0.00     0.129 A 
HETATM    8  N5  UNL     1     -26.658  11.428  52.368  1.00  0.00    -0.336 N 
ATOM      9  H5  UNL     1     -25.896  12.078  52.177  1.00  0.00     0.168 HD
HETATM   10  C19 UNL     1     -27.853  11.896  52.825  1.00  0.00     0.202 A 
HETATM   11  N6  UNL     1     -28.890  11.091  53.093  1.00  0.00    -0.281 N 
ENDROOT
BRANCH   1  12
HETATM   12  C12 UNL     1     -28.242   5.580  52.312  1.00  0.00     0.040 C 
BRANCH  12  13
HETATM   13  C11 UNL     1     -28.039   5.246  50.864  1.00  0.00     0.025 C 
BRANCH  13  14
HETATM   14  C10 UNL     1     -26.639   4.802  50.625  1.00  0.00     0.128 C 
BRANCH  14  15
HETATM   15  N2  UNL     1     -25.855   5.800  49.911  1.00  0.00    -0.366 N 
HETATM   16  C9  UNL     1     -24.520   5.892  50.085  1.00  0.00     0.092 A 
HETATM   17  C8  UNL     1     -23.794   6.851  49.394  1.00  0.00     0.038 A 
HETATM   18  C7  UNL     1     -24.419   7.716  48.528  1.00  0.00     0.020 A 
HETATM   19  C25 UNL     1     -25.790   7.585  48.381  1.00  0.00     0.038 A 
HETATM   20  C24 UNL     1     -26.508   6.621  49.078  1.00  0.00     0.092 A 
BRANCH  18  21
HETATM   21  C6  UNL     1     -23.651   8.703  47.822  1.00  0.00    -0.061 C 
HETATM   22  C5  UNL     1     -23.018   9.531  47.212  1.00  0.00    -0.060 C 
BRANCH  22  23
HETATM   23  C4  UNL     1     -22.262  10.498  46.468  1.00  0.00     0.033 A 
HETATM   24  C3  UNL     1     -20.931  10.747  46.760  1.00  0.00     0.026 A 
HETATM   25  C2  UNL     1     -20.216  11.678  46.037  1.00  0.00     0.049 A 
HETATM   26  C1  UNL     1     -20.812  12.375  45.017  1.00  0.00     0.098 A 
HETATM   27  N7  UNL     1     -22.098  12.135  44.734  1.00  0.00    -0.351 N 
HETATM   28  C26 UNL     1     -22.805  11.234  45.426  1.00  0.00     0.110 A 
ATOM     29  H7  UNL     1     -22.547  12.648  43.976  1.00  0.00     0.166 HD
BRANCH  26  30
HETATM   30  N1  UNL     1     -20.171  13.261  44.312  1.00  0.00    -0.385 N 
ATOM     31  H12 UNL     1     -20.088  14.211  44.675  1.00  0.00     0.157 HD
ATOM     32  H11 UNL     1     -19.749  13.040  43.409  1.00  0.00     0.157 HD
ENDBRANCH  26  30
ENDBRANCH  22  23
ENDBRANCH  18  21
ENDBRANCH  14  15
ENDBRANCH  13  14
ENDBRANCH  12  13
ENDBRANCH   1  12
BRANCH   7  33
HETATM   33  N4  UNL     1     -25.359   9.633  51.731  1.00  0.00    -0.384 N 
ATOM     34  H42 UNL     1     -24.781   9.010  52.296  1.00  0.00     0.157 HD
ATOM     35  H41 UNL     1     -25.022   9.862  50.796  1.00  0.00     0.157 HD
ENDBRANCH   7  33
BRANCH  11  36
HETATM   36  C20 UNL     1     -30.185  11.561  53.560  1.00  0.00     0.150 C 
BRANCH  36  37
HETATM   37  C21 UNL     1     -30.218  12.000  54.978  1.00  0.00     0.023 C 
BRANCH  37  38
HETATM   38  C22 UNL     1     -30.163  10.868  55.941  1.00  0.00     0.018 C 
BRANCH  38  39
HETATM   39  C23 UNL     1     -29.001  10.886  56.882  1.00  0.00     0.157 C 
BRANCH  39  40
HETATM   40  S1  UNL     1     -27.891   9.799  56.423  1.00  0.00     0.250 S 
HETATM   41  O1  UNL     1     -26.766  10.142  55.790  1.00  0.00    -0.212 OA
HETATM   42  O2  UNL     1     -28.307   8.344  56.346  1.00  0.00    -0.212 OA
ENDBRANCH  39  40
ENDBRANCH  38  39
ENDBRANCH  37  38
ENDBRANCH  36  37
ENDBRANCH  11  36
TORSDOF 13
ENDMDL
MODEL 5
REMARK VINA RESULT: -5.805492321      4.121     11.592
REMARK  13 active torsions:
REMARK  status: ('A' for Active; 'I' for Inactive)
REMARK    1  A    between atoms: N1_1  and  C1_4 
REMARK    2  A    between atoms: C4_7  and  C5_8 
REMARK    3  A    between atoms: C6_9  and  C7_10 
REMARK    4  A    between atoms: N2_13  and  C10_14 
REMARK    5  A    between atoms: C10_14  and  C11_15 
REMARK    6  A    between atoms: C11_15  and  C12_16 
REMARK    7  A    between atoms: C12_16  and  C13_17 
REMARK    8  A    between atoms: C18_23  and  N4_24 
REMARK    9  A    between atoms: N6_30  and  C20_31 
REMARK   10  A    between atoms: C20_31  and  C21_32 
REMARK   11  A    between atoms: C21_32  and  C22_33 
REMARK   12  A    between atoms: C22_33  and  C23_34 
REMARK   13  A    between atoms: C23_34  and  S1_35 
ROOT
HETATM    1  C13 UNL     1     -23.678   9.833  47.293  1.00  0.00    -0.054 A 
HETATM    2  C14 UNL     1     -22.354   9.630  47.695  1.00  0.00     0.026 A 
HETATM    3  C15 UNL     1     -21.281  10.218  47.069  1.00  0.00     0.117 A 
HETATM    4  N3  UNL     1     -21.520  11.037  46.008  1.00  0.00    -0.261 N 
HETATM    5  C16 UNL     1     -22.770  11.246  45.607  1.00  0.00     0.100 A 
HETATM    6  C17 UNL     1     -23.872  10.665  46.222  1.00  0.00     0.042 A 
HETATM    7  C18 UNL     1     -23.051  12.073  44.529  1.00  0.00     0.129 A 
HETATM    8  N5  UNL     1     -22.019  12.645  43.915  1.00  0.00    -0.336 N 
ATOM      9  H5  UNL     1     -22.179  13.260  43.117  1.00  0.00     0.168 HD
HETATM   10  C19 UNL     1     -20.750  12.412  44.349  1.00  0.00     0.202 A 
HETATM   11  N6  UNL     1     -20.476  11.614  45.391  1.00  0.00    -0.281 N 
ENDROOT
BRANCH   1  12
HETATM   12  C12 UNL     1     -24.756   9.134  48.024  1.00  0.00     0.040 C 
BRANCH  12  13
HETATM   13  C11 UNL     1     -24.911   9.726  49.393  1.00  0.00     0.025 C 
BRANCH  13  14
HETATM   14  C10 UNL     1     -25.126   8.652  50.401  1.00  0.00     0.128 C 
BRANCH  14  15
HETATM   15  N2  UNL     1     -25.855   9.126  51.569  1.00  0.00    -0.366 N 
HETATM   16  C9  UNL     1     -26.304  10.397  51.642  1.00  0.00     0.092 A 
HETATM   17  C8  UNL     1     -26.996  10.826  52.765  1.00  0.00     0.038 A 
HETATM   18  C7  UNL     1     -27.233   9.970  53.813  1.00  0.00     0.020 A 
HETATM   19  C25 UNL     1     -26.755   8.676  53.695  1.00  0.00     0.038 A 
HETATM   20  C24 UNL     1     -26.063   8.256  52.566  1.00  0.00     0.092 A 
BRANCH  18  21
HETATM   21  C6  UNL     1     -27.951  10.433  54.968  1.00  0.00    -0.061 C 
HETATM   22  C5  UNL     1     -28.572  10.813  55.931  1.00  0.00    -0.060 C 
BRANCH  22  23
HETATM   23  C4  UNL     1     -29.326  11.279  57.061  1.00  0.00     0.033 A 
HETATM   24  C3  UNL     1     -28.749  12.087  58.025  1.00  0.00     0.026 A 
HETATM   25  C2  UNL     1     -29.484  12.527  59.105  1.00  0.00     0.049 A 
HETATM   26  C1  UNL     1     -30.802  12.171  59.242  1.00  0.00     0.098 A 
HETATM   27  N7  UNL     1     -31.361  11.390  58.310  1.00  0.00    -0.351 N 
HETATM   28  C26 UNL     1     -30.660  10.955  57.256  1.00  0.00     0.110 A 
ATOM     29  H7  UNL     1     -32.341  11.122  58.404  1.00  0.00     0.166 HD
BRANCH  26  30
HETATM   30  N1  UNL     1     -31.529  12.567  60.246  1.00  0.00    -0.385 N 
ATOM     31  H12 UNL     1     -31.474  12.053  61.125  1.00  0.00     0.157 HD
ATOM     32  H11 UNL     1     -32.153  13.372  60.184  1.00  0.00     0.157 HD
ENDBRANCH  26  30
ENDBRANCH  22  23
ENDBRANCH  18  21
ENDBRANCH  14  15
ENDBRANCH  13  14
ENDBRANCH  12  13
ENDBRANCH   1  12
BRANCH   7  33
HETATM   33  N4  UNL     1     -24.282  12.268  44.148  1.00  0.00    -0.384 N 
ATOM     34  H42 UNL     1     -25.074  11.842  44.628  1.00  0.00     0.157 HD
ATOM     35  H41 UNL     1     -24.487  12.863  43.345  1.00  0.00     0.157 HD
ENDBRANCH   7  33
BRANCH  11  36
HETATM   36  C20 UNL     1     -19.135  11.363  45.894  1.00  0.00     0.150 C 
BRANCH  36  37
HETATM   37  C21 UNL     1     -18.146  10.953  44.864  1.00  0.00     0.023 C 
BRANCH  37  38
HETATM   38  C22 UNL     1     -18.425   9.610  44.290  1.00  0.00     0.018 C 
BRANCH  38  39
HETATM   39  C23 UNL     1     -18.781   9.599  42.838  1.00  0.00     0.157 C 
BRANCH  39  40
HETATM   40  S1  UNL     1     -20.265   8.982  42.629  1.00  0.00     0.250 S 
HETATM   41  O1  UNL     1     -20.478   7.688  42.375  1.00  0.00    -0.212 OA
HETATM   42  O2  UNL     1     -21.397   9.939  42.318  1.00  0.00    -0.212 OA
ENDBRANCH  39  40
ENDBRANCH  38  39
ENDBRANCH  37  38
ENDBRANCH  36  37
ENDBRANCH  11  36
TORSDOF 13
ENDMDL
