MODEL 1
REMARK VINA RESULT: -10.230912467      0.000      0.000
REMARK  7 active torsions:
REMARK  status: ('A' for Active; 'I' for Inactive)
REMARK    1  A    between atoms: C3_9  and  C4_10 
REMARK    2  A    between atoms: N7_17  and  C9_18 
REMARK    3  A    between atoms: C9_18  and  C10_19 
REMARK    4  A    between atoms: C10_19  and  N8_20 
REMARK       I    between atoms: N8_20  and  C11_22 
REMARK    5  A    between atoms: C11_22  and  C12_24 
REMARK    6  A    between atoms: C17_33  and  C18_34 
REMARK    7  A    between atoms: C18_34  and  N10_35 
ROOT
HETATM    1  N1  UNL     1      22.205  12.788   0.227  1.00  0.00    -0.172 NA
HETATM    2  C1  UNL     1      21.186  12.739   0.816  1.00  0.00     0.183 C 
HETATM    3  N2  UNL     1      20.001  12.711   1.493  1.00  0.00    -0.280 N 
ATOM      4  H2  UNL     1      19.630  13.612   1.793  1.00  0.00     0.179 HD
HETATM    5  C2  UNL     1      19.308  11.688   1.790  1.00  0.00     0.140 C 
HETATM    6  N3  UNL     1      18.041  11.671   2.514  1.00  0.00    -0.282 N 
ATOM      7  H3  UNL     1      17.277  12.327   2.675  1.00  0.00     0.188 HD
HETATM    8  N4  UNL     1      18.337  10.364   2.888  1.00  0.00    -0.267 N 
HETATM    9  C3  UNL     1      18.140   9.290   3.847  1.00  0.00     0.092 C 
HETATM   10  C17 UNL     1      19.027   8.338   3.876  1.00  0.00     0.067 C 
HETATM   11  N11 UNL     1      20.176   8.360   2.965  1.00  0.00    -0.325 N 
ATOM     12  H11 UNL     1      20.860   7.604   3.006  1.00  0.00     0.169 HD
HETATM   13  C19 UNL     1      20.353   9.403   2.035  1.00  0.00     0.254 C 
HETATM   14  O3  UNL     1      21.454   9.619   1.500  1.00  0.00    -0.270 OA
HETATM   15  C20 UNL     1      19.180  10.233   1.718  1.00  0.00     0.269 C 
ENDROOT
BRANCH   9  16
HETATM   16  C4  UNL     1      16.934   9.304   4.664  1.00  0.00     0.064 A 
HETATM   17  C5  UNL     1      16.876   9.534   6.005  1.00  0.00     0.045 A 
HETATM   18  C6  UNL     1      15.680   9.535   6.656  1.00  0.00     0.087 A 
HETATM   19  C7  UNL     1      15.650   9.783   8.083  1.00  0.00     0.103 C 
HETATM   20  C8  UNL     1      14.505   9.308   6.005  1.00  0.00     0.142 A 
HETATM   21  N5  UNL     1      15.613   9.987   9.223  1.00  0.00    -0.191 NA
HETATM   22  N6  UNL     1      13.268   9.321   6.741  1.00  0.00    -0.081 NA
HETATM   23  N7  UNL     1      14.524   9.076   4.665  1.00  0.00    -0.299 N 
HETATM   24  C16 UNL     1      15.700   9.074   4.029  1.00  0.00     0.261 A 
HETATM   25  O2  UNL     1      15.766   8.854   2.776  1.00  0.00    -0.267 OA
BRANCH  23  26
HETATM   26  C9  UNL     1      13.273   8.802   4.008  1.00  0.00     0.153 C 
BRANCH  26  27
HETATM   27  C10 UNL     1      12.881   9.688   2.903  1.00  0.00     0.143 C 
BRANCH  27  28
HETATM   28  N8  UNL     1      13.090   9.242   1.561  1.00  0.00    -0.358 N 
HETATM   29  C11 UNL     1      12.976  10.232   0.514  1.00  0.00     0.248 C 
HETATM   30  O1  UNL     1      12.704  11.401   0.848  1.00  0.00    -0.271 OA
ATOM     31  H8  UNL     1      13.311   8.269   1.352  1.00  0.00     0.162 HD
BRANCH  29  32
HETATM   32  C12 UNL     1      13.182   9.829  -0.888  1.00  0.00     0.277 C 
HETATM   33  C13 UNL     1      14.487   9.070  -1.073  1.00  0.00     0.044 C 
HETATM   34  C14 UNL     1      15.498  10.134  -1.437  1.00  0.00     0.030 C 
HETATM   35  C15 UNL     1      14.675  11.225  -2.023  1.00  0.00     0.233 C 
HETATM   36  N9  UNL     1      13.279  10.973  -1.765  1.00  0.00    -0.062 N 
ATOM     37  H92 UNL     1      12.736  10.861  -2.620  1.00  0.00     0.278 HD
ATOM     38  H91 UNL     1      12.793  11.792  -1.399  1.00  0.00     0.278 HD
ENDBRANCH  29  32
ENDBRANCH  27  28
ENDBRANCH  26  27
ENDBRANCH  23  26
ENDBRANCH   9  16
BRANCH  10  39
HETATM   39  C18 UNL     1      18.920   7.214   4.813  1.00  0.00     0.288 C 
BRANCH  39  40
HETATM   40  N10 UNL     1      18.855   5.972   4.021  1.00  0.00    -0.074 N 
ATOM     41 3H10 UNL     1      17.900   5.639   3.886  1.00  0.00     0.274 HD
ATOM     42 2H10 UNL     1      19.088   6.117   3.039  1.00  0.00     0.274 HD
ATOM     43 1H10 UNL     1      19.455   5.283   4.474  1.00  0.00     0.274 HD
ENDBRANCH  39  40
ENDBRANCH  10  39
TORSDOF 7
ENDMDL
MODEL 2
REMARK VINA RESULT: -9.918229404      1.936      6.251
REMARK  7 active torsions:
REMARK  status: ('A' for Active; 'I' for Inactive)
REMARK    1  A    between atoms: C3_9  and  C4_10 
REMARK    2  A    between atoms: N7_17  and  C9_18 
REMARK    3  A    between atoms: C9_18  and  C10_19 
REMARK    4  A    between atoms: C10_19  and  N8_20 
REMARK       I    between atoms: N8_20  and  C11_22 
REMARK    5  A    between atoms: C11_22  and  C12_24 
REMARK    6  A    between atoms: C17_33  and  C18_34 
REMARK    7  A    between atoms: C18_34  and  N10_35 
ROOT
HETATM    1  N1  UNL     1      23.425   7.454   4.178  1.00  0.00    -0.172 NA
HETATM    2  C1  UNL     1      22.303   7.490   3.823  1.00  0.00     0.183 C 
HETATM    3  N2  UNL     1      20.998   7.504   3.422  1.00  0.00    -0.280 N 
ATOM      4  H2  UNL     1      20.550   6.595   3.308  1.00  0.00     0.179 HD
HETATM    5  C2  UNL     1      20.279   8.522   3.175  1.00  0.00     0.140 C 
HETATM    6  N3  UNL     1      18.883   8.524   2.747  1.00  0.00    -0.282 N 
ATOM      7  H3  UNL     1      18.089   7.891   2.828  1.00  0.00     0.188 HD
HETATM    8  N4  UNL     1      19.119   9.773   2.179  1.00  0.00    -0.267 N 
HETATM    9  C3  UNL     1      18.737  10.753   1.177  1.00  0.00     0.092 C 
HETATM   10  C17 UNL     1      19.617  11.656   0.853  1.00  0.00     0.067 C 
HETATM   11  N11 UNL     1      20.938  11.674   1.488  1.00  0.00    -0.325 N 
ATOM     12  H11 UNL     1      21.613  12.389   1.218  1.00  0.00     0.169 HD
HETATM   13  C19 UNL     1      21.295  10.721   2.464  1.00  0.00     0.254 C 
HETATM   14  O3  UNL     1      22.481  10.511   2.766  1.00  0.00    -0.270 OA
HETATM   15  C20 UNL     1      20.203   9.982   3.117  1.00  0.00     0.269 C 
ENDROOT
BRANCH   9  16
HETATM   16  C4  UNL     1      17.381  10.713   0.649  1.00  0.00     0.064 A 
HETATM   17  C5  UNL     1      17.033  10.659  -0.666  1.00  0.00     0.045 A 
HETATM   18  C6  UNL     1      15.723  10.609  -1.035  1.00  0.00     0.087 A 
HETATM   19  C7  UNL     1      15.383  10.553  -2.442  1.00  0.00     0.103 C 
HETATM   20  C8  UNL     1      14.716  10.612  -0.117  1.00  0.00     0.142 A 
HETATM   21  N5  UNL     1      15.100  10.500  -3.565  1.00  0.00    -0.191 NA
HETATM   22  N6  UNL     1      13.347  10.558  -0.560  1.00  0.00    -0.081 NA
HETATM   23  N7  UNL     1      15.026  10.664   1.206  1.00  0.00    -0.299 N 
HETATM   24  C16 UNL     1      16.313  10.714   1.564  1.00  0.00     0.261 A 
HETATM   25  O2  UNL     1      16.648  10.770   2.791  1.00  0.00    -0.267 OA
BRANCH  23  26
HETATM   26  C9  UNL     1      13.942  10.704   2.153  1.00  0.00     0.153 C 
BRANCH  26  27
HETATM   27  C10 UNL     1      13.543   9.435   2.779  1.00  0.00     0.143 C 
BRANCH  27  28
HETATM   28  N8  UNL     1      13.117   9.450   4.143  1.00  0.00    -0.358 N 
HETATM   29  C11 UNL     1      14.084   9.043   5.138  1.00  0.00     0.248 C 
HETATM   30  O1  UNL     1      15.218   8.711   4.744  1.00  0.00    -0.271 OA
ATOM     31  H8  UNL     1      12.173   9.733   4.403  1.00  0.00     0.162 HD
BRANCH  29  32
HETATM   32  C12 UNL     1      13.699   9.039   6.560  1.00  0.00     0.277 C 
HETATM   33  C13 UNL     1      14.260  10.241   7.303  1.00  0.00     0.044 C 
HETATM   34  C14 UNL     1      15.581   9.761   7.862  1.00  0.00     0.030 C 
HETATM   35  C15 UNL     1      15.413   8.287   7.961  1.00  0.00     0.233 C 
HETATM   36  N9  UNL     1      14.224   7.884   7.253  1.00  0.00    -0.062 N 
ATOM     37  H92 UNL     1      13.535   7.444   7.861  1.00  0.00     0.278 HD
ATOM     38  H91 UNL     1      14.386   7.093   6.631  1.00  0.00     0.278 HD
ENDBRANCH  29  32
ENDBRANCH  27  28
ENDBRANCH  26  27
ENDBRANCH  23  26
ENDBRANCH   9  16
BRANCH  10  39
HETATM   39  C18 UNL     1      19.330  12.685  -0.154  1.00  0.00     0.288 C 
BRANCH  39  40
HETATM   40  N10 UNL     1      18.996  13.931   0.558  1.00  0.00    -0.074 N 
ATOM     41 3H10 UNL     1      18.611  13.765   1.489  1.00  0.00     0.274 HD
ATOM     42 2H10 UNL     1      19.822  14.456   0.846  1.00  0.00     0.274 HD
ATOM     43 1H10 UNL     1      18.370  14.472  -0.038  1.00  0.00     0.274 HD
ENDBRANCH  39  40
ENDBRANCH  10  39
TORSDOF 7
ENDMDL
MODEL 3
REMARK VINA RESULT: -9.772928032      1.961      6.379
REMARK  7 active torsions:
REMARK  status: ('A' for Active; 'I' for Inactive)
REMARK    1  A    between atoms: C3_9  and  C4_10 
REMARK    2  A    between atoms: N7_17  and  C9_18 
REMARK    3  A    between atoms: C9_18  and  C10_19 
REMARK    4  A    between atoms: C10_19  and  N8_20 
REMARK       I    between atoms: N8_20  and  C11_22 
REMARK    5  A    between atoms: C11_22  and  C12_24 
REMARK    6  A    between atoms: C17_33  and  C18_34 
REMARK    7  A    between atoms: C18_34  and  N10_35 
ROOT
HETATM    1  N1  UNL     1      23.454   7.199   3.957  1.00  0.00    -0.172 NA
HETATM    2  C1  UNL     1      22.312   7.272   3.681  1.00  0.00     0.183 C 
HETATM    3  N2  UNL     1      20.984   7.329   3.371  1.00  0.00    -0.280 N 
ATOM      4  H2  UNL     1      20.500   6.435   3.284  1.00  0.00     0.179 HD
HETATM    5  C2  UNL     1      20.281   8.371   3.178  1.00  0.00     0.140 C 
HETATM    6  N3  UNL     1      18.860   8.418   2.847  1.00  0.00    -0.282 N 
ATOM      7  H3  UNL     1      18.053   7.809   2.980  1.00  0.00     0.188 HD
HETATM    8  N4  UNL     1      19.095   9.663   2.270  1.00  0.00    -0.267 N 
HETATM    9  C3  UNL     1      18.677  10.661   1.300  1.00  0.00     0.092 C 
HETATM   10  C17 UNL     1      19.560  11.538   0.920  1.00  0.00     0.067 C 
HETATM   11  N11 UNL     1      20.922  11.511   1.462  1.00  0.00    -0.325 N 
ATOM     12  H11 UNL     1      21.598  12.207   1.150  1.00  0.00     0.169 HD
HETATM   13  C19 UNL     1      21.314  10.541   2.408  1.00  0.00     0.254 C 
HETATM   14  O3  UNL     1      22.512  10.293   2.626  1.00  0.00    -0.270 OA
HETATM   15  C20 UNL     1      20.247   9.832   3.131  1.00  0.00     0.269 C 
ENDROOT
BRANCH   9  16
HETATM   16  C4  UNL     1      17.286  10.666   0.866  1.00  0.00     0.064 A 
HETATM   17  C5  UNL     1      16.845  10.534  -0.415  1.00  0.00     0.045 A 
HETATM   18  C6  UNL     1      15.512  10.539  -0.692  1.00  0.00     0.087 A 
HETATM   19  C7  UNL     1      15.072  10.396  -2.065  1.00  0.00     0.103 C 
HETATM   20  C8  UNL     1      14.573  10.675   0.286  1.00  0.00     0.142 A 
HETATM   21  N5  UNL     1      14.709  10.276  -3.159  1.00  0.00    -0.191 NA
HETATM   22  N6  UNL     1      13.176  10.674  -0.061  1.00  0.00    -0.081 NA
HETATM   23  N7  UNL     1      14.977  10.809   1.578  1.00  0.00    -0.299 N 
HETATM   24  C16 UNL     1      16.287  10.804   1.846  1.00  0.00     0.261 A 
HETATM   25  O2  UNL     1      16.710  10.933   3.040  1.00  0.00    -0.267 OA
BRANCH  23  26
HETATM   26  C9  UNL     1      13.967  10.989   2.587  1.00  0.00     0.153 C 
BRANCH  26  27
HETATM   27  C10 UNL     1      13.974  10.059   3.725  1.00  0.00     0.143 C 
BRANCH  27  28
HETATM   28  N8  UNL     1      14.424  10.536   4.995  1.00  0.00    -0.358 N 
HETATM   29  C11 UNL     1      14.438   9.588   6.086  1.00  0.00     0.248 C 
HETATM   30  O1  UNL     1      14.060   8.425   5.849  1.00  0.00    -0.271 OA
ATOM     31  H8  UNL     1      14.722  11.502   5.126  1.00  0.00     0.162 HD
BRANCH  29  32
HETATM   32  C12 UNL     1      14.893  10.024   7.418  1.00  0.00     0.277 C 
HETATM   33  C13 UNL     1      14.513   9.027   8.502  1.00  0.00     0.044 C 
HETATM   34  C14 UNL     1      13.176   9.514   9.016  1.00  0.00     0.030 C 
HETATM   35  C15 UNL     1      13.178  10.966   8.698  1.00  0.00     0.233 C 
HETATM   36  N9  UNL     1      14.274  11.269   7.813  1.00  0.00    -0.062 N 
ATOM     37  H92 UNL     1      14.939  11.926   8.221  1.00  0.00     0.278 HD
ATOM     38  H91 UNL     1      13.990  11.838   7.015  1.00  0.00     0.278 HD
ENDBRANCH  29  32
ENDBRANCH  27  28
ENDBRANCH  26  27
ENDBRANCH  23  26
ENDBRANCH   9  16
BRANCH  10  39
HETATM   39  C18 UNL     1      19.237  12.581  -0.061  1.00  0.00     0.288 C 
BRANCH  39  40
HETATM   40  N10 UNL     1      18.919  13.814   0.682  1.00  0.00    -0.074 N 
ATOM     41 3H10 UNL     1      17.949  14.110   0.562  1.00  0.00     0.274 HD
ATOM     42 2H10 UNL     1      18.892  13.672   1.692  1.00  0.00     0.274 HD
ATOM     43 1H10 UNL     1      19.589  14.529   0.400  1.00  0.00     0.274 HD
ENDBRANCH  39  40
ENDBRANCH  10  39
TORSDOF 7
ENDMDL
MODEL 4
REMARK VINA RESULT: -9.210446520      2.143      6.306
REMARK  7 active torsions:
REMARK  status: ('A' for Active; 'I' for Inactive)
REMARK    1  A    between atoms: C3_9  and  C4_10 
REMARK    2  A    between atoms: N7_17  and  C9_18 
REMARK    3  A    between atoms: C9_18  and  C10_19 
REMARK    4  A    between atoms: C10_19  and  N8_20 
REMARK       I    between atoms: N8_20  and  C11_22 
REMARK    5  A    between atoms: C11_22  and  C12_24 
REMARK    6  A    between atoms: C17_33  and  C18_34 
REMARK    7  A    between atoms: C18_34  and  N10_35 
ROOT
HETATM    1  N1  UNL     1      23.669   6.410   4.883  1.00  0.00    -0.172 NA
HETATM    2  C1  UNL     1      22.579   6.572   4.470  1.00  0.00     0.183 C 
HETATM    3  N2  UNL     1      21.308   6.730   3.998  1.00  0.00    -0.280 N 
ATOM      4  H2  UNL     1      20.803   5.876   3.762  1.00  0.00     0.179 HD
HETATM    5  C2  UNL     1      20.682   7.822   3.820  1.00  0.00     0.140 C 
HETATM    6  N3  UNL     1      19.321   7.978   3.315  1.00  0.00    -0.282 N 
ATOM      7  H3  UNL     1      18.479   7.405   3.281  1.00  0.00     0.188 HD
HETATM    8  N4  UNL     1      19.684   9.256   2.899  1.00  0.00    -0.267 N 
HETATM    9  C3  UNL     1      19.442  10.361   1.987  1.00  0.00     0.092 C 
HETATM   10  C17 UNL     1      20.404  11.219   1.813  1.00  0.00     0.067 C 
HETATM   11  N11 UNL     1      21.678  11.067   2.522  1.00  0.00    -0.325 N 
ATOM     12  H11 UNL     1      22.419  11.751   2.370  1.00  0.00     0.169 HD
HETATM   13  C19 UNL     1      21.899   9.995   3.409  1.00  0.00     0.254 C 
HETATM   14  O3  UNL     1      23.045   9.661   3.755  1.00  0.00    -0.270 OA
HETATM   15  C20 UNL     1      20.716   9.281   3.914  1.00  0.00     0.269 C 
ENDROOT
BRANCH   9  16
HETATM   16  C4  UNL     1      18.123  10.482   1.380  1.00  0.00     0.064 A 
HETATM   17  C5  UNL     1      17.854  10.514   0.046  1.00  0.00     0.045 A 
HETATM   18  C6  UNL     1      16.571  10.616  -0.400  1.00  0.00     0.087 A 
HETATM   19  C7  UNL     1      16.316  10.648  -1.826  1.00  0.00     0.103 C 
HETATM   20  C8  UNL     1      15.515  10.690   0.457  1.00  0.00     0.142 A 
HETATM   21  N5  UNL     1      16.099  10.668  -2.964  1.00  0.00    -0.191 NA
HETATM   22  N6  UNL     1      14.178  10.795  -0.067  1.00  0.00    -0.081 NA
HETATM   23  N7  UNL     1      15.746  10.659   1.797  1.00  0.00    -0.299 N 
HETATM   24  C16 UNL     1      17.006  10.561   2.231  1.00  0.00     0.261 A 
HETATM   25  O2  UNL     1      17.268  10.535   3.477  1.00  0.00    -0.267 OA
BRANCH  23  26
HETATM   26  C9  UNL     1      14.615  10.776   2.681  1.00  0.00     0.153 C 
BRANCH  26  27
HETATM   27  C10 UNL     1      13.945   9.534   3.090  1.00  0.00     0.143 C 
BRANCH  27  28
HETATM   28  N8  UNL     1      13.303   9.491   4.367  1.00  0.00    -0.358 N 
HETATM   29  C11 UNL     1      14.095   9.034   5.486  1.00  0.00     0.248 C 
HETATM   30  O1  UNL     1      15.278   8.711   5.266  1.00  0.00    -0.271 OA
ATOM     31  H8  UNL     1      12.329   9.771   4.482  1.00  0.00     0.162 HD
BRANCH  29  32
HETATM   32  C12 UNL     1      13.485   8.970   6.825  1.00  0.00     0.277 C 
HETATM   33  C13 UNL     1      13.845  10.183   7.671  1.00  0.00     0.044 C 
HETATM   34  C14 UNL     1      15.083   9.764   8.430  1.00  0.00     0.030 C 
HETATM   35  C15 UNL     1      14.991   8.280   8.476  1.00  0.00     0.233 C 
HETATM   36  N9  UNL     1      13.959   7.830   7.576  1.00  0.00    -0.062 N 
ATOM     37  H92 UNL     1      13.208   7.335   8.055  1.00  0.00     0.278 HD
ATOM     38  H91 UNL     1      14.268   7.065   6.975  1.00  0.00     0.278 HD
ENDBRANCH  29  32
ENDBRANCH  27  28
ENDBRANCH  26  27
ENDBRANCH  23  26
ENDBRANCH   9  16
BRANCH  10  39
HETATM   39  C18 UNL     1      20.259  12.366   0.907  1.00  0.00     0.288 C 
BRANCH  39  40
HETATM   40  N10 UNL     1      21.610  12.787   0.496  1.00  0.00    -0.074 N 
ATOM     41 3H10 UNL     1      21.697  13.799   0.399  1.00  0.00     0.274 HD
ATOM     42 2H10 UNL     1      22.305  12.662   1.232  1.00  0.00     0.274 HD
ATOM     43 1H10 UNL     1      21.845  12.286  -0.360  1.00  0.00     0.274 HD
ENDBRANCH  39  40
ENDBRANCH  10  39
TORSDOF 7
ENDMDL
MODEL 5
REMARK VINA RESULT: -9.065012279      1.401      2.636
REMARK  7 active torsions:
REMARK  status: ('A' for Active; 'I' for Inactive)
REMARK    1  A    between atoms: C3_9  and  C4_10 
REMARK    2  A    between atoms: N7_17  and  C9_18 
REMARK    3  A    between atoms: C9_18  and  C10_19 
REMARK    4  A    between atoms: C10_19  and  N8_20 
REMARK       I    between atoms: N8_20  and  C11_22 
REMARK    5  A    between atoms: C11_22  and  C12_24 
REMARK    6  A    between atoms: C17_33  and  C18_34 
REMARK    7  A    between atoms: C18_34  and  N10_35 
ROOT
HETATM    1  N1  UNL     1      22.302   9.388  -0.682  1.00  0.00    -0.172 NA
HETATM    2  C1  UNL     1      21.519   8.991   0.102  1.00  0.00     0.183 C 
HETATM    3  N2  UNL     1      20.620   8.502   1.006  1.00  0.00    -0.280 N 
ATOM      4  H2  UNL     1      20.381   7.515   0.918  1.00  0.00     0.179 HD
HETATM    5  C2  UNL     1      20.046   9.139   1.944  1.00  0.00     0.140 C 
HETATM    6  N3  UNL     1      19.087   8.605   2.905  1.00  0.00    -0.282 N 
ATOM      7  H3  UNL     1      18.870   7.688   3.295  1.00  0.00     0.188 HD
HETATM    8  N4  UNL     1      18.599   9.900   3.052  1.00  0.00    -0.267 N 
HETATM    9  C3  UNL     1      17.478  10.753   3.409  1.00  0.00     0.092 C 
HETATM   10  C17 UNL     1      17.494  11.980   2.976  1.00  0.00     0.067 C 
HETATM   11  N11 UNL     1      18.612  12.472   2.164  1.00  0.00    -0.325 N 
ATOM     12  H11 UNL     1      18.603  13.437   1.834  1.00  0.00     0.169 HD
HETATM   13  C19 UNL     1      19.697  11.637   1.830  1.00  0.00     0.254 C 
HETATM   14  O3  UNL     1      20.468  11.913   0.895  1.00  0.00    -0.270 OA
HETATM   15  C20 UNL     1      19.885  10.419   2.634  1.00  0.00     0.269 C 
ENDROOT
BRANCH   9  16
HETATM   16  C4  UNL     1      16.445  10.211   4.281  1.00  0.00     0.064 A 
HETATM   17  C5  UNL     1      16.483  10.172   5.641  1.00  0.00     0.045 A 
HETATM   18  C6  UNL     1      15.442   9.650   6.348  1.00  0.00     0.087 A 
HETATM   19  C7  UNL     1      15.510   9.622   7.795  1.00  0.00     0.103 C 
HETATM   20  C8  UNL     1      14.333   9.150   5.734  1.00  0.00     0.142 A 
HETATM   21  N5  UNL     1      15.551   9.600   8.953  1.00  0.00    -0.191 NA
HETATM   22  N6  UNL     1      13.261   8.611   6.528  1.00  0.00    -0.081 NA
HETATM   23  N7  UNL     1      14.260   9.174   4.376  1.00  0.00    -0.299 N 
HETATM   24  C16 UNL     1      15.284   9.685   3.686  1.00  0.00     0.261 A 
HETATM   25  O2  UNL     1      15.261   9.722   2.413  1.00  0.00    -0.267 OA
BRANCH  23  26
HETATM   26  C9  UNL     1      13.094   8.605   3.752  1.00  0.00     0.153 C 
BRANCH  26  27
HETATM   27  C10 UNL     1      12.465   9.373   2.668  1.00  0.00     0.143 C 
BRANCH  27  28
HETATM   28  N8  UNL     1      12.766   9.021   1.316  1.00  0.00    -0.358 N 
HETATM   29  C11 UNL     1      12.876  10.103   0.364  1.00  0.00     0.248 C 
HETATM   30  O1  UNL     1      12.704  11.264   0.781  1.00  0.00    -0.271 OA
ATOM     31  H8  UNL     1      12.896   8.049   1.035  1.00  0.00     0.162 HD
BRANCH  29  32
HETATM   32  C12 UNL     1      13.185   9.798  -1.045  1.00  0.00     0.277 C 
HETATM   33  C13 UNL     1      14.490   9.030  -1.185  1.00  0.00     0.044 C 
HETATM   34  C14 UNL     1      15.540  10.098  -1.392  1.00  0.00     0.030 C 
HETATM   35  C15 UNL     1      14.780  11.244  -1.957  1.00  0.00     0.233 C 
HETATM   36  N9  UNL     1      13.365  11.001  -1.825  1.00  0.00    -0.062 N 
ATOM     37  H92 UNL     1      12.888  10.960  -2.725  1.00  0.00     0.278 HD
ATOM     38  H91 UNL     1      12.863  11.800  -1.438  1.00  0.00     0.278 HD
ENDBRANCH  29  32
ENDBRANCH  27  28
ENDBRANCH  26  27
ENDBRANCH  23  26
ENDBRANCH   9  16
BRANCH  10  39
HETATM   39  C18 UNL     1      16.405  12.917   3.276  1.00  0.00     0.288 C 
BRANCH  39  40
HETATM   40  N10 UNL     1      16.968  14.279   3.268  1.00  0.00    -0.074 N 
ATOM     41 3H10 UNL     1      17.266  14.590   4.193  1.00  0.00     0.274 HD
ATOM     42 2H10 UNL     1      17.878  14.329   2.810  1.00  0.00     0.274 HD
ATOM     43 1H10 UNL     1      16.277  14.899   2.846  1.00  0.00     0.274 HD
ENDBRANCH  39  40
ENDBRANCH  10  39
TORSDOF 7
ENDMDL
