MODEL 1
REMARK VINA RESULT: -9.646303161      0.000      0.000
REMARK  8 active torsions:
REMARK  status: ('A' for Active; 'I' for Inactive)
REMARK    1  A    between atoms: N1_1  and  N2_4 
REMARK       I    between atoms: C1_6  and  N3_7 
REMARK       I    between atoms: C1_6  and  N10_38 
REMARK    2  A    between atoms: N3_7  and  C2_9 
REMARK    3  A    between atoms: C2_9  and  S1_10 
REMARK    4  A    between atoms: C2_9  and  C9_30 
REMARK    5  A    between atoms: S1_10  and  C3_11 
REMARK    6  A    between atoms: N4_13  and  O1_14 
REMARK    7  A    between atoms: C9_30  and  C10_32 
REMARK    8  A    between atoms: N10_38  and  N11_40 
ROOT
HETATM    1  C2  UNL     1      18.360   9.761   3.076  1.00  0.00     0.245 C 
ENDROOT
BRANCH   1   2
HETATM    2  N3  UNL     1      18.888   9.387   1.789  1.00  0.00    -0.202 N 
HETATM    3  C1  UNL     1      19.917  10.211   1.242  1.00  0.00     0.712 C 
HETATM    4  N2  UNL     1      20.900   9.675   0.594  1.00  0.00    -0.137 N 
HETATM    5  N10 UNL     1      19.804  11.610   1.443  1.00  0.00    -0.071 N 
ATOM      6  H2  UNL     1      21.618  10.294   0.218  1.00  0.00     0.205 HD
ATOM      7  H10 UNL     1      19.793  12.001   2.385  1.00  0.00     0.212 HD
ATOM      8  H3  UNL     1      18.541   8.568   1.289  1.00  0.00     0.179 HD
BRANCH   4   9
HETATM    9  N1  UNL     1      21.036   8.323   0.381  1.00  0.00    -0.331 N 
ATOM     10  H12 UNL     1      20.298   7.721   0.748  1.00  0.00     0.177 HD
ATOM     11  H11 UNL     1      21.821   7.899  -0.114  1.00  0.00     0.177 HD
ENDBRANCH   4   9
BRANCH   5  12
HETATM   12  N11 UNL     1      19.709  12.439   0.331  1.00  0.00    -0.024 N 
HETATM   13  O5  UNL     1      20.770  12.751  -0.250  1.00  0.00    -0.516 OA
HETATM   14  O6  UNL     1      18.514  12.902  -0.121  1.00  0.00    -0.516 OA
ENDBRANCH   5  12
ENDBRANCH   1   2
BRANCH   1  15
HETATM   15  S1  UNL     1      16.924  10.827   2.974  1.00  0.00    -0.076 SA
BRANCH  15  16
HETATM   16  C3  UNL     1      16.015  10.547   1.439  1.00  0.00     0.091 A 
HETATM   17  C4  UNL     1      14.780   9.936   1.445  1.00  0.00     0.160 A 
HETATM   18  N4  UNL     1      14.110   9.733   0.275  1.00  0.00    -0.224 N 
HETATM   19  C5  UNL     1      14.622  10.115  -0.903  1.00  0.00     0.175 A 
HETATM   20  C6  UNL     1      15.856  10.725  -0.909  1.00  0.00     0.156 A 
HETATM   21  C8  UNL     1      13.761   9.818  -2.068  1.00  0.00     0.282 C 
HETATM   22  N5  UNL     1      16.522  10.926   0.254  1.00  0.00    -0.333 N 
HETATM   23  N6  UNL     1      16.563  11.199  -2.049  1.00  0.00    -0.279 N 
ATOM     24  H5  UNL     1      17.435  11.378   0.229  1.00  0.00     0.168 HD
HETATM   25  N7  UNL     1      16.367  10.978  -3.416  1.00  0.00    -0.250 N 
ATOM     26  H6  UNL     1      17.353  11.807  -1.832  1.00  0.00     0.189 HD
HETATM   27  C7  UNL     1      15.193  10.505  -4.081  1.00  0.00     0.341 C 
ATOM     28  H7  UNL     1      17.166  11.181  -4.016  1.00  0.00     0.192 HD
HETATM   29  O2  UNL     1      15.228  10.482  -5.343  1.00  0.00    -0.245 OA
HETATM   30  N8  UNL     1      14.004  10.067  -3.447  1.00  0.00    -0.272 N 
ATOM     31  H8  UNL     1      13.210   9.907  -4.067  1.00  0.00     0.174 HD
HETATM   32  O3  UNL     1      12.676   9.272  -1.763  1.00  0.00    -0.265 OA
BRANCH  18  33
HETATM   33  O1  UNL     1      12.881   9.126   0.282  1.00  0.00    -0.283 OA
ATOM     34  H1  UNL     1      12.190   9.441  -0.289  1.00  0.00     0.245 HD
ENDBRANCH  18  33
ENDBRANCH  15  16
ENDBRANCH   1  15
BRANCH   1  35
HETATM   35  C9  UNL     1      18.017   8.581   3.904  1.00  0.00     0.216 C 
HETATM   36  O4  UNL     1      16.948   8.467   4.552  1.00  0.00    -0.287 OA
BRANCH  35  37
HETATM   37  C10 UNL     1      18.989   7.473   3.975  1.00  0.00     0.123 A 
HETATM   38  N9  UNL     1      18.731   6.175   3.999  1.00  0.00    -0.357 N 
HETATM   39  C11 UNL     1      19.705   5.325   4.065  1.00  0.00     0.096 A 
ATOM     40  H9  UNL     1      17.766   5.845   3.965  1.00  0.00     0.166 HD
HETATM   41  C12 UNL     1      20.983   5.828   4.108  1.00  0.00     0.069 A 
HETATM   42  S2  UNL     1      20.692   7.510   4.049  1.00  0.00    -0.079 SA
ENDBRANCH  35  37
ENDBRANCH   1  35
TORSDOF 8
ENDMDL
MODEL 2
REMARK VINA RESULT: -9.314803804      1.707      2.346
REMARK  8 active torsions:
REMARK  status: ('A' for Active; 'I' for Inactive)
REMARK    1  A    between atoms: N1_1  and  N2_4 
REMARK       I    between atoms: C1_6  and  N3_7 
REMARK       I    between atoms: C1_6  and  N10_38 
REMARK    2  A    between atoms: N3_7  and  C2_9 
REMARK    3  A    between atoms: C2_9  and  S1_10 
REMARK    4  A    between atoms: C2_9  and  C9_30 
REMARK    5  A    between atoms: S1_10  and  C3_11 
REMARK    6  A    between atoms: N4_13  and  O1_14 
REMARK    7  A    between atoms: C9_30  and  C10_32 
REMARK    8  A    between atoms: N10_38  and  N11_40 
ROOT
HETATM    1  C2  UNL     1      18.076   9.920   3.147  1.00  0.00     0.245 C 
ENDROOT
BRANCH   1   2
HETATM    2  N3  UNL     1      18.727   9.465   1.945  1.00  0.00    -0.202 N 
HETATM    3  C1  UNL     1      19.786  10.274   1.432  1.00  0.00     0.712 C 
HETATM    4  N2  UNL     1      20.835   9.718   0.919  1.00  0.00    -0.137 N 
HETATM    5  N10 UNL     1      19.626  11.681   1.513  1.00  0.00    -0.071 N 
ATOM      6  H2  UNL     1      21.572  10.326   0.562  1.00  0.00     0.205 HD
ATOM      7  H10 UNL     1      19.521  12.141   2.417  1.00  0.00     0.212 HD
ATOM      8  H3  UNL     1      18.445   8.603   1.481  1.00  0.00     0.179 HD
BRANCH   4   9
HETATM    9  N1  UNL     1      21.018   8.358   0.824  1.00  0.00    -0.331 N 
ATOM     10  H12 UNL     1      21.807   7.961   1.334  1.00  0.00     0.177 HD
ATOM     11  H11 UNL     1      20.417   7.737   0.281  1.00  0.00     0.177 HD
ENDBRANCH   4   9
BRANCH   5  12
HETATM   12  N11 UNL     1      19.618  12.421   0.337  1.00  0.00    -0.024 N 
HETATM   13  O5  UNL     1      20.715  12.637  -0.219  1.00  0.00    -0.516 OA
HETATM   14  O6  UNL     1      18.467  12.900  -0.203  1.00  0.00    -0.516 OA
ENDBRANCH   5  12
ENDBRANCH   1   2
BRANCH   1  15
HETATM   15  S1  UNL     1      16.780  11.119   2.844  1.00  0.00    -0.076 SA
BRANCH  15  16
HETATM   16  C3  UNL     1      15.881  10.733   1.326  1.00  0.00     0.091 A 
HETATM   17  C4  UNL     1      14.668  10.080   1.363  1.00  0.00     0.160 A 
HETATM   18  N4  UNL     1      14.006   9.797   0.206  1.00  0.00    -0.224 N 
HETATM   19  C5  UNL     1      14.503  10.140  -0.990  1.00  0.00     0.175 A 
HETATM   20  C6  UNL     1      15.714  10.792  -1.028  1.00  0.00     0.156 A 
HETATM   21  C8  UNL     1      13.653   9.757  -2.138  1.00  0.00     0.282 C 
HETATM   22  N5  UNL     1      16.373  11.072   0.123  1.00  0.00    -0.333 N 
HETATM   23  N6  UNL     1      16.405  11.235  -2.191  1.00  0.00    -0.279 N 
ATOM     24  H5  UNL     1      17.270  11.555   0.074  1.00  0.00     0.168 HD
HETATM   25  N7  UNL     1      16.216  10.942  -3.545  1.00  0.00    -0.250 N 
ATOM     26  H6  UNL     1      17.172  11.881  -2.005  1.00  0.00     0.189 HD
HETATM   27  C7  UNL     1      15.059  10.397  -4.185  1.00  0.00     0.341 C 
ATOM     28  H7  UNL     1      17.007  11.144  -4.156  1.00  0.00     0.192 HD
HETATM   29  O2  UNL     1      15.095  10.313  -5.444  1.00  0.00    -0.245 OA
HETATM   30  N8  UNL     1      13.886   9.947  -3.528  1.00  0.00    -0.272 N 
ATOM     31  H8  UNL     1      13.099   9.730  -4.138  1.00  0.00     0.174 HD
HETATM   32  O3  UNL     1      12.588   9.189  -1.805  1.00  0.00    -0.265 OA
BRANCH  18  33
HETATM   33  O1  UNL     1      12.799   9.148   0.244  1.00  0.00    -0.283 OA
ATOM     34  H1  UNL     1      11.993   9.633   0.111  1.00  0.00     0.245 HD
ENDBRANCH  18  33
ENDBRANCH  15  16
ENDBRANCH   1  15
BRANCH   1  35
HETATM   35  C9  UNL     1      17.511   8.800   3.935  1.00  0.00     0.216 C 
HETATM   36  O4  UNL     1      17.731   7.589   3.688  1.00  0.00    -0.287 OA
BRANCH  35  37
HETATM   37  C10 UNL     1      16.637   9.123   5.079  1.00  0.00     0.123 A 
HETATM   38  N9  UNL     1      16.993   9.298   6.342  1.00  0.00    -0.357 N 
HETATM   39  C11 UNL     1      16.096   9.577   7.232  1.00  0.00     0.096 A 
ATOM     40  H9  UNL     1      17.973   9.213   6.613  1.00  0.00     0.166 HD
HETATM   41  C12 UNL     1      14.793   9.679   6.808  1.00  0.00     0.069 A 
HETATM   42  S2  UNL     1      14.950   9.363   5.137  1.00  0.00    -0.079 SA
ENDBRANCH  35  37
ENDBRANCH   1  35
TORSDOF 8
ENDMDL
MODEL 3
REMARK VINA RESULT: -9.148881008      1.443      1.652
REMARK  8 active torsions:
REMARK  status: ('A' for Active; 'I' for Inactive)
REMARK    1  A    between atoms: N1_1  and  N2_4 
REMARK       I    between atoms: C1_6  and  N3_7 
REMARK       I    between atoms: C1_6  and  N10_38 
REMARK    2  A    between atoms: N3_7  and  C2_9 
REMARK    3  A    between atoms: C2_9  and  S1_10 
REMARK    4  A    between atoms: C2_9  and  C9_30 
REMARK    5  A    between atoms: S1_10  and  C3_11 
REMARK    6  A    between atoms: N4_13  and  O1_14 
REMARK    7  A    between atoms: C9_30  and  C10_32 
REMARK    8  A    between atoms: N10_38  and  N11_40 
ROOT
HETATM    1  C2  UNL     1      19.735   9.703   2.794  1.00  0.00     0.245 C 
ENDROOT
BRANCH   1   2
HETATM    2  N3  UNL     1      19.715   9.069   1.500  1.00  0.00    -0.202 N 
HETATM    3  C1  UNL     1      20.331   9.771   0.421  1.00  0.00     0.712 C 
HETATM    4  N2  UNL     1      21.005   9.123  -0.472  1.00  0.00    -0.137 N 
HETATM    5  N10 UNL     1      20.166  11.179   0.384  1.00  0.00    -0.071 N 
ATOM      6  H2  UNL     1      21.433   9.656  -1.229  1.00  0.00     0.205 HD
ATOM      7  H10 UNL     1      20.507  11.763   1.147  1.00  0.00     0.212 HD
ATOM      8  H3  UNL     1      19.280   8.157   1.362  1.00  0.00     0.179 HD
BRANCH   4   9
HETATM    9  N1  UNL     1      21.182   7.758  -0.464  1.00  0.00    -0.331 N 
ATOM     10  H12 UNL     1      20.947   7.257  -1.322  1.00  0.00     0.177 HD
ATOM     11  H11 UNL     1      21.528   7.232   0.338  1.00  0.00     0.177 HD
ENDBRANCH   4   9
BRANCH   5  12
HETATM   12  N11 UNL     1      19.531  11.748  -0.713  1.00  0.00    -0.024 N 
HETATM   13  O5  UNL     1      19.510  12.995  -0.788  1.00  0.00    -0.516 OA
HETATM   14  O6  UNL     1      18.948  10.991  -1.680  1.00  0.00    -0.516 OA
ENDBRANCH   5  12
ENDBRANCH   1   2
BRANCH   1  15
HETATM   15  S1  UNL     1      18.431  10.911   3.014  1.00  0.00    -0.076 SA
BRANCH  15  16
HETATM   16  C3  UNL     1      16.973  10.476   2.042  1.00  0.00     0.091 A 
HETATM   17  C4  UNL     1      15.939   9.751   2.594  1.00  0.00     0.160 A 
HETATM   18  N4  UNL     1      14.847   9.433   1.842  1.00  0.00    -0.224 N 
HETATM   19  C5  UNL     1      14.743   9.808   0.560  1.00  0.00     0.175 A 
HETATM   20  C6  UNL     1      15.775  10.532   0.009  1.00  0.00     0.156 A 
HETATM   21  C8  UNL     1      13.493   9.378  -0.102  1.00  0.00     0.282 C 
HETATM   22  N5  UNL     1      16.861  10.847   0.756  1.00  0.00    -0.333 N 
HETATM   23  N6  UNL     1      15.852  11.019  -1.327  1.00  0.00    -0.279 N 
ATOM     24  H5  UNL     1      17.616  11.383   0.328  1.00  0.00     0.168 HD
HETATM   25  N7  UNL     1      15.098  10.719  -2.464  1.00  0.00    -0.250 N 
ATOM     26  H6  UNL     1      16.588  11.709  -1.481  1.00  0.00     0.189 HD
HETATM   27  C7  UNL     1      13.807  10.107  -2.541  1.00  0.00     0.341 C 
ATOM     28  H7  UNL     1      15.523  10.969  -3.357  1.00  0.00     0.192 HD
HETATM   29  O2  UNL     1      13.285  10.029  -3.687  1.00  0.00    -0.245 OA
HETATM   30  N8  UNL     1      13.074   9.586  -1.445  1.00  0.00    -0.272 N 
ATOM     31  H8  UNL     1      12.110   9.324  -1.649  1.00  0.00     0.174 HD
HETATM   32  O3  UNL     1      12.718   8.746   0.652  1.00  0.00    -0.265 OA
BRANCH  18  33
HETATM   33  O1  UNL     1      13.818   8.712   2.393  1.00  0.00    -0.283 OA
ATOM     34  H1  UNL     1      13.157   8.323   1.834  1.00  0.00     0.245 HD
ENDBRANCH  18  33
ENDBRANCH  15  16
ENDBRANCH   1  15
BRANCH   1  35
HETATM   35  C9  UNL     1      19.664   8.720   3.900  1.00  0.00     0.216 C 
HETATM   36  O4  UNL     1      18.886   8.823   4.880  1.00  0.00    -0.287 OA
BRANCH  35  37
HETATM   37  C10 UNL     1      20.560   7.549   3.851  1.00  0.00     0.123 A 
HETATM   38  N9  UNL     1      20.223   6.282   3.666  1.00  0.00    -0.357 N 
HETATM   39  C11 UNL     1      21.138   5.367   3.652  1.00  0.00     0.096 A 
ATOM     40  H9  UNL     1      19.244   6.029   3.535  1.00  0.00     0.166 HD
HETATM   41  C12 UNL     1      22.440   5.769   3.834  1.00  0.00     0.069 A 
HETATM   42  S2  UNL     1      22.255   7.457   4.014  1.00  0.00    -0.079 SA
ENDBRANCH  35  37
ENDBRANCH   1  35
TORSDOF 8
ENDMDL
MODEL 4
REMARK VINA RESULT: -9.138459137      2.541      7.893
REMARK  8 active torsions:
REMARK  status: ('A' for Active; 'I' for Inactive)
REMARK    1  A    between atoms: N1_1  and  N2_4 
REMARK       I    between atoms: C1_6  and  N3_7 
REMARK       I    between atoms: C1_6  and  N10_38 
REMARK    2  A    between atoms: N3_7  and  C2_9 
REMARK    3  A    between atoms: C2_9  and  S1_10 
REMARK    4  A    between atoms: C2_9  and  C9_30 
REMARK    5  A    between atoms: S1_10  and  C3_11 
REMARK    6  A    between atoms: N4_13  and  O1_14 
REMARK    7  A    between atoms: C9_30  and  C10_32 
REMARK    8  A    between atoms: N10_38  and  N11_40 
ROOT
HETATM    1  C2  UNL     1      16.287  11.170   1.034  1.00  0.00     0.245 C 
ENDROOT
BRANCH   1   2
HETATM    2  N3  UNL     1      15.998   9.758   1.064  1.00  0.00    -0.202 N 
HETATM    3  C1  UNL     1      14.892   9.338   1.862  1.00  0.00     0.712 C 
HETATM    4  N2  UNL     1      14.120   8.386   1.448  1.00  0.00    -0.137 N 
HETATM    5  N10 UNL     1      14.694  10.000   3.100  1.00  0.00    -0.071 N 
ATOM      6  H2  UNL     1      13.338   8.111   2.043  1.00  0.00     0.205 HD
ATOM      7  H10 UNL     1      14.517  11.004   3.130  1.00  0.00     0.212 HD
ATOM      8  H3  UNL     1      16.559   9.089   0.538  1.00  0.00     0.179 HD
BRANCH   4   9
HETATM    9  N1  UNL     1      14.286   7.723   0.254  1.00  0.00    -0.331 N 
ATOM     10  H12 UNL     1      13.828   8.124  -0.565  1.00  0.00     0.177 HD
ATOM     11  H11 UNL     1      14.834   6.869   0.147  1.00  0.00     0.177 HD
ENDBRANCH   4   9
BRANCH   5  12
HETATM   12  N11 UNL     1      14.745   9.256   4.272  1.00  0.00    -0.024 N 
HETATM   13  O5  UNL     1      13.664   8.843   4.744  1.00  0.00    -0.516 OA
HETATM   14  O6  UNL     1      15.919   8.976   4.897  1.00  0.00    -0.516 OA
ENDBRANCH   5  12
ENDBRANCH   1   2
BRANCH   1  15
HETATM   15  S1  UNL     1      17.465  11.681   2.284  1.00  0.00    -0.076 SA
BRANCH  15  16
HETATM   16  C3  UNL     1      18.639  10.359   2.649  1.00  0.00     0.091 A 
HETATM   17  C4  UNL     1      19.990  10.526   2.430  1.00  0.00     0.160 A 
HETATM   18  N4  UNL     1      20.860   9.515   2.712  1.00  0.00    -0.224 N 
HETATM   19  C5  UNL     1      20.439   8.342   3.203  1.00  0.00     0.175 A 
HETATM   20  C6  UNL     1      19.091   8.175   3.421  1.00  0.00     0.156 A 
HETATM   21  C8  UNL     1      21.518   7.361   3.450  1.00  0.00     0.282 C 
HETATM   22  N5  UNL     1      18.226   9.179   3.141  1.00  0.00    -0.333 N 
HETATM   23  N6  UNL     1      18.451   7.011   3.934  1.00  0.00    -0.279 N 
ATOM     24  H5  UNL     1      17.230   9.035   3.308  1.00  0.00     0.168 HD
HETATM   25  N7  UNL     1      18.916   5.704   4.111  1.00  0.00    -0.250 N 
ATOM     26  H6  UNL     1      17.483   7.155   4.222  1.00  0.00     0.189 HD
HETATM   27  C7  UNL     1      20.267   5.239   4.164  1.00  0.00     0.341 C 
ATOM     28  H7  UNL     1      18.196   4.989   4.217  1.00  0.00     0.192 HD
HETATM   29  O2  UNL     1      20.435   4.018   4.434  1.00  0.00    -0.245 OA
HETATM   30  N8  UNL     1      21.422   6.030   3.942  1.00  0.00    -0.272 N 
ATOM     31  H8  UNL     1      22.310   5.582   4.168  1.00  0.00     0.174 HD
HETATM   32  O3  UNL     1      22.661   7.794   3.178  1.00  0.00    -0.265 OA
BRANCH  18  33
HETATM   33  O1  UNL     1      22.204   9.683   2.495  1.00  0.00    -0.283 OA
ATOM     34  H1  UNL     1      22.833   9.349   3.123  1.00  0.00     0.245 HD
ENDBRANCH  18  33
ENDBRANCH  15  16
ENDBRANCH   1  15
BRANCH   1  35
HETATM   35  C9  UNL     1      16.780  11.612  -0.291  1.00  0.00     0.216 C 
HETATM   36  O4  UNL     1      17.803  12.320  -0.457  1.00  0.00    -0.287 OA
BRANCH  35  37
HETATM   37  C10 UNL     1      16.026  11.197  -1.489  1.00  0.00     0.123 A 
HETATM   38  N9  UNL     1      16.510  10.911  -2.688  1.00  0.00    -0.357 N 
HETATM   39  C11 UNL     1      15.707  10.562  -3.641  1.00  0.00     0.096 A 
ATOM     40  H9  UNL     1      17.513  10.966  -2.860  1.00  0.00     0.166 HD
HETATM   41  C12 UNL     1      14.364  10.505  -3.350  1.00  0.00     0.069 A 
HETATM   42  S2  UNL     1      14.350  10.963  -1.705  1.00  0.00    -0.079 SA
ENDBRANCH  35  37
ENDBRANCH   1  35
TORSDOF 8
ENDMDL
MODEL 5
REMARK VINA RESULT: -9.109117062      3.131      6.811
REMARK  8 active torsions:
REMARK  status: ('A' for Active; 'I' for Inactive)
REMARK    1  A    between atoms: N1_1  and  N2_4 
REMARK       I    between atoms: C1_6  and  N3_7 
REMARK       I    between atoms: C1_6  and  N10_38 
REMARK    2  A    between atoms: N3_7  and  C2_9 
REMARK    3  A    between atoms: C2_9  and  S1_10 
REMARK    4  A    between atoms: C2_9  and  C9_30 
REMARK    5  A    between atoms: S1_10  and  C3_11 
REMARK    6  A    between atoms: N4_13  and  O1_14 
REMARK    7  A    between atoms: C9_30  and  C10_32 
REMARK    8  A    between atoms: N10_38  and  N11_40 
ROOT
HETATM    1  C2  UNL     1      18.074  10.591   0.415  1.00  0.00     0.245 C 
ENDROOT
BRANCH   1   2
HETATM    2  N3  UNL     1      19.508  10.449   0.391  1.00  0.00    -0.202 N 
HETATM    3  C1  UNL     1      20.056   9.274   0.988  1.00  0.00     0.712 C 
HETATM    4  N2  UNL     1      21.073   8.687   0.446  1.00  0.00    -0.137 N 
HETATM    5  N10 UNL     1      19.443   8.802   2.177  1.00  0.00    -0.071 N 
ATOM      6  H2  UNL     1      21.439   7.849   0.898  1.00  0.00     0.205 HD
ATOM      7  H10 UNL     1      18.463   8.519   2.179  1.00  0.00     0.212 HD
ATOM      8  H3  UNL     1      20.105  11.158  -0.034  1.00  0.00     0.179 HD
BRANCH   4   9
HETATM    9  N1  UNL     1      21.691   9.121  -0.704  1.00  0.00    -0.331 N 
ATOM     10  H12 UNL     1      21.139   9.097  -1.562  1.00  0.00     0.177 HD
ATOM     11  H11 UNL     1      22.652   9.459  -0.743  1.00  0.00     0.177 HD
ENDBRANCH   4   9
BRANCH   5  12
HETATM   12  N11 UNL     1      20.203   8.732   3.338  1.00  0.00    -0.024 N 
HETATM   13  O5  UNL     1      19.594   8.731   4.429  1.00  0.00    -0.516 OA
HETATM   14  O6  UNL     1      21.559   8.666   3.307  1.00  0.00    -0.516 OA
ENDBRANCH   5  12
ENDBRANCH   1   2
BRANCH   1  15
HETATM   15  S1  UNL     1      17.493  11.732   1.668  1.00  0.00    -0.076 SA
BRANCH  15  16
HETATM   16  C3  UNL     1      16.472  10.886   2.893  1.00  0.00     0.091 A 
HETATM   17  C4  UNL     1      15.122  10.697   2.687  1.00  0.00     0.160 A 
HETATM   18  N4  UNL     1      14.368  10.057   3.625  1.00  0.00    -0.224 N 
HETATM   19  C5  UNL     1      14.905   9.596   4.763  1.00  0.00     0.175 A 
HETATM   20  C6  UNL     1      16.252   9.785   4.969  1.00  0.00     0.156 A 
HETATM   21  C8  UNL     1      13.942   8.927   5.665  1.00  0.00     0.282 C 
HETATM   22  N5  UNL     1      17.001  10.422   4.037  1.00  0.00    -0.333 N 
HETATM   23  N6  UNL     1      17.003   9.372   6.106  1.00  0.00    -0.279 N 
ATOM     24  H5  UNL     1      17.998  10.553   4.209  1.00  0.00     0.168 HD
HETATM   25  N7  UNL     1      16.599   8.923   7.366  1.00  0.00    -0.250 N 
ATOM     26  H6  UNL     1      18.015   9.410   5.978  1.00  0.00     0.189 HD
HETATM   27  C7  UNL     1      15.324   8.409   7.761  1.00  0.00     0.341 C 
ATOM     28  H7  UNL     1      17.307   8.967   8.100  1.00  0.00     0.192 HD
HETATM   29  O2  UNL     1      15.232   7.972   8.942  1.00  0.00    -0.245 OA
HETATM   30  N8  UNL     1      14.168   8.349   6.944  1.00  0.00    -0.272 N 
ATOM     31  H8  UNL     1      13.388   7.817   7.328  1.00  0.00     0.174 HD
HETATM   32  O3  UNL     1      12.777   8.881   5.209  1.00  0.00    -0.265 OA
BRANCH  18  33
HETATM   33  O1  UNL     1      13.026   9.868   3.418  1.00  0.00    -0.283 OA
ATOM     34  H1  UNL     1      12.629   9.025   3.600  1.00  0.00     0.245 HD
ENDBRANCH  18  33
ENDBRANCH  15  16
ENDBRANCH   1  15
BRANCH   1  35
HETATM   35  C9  UNL     1      17.532  11.010  -0.898  1.00  0.00     0.216 C 
HETATM   36  O4  UNL     1      18.130  11.780  -1.689  1.00  0.00    -0.287 OA
BRANCH  35  37
HETATM   37  C10 UNL     1      16.209  10.496  -1.303  1.00  0.00     0.123 A 
HETATM   38  N9  UNL     1      15.499   9.545  -0.715  1.00  0.00    -0.357 N 
HETATM   39  C11 UNL     1      14.348   9.207  -1.201  1.00  0.00     0.096 A 
ATOM     40  H9  UNL     1      15.859   9.081   0.119  1.00  0.00     0.166 HD
HETATM   41  C12 UNL     1      13.916   9.868  -2.326  1.00  0.00     0.069 A 
HETATM   42  S2  UNL     1      15.211  10.944  -2.610  1.00  0.00    -0.079 SA
ENDBRANCH  35  37
ENDBRANCH   1  35
TORSDOF 8
ENDMDL
