MODEL 1
REMARK VINA RESULT: -9.667737143      0.000      0.000
REMARK  10 active torsions:
REMARK  status: ('A' for Active; 'I' for Inactive)
REMARK    1  A    between atoms: C4_4  and  N1_5 
REMARK    2  A    between atoms: N1_5  and  C5_7 
REMARK    3  A    between atoms: C5_7  and  C6_8 
REMARK    4  A    between atoms: C5_7  and  C8_16 
REMARK    5  A    between atoms: C8_16  and  N6_17 
REMARK    6  A    between atoms: N7_23  and  C11_24 
REMARK    7  A    between atoms: C11_24  and  C12_25 
REMARK    8  A    between atoms: C12_25  and  C13_26 
REMARK    9  A    between atoms: C13_26  and  N8_27 
REMARK   10  A    between atoms: C15_32  and  N10_33 
ROOT
HETATM    1  C8  UNL     1      14.613   9.863   3.703  1.00  0.00     0.178 C 
HETATM    2  C9  UNL     1      13.456   8.974   4.115  1.00  0.00     0.073 C 
HETATM    3  C10 UNL     1      12.613   9.055   2.831  1.00  0.00     0.275 C 
HETATM    4  N7  UNL     1      13.553   9.089   1.761  1.00  0.00     0.091 N 
HETATM    5  C17 UNL     1      14.854   9.453   2.295  1.00  0.00     0.313 C 
ENDROOT
BRANCH   1   6
HETATM    6  C5  UNL     1      15.776   9.813   4.626  1.00  0.00     0.191 C 
BRANCH   6   7
HETATM    7  N1  UNL     1      15.471  10.632   5.768  1.00  0.00    -0.361 N 
ATOM      8  H1  UNL     1      15.518  11.642   5.632  1.00  0.00     0.162 HD
BRANCH   7   9
HETATM    9  C4  UNL     1      15.152  10.233   6.918  1.00  0.00     0.124 A 
HETATM   10  C3  UNL     1      14.023  10.576   7.621  1.00  0.00     0.084 A 
HETATM   11  C2  UNL     1      14.055   9.913   8.857  1.00  0.00     0.076 A 
HETATM   12  C1  UNL     1      13.020  10.008   9.921  1.00  0.00     0.079 C 
HETATM   13  O3  UNL     1      15.167   9.224   8.838  1.00  0.00    -0.241 OA
HETATM   14  N12 UNL     1      15.824   9.395   7.720  1.00  0.00    -0.245 N 
ATOM     15  H12 UNL     1      16.715   8.956   7.492  1.00  0.00     0.196 HD
ENDBRANCH   7   9
ENDBRANCH   6   7
BRANCH   6  16
HETATM   16  C6  UNL     1      17.029  10.316   4.021  1.00  0.00     0.137 A 
HETATM   17  N2  UNL     1      17.380  11.576   3.708  1.00  0.00    -0.273 N 
HETATM   18  N3  UNL     1      18.568  11.662   3.186  1.00  0.00    -0.225 N 
ATOM     19  H2  UNL     1      16.776  12.383   3.865  1.00  0.00     0.189 HD
HETATM   20  N4  UNL     1      19.029  10.426   3.148  1.00  0.00    -0.003 NA
ATOM     21  H3  UNL     1      19.044  12.507   2.872  1.00  0.00     0.205 HD
HETATM   22  N5  UNL     1      18.121   9.582   3.646  1.00  0.00    -0.264 N 
HETATM   23  C7  UNL     1      18.250   8.160   3.774  1.00  0.00     0.176 C 
ENDBRANCH   6  16
ENDBRANCH   1   6
BRANCH   1  24
HETATM   24  N6  UNL     1      14.044  11.233   3.689  1.00  0.00    -0.066 N 
ATOM     25  H63 UNL     1      14.255  11.745   4.546  1.00  0.00     0.275 HD
ATOM     26  H62 UNL     1      14.528  11.844   3.031  1.00  0.00     0.275 HD
ATOM     27  H61 UNL     1      13.042  11.187   3.506  1.00  0.00     0.275 HD
ENDBRANCH   1  24
BRANCH   4  28
HETATM   28  C11 UNL     1      13.240   9.951   0.668  1.00  0.00     0.274 C 
BRANCH  28  29
HETATM   29  C12 UNL     1      13.551   9.307  -0.677  1.00  0.00     0.050 C 
BRANCH  29  30
HETATM   30  C13 UNL     1      13.036  10.261  -1.749  1.00  0.00     0.140 C 
BRANCH  30  31
HETATM   31  N8  UNL     1      13.929  10.248  -2.894  1.00  0.00    -0.250 N 
HETATM   32  C14 UNL     1      15.143  10.818  -2.835  1.00  0.00     0.344 A 
HETATM   33  O1  UNL     1      15.488  11.356  -1.772  1.00  0.00    -0.246 OA
HETATM   34  N9  UNL     1      15.934  10.781  -3.936  1.00  0.00    -0.141 N 
HETATM   35  C15 UNL     1      15.519  10.180  -5.084  1.00  0.00     0.683 A 
ATOM     36  H9  UNL     1      16.858  11.212  -3.903  1.00  0.00     0.189 HD
HETATM   37  N11 UNL     1      14.307   9.622  -5.111  1.00  0.00    -0.141 N 
HETATM   38  C16 UNL     1      13.494   9.647  -4.018  1.00  0.00     0.344 A 
ATOM     39  H11 UNL     1      13.983   9.168  -5.965  1.00  0.00     0.189 HD
HETATM   40  O2  UNL     1      12.378   9.110  -4.108  1.00  0.00    -0.246 OA
BRANCH  35  41
HETATM   41  N10 UNL     1      16.254  10.132  -6.143  1.00  0.00    -0.234 N 
ATOM     42 2H10 UNL     1      16.261  10.931  -6.778  1.00  0.00     0.174 HD
ATOM     43 1H10 UNL     1      16.833   9.323  -6.371  1.00  0.00     0.174 HD
ENDBRANCH  35  41
ENDBRANCH  30  31
ENDBRANCH  29  30
ENDBRANCH  28  29
ENDBRANCH   4  28
TORSDOF 10
ENDMDL
MODEL 2
REMARK VINA RESULT: -9.524687706      1.911      4.171
REMARK  10 active torsions:
REMARK  status: ('A' for Active; 'I' for Inactive)
REMARK    1  A    between atoms: C4_4  and  N1_5 
REMARK    2  A    between atoms: N1_5  and  C5_7 
REMARK    3  A    between atoms: C5_7  and  C6_8 
REMARK    4  A    between atoms: C5_7  and  C8_16 
REMARK    5  A    between atoms: C8_16  and  N6_17 
REMARK    6  A    between atoms: N7_23  and  C11_24 
REMARK    7  A    between atoms: C11_24  and  C12_25 
REMARK    8  A    between atoms: C12_25  and  C13_26 
REMARK    9  A    between atoms: C13_26  and  N8_27 
REMARK   10  A    between atoms: C15_32  and  N10_33 
ROOT
HETATM    1  C8  UNL     1      14.635  10.049   3.809  1.00  0.00     0.178 C 
HETATM    2  C9  UNL     1      13.641   9.133   4.498  1.00  0.00     0.073 C 
HETATM    3  C10 UNL     1      12.786   8.738   3.281  1.00  0.00     0.275 C 
HETATM    4  N7  UNL     1      13.700   8.632   2.193  1.00  0.00     0.091 N 
HETATM    5  C17 UNL     1      14.929   9.322   2.547  1.00  0.00     0.313 C 
ENDROOT
BRANCH   1   6
HETATM    6  C5  UNL     1      15.798  10.427   4.654  1.00  0.00     0.191 C 
BRANCH   6   7
HETATM    7  N1  UNL     1      16.986  10.303   3.854  1.00  0.00    -0.361 N 
ATOM      8  H1  UNL     1      17.520   9.440   3.961  1.00  0.00     0.162 HD
BRANCH   7   9
HETATM    9  C4  UNL     1      17.436  11.145   3.035  1.00  0.00     0.124 A 
HETATM   10  C3  UNL     1      18.155  10.878   1.895  1.00  0.00     0.084 A 
HETATM   11  C2  UNL     1      18.461  12.098   1.272  1.00  0.00     0.076 A 
HETATM   12  C1  UNL     1      19.229  12.258   0.009  1.00  0.00     0.079 C 
HETATM   13  O3  UNL     1      17.928  13.010   2.042  1.00  0.00    -0.241 OA
HETATM   14  N12 UNL     1      17.326  12.480   3.077  1.00  0.00    -0.245 N 
ATOM     15  H12 UNL     1      16.845  13.005   3.806  1.00  0.00     0.196 HD
ENDBRANCH   7   9
ENDBRANCH   6   7
BRANCH   6  16
HETATM   16  C6  UNL     1      15.957   9.574   5.851  1.00  0.00     0.137 A 
HETATM   17  N2  UNL     1      16.714   8.477   6.023  1.00  0.00    -0.273 N 
HETATM   18  N3  UNL     1      16.618   7.969   7.216  1.00  0.00    -0.225 N 
ATOM     19  H2  UNL     1      17.305   8.082   5.291  1.00  0.00     0.189 HD
HETATM   20  N4  UNL     1      15.773   8.747   7.865  1.00  0.00    -0.003 NA
ATOM     21  H3  UNL     1      17.095   7.142   7.575  1.00  0.00     0.205 HD
HETATM   22  N5  UNL     1      15.351   9.732   7.068  1.00  0.00    -0.264 N 
HETATM   23  C7  UNL     1      14.430  10.777   7.408  1.00  0.00     0.176 C 
ENDBRANCH   6  16
ENDBRANCH   1   6
BRANCH   1  24
HETATM   24  N6  UNL     1      13.850  11.261   3.468  1.00  0.00    -0.066 N 
ATOM     25  H63 UNL     1      13.686  11.855   4.280  1.00  0.00     0.275 HD
ATOM     26  H62 UNL     1      14.389  11.923   2.909  1.00  0.00     0.275 HD
ATOM     27  H61 UNL     1      12.981  10.989   3.009  1.00  0.00     0.275 HD
ENDBRANCH   1  24
BRANCH   4  28
HETATM   28  C11 UNL     1      13.243   9.113   0.930  1.00  0.00     0.274 C 
BRANCH  28  29
HETATM   29  C12 UNL     1      14.386   9.621   0.061  1.00  0.00     0.050 C 
BRANCH  29  30
HETATM   30  C13 UNL     1      13.792  10.666  -0.877  1.00  0.00     0.140 C 
BRANCH  30  31
HETATM   31  N8  UNL     1      14.412  10.567  -2.186  1.00  0.00    -0.250 N 
HETATM   32  C14 UNL     1      15.626  11.091  -2.420  1.00  0.00     0.344 A 
HETATM   33  O1  UNL     1      16.209  11.662  -1.487  1.00  0.00    -0.246 OA
HETATM   34  N9  UNL     1      16.156  10.974  -3.663  1.00  0.00    -0.141 N 
HETATM   35  C15 UNL     1      15.484  10.339  -4.661  1.00  0.00     0.683 A 
ATOM     36  H9  UNL     1      17.077  11.369  -3.854  1.00  0.00     0.189 HD
HETATM   37  N11 UNL     1      14.280   9.828  -4.396  1.00  0.00    -0.141 N 
HETATM   38  C16 UNL     1      13.726   9.934  -3.156  1.00  0.00     0.344 A 
ATOM     39  H11 UNL     1      13.765   9.350  -5.135  1.00  0.00     0.189 HD
HETATM   40  O2  UNL     1      12.602   9.437  -2.974  1.00  0.00    -0.246 OA
BRANCH  35  41
HETATM   41  N10 UNL     1      15.969  10.215  -5.851  1.00  0.00    -0.234 N 
ATOM     42 2H10 UNL     1      16.899  10.584  -6.047  1.00  0.00     0.174 HD
ATOM     43 1H10 UNL     1      15.455   9.760  -6.605  1.00  0.00     0.174 HD
ENDBRANCH  35  41
ENDBRANCH  30  31
ENDBRANCH  29  30
ENDBRANCH  28  29
ENDBRANCH   4  28
TORSDOF 10
ENDMDL
MODEL 3
REMARK VINA RESULT: -9.515607522      2.040      2.819
REMARK  10 active torsions:
REMARK  status: ('A' for Active; 'I' for Inactive)
REMARK    1  A    between atoms: C4_4  and  N1_5 
REMARK    2  A    between atoms: N1_5  and  C5_7 
REMARK    3  A    between atoms: C5_7  and  C6_8 
REMARK    4  A    between atoms: C5_7  and  C8_16 
REMARK    5  A    between atoms: C8_16  and  N6_17 
REMARK    6  A    between atoms: N7_23  and  C11_24 
REMARK    7  A    between atoms: C11_24  and  C12_25 
REMARK    8  A    between atoms: C12_25  and  C13_26 
REMARK    9  A    between atoms: C13_26  and  N8_27 
REMARK   10  A    between atoms: C15_32  and  N10_33 
ROOT
HETATM    1  C8  UNL     1      14.050   9.700   3.486  1.00  0.00     0.178 C 
HETATM    2  C9  UNL     1      12.813   8.882   3.802  1.00  0.00     0.073 C 
HETATM    3  C10 UNL     1      12.200   8.807   2.393  1.00  0.00     0.275 C 
HETATM    4  N7  UNL     1      13.308   8.695   1.503  1.00  0.00     0.091 N 
HETATM    5  C17 UNL     1      14.511   9.111   2.202  1.00  0.00     0.313 C 
ENDROOT
BRANCH   1   6
HETATM    6  C5  UNL     1      15.040   9.757   4.593  1.00  0.00     0.191 C 
BRANCH   6   7
HETATM    7  N1  UNL     1      14.452  10.499   5.676  1.00  0.00    -0.361 N 
ATOM      8  H1  UNL     1      13.765  11.210   5.422  1.00  0.00     0.162 HD
BRANCH   7   9
HETATM    9  C4  UNL     1      14.695  10.363   6.902  1.00  0.00     0.124 A 
HETATM   10  C3  UNL     1      14.061  11.002   7.940  1.00  0.00     0.084 A 
HETATM   11  C2  UNL     1      14.637  10.568   9.144  1.00  0.00     0.076 A 
HETATM   12  C1  UNL     1      14.242  11.014  10.506  1.00  0.00     0.079 C 
HETATM   13  O3  UNL     1      15.560   9.715   8.783  1.00  0.00    -0.241 OA
HETATM   14  N12 UNL     1      15.614   9.579   7.483  1.00  0.00    -0.245 N 
ATOM     15  H12 UNL     1      16.260   8.968   6.984  1.00  0.00     0.196 HD
ENDBRANCH   7   9
ENDBRANCH   6   7
BRANCH   6  16
HETATM   16  C6  UNL     1      16.307  10.421   4.216  1.00  0.00     0.137 A 
HETATM   17  N2  UNL     1      16.586  11.732   4.115  1.00  0.00    -0.273 N 
HETATM   18  N3  UNL     1      17.814  11.968   3.756  1.00  0.00    -0.225 N 
ATOM     19  H2  UNL     1      15.904  12.468   4.301  1.00  0.00     0.189 HD
HETATM   20  N4  UNL     1      18.375  10.782   3.613  1.00  0.00    -0.003 NA
ATOM     21  H3  UNL     1      18.251  12.879   3.615  1.00  0.00     0.205 HD
HETATM   22  N5  UNL     1      17.490   9.820   3.883  1.00  0.00    -0.264 N 
HETATM   23  C7  UNL     1      17.719   8.405   3.839  1.00  0.00     0.176 C 
ENDBRANCH   6  16
ENDBRANCH   1   6
BRANCH   1  24
HETATM   24  N6  UNL     1      13.535  11.063   3.206  1.00  0.00    -0.066 N 
ATOM     25  H63 UNL     1      13.775  11.379   2.266  1.00  0.00     0.275 HD
ATOM     26  H62 UNL     1      12.520  11.079   3.111  1.00  0.00     0.275 HD
ATOM     27  H61 UNL     1      13.865  11.709   3.924  1.00  0.00     0.275 HD
ENDBRANCH   1  24
BRANCH   4  28
HETATM   28  C11 UNL     1      13.210   9.413   0.275  1.00  0.00     0.274 C 
BRANCH  28  29
HETATM   29  C12 UNL     1      14.467   9.273  -0.574  1.00  0.00     0.050 C 
BRANCH  29  30
HETATM   30  C13 UNL     1      14.824  10.672  -1.063  1.00  0.00     0.140 C 
BRANCH  30  31
HETATM   31  N8  UNL     1      16.256  10.885  -0.954  1.00  0.00    -0.250 N 
HETATM   32  C14 UNL     1      17.066  10.714  -2.010  1.00  0.00     0.344 A 
HETATM   33  O1  UNL     1      16.560  10.370  -3.089  1.00  0.00    -0.246 OA
HETATM   34  N9  UNL     1      18.397  10.923  -1.851  1.00  0.00    -0.141 N 
HETATM   35  C15 UNL     1      18.914  11.300  -0.650  1.00  0.00     0.683 A 
ATOM     36  H9  UNL     1      19.023  10.794  -2.646  1.00  0.00     0.189 HD
HETATM   37  N11 UNL     1      18.082  11.463   0.381  1.00  0.00    -0.141 N 
HETATM   38  C16 UNL     1      16.742  11.258   0.245  1.00  0.00     0.344 A 
ATOM     39  H11 UNL     1      18.456  11.746   1.287  1.00  0.00     0.189 HD
HETATM   40  O2  UNL     1      16.022  11.427   1.243  1.00  0.00    -0.246 OA
BRANCH  35  41
HETATM   41  N10 UNL     1      20.176  11.504  -0.475  1.00  0.00    -0.234 N 
ATOM     42 2H10 UNL     1      20.715  11.944  -1.221  1.00  0.00     0.174 HD
ATOM     43 1H10 UNL     1      20.657  11.242   0.386  1.00  0.00     0.174 HD
ENDBRANCH  35  41
ENDBRANCH  30  31
ENDBRANCH  29  30
ENDBRANCH  28  29
ENDBRANCH   4  28
TORSDOF 10
ENDMDL
MODEL 4
REMARK VINA RESULT: -9.500687766      1.913      4.389
REMARK  10 active torsions:
REMARK  status: ('A' for Active; 'I' for Inactive)
REMARK    1  A    between atoms: C4_4  and  N1_5 
REMARK    2  A    between atoms: N1_5  and  C5_7 
REMARK    3  A    between atoms: C5_7  and  C6_8 
REMARK    4  A    between atoms: C5_7  and  C8_16 
REMARK    5  A    between atoms: C8_16  and  N6_17 
REMARK    6  A    between atoms: N7_23  and  C11_24 
REMARK    7  A    between atoms: C11_24  and  C12_25 
REMARK    8  A    between atoms: C12_25  and  C13_26 
REMARK    9  A    between atoms: C13_26  and  N8_27 
REMARK   10  A    between atoms: C15_32  and  N10_33 
ROOT
HETATM    1  C8  UNL     1      14.627  10.050   3.807  1.00  0.00     0.178 C 
HETATM    2  C9  UNL     1      13.632   9.137   4.497  1.00  0.00     0.073 C 
HETATM    3  C10 UNL     1      12.782   8.735   3.279  1.00  0.00     0.275 C 
HETATM    4  N7  UNL     1      13.700   8.624   2.195  1.00  0.00     0.091 N 
HETATM    5  C17 UNL     1      14.926   9.317   2.549  1.00  0.00     0.313 C 
ENDROOT
BRANCH   1   6
HETATM    6  C5  UNL     1      15.787  10.434   4.653  1.00  0.00     0.191 C 
BRANCH   6   7
HETATM    7  N1  UNL     1      16.977  10.314   3.856  1.00  0.00    -0.361 N 
ATOM      8  H1  UNL     1      17.513   9.453   3.963  1.00  0.00     0.162 HD
BRANCH   7   9
HETATM    9  C4  UNL     1      17.427  11.159   3.040  1.00  0.00     0.124 A 
HETATM   10  C3  UNL     1      18.136  10.895   1.893  1.00  0.00     0.084 A 
HETATM   11  C2  UNL     1      18.446  12.117   1.276  1.00  0.00     0.076 A 
HETATM   12  C1  UNL     1      19.206  12.281   0.008  1.00  0.00     0.079 C 
HETATM   13  O3  UNL     1      17.924  13.027   2.056  1.00  0.00    -0.241 OA
HETATM   14  N12 UNL     1      17.326  12.494   3.091  1.00  0.00    -0.245 N 
ATOM     15  H12 UNL     1      16.853  13.018   3.827  1.00  0.00     0.196 HD
ENDBRANCH   7   9
ENDBRANCH   6   7
BRANCH   6  16
HETATM   16  C6  UNL     1      15.948   9.583   5.852  1.00  0.00     0.137 A 
HETATM   17  N2  UNL     1      16.705   8.486   6.024  1.00  0.00    -0.273 N 
HETATM   18  N3  UNL     1      16.610   7.979   7.218  1.00  0.00    -0.225 N 
ATOM     19  H2  UNL     1      17.296   8.090   5.292  1.00  0.00     0.189 HD
HETATM   20  N4  UNL     1      15.765   8.759   7.867  1.00  0.00    -0.003 NA
ATOM     21  H3  UNL     1      17.088   7.153   7.577  1.00  0.00     0.205 HD
HETATM   22  N5  UNL     1      15.343   9.742   7.069  1.00  0.00    -0.264 N 
HETATM   23  C7  UNL     1      14.421  10.787   7.408  1.00  0.00     0.176 C 
ENDBRANCH   6  16
ENDBRANCH   1   6
BRANCH   1  24
HETATM   24  N6  UNL     1      13.843  11.260   3.456  1.00  0.00    -0.066 N 
ATOM     25  H63 UNL     1      13.795  11.408   2.448  1.00  0.00     0.275 HD
ATOM     26  H62 UNL     1      12.846  11.137   3.634  1.00  0.00     0.275 HD
ATOM     27  H61 UNL     1      14.225  12.070   3.945  1.00  0.00     0.275 HD
ENDBRANCH   1  24
BRANCH   4  28
HETATM   28  C11 UNL     1      13.246   9.098   0.928  1.00  0.00     0.274 C 
BRANCH  28  29
HETATM   29  C12 UNL     1      14.393   9.590   0.055  1.00  0.00     0.050 C 
BRANCH  29  30
HETATM   30  C13 UNL     1      13.820  10.675  -0.850  1.00  0.00     0.140 C 
BRANCH  30  31
HETATM   31  N8  UNL     1      14.362  10.539  -2.191  1.00  0.00    -0.250 N 
HETATM   32  C14 UNL     1      13.670   9.918  -3.159  1.00  0.00     0.344 A 
HETATM   33  O1  UNL     1      12.550   9.463  -2.881  1.00  0.00    -0.246 OA
HETATM   34  N9  UNL     1      14.225   9.815  -4.393  1.00  0.00    -0.141 N 
HETATM   35  C15 UNL     1      15.457  10.328  -4.657  1.00  0.00     0.683 A 
ATOM     36  H9  UNL     1      13.710   9.344  -5.136  1.00  0.00     0.189 HD
HETATM   37  N11 UNL     1      16.119  10.941  -3.674  1.00  0.00    -0.141 N 
HETATM   38  C16 UNL     1      15.582  11.055  -2.426  1.00  0.00     0.344 A 
ATOM     39  H11 UNL     1      17.044  11.330  -3.858  1.00  0.00     0.189 HD
HETATM   40  O2  UNL     1      16.250  11.636  -1.555  1.00  0.00    -0.246 OA
BRANCH  35  41
HETATM   41  N10 UNL     1      16.005  10.242  -5.823  1.00  0.00    -0.234 N 
ATOM     42 2H10 UNL     1      16.114  11.088  -6.382  1.00  0.00     0.174 HD
ATOM     43 1H10 UNL     1      16.336   9.357  -6.206  1.00  0.00     0.174 HD
ENDBRANCH  35  41
ENDBRANCH  30  31
ENDBRANCH  29  30
ENDBRANCH  28  29
ENDBRANCH   4  28
TORSDOF 10
ENDMDL
MODEL 5
REMARK VINA RESULT: -9.360987395      1.788      4.358
REMARK  10 active torsions:
REMARK  status: ('A' for Active; 'I' for Inactive)
REMARK    1  A    between atoms: C4_4  and  N1_5 
REMARK    2  A    between atoms: N1_5  and  C5_7 
REMARK    3  A    between atoms: C5_7  and  C6_8 
REMARK    4  A    between atoms: C5_7  and  C8_16 
REMARK    5  A    between atoms: C8_16  and  N6_17 
REMARK    6  A    between atoms: N7_23  and  C11_24 
REMARK    7  A    between atoms: C11_24  and  C12_25 
REMARK    8  A    between atoms: C12_25  and  C13_26 
REMARK    9  A    between atoms: C13_26  and  N8_27 
REMARK   10  A    between atoms: C15_32  and  N10_33 
ROOT
HETATM    1  C8  UNL     1      14.973  10.071   3.712  1.00  0.00     0.178 C 
HETATM    2  C9  UNL     1      14.008   9.044   4.270  1.00  0.00     0.073 C 
HETATM    3  C10 UNL     1      13.027   8.959   3.087  1.00  0.00     0.275 C 
HETATM    4  N7  UNL     1      13.831   9.087   1.918  1.00  0.00     0.091 N 
HETATM    5  C17 UNL     1      15.117   9.649   2.294  1.00  0.00     0.313 C 
ENDROOT
BRANCH   1   6
HETATM    6  C5  UNL     1      16.225  10.220   4.499  1.00  0.00     0.191 C 
BRANCH   6   7
HETATM    7  N1  UNL     1      17.318   9.757   3.686  1.00  0.00    -0.361 N 
ATOM      8  H1  UNL     1      17.350   8.757   3.490  1.00  0.00     0.162 HD
BRANCH   7   9
HETATM    9  C4  UNL     1      18.238  10.458   3.191  1.00  0.00     0.124 A 
HETATM   10  C3  UNL     1      19.569  10.127   3.115  1.00  0.00     0.084 A 
HETATM   11  C2  UNL     1      20.251  11.185   2.493  1.00  0.00     0.076 A 
HETATM   12  C1  UNL     1      21.711  11.232   2.215  1.00  0.00     0.079 C 
HETATM   13  O3  UNL     1      19.326  12.071   2.233  1.00  0.00    -0.241 OA
HETATM   14  N12 UNL     1      18.145  11.671   2.631  1.00  0.00    -0.245 N 
ATOM     15  H12 UNL     1      17.282  12.205   2.529  1.00  0.00     0.196 HD
ENDBRANCH   7   9
ENDBRANCH   6   7
BRANCH   6  16
HETATM   16  C6  UNL     1      16.225   9.440   5.756  1.00  0.00     0.137 A 
HETATM   17  N2  UNL     1      16.904   8.322   6.067  1.00  0.00    -0.273 N 
HETATM   18  N3  UNL     1      16.668   7.899   7.273  1.00  0.00    -0.225 N 
ATOM     19  H2  UNL     1      17.541   7.854   5.422  1.00  0.00     0.189 HD
HETATM   20  N4  UNL     1      15.806   8.756   7.788  1.00  0.00    -0.003 NA
ATOM     21  H3  UNL     1      17.065   7.076   7.727  1.00  0.00     0.205 HD
HETATM   22  N5  UNL     1      15.515   9.705   6.895  1.00  0.00    -0.264 N 
HETATM   23  C7  UNL     1      14.620  10.811   7.078  1.00  0.00     0.176 C 
ENDBRANCH   6  16
ENDBRANCH   1   6
BRANCH   1  24
HETATM   24  N6  UNL     1      14.216  11.347   3.734  1.00  0.00    -0.066 N 
ATOM     25  H63 UNL     1      14.677  12.078   3.194  1.00  0.00     0.275 HD
ATOM     26  H62 UNL     1      13.351  11.290   3.196  1.00  0.00     0.275 HD
ATOM     27  H61 UNL     1      14.050  11.630   4.700  1.00  0.00     0.275 HD
ENDBRANCH   1  24
BRANCH   4  28
HETATM   28  C11 UNL     1      13.280   9.855   0.850  1.00  0.00     0.274 C 
BRANCH  28  29
HETATM   29  C12 UNL     1      13.706   9.328  -0.515  1.00  0.00     0.050 C 
BRANCH  29  30
HETATM   30  C13 UNL     1      13.109  10.271  -1.554  1.00  0.00     0.140 C 
BRANCH  30  31
HETATM   31  N8  UNL     1      13.897  10.229  -2.772  1.00  0.00    -0.250 N 
HETATM   32  C14 UNL     1      13.427   9.639  -3.883  1.00  0.00     0.344 A 
HETATM   33  O1  UNL     1      12.296   9.131  -3.845  1.00  0.00    -0.246 OA
HETATM   34  N9  UNL     1      14.207   9.624  -4.993  1.00  0.00    -0.141 N 
HETATM   35  C15 UNL     1      15.443  10.194  -4.995  1.00  0.00     0.683 A 
ATOM     36  H9  UNL     1      13.862   9.178  -5.842  1.00  0.00     0.189 HD
HETATM   37  N11 UNL     1      15.881  10.773  -3.875  1.00  0.00    -0.141 N 
HETATM   38  C16 UNL     1      15.116  10.799  -2.748  1.00  0.00     0.344 A 
ATOM     39  H11 UNL     1      16.806  11.203  -3.862  1.00  0.00     0.189 HD
HETATM   40  O2  UNL     1      15.582  11.354  -1.738  1.00  0.00    -0.246 OA
BRANCH  35  41
HETATM   41  N10 UNL     1      16.203  10.192  -6.038  1.00  0.00    -0.234 N 
ATOM     42 2H10 UNL     1      16.447   9.301  -6.471  1.00  0.00     0.174 HD
ATOM     43 1H10 UNL     1      16.570  11.051  -6.448  1.00  0.00     0.174 HD
ENDBRANCH  35  41
ENDBRANCH  30  31
ENDBRANCH  29  30
ENDBRANCH  28  29
ENDBRANCH   4  28
TORSDOF 10
ENDMDL
