MODEL 1
REMARK VINA RESULT: -8.837627852      0.000      0.000
REMARK  12 active torsions:
REMARK  status: ('A' for Active; 'I' for Inactive)
REMARK    1  A    between atoms: N1_2  and  C3_4 
REMARK    2  A    between atoms: C4_7  and  N3_8 
REMARK    3  A    between atoms: N3_8  and  C5_10 
REMARK    4  A    between atoms: C5_10  and  C6_11 
REMARK    5  A    between atoms: C7_16  and  O1_17 
REMARK    6  A    between atoms: O1_17  and  C8_18 
REMARK    7  A    between atoms: C8_18  and  C9_19 
REMARK    8  A    between atoms: C9_19  and  N6_20 
REMARK    9  A    between atoms: N7_24  and  N8_25 
REMARK   10  A    between atoms: C10_28  and  N9_29 
REMARK   11  A    between atoms: C11_34  and  N11_35 
REMARK   12  A    between atoms: N11_35  and  C12_37 
ROOT
HETATM    1  N3  UNL     1      13.290  11.284   2.593  1.00  0.00    -0.219 N 
ATOM      2  H3  UNL     1      12.840  12.198   2.537  1.00  0.00     0.178 HD
ENDROOT
BRANCH   1   3
HETATM    3  C4  UNL     1      14.337  11.174   3.315  1.00  0.00     0.707 A 
HETATM    4  N2  UNL     1      14.202  10.692   4.574  1.00  0.00    -0.021 N 
HETATM    5  C3  UNL     1      15.284  10.564   5.355  1.00  0.00     0.708 A 
ATOM      6  H2  UNL     1      13.282  10.427   4.925  1.00  0.00     0.203 HD
HETATM    7  N12 UNL     1      16.468  10.919   4.868  1.00  0.00    -0.021 N 
HETATM    8  C11 UNL     1      16.627  11.400   3.625  1.00  0.00     0.707 A 
ATOM      9  H12 UNL     1      17.291  10.821   5.462  1.00  0.00     0.203 HD
HETATM   10  N10 UNL     1      15.538  11.523   2.849  1.00  0.00    -0.021 N 
ATOM     11  H10 UNL     1      15.629  11.885   1.900  1.00  0.00     0.203 HD
BRANCH   5  12
HETATM   12  N1  UNL     1      15.200  10.061   6.692  1.00  0.00    -0.225 N 
HETATM   13  C1  UNL     1      14.163  10.583   7.540  1.00  0.00     0.168 C 
HETATM   14  C2  UNL     1      16.111   9.073   7.183  1.00  0.00     0.168 C 
ENDBRANCH   5  12
BRANCH   8  15
HETATM   15  N11 UNL     1      17.784  11.717   3.226  1.00  0.00    -0.220 N 
ATOM     16  H11 UNL     1      18.328  12.349   3.814  1.00  0.00     0.178 HD
BRANCH  15  17
HETATM   17  C12 UNL     1      18.397  11.252   1.997  1.00  0.00     0.114 C 
HETATM   18  C13 UNL     1      18.346  12.350   0.998  1.00  0.00     0.041 C 
HETATM   19  C14 UNL     1      19.310  12.096  -0.110  1.00  0.00     0.142 C 
HETATM   20  S1  UNL     1      20.548  11.046   0.662  1.00  0.00     0.146 S 
HETATM   21  O2  UNL     1      20.453   9.707   0.024  1.00  0.00    -0.228 OA
HETATM   22  O3  UNL     1      21.898  11.649   0.619  1.00  0.00    -0.228 OA
HETATM   23  C15 UNL     1      19.874  11.015   2.328  1.00  0.00     0.165 C 
ENDBRANCH  15  17
ENDBRANCH   8  15
ENDBRANCH   1   3
BRANCH   1  24
HETATM   24  C5  UNL     1      12.709  10.201   1.855  1.00  0.00     0.200 C 
BRANCH  24  25
HETATM   25  C6  UNL     1      13.215  10.111   0.471  1.00  0.00     0.089 A 
HETATM   26  N4  UNL     1      12.943  11.061  -0.430  1.00  0.00    -0.296 N 
HETATM   27  N5  UNL     1      13.407  10.966  -1.677  1.00  0.00    -0.263 N 
ATOM     28  H4  UNL     1      12.377  11.865  -0.162  1.00  0.00     0.187 HD
HETATM   29  C7  UNL     1      14.147   9.937  -2.071  1.00  0.00     0.261 A 
ATOM     30  H5  UNL     1      13.187  11.704  -2.346  1.00  0.00     0.190 HD
HETATM   31  N7  UNL     1      14.427   8.974  -1.176  1.00  0.00    -0.206 N 
HETATM   32  C10 UNL     1      13.978   9.032   0.095  1.00  0.00     0.150 A 
BRANCH  29  33
HETATM   33  O1  UNL     1      14.623   9.833  -3.339  1.00  0.00    -0.318 OA
BRANCH  33  34
HETATM   34  C8  UNL     1      13.870   9.790  -4.495  1.00  0.00     0.206 C 
BRANCH  34  35
HETATM   35  C9  UNL     1      12.672   8.899  -4.418  1.00  0.00     0.256 C 
BRANCH  35  36
HETATM   36  N6  UNL     1      11.587   9.582  -5.125  1.00  0.00    -0.077 N 
ATOM     37  H63 UNL     1      11.815  10.545  -5.376  1.00  0.00     0.274 HD
ATOM     38  H62 UNL     1      11.442   9.232  -6.072  1.00  0.00     0.274 HD
ATOM     39  H61 UNL     1      10.756   9.507  -4.538  1.00  0.00     0.274 HD
ENDBRANCH  35  36
ENDBRANCH  34  35
ENDBRANCH  33  34
ENDBRANCH  29  33
BRANCH  31  40
HETATM   40  N8  UNL     1      15.195   7.898  -1.568  1.00  0.00    -0.334 N 
ATOM     41  H82 UNL     1      16.129   8.065  -1.941  1.00  0.00     0.177 HD
ATOM     42  H81 UNL     1      14.813   6.957  -1.477  1.00  0.00     0.177 HD
ENDBRANCH  31  40
BRANCH  32  43
HETATM   43  N9  UNL     1      14.239   8.122   0.958  1.00  0.00    -0.382 N 
ATOM     44  H92 UNL     1      14.610   8.335   1.883  1.00  0.00     0.157 HD
ATOM     45  H91 UNL     1      14.069   7.146   0.716  1.00  0.00     0.157 HD
ENDBRANCH  32  43
ENDBRANCH  24  25
ENDBRANCH   1  24
TORSDOF 12
ENDMDL
MODEL 2
REMARK VINA RESULT: -8.708621700      0.871      1.300
REMARK  12 active torsions:
REMARK  status: ('A' for Active; 'I' for Inactive)
REMARK    1  A    between atoms: N1_2  and  C3_4 
REMARK    2  A    between atoms: C4_7  and  N3_8 
REMARK    3  A    between atoms: N3_8  and  C5_10 
REMARK    4  A    between atoms: C5_10  and  C6_11 
REMARK    5  A    between atoms: C7_16  and  O1_17 
REMARK    6  A    between atoms: O1_17  and  C8_18 
REMARK    7  A    between atoms: C8_18  and  C9_19 
REMARK    8  A    between atoms: C9_19  and  N6_20 
REMARK    9  A    between atoms: N7_24  and  N8_25 
REMARK   10  A    between atoms: C10_28  and  N9_29 
REMARK   11  A    between atoms: C11_34  and  N11_35 
REMARK   12  A    between atoms: N11_35  and  C12_37 
ROOT
HETATM    1  N3  UNL     1      13.652  11.277   2.645  1.00  0.00    -0.219 N 
ATOM      2  H3  UNL     1      13.505  12.284   2.571  1.00  0.00     0.178 HD
ENDROOT
BRANCH   1   3
HETATM    3  C4  UNL     1      14.588  10.861   3.406  1.00  0.00     0.707 A 
HETATM    4  N2  UNL     1      14.308  10.656   4.716  1.00  0.00    -0.021 N 
HETATM    5  C3  UNL     1      15.272  10.219   5.539  1.00  0.00     0.708 A 
ATOM      6  H2  UNL     1      13.370  10.834   5.073  1.00  0.00     0.203 HD
HETATM    7  N12 UNL     1      16.485   9.998   5.042  1.00  0.00    -0.021 N 
HETATM    8  C11 UNL     1      16.785  10.195   3.750  1.00  0.00     0.707 A 
ATOM      9  H12 UNL     1      17.217   9.665   5.669  1.00  0.00     0.203 HD
HETATM   10  N10 UNL     1      15.815  10.632   2.932  1.00  0.00    -0.021 N 
ATOM     11  H10 UNL     1      16.015  10.789   1.944  1.00  0.00     0.203 HD
BRANCH   5  12
HETATM   12  N1  UNL     1      15.034   9.985   6.930  1.00  0.00    -0.225 N 
HETATM   13  C1  UNL     1      15.812   8.966   7.582  1.00  0.00     0.168 C 
HETATM   14  C2  UNL     1      14.056  10.730   7.662  1.00  0.00     0.168 C 
ENDBRANCH   5  12
BRANCH   8  15
HETATM   15  N11 UNL     1      17.961   9.964   3.344  1.00  0.00    -0.220 N 
ATOM     16  H11 UNL     1      18.390   9.083   3.624  1.00  0.00     0.178 HD
BRANCH  15  17
HETATM   17  C12 UNL     1      18.744  10.856   2.513  1.00  0.00     0.114 C 
HETATM   18  C13 UNL     1      20.131  10.902   3.044  1.00  0.00     0.041 C 
HETATM   19  C14 UNL     1      21.067  11.445   2.019  1.00  0.00     0.142 C 
HETATM   20  S1  UNL     1      20.240  11.062   0.469  1.00  0.00     0.146 S 
HETATM   21  O2  UNL     1      19.837  12.352  -0.148  1.00  0.00    -0.228 OA
HETATM   22  O3  UNL     1      21.063  10.196  -0.404  1.00  0.00    -0.228 OA
HETATM   23  C15 UNL     1      18.814  10.192   1.134  1.00  0.00     0.165 C 
ENDBRANCH  15  17
ENDBRANCH   8  15
ENDBRANCH   1   3
BRANCH   1  24
HETATM   24  C5  UNL     1      12.794  10.415   1.886  1.00  0.00     0.200 C 
BRANCH  24  25
HETATM   25  C6  UNL     1      13.257  10.219   0.499  1.00  0.00     0.089 A 
HETATM   26  N4  UNL     1      13.014  11.130  -0.450  1.00  0.00    -0.296 N 
HETATM   27  N5  UNL     1      13.438  10.939  -1.700  1.00  0.00    -0.263 N 
ATOM     28  H4  UNL     1      12.500  11.979  -0.215  1.00  0.00     0.187 HD
HETATM   29  C7  UNL     1      14.111   9.850  -2.051  1.00  0.00     0.261 A 
ATOM     30  H5  UNL     1      13.242  11.649  -2.404  1.00  0.00     0.190 HD
HETATM   31  N7  UNL     1      14.362   8.925  -1.109  1.00  0.00    -0.206 N 
HETATM   32  C10 UNL     1      13.950   9.079   0.168  1.00  0.00     0.150 A 
BRANCH  29  33
HETATM   33  O1  UNL     1      14.547   9.648  -3.321  1.00  0.00    -0.318 OA
BRANCH  33  34
HETATM   34  C8  UNL     1      13.791   9.748  -4.471  1.00  0.00     0.206 C 
BRANCH  34  35
HETATM   35  C9  UNL     1      12.563   8.895  -4.480  1.00  0.00     0.256 C 
BRANCH  35  36
HETATM   36  N6  UNL     1      11.521   9.653  -5.174  1.00  0.00    -0.077 N 
ATOM     37  H63 UNL     1      10.632   9.156  -5.229  1.00  0.00     0.274 HD
ATOM     38  H62 UNL     1      11.187  10.456  -4.640  1.00  0.00     0.274 HD
ATOM     39  H61 UNL     1      11.897   9.907  -6.087  1.00  0.00     0.274 HD
ENDBRANCH  35  36
ENDBRANCH  34  35
ENDBRANCH  33  34
ENDBRANCH  29  33
BRANCH  31  40
HETATM   40  N8  UNL     1      15.059   7.787  -1.456  1.00  0.00    -0.334 N 
ATOM     41  H82 UNL     1      14.784   7.273  -2.292  1.00  0.00     0.177 HD
ATOM     42  H81 UNL     1      15.835   7.482  -0.868  1.00  0.00     0.177 HD
ENDBRANCH  31  40
BRANCH  32  43
HETATM   43  N9  UNL     1      14.184   8.206   1.075  1.00  0.00    -0.382 N 
ATOM     44  H92 UNL     1      13.598   8.108   1.904  1.00  0.00     0.157 HD
ATOM     45  H91 UNL     1      14.983   7.582   0.969  1.00  0.00     0.157 HD
ENDBRANCH  32  43
ENDBRANCH  24  25
ENDBRANCH   1  24
TORSDOF 12
ENDMDL
MODEL 3
REMARK VINA RESULT: -8.658346203      3.333      4.746
REMARK  12 active torsions:
REMARK  status: ('A' for Active; 'I' for Inactive)
REMARK    1  A    between atoms: N1_2  and  C3_4 
REMARK    2  A    between atoms: C4_7  and  N3_8 
REMARK    3  A    between atoms: N3_8  and  C5_10 
REMARK    4  A    between atoms: C5_10  and  C6_11 
REMARK    5  A    between atoms: C7_16  and  O1_17 
REMARK    6  A    between atoms: O1_17  and  C8_18 
REMARK    7  A    between atoms: C8_18  and  C9_19 
REMARK    8  A    between atoms: C9_19  and  N6_20 
REMARK    9  A    between atoms: N7_24  and  N8_25 
REMARK   10  A    between atoms: C10_28  and  N9_29 
REMARK   11  A    between atoms: C11_34  and  N11_35 
REMARK   12  A    between atoms: N11_35  and  C12_37 
ROOT
HETATM    1  N3  UNL     1      17.229   8.523   4.891  1.00  0.00    -0.219 N 
ATOM      2  H3  UNL     1      16.857   7.855   5.567  1.00  0.00     0.178 HD
ENDROOT
BRANCH   1   3
HETATM    3  C4  UNL     1      18.345   8.253   4.333  1.00  0.00     0.707 A 
HETATM    4  N2  UNL     1      18.808   6.982   4.403  1.00  0.00    -0.021 N 
HETATM    5  C3  UNL     1      19.977   6.670   3.826  1.00  0.00     0.708 A 
ATOM      6  H2  UNL     1      18.271   6.267   4.893  1.00  0.00     0.203 HD
HETATM    7  N12 UNL     1      20.654   7.625   3.197  1.00  0.00    -0.021 N 
HETATM    8  C11 UNL     1      20.215   8.890   3.115  1.00  0.00     0.707 A 
ATOM      9  H12 UNL     1      21.542   7.386   2.757  1.00  0.00     0.203 HD
HETATM   10  N10 UNL     1      19.044   9.194   3.695  1.00  0.00    -0.021 N 
ATOM     11  H10 UNL     1      18.686  10.148   3.648  1.00  0.00     0.203 HD
BRANCH   5  12
HETATM   12  N1  UNL     1      20.515   5.345   3.868  1.00  0.00    -0.225 N 
HETATM   13  C1  UNL     1      19.588   4.247   3.935  1.00  0.00     0.168 C 
HETATM   14  C2  UNL     1      21.924   5.103   3.847  1.00  0.00     0.168 C 
ENDBRANCH   5  12
BRANCH   8  15
HETATM   15  N11 UNL     1      20.911   9.749   2.500  1.00  0.00    -0.220 N 
ATOM     16  H11 UNL     1      21.840   9.953   2.866  1.00  0.00     0.178 HD
BRANCH  15  17
HETATM   17  C12 UNL     1      20.488  10.466   1.313  1.00  0.00     0.114 C 
HETATM   18  C13 UNL     1      20.006   9.480   0.311  1.00  0.00     0.041 C 
HETATM   19  C14 UNL     1      19.183  10.153  -0.733  1.00  0.00     0.142 C 
HETATM   20  S1  UNL     1      18.561  11.611   0.116  1.00  0.00     0.146 S 
HETATM   21  O2  UNL     1      19.185  12.797  -0.526  1.00  0.00    -0.228 OA
HETATM   22  O3  UNL     1      17.083  11.645   0.158  1.00  0.00    -0.228 OA
HETATM   23  C15 UNL     1      19.277  11.304   1.736  1.00  0.00     0.165 C 
ENDBRANCH  15  17
ENDBRANCH   8  15
ENDBRANCH   1   3
BRANCH   1  24
HETATM   24  C5  UNL     1      16.467   9.707   4.626  1.00  0.00     0.200 C 
BRANCH  24  25
HETATM   25  C6  UNL     1      15.574   9.568   3.459  1.00  0.00     0.089 A 
HETATM   26  N4  UNL     1      16.061   9.517   2.215  1.00  0.00    -0.296 N 
HETATM   27  N5  UNL     1      15.243   9.391   1.169  1.00  0.00    -0.263 N 
ATOM     28  H4  UNL     1      17.068   9.574   2.064  1.00  0.00     0.187 HD
HETATM   29  C7  UNL     1      13.925   9.313   1.318  1.00  0.00     0.261 A 
ATOM     30  H5  UNL     1      15.638   9.353   0.231  1.00  0.00     0.190 HD
HETATM   31  N7  UNL     1      13.421   9.364   2.563  1.00  0.00    -0.206 N 
HETATM   32  C10 UNL     1      14.215   9.491   3.648  1.00  0.00     0.150 A 
BRANCH  29  33
HETATM   33  O1  UNL     1      13.085   9.184   0.260  1.00  0.00    -0.318 OA
BRANCH  33  34
HETATM   34  C8  UNL     1      13.363   9.517  -1.051  1.00  0.00     0.206 C 
BRANCH  34  35
HETATM   35  C9  UNL     1      13.300  10.982  -1.342  1.00  0.00     0.256 C 
BRANCH  35  36
HETATM   36  N6  UNL     1      14.636  11.387  -1.783  1.00  0.00    -0.077 N 
ATOM     37  H63 UNL     1      15.207  11.773  -1.031  1.00  0.00     0.274 HD
ATOM     38  H62 UNL     1      15.240  10.596  -2.011  1.00  0.00     0.274 HD
ATOM     39  H61 UNL     1      14.509  12.032  -2.562  1.00  0.00     0.274 HD
ENDBRANCH  35  36
ENDBRANCH  34  35
ENDBRANCH  33  34
ENDBRANCH  29  33
BRANCH  31  40
HETATM   40  N8  UNL     1      12.056   9.285   2.737  1.00  0.00    -0.334 N 
ATOM     41  H82 UNL     1      11.612   8.367   2.766  1.00  0.00     0.177 HD
ATOM     42  H81 UNL     1      11.517  10.146   2.832  1.00  0.00     0.177 HD
ENDBRANCH  31  40
BRANCH  32  43
HETATM   43  N9  UNL     1      13.747   9.540   4.839  1.00  0.00    -0.382 N 
ATOM     44  H92 UNL     1      14.036   8.887   5.568  1.00  0.00     0.157 HD
ATOM     45  H91 UNL     1      13.061  10.256   5.073  1.00  0.00     0.157 HD
ENDBRANCH  32  43
ENDBRANCH  24  25
ENDBRANCH   1  24
TORSDOF 12
ENDMDL
MODEL 4
REMARK VINA RESULT: -8.641577170      2.478      7.215
REMARK  12 active torsions:
REMARK  status: ('A' for Active; 'I' for Inactive)
REMARK    1  A    between atoms: N1_2  and  C3_4 
REMARK    2  A    between atoms: C4_7  and  N3_8 
REMARK    3  A    between atoms: N3_8  and  C5_10 
REMARK    4  A    between atoms: C5_10  and  C6_11 
REMARK    5  A    between atoms: C7_16  and  O1_17 
REMARK    6  A    between atoms: O1_17  and  C8_18 
REMARK    7  A    between atoms: C8_18  and  C9_19 
REMARK    8  A    between atoms: C9_19  and  N6_20 
REMARK    9  A    between atoms: N7_24  and  N8_25 
REMARK   10  A    between atoms: C10_28  and  N9_29 
REMARK   11  A    between atoms: C11_34  and  N11_35 
REMARK   12  A    between atoms: N11_35  and  C12_37 
ROOT
HETATM    1  N3  UNL     1      13.906   9.426   0.305  1.00  0.00    -0.219 N 
ATOM      2  H3  UNL     1      13.032   9.938   0.427  1.00  0.00     0.178 HD
ENDROOT
BRANCH   1   3
HETATM    3  C4  UNL     1      14.628   9.705  -0.710  1.00  0.00     0.707 A 
HETATM    4  N2  UNL     1      14.080   9.581  -1.942  1.00  0.00    -0.021 N 
HETATM    5  C3  UNL     1      14.814   9.867  -3.027  1.00  0.00     0.708 A 
ATOM      6  H2  UNL     1      13.113   9.272  -2.044  1.00  0.00     0.203 HD
HETATM    7  N12 UNL     1      16.071  10.266  -2.859  1.00  0.00    -0.021 N 
HETATM    8  C11 UNL     1      16.636  10.395  -1.649  1.00  0.00     0.707 A 
ATOM      9  H12 UNL     1      16.628  10.484  -3.685  1.00  0.00     0.203 HD
HETATM   10  N10 UNL     1      15.893  10.107  -0.569  1.00  0.00    -0.021 N 
ATOM     11  H10 UNL     1      16.296  10.197   0.364  1.00  0.00     0.203 HD
BRANCH   5  12
HETATM   12  N1  UNL     1      14.287   9.755  -4.352  1.00  0.00    -0.225 N 
HETATM   13  C1  UNL     1      15.175  10.024  -5.451  1.00  0.00     0.168 C 
HETATM   14  C2  UNL     1      12.925   9.390  -4.592  1.00  0.00     0.168 C 
ENDBRANCH   5  12
BRANCH   8  15
HETATM   15  N11 UNL     1      17.837  10.781  -1.564  1.00  0.00    -0.220 N 
ATOM     16  H11 UNL     1      18.260  11.190  -2.396  1.00  0.00     0.178 HD
BRANCH  15  17
HETATM   17  C12 UNL     1      18.658  10.686  -0.373  1.00  0.00     0.114 C 
HETATM   18  C13 UNL     1      19.644   9.592  -0.564  1.00  0.00     0.041 C 
HETATM   19  C14 UNL     1      20.763   9.717   0.413  1.00  0.00     0.142 C 
HETATM   20  S1  UNL     1      20.771  11.473   0.799  1.00  0.00     0.146 S 
HETATM   21  O2  UNL     1      20.366  11.616   2.222  1.00  0.00    -0.228 OA
HETATM   22  O3  UNL     1      22.061  12.114   0.463  1.00  0.00    -0.228 OA
HETATM   23  C15 UNL     1      19.450  11.996  -0.303  1.00  0.00     0.165 C 
ENDBRANCH  15  17
ENDBRANCH   8  15
ENDBRANCH   1   3
BRANCH   1  24
HETATM   24  C5  UNL     1      14.249   8.436   1.284  1.00  0.00     0.200 C 
BRANCH  24  25
HETATM   25  C6  UNL     1      14.332   8.984   2.652  1.00  0.00     0.089 A 
HETATM   26  N4  UNL     1      13.240   9.130   3.410  1.00  0.00    -0.296 N 
HETATM   27  N5  UNL     1      13.331   9.627   4.644  1.00  0.00    -0.263 N 
ATOM     28  H4  UNL     1      12.329   8.857   3.040  1.00  0.00     0.187 HD
HETATM   29  C7  UNL     1      14.496   9.995   5.165  1.00  0.00     0.261 A 
ATOM     30  H5  UNL     1      12.484   9.727   5.202  1.00  0.00     0.190 HD
HETATM   31  N7  UNL     1      15.602   9.856   4.414  1.00  0.00    -0.206 N 
HETATM   32  C10 UNL     1      15.554   9.357   3.161  1.00  0.00     0.150 A 
BRANCH  29  33
HETATM   33  O1  UNL     1      14.597  10.502   6.421  1.00  0.00    -0.318 OA
BRANCH  33  34
HETATM   34  C8  UNL     1      13.749  10.244   7.478  1.00  0.00     0.206 C 
BRANCH  34  35
HETATM   35  C9  UNL     1      14.122  10.932   8.752  1.00  0.00     0.256 C 
BRANCH  35  36
HETATM   36  N6  UNL     1      12.972  11.744   9.152  1.00  0.00    -0.077 N 
ATOM     37  H63 UNL     1      12.168  11.632   8.534  1.00  0.00     0.274 HD
ATOM     38  H62 UNL     1      12.526  11.414  10.007  1.00  0.00     0.274 HD
ATOM     39  H61 UNL     1      13.297  12.709   9.216  1.00  0.00     0.274 HD
ENDBRANCH  35  36
ENDBRANCH  34  35
ENDBRANCH  33  34
ENDBRANCH  29  33
BRANCH  31  40
HETATM   40  N8  UNL     1      16.820  10.233   4.940  1.00  0.00    -0.334 N 
ATOM     41  H82 UNL     1      17.059  11.224   4.976  1.00  0.00     0.177 HD
ATOM     42  H81 UNL     1      17.457   9.513   5.281  1.00  0.00     0.177 HD
ENDBRANCH  31  40
BRANCH  32  43
HETATM   43  N9  UNL     1      16.600   9.218   2.436  1.00  0.00    -0.382 N 
ATOM     44  H92 UNL     1      16.653   9.567   1.480  1.00  0.00     0.157 HD
ATOM     45  H91 UNL     1      17.414   8.743   2.825  1.00  0.00     0.157 HD
ENDBRANCH  32  43
ENDBRANCH  24  25
ENDBRANCH   1  24
TORSDOF 12
ENDMDL
MODEL 5
REMARK VINA RESULT: -8.600465660      2.423      7.132
REMARK  12 active torsions:
REMARK  status: ('A' for Active; 'I' for Inactive)
REMARK    1  A    between atoms: N1_2  and  C3_4 
REMARK    2  A    between atoms: C4_7  and  N3_8 
REMARK    3  A    between atoms: N3_8  and  C5_10 
REMARK    4  A    between atoms: C5_10  and  C6_11 
REMARK    5  A    between atoms: C7_16  and  O1_17 
REMARK    6  A    between atoms: O1_17  and  C8_18 
REMARK    7  A    between atoms: C8_18  and  C9_19 
REMARK    8  A    between atoms: C9_19  and  N6_20 
REMARK    9  A    between atoms: N7_24  and  N8_25 
REMARK   10  A    between atoms: C10_28  and  N9_29 
REMARK   11  A    between atoms: C11_34  and  N11_35 
REMARK   12  A    between atoms: N11_35  and  C12_37 
ROOT
HETATM    1  N3  UNL     1      14.022   9.292   0.257  1.00  0.00    -0.219 N 
ATOM      2  H3  UNL     1      13.896   8.304   0.479  1.00  0.00     0.178 HD
ENDROOT
BRANCH   1   3
HETATM    3  C4  UNL     1      14.746   9.591  -0.751  1.00  0.00     0.707 A 
HETATM    4  N2  UNL     1      14.186   9.534  -1.984  1.00  0.00    -0.021 N 
HETATM    5  C3  UNL     1      14.922   9.844  -3.062  1.00  0.00     0.708 A 
ATOM      6  H2  UNL     1      13.211   9.257  -2.091  1.00  0.00     0.203 HD
HETATM    7  N12 UNL     1      16.190  10.200  -2.887  1.00  0.00    -0.021 N 
HETATM    8  C11 UNL     1      16.766  10.262  -1.677  1.00  0.00     0.707 A 
ATOM      9  H12 UNL     1      16.749  10.435  -3.707  1.00  0.00     0.203 HD
HETATM   10  N10 UNL     1      16.022   9.952  -0.604  1.00  0.00    -0.021 N 
ATOM     11  H10 UNL     1      16.434   9.992   0.328  1.00  0.00     0.203 HD
BRANCH   5  12
HETATM   12  N1  UNL     1      14.383   9.801  -4.386  1.00  0.00    -0.225 N 
HETATM   13  C1  UNL     1      15.257  10.145  -5.476  1.00  0.00     0.168 C 
HETATM   14  C2  UNL     1      13.024   9.433  -4.635  1.00  0.00     0.168 C 
ENDBRANCH   5  12
BRANCH   8  15
HETATM   15  N11 UNL     1      17.979  10.610  -1.585  1.00  0.00    -0.220 N 
ATOM     16  H11 UNL     1      18.438  10.945  -2.431  1.00  0.00     0.178 HD
BRANCH  15  17
HETATM   17  C12 UNL     1      18.766  10.568  -0.368  1.00  0.00     0.114 C 
HETATM   18  C13 UNL     1      19.783   9.494  -0.500  1.00  0.00     0.041 C 
HETATM   19  C14 UNL     1      20.868   9.674   0.506  1.00  0.00     0.142 C 
HETATM   20  S1  UNL     1      20.823  11.439   0.842  1.00  0.00     0.146 S 
HETATM   21  O2  UNL     1      20.372  11.611   2.248  1.00  0.00    -0.228 OA
HETATM   22  O3  UNL     1      22.107  12.102   0.526  1.00  0.00    -0.228 OA
HETATM   23  C15 UNL     1      19.523  11.899  -0.312  1.00  0.00     0.165 C 
ENDBRANCH  15  17
ENDBRANCH   8  15
ENDBRANCH   1   3
BRANCH   1  24
HETATM   24  C5  UNL     1      13.378  10.259   1.095  1.00  0.00     0.200 C 
BRANCH  24  25
HETATM   25  C6  UNL     1      13.613  10.022   2.533  1.00  0.00     0.089 A 
HETATM   26  N4  UNL     1      12.769   9.284   3.262  1.00  0.00    -0.296 N 
HETATM   27  N5  UNL     1      12.994   9.078   4.560  1.00  0.00    -0.263 N 
ATOM     28  H4  UNL     1      11.946   8.874   2.820  1.00  0.00     0.187 HD
HETATM   29  C7  UNL     1      14.052   9.593   5.176  1.00  0.00     0.261 A 
ATOM     30  H5  UNL     1      12.337   8.511   5.094  1.00  0.00     0.190 HD
HETATM   31  N7  UNL     1      14.908  10.338   4.456  1.00  0.00    -0.206 N 
HETATM   32  C10 UNL     1      14.717  10.570   3.140  1.00  0.00     0.150 A 
BRANCH  29  33
HETATM   33  O1  UNL     1      14.289   9.388   6.498  1.00  0.00    -0.318 OA
BRANCH  33  34
HETATM   34  C8  UNL     1      14.166   8.192   7.175  1.00  0.00     0.206 C 
BRANCH  34  35
HETATM   35  C9  UNL     1      15.285   7.902   8.123  1.00  0.00     0.256 C 
BRANCH  35  36
HETATM   36  N6  UNL     1      16.525   7.946   7.345  1.00  0.00    -0.077 N 
ATOM     37  H63 UNL     1      16.383   8.244   6.380  1.00  0.00     0.274 HD
ATOM     38  H62 UNL     1      17.147   8.704   7.626  1.00  0.00     0.274 HD
ATOM     39  H61 UNL     1      16.956   7.024   7.421  1.00  0.00     0.274 HD
ENDBRANCH  35  36
ENDBRANCH  34  35
ENDBRANCH  33  34
ENDBRANCH  29  33
BRANCH  31  40
HETATM   40  N8  UNL     1      16.012  10.880   5.080  1.00  0.00    -0.334 N 
ATOM     41  H82 UNL     1      16.826  10.288   5.249  1.00  0.00     0.177 HD
ATOM     42  H81 UNL     1      15.992  11.861   5.359  1.00  0.00     0.177 HD
ENDBRANCH  31  40
BRANCH  32  43
HETATM   43  N9  UNL     1      15.526  11.277   2.444  1.00  0.00    -0.382 N 
ATOM     44  H92 UNL     1      15.707  12.260   2.646  1.00  0.00     0.157 HD
ATOM     45  H91 UNL     1      16.010  10.846   1.656  1.00  0.00     0.157 HD
ENDBRANCH  32  43
ENDBRANCH  24  25
ENDBRANCH   1  24
TORSDOF 12
ENDMDL
