MODEL 1
REMARK VINA RESULT: -7.102992735      0.000      0.000
REMARK  7 active torsions:
REMARK  status: ('A' for Active; 'I' for Inactive)
REMARK    1  A    between atoms: N1_1  and  N2_4 
REMARK    2  A    between atoms: N2_4  and  S1_6 
REMARK    3  A    between atoms: S1_6  and  N3_9 
REMARK    4  A    between atoms: N3_9  and  C1_11 
REMARK    5  A    between atoms: C4_14  and  C5_15 
REMARK    6  A    between atoms: C5_15  and  N4_16 
REMARK    7  A    between atoms: C5_15  and  N5_20 
ROOT
HETATM    1  C1  UNL     1     -28.801   7.322  21.918  1.00  0.00     0.130 A 
HETATM    2  C2  UNL     1     -29.091   8.649  22.079  1.00  0.00     0.052 A 
HETATM    3  C3  UNL     1     -30.397   9.036  22.291  1.00  0.00     0.034 A 
HETATM    4  C4  UNL     1     -31.428   8.121  22.347  1.00  0.00     0.083 A 
HETATM    5  N6  UNL     1     -31.083   6.832  22.182  1.00  0.00    -0.299 N 
ATOM      6  H6  UNL     1     -31.811   6.118  22.216  1.00  0.00     0.186 HD
HETATM    7  N7  UNL     1     -29.831   6.461  21.979  1.00  0.00    -0.285 N 
ATOM      8  H7  UNL     1     -29.636   5.467  21.862  1.00  0.00     0.188 HD
ENDROOT
BRANCH   1   9
HETATM    9  N3  UNL     1     -27.631   6.848  21.716  1.00  0.00    -0.251 N 
ATOM     10  H3  UNL     1     -27.419   6.529  20.771  1.00  0.00     0.182 HD
BRANCH   9  11
HETATM   11  S1  UNL     1     -26.394   6.698  22.874  1.00  0.00     0.337 S 
HETATM   12  O1  UNL     1     -25.208   7.572  22.583  1.00  0.00    -0.181 OA
HETATM   13  O2  UNL     1     -25.888   5.282  22.859  1.00  0.00    -0.181 OA
BRANCH  11  14
HETATM   14  N2  UNL     1     -26.920   7.039  24.474  1.00  0.00    -0.216 N 
ATOM     15  H2  UNL     1     -27.311   6.370  25.136  1.00  0.00     0.201 HD
BRANCH  14  16
HETATM   16  N1  UNL     1     -26.711   8.405  24.698  1.00  0.00    -0.335 N 
ATOM     17  H12 UNL     1     -25.809   8.846  24.878  1.00  0.00     0.177 HD
ATOM     18  H11 UNL     1     -27.621   8.863  24.645  1.00  0.00     0.177 HD
ENDBRANCH  14  16
ENDBRANCH  11  14
ENDBRANCH   9  11
ENDBRANCH   1   9
BRANCH   4  19
HETATM   19  C5  UNL     1     -32.841   8.525  22.576  1.00  0.00     0.428 C 
BRANCH  19  20
HETATM   20  N4  UNL     1     -32.817   9.655  23.485  1.00  0.00    -0.045 N 
ATOM     21  H43 UNL     1     -33.744   9.924  23.815  1.00  0.00     0.277 HD
ATOM     22  H42 UNL     1     -32.414   9.430  24.395  1.00  0.00     0.277 HD
ATOM     23  H41 UNL     1     -32.327  10.412  23.007  1.00  0.00     0.277 HD
ENDBRANCH  19  20
BRANCH  19  24
HETATM   24  N5  UNL     1     -33.629   7.433  23.132  1.00  0.00    -0.045 N 
ATOM     25  H53 UNL     1     -34.130   6.925  22.402  1.00  0.00     0.277 HD
ATOM     26  H52 UNL     1     -33.032   6.678  23.469  1.00  0.00     0.277 HD
ATOM     27  H51 UNL     1     -34.264   7.760  23.861  1.00  0.00     0.277 HD
ENDBRANCH  19  24
ENDBRANCH   4  19
TORSDOF 7
ENDMDL
MODEL 2
REMARK VINA RESULT: -6.909315541      1.239      1.326
REMARK  7 active torsions:
REMARK  status: ('A' for Active; 'I' for Inactive)
REMARK    1  A    between atoms: N1_1  and  N2_4 
REMARK    2  A    between atoms: N2_4  and  S1_6 
REMARK    3  A    between atoms: S1_6  and  N3_9 
REMARK    4  A    between atoms: N3_9  and  C1_11 
REMARK    5  A    between atoms: C4_14  and  C5_15 
REMARK    6  A    between atoms: C5_15  and  N4_16 
REMARK    7  A    between atoms: C5_15  and  N5_20 
ROOT
HETATM    1  C1  UNL     1     -28.643   7.802  22.142  1.00  0.00     0.130 A 
HETATM    2  C2  UNL     1     -29.347   8.967  22.280  1.00  0.00     0.052 A 
HETATM    3  C3  UNL     1     -30.725   8.929  22.278  1.00  0.00     0.034 A 
HETATM    4  C4  UNL     1     -31.422   7.747  22.140  1.00  0.00     0.083 A 
HETATM    5  N6  UNL     1     -30.677   6.635  22.008  1.00  0.00    -0.299 N 
ATOM      6  H6  UNL     1     -31.147   5.736  21.903  1.00  0.00     0.186 HD
HETATM    7  N7  UNL     1     -29.356   6.671  22.010  1.00  0.00    -0.285 N 
ATOM      8  H7  UNL     1     -28.850   5.791  21.905  1.00  0.00     0.188 HD
ENDROOT
BRANCH   1   9
HETATM    9  N3  UNL     1     -27.367   7.715  22.129  1.00  0.00    -0.251 N 
ATOM     10  H3  UNL     1     -26.898   7.937  21.251  1.00  0.00     0.182 HD
BRANCH   9  11
HETATM   11  S1  UNL     1     -26.379   7.265  23.438  1.00  0.00     0.337 S 
HETATM   12  O1  UNL     1     -25.324   6.264  23.060  1.00  0.00    -0.181 OA
HETATM   13  O2  UNL     1     -27.234   6.602  24.482  1.00  0.00    -0.181 OA
BRANCH  11  14
HETATM   14  N2  UNL     1     -25.596   8.598  24.186  1.00  0.00    -0.216 N 
ATOM     15  H2  UNL     1     -25.962   9.161  24.953  1.00  0.00     0.201 HD
BRANCH  14  16
HETATM   16  N1  UNL     1     -24.363   8.769  23.546  1.00  0.00    -0.335 N 
ATOM     17  H12 UNL     1     -24.128   9.524  22.901  1.00  0.00     0.177 HD
ATOM     18  H11 UNL     1     -23.757   8.005  23.846  1.00  0.00     0.177 HD
ENDBRANCH  14  16
ENDBRANCH  11  14
ENDBRANCH   9  11
ENDBRANCH   1   9
BRANCH   4  19
HETATM   19  C5  UNL     1     -32.908   7.692  22.137  1.00  0.00     0.428 C 
BRANCH  19  20
HETATM   20  N4  UNL     1     -33.369   8.645  23.129  1.00  0.00    -0.045 N 
ATOM     21  H43 UNL     1     -33.719   9.511  22.720  1.00  0.00     0.277 HD
ATOM     22  H42 UNL     1     -34.234   8.358  23.589  1.00  0.00     0.277 HD
ATOM     23  H41 UNL     1     -32.598   8.792  23.781  1.00  0.00     0.277 HD
ENDBRANCH  19  20
BRANCH  19  24
HETATM   24  N5  UNL     1     -33.398   6.354  22.440  1.00  0.00    -0.045 N 
ATOM     25  H53 UNL     1     -32.629   5.712  22.638  1.00  0.00     0.277 HD
ATOM     26  H52 UNL     1     -33.865   6.325  23.346  1.00  0.00     0.277 HD
ATOM     27  H51 UNL     1     -34.000   5.996  21.699  1.00  0.00     0.277 HD
ENDBRANCH  19  24
ENDBRANCH   4  19
TORSDOF 7
ENDMDL
MODEL 3
REMARK VINA RESULT: -6.881100277      1.024      1.298
REMARK  7 active torsions:
REMARK  status: ('A' for Active; 'I' for Inactive)
REMARK    1  A    between atoms: N1_1  and  N2_4 
REMARK    2  A    between atoms: N2_4  and  S1_6 
REMARK    3  A    between atoms: S1_6  and  N3_9 
REMARK    4  A    between atoms: N3_9  and  C1_11 
REMARK    5  A    between atoms: C4_14  and  C5_15 
REMARK    6  A    between atoms: C5_15  and  N4_16 
REMARK    7  A    between atoms: C5_15  and  N5_20 
ROOT
HETATM    1  C1  UNL     1     -28.654   7.864  22.068  1.00  0.00     0.130 A 
HETATM    2  C2  UNL     1     -29.370   9.013  22.261  1.00  0.00     0.052 A 
HETATM    3  C3  UNL     1     -30.748   8.955  22.293  1.00  0.00     0.034 A 
HETATM    4  C4  UNL     1     -31.431   7.767  22.134  1.00  0.00     0.083 A 
HETATM    5  N6  UNL     1     -30.674   6.671  21.948  1.00  0.00    -0.299 N 
ATOM      6  H6  UNL     1     -31.134   5.769  21.826  1.00  0.00     0.186 HD
HETATM    7  N7  UNL     1     -29.355   6.727  21.918  1.00  0.00    -0.285 N 
ATOM      8  H7  UNL     1     -28.839   5.859  21.772  1.00  0.00     0.188 HD
ENDROOT
BRANCH   1   9
HETATM    9  N3  UNL     1     -27.378   7.796  22.020  1.00  0.00    -0.251 N 
ATOM     10  H3  UNL     1     -26.951   7.780  21.094  1.00  0.00     0.182 HD
BRANCH   9  11
HETATM   11  S1  UNL     1     -26.326   7.731  23.354  1.00  0.00     0.337 S 
HETATM   12  O1  UNL     1     -26.005   9.087  23.916  1.00  0.00    -0.181 OA
HETATM   13  O2  UNL     1     -25.017   7.139  22.908  1.00  0.00    -0.181 OA
BRANCH  11  14
HETATM   14  N2  UNL     1     -26.919   6.756  24.638  1.00  0.00    -0.216 N 
ATOM     15  H2  UNL     1     -27.672   6.996  25.281  1.00  0.00     0.201 HD
BRANCH  14  16
HETATM   16  N1  UNL     1     -26.174   5.570  24.637  1.00  0.00    -0.335 N 
ATOM     17  H12 UNL     1     -25.525   5.277  23.907  1.00  0.00     0.177 HD
ATOM     18  H11 UNL     1     -26.404   5.068  25.495  1.00  0.00     0.177 HD
ENDBRANCH  14  16
ENDBRANCH  11  14
ENDBRANCH   9  11
ENDBRANCH   1   9
BRANCH   4  19
HETATM   19  C5  UNL     1     -32.916   7.691  22.167  1.00  0.00     0.428 C 
BRANCH  19  20
HETATM   20  N4  UNL     1     -33.364   8.596  23.209  1.00  0.00    -0.045 N 
ATOM     21  H43 UNL     1     -33.463   8.143  24.117  1.00  0.00     0.277 HD
ATOM     22  H42 UNL     1     -32.656   9.278  23.479  1.00  0.00     0.277 HD
ATOM     23  H41 UNL     1     -34.229   9.025  22.879  1.00  0.00     0.277 HD
ENDBRANCH  19  20
BRANCH  19  24
HETATM   24  N5  UNL     1     -33.379   6.334  22.429  1.00  0.00    -0.045 N 
ATOM     25  H53 UNL     1     -32.601   5.674  22.458  1.00  0.00     0.277 HD
ATOM     26  H52 UNL     1     -33.709   6.232  23.388  1.00  0.00     0.277 HD
ATOM     27  H51 UNL     1     -34.089   6.042  21.757  1.00  0.00     0.277 HD
ENDBRANCH  19  24
ENDBRANCH   4  19
TORSDOF 7
ENDMDL
MODEL 4
REMARK VINA RESULT: -6.857517739      1.284      1.610
REMARK  7 active torsions:
REMARK  status: ('A' for Active; 'I' for Inactive)
REMARK    1  A    between atoms: N1_1  and  N2_4 
REMARK    2  A    between atoms: N2_4  and  S1_6 
REMARK    3  A    between atoms: S1_6  and  N3_9 
REMARK    4  A    between atoms: N3_9  and  C1_11 
REMARK    5  A    between atoms: C4_14  and  C5_15 
REMARK    6  A    between atoms: C5_15  and  N4_16 
REMARK    7  A    between atoms: C5_15  and  N5_20 
ROOT
HETATM    1  C1  UNL     1     -28.783   7.380  21.977  1.00  0.00     0.130 A 
HETATM    2  C2  UNL     1     -29.100   8.693  22.189  1.00  0.00     0.052 A 
HETATM    3  C3  UNL     1     -30.417   9.050  22.383  1.00  0.00     0.034 A 
HETATM    4  C4  UNL     1     -31.434   8.118  22.370  1.00  0.00     0.083 A 
HETATM    5  N6  UNL     1     -31.063   6.843  22.158  1.00  0.00    -0.299 N 
ATOM      6  H6  UNL     1     -31.779   6.116  22.140  1.00  0.00     0.186 HD
HETATM    7  N7  UNL     1     -29.800   6.501  21.971  1.00  0.00    -0.285 N 
ATOM      8  H7  UNL     1     -29.585   5.516  21.815  1.00  0.00     0.188 HD
ENDROOT
BRANCH   1   9
HETATM    9  N3  UNL     1     -27.600   6.934  21.785  1.00  0.00    -0.251 N 
ATOM     10  H3  UNL     1     -27.306   6.806  20.817  1.00  0.00     0.182 HD
BRANCH   9  11
HETATM   11  S1  UNL     1     -26.471   6.532  22.992  1.00  0.00     0.337 S 
HETATM   12  O1  UNL     1     -27.054   6.568  24.376  1.00  0.00    -0.181 OA
HETATM   13  O2  UNL     1     -25.364   7.550  22.974  1.00  0.00    -0.181 OA
BRANCH  11  14
HETATM   14  N2  UNL     1     -25.754   4.989  22.762  1.00  0.00    -0.216 N 
ATOM     15  H2  UNL     1     -25.842   4.398  21.936  1.00  0.00     0.201 HD
BRANCH  14  16
HETATM   16  N1  UNL     1     -25.025   4.692  23.921  1.00  0.00    -0.335 N 
ATOM     17  H12 UNL     1     -25.412   4.616  24.862  1.00  0.00     0.177 HD
ATOM     18  H11 UNL     1     -24.051   4.569  23.643  1.00  0.00     0.177 HD
ENDBRANCH  14  16
ENDBRANCH  11  14
ENDBRANCH   9  11
ENDBRANCH   1   9
BRANCH   4  19
HETATM   19  C5  UNL     1     -32.859   8.488  22.579  1.00  0.00     0.428 C 
BRANCH  19  20
HETATM   20  N4  UNL     1     -32.875   9.614  23.493  1.00  0.00    -0.045 N 
ATOM     21  H43 UNL     1     -33.808   9.839  23.837  1.00  0.00     0.277 HD
ATOM     22  H42 UNL     1     -32.450   9.403  24.397  1.00  0.00     0.277 HD
ATOM     23  H41 UNL     1     -32.426  10.395  23.013  1.00  0.00     0.277 HD
ENDBRANCH  19  20
BRANCH  19  24
HETATM   24  N5  UNL     1     -33.631   7.376  23.117  1.00  0.00    -0.045 N 
ATOM     25  H53 UNL     1     -33.059   6.784  23.722  1.00  0.00     0.277 HD
ATOM     26  H52 UNL     1     -34.312   7.695  23.806  1.00  0.00     0.277 HD
ATOM     27  H51 UNL     1     -34.075   6.833  22.377  1.00  0.00     0.277 HD
ENDBRANCH  19  24
ENDBRANCH   4  19
TORSDOF 7
ENDMDL
MODEL 5
REMARK VINA RESULT: -6.805716146      3.504      6.083
REMARK  7 active torsions:
REMARK  status: ('A' for Active; 'I' for Inactive)
REMARK    1  A    between atoms: N1_1  and  N2_4 
REMARK    2  A    between atoms: N2_4  and  S1_6 
REMARK    3  A    between atoms: S1_6  and  N3_9 
REMARK    4  A    between atoms: N3_9  and  C1_11 
REMARK    5  A    between atoms: C4_14  and  C5_15 
REMARK    6  A    between atoms: C5_15  and  N4_16 
REMARK    7  A    between atoms: C5_15  and  N5_20 
ROOT
HETATM    1  C1  UNL     1     -27.413   7.286  23.082  1.00  0.00     0.130 A 
HETATM    2  C2  UNL     1     -26.824   6.644  24.136  1.00  0.00     0.052 A 
HETATM    3  C3  UNL     1     -25.878   5.671  23.893  1.00  0.00     0.034 A 
HETATM    4  C4  UNL     1     -25.504   5.322  22.612  1.00  0.00     0.083 A 
HETATM    5  N6  UNL     1     -26.116   5.987  21.617  1.00  0.00    -0.299 N 
ATOM      6  H6  UNL     1     -25.873   5.764  20.651  1.00  0.00     0.186 HD
HETATM    7  N7  UNL     1     -27.023   6.919  21.850  1.00  0.00    -0.285 N 
ATOM      8  H7  UNL     1     -27.450   7.386  21.049  1.00  0.00     0.188 HD
ENDROOT
BRANCH   1   9
HETATM    9  N3  UNL     1     -28.300   8.201  23.186  1.00  0.00    -0.251 N 
ATOM     10  H3  UNL     1     -28.161   8.899  23.917  1.00  0.00     0.182 HD
BRANCH   9  11
HETATM   11  S1  UNL     1     -29.689   8.366  22.220  1.00  0.00     0.337 S 
HETATM   12  O1  UNL     1     -29.577   7.652  20.903  1.00  0.00    -0.181 OA
HETATM   13  O2  UNL     1     -29.881   9.822  21.895  1.00  0.00    -0.181 OA
BRANCH  11  14
HETATM   14  N2  UNL     1     -31.122   7.820  22.994  1.00  0.00    -0.216 N 
ATOM     15  H2  UNL     1     -31.501   8.165  23.876  1.00  0.00     0.201 HD
BRANCH  14  16
HETATM   16  N1  UNL     1     -31.672   6.815  22.190  1.00  0.00    -0.335 N 
ATOM     17  H12 UNL     1     -32.450   6.932  21.541  1.00  0.00     0.177 HD
ATOM     18  H11 UNL     1     -31.150   5.958  22.377  1.00  0.00     0.177 HD
ENDBRANCH  14  16
ENDBRANCH  11  14
ENDBRANCH   9  11
ENDBRANCH   1   9
BRANCH   4  19
HETATM   19  C5  UNL     1     -24.484   4.274  22.336  1.00  0.00     0.428 C 
BRANCH  19  20
HETATM   20  N4  UNL     1     -24.854   3.643  21.084  1.00  0.00    -0.045 N 
ATOM     21  H43 UNL     1     -25.828   3.340  21.060  1.00  0.00     0.277 HD
ATOM     22  H42 UNL     1     -24.902   4.297  20.303  1.00  0.00     0.277 HD
ATOM     23  H41 UNL     1     -24.194   2.881  20.928  1.00  0.00     0.277 HD
ENDBRANCH  19  20
BRANCH  19  24
HETATM   24  N5  UNL     1     -24.418   3.292  23.410  1.00  0.00    -0.045 N 
ATOM     25  H53 UNL     1     -23.839   3.622  24.182  1.00  0.00     0.277 HD
ATOM     26  H52 UNL     1     -25.309   3.217  23.900  1.00  0.00     0.277 HD
ATOM     27  H51 UNL     1     -24.103   2.383  23.069  1.00  0.00     0.277 HD
ENDBRANCH  19  24
ENDBRANCH   4  19
TORSDOF 7
ENDMDL
