MODEL 1
REMARK VINA RESULT: -8.092403147      0.000      0.000
REMARK  3 active torsions:
REMARK  status: ('A' for Active; 'I' for Inactive)
REMARK       I    between atoms: N1_4  and  C3_5 
REMARK       I    between atoms: C3_5  and  N2_7 
REMARK    1  A    between atoms: N2_7  and  N3_9 
REMARK       I    between atoms: N3_9  and  C4_11 
REMARK    2  A    between atoms: C4_11  and  O4_13 
REMARK    3  A    between atoms: O4_13  and  C5_14 
ROOT
HETATM    1  C1  UNL     1     -16.368  36.268   3.223  1.00  0.00     0.049 C 
HETATM    2  C2  UNL     1     -16.620  35.566   2.147  1.00  0.00     0.073 C 
HETATM    3  O1  UNL     1     -15.699  35.093   1.203  1.00  0.00    -0.236 OA
HETATM    4  N1  UNL     1     -16.319  34.868   0.002  1.00  0.00    -0.195 N 
HETATM    5  C3  UNL     1     -15.725  34.290  -1.178  1.00  0.00     0.361 C 
HETATM    6  O2  UNL     1     -16.399  34.138  -2.217  1.00  0.00    -0.243 OA
HETATM    7  N2  UNL     1     -14.367  33.880  -1.191  1.00  0.00    -0.245 N 
ATOM      8  H2  UNL     1     -13.805  33.994  -0.348  1.00  0.00     0.192 HD
HETATM    9  C9  UNL     1     -17.685  35.331   0.149  1.00  0.00     0.131 C 
HETATM   10  C10 UNL     1     -17.658  36.802  -0.207  1.00  0.00     0.029 C 
HETATM   11  C11 UNL     1     -18.991  37.365  -0.572  1.00  0.00     0.002 C 
HETATM   12  C12 UNL     1     -20.022  37.236   0.501  1.00  0.00     0.000 C 
HETATM   13  C13 UNL     1     -19.396  37.095   1.866  1.00  0.00     0.001 C 
HETATM   14  C14 UNL     1     -19.102  35.679   2.215  1.00  0.00     0.013 C 
HETATM   15  C15 UNL     1     -17.917  35.067   1.601  1.00  0.00     0.070 C 
ENDROOT
BRANCH   7  16
HETATM   16  N3  UNL     1     -13.779  33.324  -2.331  1.00  0.00    -0.241 N 
HETATM   17  C4  UNL     1     -13.396  34.128  -3.453  1.00  0.00     0.380 C 
HETATM   18  O3  UNL     1     -13.580  35.371  -3.442  1.00  0.00    -0.237 OA
ATOM     19  H3  UNL     1     -13.618  32.317  -2.364  1.00  0.00     0.192 HD
BRANCH  17  20
HETATM   20  O4  UNL     1     -12.821  33.571  -4.571  1.00  0.00    -0.293 OA
BRANCH  20  21
HETATM   21  C5  UNL     1     -13.484  32.717  -5.448  1.00  0.00     0.061 C 
HETATM   22  C6  UNL     1     -14.955  32.948  -5.567  1.00  0.00     0.046 C 
HETATM   23  C7  UNL     1     -13.275  31.250  -5.079  1.00  0.00     0.046 C 
HETATM   24  C8  UNL     1     -12.863  32.904  -6.826  1.00  0.00     0.046 C 
ENDBRANCH  20  21
ENDBRANCH  17  20
ENDBRANCH   7  16
TORSDOF 3
ENDMDL
MODEL 2
REMARK VINA RESULT: -7.899991631      1.914      2.699
REMARK  3 active torsions:
REMARK  status: ('A' for Active; 'I' for Inactive)
REMARK       I    between atoms: N1_4  and  C3_5 
REMARK       I    between atoms: C3_5  and  N2_7 
REMARK    1  A    between atoms: N2_7  and  N3_9 
REMARK       I    between atoms: N3_9  and  C4_11 
REMARK    2  A    between atoms: C4_11  and  O4_13 
REMARK    3  A    between atoms: O4_13  and  C5_14 
ROOT
HETATM    1  C1  UNL     1     -19.108  38.559   2.627  1.00  0.00     0.049 C 
HETATM    2  C2  UNL     1     -19.171  37.733   1.613  1.00  0.00     0.073 C 
HETATM    3  O1  UNL     1     -18.170  36.867   1.157  1.00  0.00    -0.236 OA
HETATM    4  N1  UNL     1     -18.373  36.556  -0.163  1.00  0.00    -0.195 N 
HETATM    5  C3  UNL     1     -17.612  35.621  -0.953  1.00  0.00     0.361 C 
HETATM    6  O2  UNL     1     -17.896  35.426  -2.153  1.00  0.00    -0.243 OA
HETATM    7  N2  UNL     1     -16.526  34.899  -0.394  1.00  0.00    -0.245 N 
ATOM      8  H2  UNL     1     -16.284  35.045   0.587  1.00  0.00     0.192 HD
HETATM    9  C9  UNL     1     -19.496  37.357  -0.608  1.00  0.00     0.131 C 
HETATM   10  C10 UNL     1     -18.903  38.672  -1.069  1.00  0.00     0.029 C 
HETATM   11  C11 UNL     1     -19.790  39.454  -1.980  1.00  0.00     0.002 C 
HETATM   12  C12 UNL     1     -21.116  39.803  -1.387  1.00  0.00     0.000 C 
HETATM   13  C13 UNL     1     -21.075  39.799   0.120  1.00  0.00     0.001 C 
HETATM   14  C14 UNL     1     -21.364  38.458   0.694  1.00  0.00     0.013 C 
HETATM   15  C15 UNL     1     -20.285  37.463   0.656  1.00  0.00     0.070 C 
ENDROOT
BRANCH   7  16
HETATM   16  N3  UNL     1     -15.777  33.994  -1.152  1.00  0.00    -0.241 N 
HETATM   17  C4  UNL     1     -14.623  34.404  -1.895  1.00  0.00     0.380 C 
HETATM   18  O3  UNL     1     -14.246  35.603  -1.884  1.00  0.00    -0.237 OA
ATOM     19  H3  UNL     1     -16.061  33.015  -1.177  1.00  0.00     0.192 HD
BRANCH  17  20
HETATM   20  O4  UNL     1     -13.895  33.506  -2.640  1.00  0.00    -0.293 OA
BRANCH  20  21
HETATM   21  C5  UNL     1     -13.859  33.492  -4.031  1.00  0.00     0.061 C 
HETATM   22  C6  UNL     1     -15.118  33.938  -4.702  1.00  0.00     0.046 C 
HETATM   23  C7  UNL     1     -13.512  32.108  -4.576  1.00  0.00     0.046 C 
HETATM   24  C8  UNL     1     -12.735  34.420  -4.471  1.00  0.00     0.046 C 
ENDBRANCH  20  21
ENDBRANCH  17  20
ENDBRANCH   7  16
TORSDOF 3
ENDMDL
MODEL 3
REMARK VINA RESULT: -7.872137821      2.310      3.284
REMARK  3 active torsions:
REMARK  status: ('A' for Active; 'I' for Inactive)
REMARK       I    between atoms: N1_4  and  C3_5 
REMARK       I    between atoms: C3_5  and  N2_7 
REMARK    1  A    between atoms: N2_7  and  N3_9 
REMARK       I    between atoms: N3_9  and  C4_11 
REMARK    2  A    between atoms: C4_11  and  O4_13 
REMARK    3  A    between atoms: O4_13  and  C5_14 
ROOT
HETATM    1  C1  UNL     1     -19.160  38.546   2.478  1.00  0.00     0.049 C 
HETATM    2  C2  UNL     1     -19.405  37.907   1.362  1.00  0.00     0.073 C 
HETATM    3  O1  UNL     1     -18.510  37.139   0.607  1.00  0.00    -0.236 OA
HETATM    4  N1  UNL     1     -18.930  37.059  -0.695  1.00  0.00    -0.195 N 
HETATM    5  C3  UNL     1     -18.327  36.278  -1.747  1.00  0.00     0.361 C 
HETATM    6  O2  UNL     1     -18.806  36.292  -2.900  1.00  0.00    -0.243 OA
HETATM    7  N2  UNL     1     -17.182  35.478  -1.504  1.00  0.00    -0.245 N 
ATOM      8  H2  UNL     1     -16.782  35.454  -0.566  1.00  0.00     0.192 HD
HETATM    9  C9  UNL     1     -20.093  37.918  -0.808  1.00  0.00     0.131 C 
HETATM   10  C10 UNL     1     -19.553  39.296  -1.127  1.00  0.00     0.029 C 
HETATM   11  C11 UNL     1     -20.558  40.218  -1.734  1.00  0.00     0.002 C 
HETATM   12  C12 UNL     1     -21.763  40.452  -0.882  1.00  0.00     0.000 C 
HETATM   13  C13 UNL     1     -21.479  40.188   0.575  1.00  0.00     0.001 C 
HETATM   14  C14 UNL     1     -21.701  38.766   0.951  1.00  0.00     0.013 C 
HETATM   15  C15 UNL     1     -20.665  37.799   0.567  1.00  0.00     0.070 C 
ENDROOT
BRANCH   7  16
HETATM   16  N3  UNL     1     -16.586  34.722  -2.517  1.00  0.00    -0.241 N 
HETATM   17  C4  UNL     1     -15.418  35.176  -3.212  1.00  0.00     0.380 C 
HETATM   18  O3  UNL     1     -14.890  36.280  -2.925  1.00  0.00    -0.237 OA
ATOM     19  H3  UNL     1     -16.994  33.822  -2.769  1.00  0.00     0.192 HD
BRANCH  17  20
HETATM   20  O4  UNL     1     -14.841  34.426  -4.210  1.00  0.00    -0.293 OA
BRANCH  20  21
HETATM   21  C5  UNL     1     -13.702  33.643  -4.040  1.00  0.00     0.061 C 
HETATM   22  C6  UNL     1     -13.486  33.132  -2.653  1.00  0.00     0.046 C 
HETATM   23  C7  UNL     1     -12.435  34.385  -4.460  1.00  0.00     0.046 C 
HETATM   24  C8  UNL     1     -13.827  32.446  -4.971  1.00  0.00     0.046 C 
ENDBRANCH  20  21
ENDBRANCH  17  20
ENDBRANCH   7  16
TORSDOF 3
ENDMDL
MODEL 4
REMARK VINA RESULT: -7.731666584      1.366      7.893
REMARK  3 active torsions:
REMARK  status: ('A' for Active; 'I' for Inactive)
REMARK       I    between atoms: N1_4  and  C3_5 
REMARK       I    between atoms: C3_5  and  N2_7 
REMARK    1  A    between atoms: N2_7  and  N3_9 
REMARK       I    between atoms: N3_9  and  C4_11 
REMARK    2  A    between atoms: C4_11  and  O4_13 
REMARK    3  A    between atoms: O4_13  and  C5_14 
ROOT
HETATM    1  C1  UNL     1     -12.357  30.891  -4.967  1.00  0.00     0.049 C 
HETATM    2  C2  UNL     1     -12.769  32.121  -4.792  1.00  0.00     0.073 C 
HETATM    3  O1  UNL     1     -13.245  32.699  -3.609  1.00  0.00    -0.236 OA
HETATM    4  N1  UNL     1     -14.041  33.780  -3.892  1.00  0.00    -0.195 N 
HETATM    5  C3  UNL     1     -14.630  34.686  -2.938  1.00  0.00     0.361 C 
HETATM    6  O2  UNL     1     -15.342  35.637  -3.324  1.00  0.00    -0.243 OA
HETATM    7  N2  UNL     1     -14.421  34.526  -1.545  1.00  0.00    -0.245 N 
ATOM      8  H2  UNL     1     -13.839  33.756  -1.215  1.00  0.00     0.192 HD
HETATM    9  C9  UNL     1     -14.176  33.826  -5.334  1.00  0.00     0.131 C 
HETATM   10  C10 UNL     1     -15.361  32.942  -5.661  1.00  0.00     0.029 C 
HETATM   11  C11 UNL     1     -15.963  33.202  -7.002  1.00  0.00     0.002 C 
HETATM   12  C12 UNL     1     -15.013  33.028  -8.141  1.00  0.00     0.000 C 
HETATM   13  C13 UNL     1     -13.864  32.120  -7.780  1.00  0.00     0.001 C 
HETATM   14  C14 UNL     1     -12.727  32.857  -7.166  1.00  0.00     0.013 C 
HETATM   15  C15 UNL     1     -12.863  33.255  -5.760  1.00  0.00     0.070 C 
ENDROOT
BRANCH   7  16
HETATM   16  N3  UNL     1     -14.993  35.395  -0.611  1.00  0.00    -0.241 N 
HETATM   17  C4  UNL     1     -15.770  34.915   0.492  1.00  0.00     0.380 C 
HETATM   18  O3  UNL     1     -15.961  33.683   0.653  1.00  0.00    -0.237 OA
ATOM     19  H3  UNL     1     -14.852  36.400  -0.718  1.00  0.00     0.192 HD
BRANCH  17  20
HETATM   20  O4  UNL     1     -16.331  35.778   1.403  1.00  0.00    -0.293 OA
BRANCH  20  21
HETATM   21  C5  UNL     1     -17.698  36.016   1.517  1.00  0.00     0.061 C 
HETATM   22  C6  UNL     1     -18.497  34.874   2.057  1.00  0.00     0.046 C 
HETATM   23  C7  UNL     1     -18.317  36.419   0.180  1.00  0.00     0.046 C 
HETATM   24  C8  UNL     1     -17.881  37.205   2.450  1.00  0.00     0.046 C 
ENDBRANCH  20  21
ENDBRANCH  17  20
ENDBRANCH   7  16
TORSDOF 3
ENDMDL
MODEL 5
REMARK VINA RESULT: -7.724145938      3.260      4.839
REMARK  3 active torsions:
REMARK  status: ('A' for Active; 'I' for Inactive)
REMARK       I    between atoms: N1_4  and  C3_5 
REMARK       I    between atoms: C3_5  and  N2_7 
REMARK    1  A    between atoms: N2_7  and  N3_9 
REMARK       I    between atoms: N3_9  and  C4_11 
REMARK    2  A    between atoms: C4_11  and  O4_13 
REMARK    3  A    between atoms: O4_13  and  C5_14 
ROOT
HETATM    1  C1  UNL     1     -22.324  39.660  -3.529  1.00  0.00     0.049 C 
HETATM    2  C2  UNL     1     -21.137  39.283  -3.125  1.00  0.00     0.073 C 
HETATM    3  O1  UNL     1     -20.370  38.218  -3.615  1.00  0.00    -0.236 OA
HETATM    4  N1  UNL     1     -19.469  37.805  -2.667  1.00  0.00    -0.195 N 
HETATM    5  C3  UNL     1     -18.445  36.803  -2.834  1.00  0.00     0.361 C 
HETATM    6  O2  UNL     1     -17.683  36.512  -1.889  1.00  0.00    -0.243 OA
HETATM    7  N2  UNL     1     -18.276  36.123  -4.067  1.00  0.00    -0.245 N 
ATOM      8  H2  UNL     1     -18.888  36.353  -4.850  1.00  0.00     0.192 HD
HETATM    9  C9  UNL     1     -19.752  38.567  -1.468  1.00  0.00     0.131 C 
HETATM   10  C10 UNL     1     -20.808  37.778  -0.723  1.00  0.00     0.029 C 
HETATM   11  C11 UNL     1     -20.912  38.118   0.727  1.00  0.00     0.002 C 
HETATM   12  C12 UNL     1     -21.226  39.553   0.996  1.00  0.00     0.000 C 
HETATM   13  C13 UNL     1     -21.905  40.209  -0.180  1.00  0.00     0.001 C 
HETATM   14  C14 UNL     1     -20.935  40.780  -1.152  1.00  0.00     0.013 C 
HETATM   15  C15 UNL     1     -20.257  39.843  -2.057  1.00  0.00     0.070 C 
ENDROOT
BRANCH   7  16
HETATM   16  N3  UNL     1     -17.291  35.146  -4.238  1.00  0.00    -0.241 N 
HETATM   17  C4  UNL     1     -15.966  35.476  -4.670  1.00  0.00     0.380 C 
HETATM   18  O3  UNL     1     -15.648  36.669  -4.909  1.00  0.00    -0.237 OA
ATOM     19  H3  UNL     1     -17.522  34.170  -4.049  1.00  0.00     0.192 HD
BRANCH  17  20
HETATM   20  O4  UNL     1     -15.004  34.507  -4.838  1.00  0.00    -0.293 OA
BRANCH  20  21
HETATM   21  C5  UNL     1     -14.010  34.224  -3.907  1.00  0.00     0.061 C 
HETATM   22  C6  UNL     1     -14.411  34.394  -2.478  1.00  0.00     0.046 C 
HETATM   23  C7  UNL     1     -12.758  35.069  -4.138  1.00  0.00     0.046 C 
HETATM   24  C8  UNL     1     -13.591  32.774  -4.110  1.00  0.00     0.046 C 
ENDBRANCH  20  21
ENDBRANCH  17  20
ENDBRANCH   7  16
TORSDOF 3
ENDMDL
