MODEL 1
REMARK VINA RESULT: -10.442984106      0.000      0.000
REMARK  12 active torsions:
REMARK  status: ('A' for Active; 'I' for Inactive)
REMARK    1  A    between atoms: C4_7  and  C5_8 
REMARK    2  A    between atoms: C5_8  and  N3_9 
REMARK    3  A    between atoms: N5_21  and  C15_22 
REMARK    4  A    between atoms: C15_22  and  C16_23 
REMARK    5  A    between atoms: C15_22  and  C17_26 
REMARK    6  A    between atoms: C16_23  and  O1_24 
REMARK    7  A    between atoms: C17_26  and  C18_27 
REMARK    8  A    between atoms: C18_27  and  N6_28 
REMARK    9  A    between atoms: N7_31  and  C21_32 
REMARK   10  A    between atoms: C21_32  and  C22_33 
REMARK   11  A    between atoms: C22_33  and  O2_34 
REMARK   12  A    between atoms: C22_33  and  C23_36 
ROOT
HETATM    1  C1  UNL     1      -9.793  21.661 -20.762  1.00  0.00     0.070 C 
HETATM    2  C2  UNL     1     -10.289  20.861 -19.626  1.00  0.00     0.037 A 
HETATM    3  N1  UNL     1     -11.279  21.134 -18.780  1.00  0.00    -0.300 N 
ATOM      4  H1  UNL     1     -11.839  21.986 -18.818  1.00  0.00     0.187 HD
HETATM    5  N2  UNL     1     -11.454  20.182 -17.889  1.00  0.00    -0.271 N 
HETATM    6  C3  UNL     1     -10.505  19.233 -18.197  1.00  0.00     0.131 A 
HETATM    7  C4  UNL     1      -9.751  19.606 -19.258  1.00  0.00     0.043 A 
HETATM    8  N4  UNL     1     -10.323  17.928 -17.660  1.00  0.00    -0.374 N 
ATOM      9  H4  UNL     1     -10.100  17.278 -18.414  1.00  0.00     0.161 HD
HETATM   10  C10 UNL     1     -10.349  17.223 -16.418  1.00  0.00     0.121 C 
HETATM   11  C11 UNL     1     -10.073  18.064 -15.223  1.00  0.00     0.020 C 
HETATM   12  C12 UNL     1     -10.682  19.447 -15.305  1.00  0.00     0.010 C 
HETATM   13  C13 UNL     1     -12.126  19.431 -15.661  1.00  0.00     0.039 C 
HETATM   14  C14 UNL     1     -12.977  19.927 -14.496  1.00  0.00     0.279 C 
HETATM   15  N5  UNL     1     -14.346  20.146 -14.940  1.00  0.00     0.096 N 
HETATM   16  C28 UNL     1     -14.676  19.409 -16.094  1.00  0.00     0.275 C 
HETATM   17  C29 UNL     1     -13.848  19.935 -17.282  1.00  0.00     0.058 C 
HETATM   18  C30 UNL     1     -12.449  20.325 -16.854  1.00  0.00     0.117 C 
ENDROOT
BRANCH  15  19
HETATM   19  C15 UNL     1     -15.216  19.881 -13.755  1.00  0.00     0.251 C 
BRANCH  19  20
HETATM   20  C16 UNL     1     -14.511  20.780 -12.688  1.00  0.00     0.200 C 
BRANCH  20  21
HETATM   21  O1  UNL     1     -14.720  20.311 -11.416  1.00  0.00    -0.399 OA
ATOM     22  H1  UNL     1     -13.991  20.518 -10.843  1.00  0.00     0.209 HD
ENDBRANCH  20  21
ENDBRANCH  19  20
BRANCH  19  23
HETATM   23  C17 UNL     1     -16.580  20.361 -13.953  1.00  0.00     0.082 C 
BRANCH  23  24
HETATM   24  C18 UNL     1     -16.946  21.769 -13.677  1.00  0.00     0.065 C 
BRANCH  24  25
HETATM   25  N6  UNL     1     -16.992  22.784 -14.604  1.00  0.00    -0.370 N 
HETATM   26  C19 UNL     1     -18.302  23.349 -14.865  1.00  0.00     0.157 C 
HETATM   27  C20 UNL     1     -18.809  22.945 -16.239  1.00  0.00     0.293 C 
HETATM   28  N7  UNL     1     -17.848  23.283 -17.267  1.00  0.00     0.097 N 
HETATM   29  C26 UNL     1     -16.650  22.554 -17.046  1.00  0.00     0.317 C 
HETATM   30  C27 UNL     1     -16.094  22.870 -15.682  1.00  0.00     0.093 C 
BRANCH  28  31
HETATM   31  C21 UNL     1     -17.736  24.694 -17.418  1.00  0.00     0.304 C 
BRANCH  31  32
HETATM   32  C22 UNL     1     -17.766  25.144 -18.835  1.00  0.00     0.149 C 
BRANCH  32  33
HETATM   33  O2  UNL     1     -18.370  24.130 -19.594  1.00  0.00    -0.393 OA
ATOM     34  H2  UNL     1     -18.139  24.272 -20.505  1.00  0.00     0.210 HD
ENDBRANCH  32  33
BRANCH  32  35
HETATM   35  C23 UNL     1     -16.413  25.428 -19.398  1.00  0.00     0.008 C 
HETATM   36  C24 UNL     1     -15.990  24.288 -20.298  1.00  0.00     0.012 C 
HETATM   37  C25 UNL     1     -15.361  25.611 -18.346  1.00  0.00     0.012 C 
ENDBRANCH  32  35
ENDBRANCH  31  32
ENDBRANCH  28  31
ENDBRANCH  24  25
ENDBRANCH  23  24
ENDBRANCH  19  23
ENDBRANCH  15  19
BRANCH   7  38
HETATM   38  C5  UNL     1      -8.669  18.935 -19.946  1.00  0.00     0.076 C 
BRANCH  38  39
HETATM   39  N3  UNL     1      -8.352  17.595 -19.641  1.00  0.00    -0.292 NA
HETATM   40  C6  UNL     1      -7.128  17.422 -18.940  1.00  0.00     0.095 C 
HETATM   41  C7  UNL     1      -6.750  15.977 -19.132  1.00  0.00     0.016 C 
HETATM   42  C8  UNL     1      -7.533  15.547 -20.336  1.00  0.00     0.016 C 
HETATM   43  C9  UNL     1      -8.314  16.763 -20.778  1.00  0.00     0.095 C 
ENDBRANCH  38  39
ENDBRANCH   7  38
TORSDOF 12
ENDMDL
MODEL 2
REMARK VINA RESULT: -9.747700871      0.641      1.148
REMARK  12 active torsions:
REMARK  status: ('A' for Active; 'I' for Inactive)
REMARK    1  A    between atoms: C4_7  and  C5_8 
REMARK    2  A    between atoms: C5_8  and  N3_9 
REMARK    3  A    between atoms: N5_21  and  C15_22 
REMARK    4  A    between atoms: C15_22  and  C16_23 
REMARK    5  A    between atoms: C15_22  and  C17_26 
REMARK    6  A    between atoms: C16_23  and  O1_24 
REMARK    7  A    between atoms: C17_26  and  C18_27 
REMARK    8  A    between atoms: C18_27  and  N6_28 
REMARK    9  A    between atoms: N7_31  and  C21_32 
REMARK   10  A    between atoms: C21_32  and  C22_33 
REMARK   11  A    between atoms: C22_33  and  O2_34 
REMARK   12  A    between atoms: C22_33  and  C23_36 
ROOT
HETATM    1  C1  UNL     1      -9.787  21.618 -20.822  1.00  0.00     0.070 C 
HETATM    2  C2  UNL     1     -10.218  20.785 -19.684  1.00  0.00     0.037 A 
HETATM    3  N1  UNL     1     -11.166  21.028 -18.782  1.00  0.00    -0.300 N 
ATOM      4  H1  UNL     1     -11.733  21.876 -18.769  1.00  0.00     0.187 HD
HETATM    5  N2  UNL     1     -11.289  20.052 -17.908  1.00  0.00    -0.271 N 
HETATM    6  C3  UNL     1     -10.349  19.119 -18.289  1.00  0.00     0.131 A 
HETATM    7  C4  UNL     1      -9.653  19.526 -19.377  1.00  0.00     0.043 A 
HETATM    8  N4  UNL     1     -10.132  17.802 -17.796  1.00  0.00    -0.374 N 
ATOM      9  H4  UNL     1      -9.943  17.174 -18.578  1.00  0.00     0.161 HD
HETATM   10  C10 UNL     1     -10.089  17.066 -16.573  1.00  0.00     0.121 C 
HETATM   11  C11 UNL     1      -9.758  17.878 -15.373  1.00  0.00     0.020 C 
HETATM   12  C12 UNL     1     -10.381  19.257 -15.387  1.00  0.00     0.010 C 
HETATM   13  C13 UNL     1     -11.840  19.239 -15.670  1.00  0.00     0.039 C 
HETATM   14  C14 UNL     1     -12.634  19.697 -14.451  1.00  0.00     0.279 C 
HETATM   15  N5  UNL     1     -14.025  19.917 -14.818  1.00  0.00     0.096 N 
HETATM   16  C28 UNL     1     -14.409  19.206 -15.973  1.00  0.00     0.275 C 
HETATM   17  C29 UNL     1     -13.646  19.770 -17.187  1.00  0.00     0.058 C 
HETATM   18  C30 UNL     1     -12.231  20.161 -16.821  1.00  0.00     0.117 C 
ENDROOT
BRANCH  15  19
HETATM   19  C15 UNL     1     -14.832  19.614 -13.598  1.00  0.00     0.251 C 
BRANCH  19  20
HETATM   20  C16 UNL     1     -14.432  20.826 -12.695  1.00  0.00     0.200 C 
BRANCH  20  21
HETATM   21  O1  UNL     1     -14.671  20.568 -11.369  1.00  0.00    -0.399 OA
ATOM     22  H1  UNL     1     -13.869  20.366 -10.903  1.00  0.00     0.209 HD
ENDBRANCH  20  21
ENDBRANCH  19  20
BRANCH  19  23
HETATM   23  C17 UNL     1     -16.267  19.669 -13.857  1.00  0.00     0.082 C 
BRANCH  23  24
HETATM   24  C18 UNL     1     -16.988  20.961 -13.921  1.00  0.00     0.065 C 
BRANCH  24  25
HETATM   25  N6  UNL     1     -17.499  21.540 -15.060  1.00  0.00    -0.370 N 
HETATM   26  C19 UNL     1     -16.527  21.956 -16.053  1.00  0.00     0.157 C 
HETATM   27  C20 UNL     1     -16.417  23.469 -16.112  1.00  0.00     0.293 C 
HETATM   28  N7  UNL     1     -17.713  24.077 -16.321  1.00  0.00     0.097 N 
HETATM   29  C26 UNL     1     -18.556  23.774 -15.219  1.00  0.00     0.317 C 
HETATM   30  C27 UNL     1     -18.693  22.282 -15.065  1.00  0.00     0.093 C 
BRANCH  28  31
HETATM   31  C21 UNL     1     -18.211  23.785 -17.622  1.00  0.00     0.304 C 
BRANCH  31  32
HETATM   32  C22 UNL     1     -17.873  24.823 -18.634  1.00  0.00     0.149 C 
BRANCH  32  33
HETATM   33  O2  UNL     1     -18.941  24.900 -19.541  1.00  0.00    -0.393 OA
ATOM     34  H2  UNL     1     -18.756  25.608 -20.147  1.00  0.00     0.210 HD
ENDBRANCH  32  33
BRANCH  32  35
HETATM   35  C23 UNL     1     -16.618  24.532 -19.388  1.00  0.00     0.008 C 
HETATM   36  C24 UNL     1     -15.498  25.400 -18.859  1.00  0.00     0.012 C 
HETATM   37  C25 UNL     1     -16.743  24.774 -20.862  1.00  0.00     0.012 C 
ENDBRANCH  32  35
ENDBRANCH  31  32
ENDBRANCH  28  31
ENDBRANCH  24  25
ENDBRANCH  23  24
ENDBRANCH  19  23
ENDBRANCH  15  19
BRANCH   7  38
HETATM   38  C5  UNL     1      -8.603  18.882 -20.137  1.00  0.00     0.076 C 
BRANCH  38  39
HETATM   39  N3  UNL     1      -8.098  17.628 -19.734  1.00  0.00    -0.292 NA
HETATM   40  C6  UNL     1      -6.775  17.663 -19.215  1.00  0.00     0.095 C 
HETATM   41  C7  UNL     1      -6.268  16.248 -19.297  1.00  0.00     0.016 C 
HETATM   42  C8  UNL     1      -7.161  15.594 -20.309  1.00  0.00     0.016 C 
HETATM   43  C9  UNL     1      -8.129  16.663 -20.760  1.00  0.00     0.095 C 
ENDBRANCH  38  39
ENDBRANCH   7  38
TORSDOF 12
ENDMDL
MODEL 3
REMARK VINA RESULT: -9.643810747      0.835      1.319
REMARK  12 active torsions:
REMARK  status: ('A' for Active; 'I' for Inactive)
REMARK    1  A    between atoms: C4_7  and  C5_8 
REMARK    2  A    between atoms: C5_8  and  N3_9 
REMARK    3  A    between atoms: N5_21  and  C15_22 
REMARK    4  A    between atoms: C15_22  and  C16_23 
REMARK    5  A    between atoms: C15_22  and  C17_26 
REMARK    6  A    between atoms: C16_23  and  O1_24 
REMARK    7  A    between atoms: C17_26  and  C18_27 
REMARK    8  A    between atoms: C18_27  and  N6_28 
REMARK    9  A    between atoms: N7_31  and  C21_32 
REMARK   10  A    between atoms: C21_32  and  C22_33 
REMARK   11  A    between atoms: C22_33  and  O2_34 
REMARK   12  A    between atoms: C22_33  and  C23_36 
ROOT
HETATM    1  C1  UNL     1      -9.767  21.633 -20.914  1.00  0.00     0.070 C 
HETATM    2  C2  UNL     1     -10.248  20.850 -19.760  1.00  0.00     0.037 A 
HETATM    3  N1  UNL     1     -11.251  21.118 -18.927  1.00  0.00    -0.300 N 
ATOM      4  H1  UNL     1     -11.833  21.953 -18.991  1.00  0.00     0.187 HD
HETATM    5  N2  UNL     1     -11.406  20.184 -18.013  1.00  0.00    -0.271 N 
HETATM    6  C3  UNL     1     -10.429  19.254 -18.291  1.00  0.00     0.131 A 
HETATM    7  C4  UNL     1      -9.679  19.620 -19.358  1.00  0.00     0.043 A 
HETATM    8  N4  UNL     1     -10.216  17.969 -17.719  1.00  0.00    -0.374 N 
ATOM      9  H4  UNL     1      -9.971  17.306 -18.455  1.00  0.00     0.161 HD
HETATM   10  C10 UNL     1     -10.230  17.296 -16.459  1.00  0.00     0.121 C 
HETATM   11  C11 UNL     1      -9.985  18.174 -15.286  1.00  0.00     0.020 C 
HETATM   12  C12 UNL     1     -10.631  19.538 -15.407  1.00  0.00     0.010 C 
HETATM   13  C13 UNL     1     -12.071  19.474 -15.771  1.00  0.00     0.039 C 
HETATM   14  C14 UNL     1     -12.942  19.976 -14.624  1.00  0.00     0.279 C 
HETATM   15  N5  UNL     1     -14.313  20.147 -15.081  1.00  0.00     0.096 N 
HETATM   16  C28 UNL     1     -14.616  19.371 -16.217  1.00  0.00     0.275 C 
HETATM   17  C29 UNL     1     -13.796  19.889 -17.413  1.00  0.00     0.058 C 
HETATM   18  C30 UNL     1     -12.411  20.328 -16.988  1.00  0.00     0.117 C 
ENDROOT
BRANCH  15  19
HETATM   19  C15 UNL     1     -15.184  19.889 -13.894  1.00  0.00     0.251 C 
BRANCH  19  20
HETATM   20  C16 UNL     1     -14.357  20.612 -12.783  1.00  0.00     0.200 C 
BRANCH  20  21
HETATM   21  O1  UNL     1     -14.602  20.078 -11.543  1.00  0.00    -0.399 OA
ATOM     22  H1  UNL     1     -15.403  20.424 -11.166  1.00  0.00     0.209 HD
ENDBRANCH  20  21
ENDBRANCH  19  20
BRANCH  19  23
HETATM   23  C17 UNL     1     -16.486  20.537 -14.013  1.00  0.00     0.082 C 
BRANCH  23  24
HETATM   24  C18 UNL     1     -16.643  21.993 -13.791  1.00  0.00     0.065 C 
BRANCH  24  25
HETATM   25  N6  UNL     1     -16.752  22.948 -14.776  1.00  0.00    -0.370 N 
HETATM   26  C19 UNL     1     -18.085  23.470 -15.010  1.00  0.00     0.157 C 
HETATM   27  C20 UNL     1     -18.643  22.973 -16.332  1.00  0.00     0.293 C 
HETATM   28  N7  UNL     1     -17.737  23.265 -17.422  1.00  0.00     0.097 N 
HETATM   29  C26 UNL     1     -16.514  22.574 -17.212  1.00  0.00     0.317 C 
HETATM   30  C27 UNL     1     -15.905  22.985 -15.897  1.00  0.00     0.093 C 
BRANCH  28  31
HETATM   31  C21 UNL     1     -17.663  24.666 -17.663  1.00  0.00     0.304 C 
BRANCH  31  32
HETATM   32  C22 UNL     1     -18.895  25.230 -18.276  1.00  0.00     0.149 C 
BRANCH  32  33
HETATM   33  O2  UNL     1     -18.850  24.964 -19.652  1.00  0.00    -0.393 OA
ATOM     34  H2  UNL     1     -19.642  25.314 -20.042  1.00  0.00     0.210 HD
ENDBRANCH  32  33
BRANCH  32  35
HETATM   35  C23 UNL     1     -19.042  26.701 -18.071  1.00  0.00     0.008 C 
HETATM   36  C24 UNL     1     -18.262  27.122 -16.846  1.00  0.00     0.012 C 
HETATM   37  C25 UNL     1     -20.466  27.136 -17.893  1.00  0.00     0.012 C 
ENDBRANCH  32  35
ENDBRANCH  31  32
ENDBRANCH  28  31
ENDBRANCH  24  25
ENDBRANCH  23  24
ENDBRANCH  19  23
ENDBRANCH  15  19
BRANCH   7  38
HETATM   38  C5  UNL     1      -8.575  18.961 -20.022  1.00  0.00     0.076 C 
BRANCH  38  39
HETATM   39  N3  UNL     1      -8.205  17.649 -19.659  1.00  0.00    -0.292 NA
HETATM   40  C6  UNL     1      -6.903  17.535 -19.101  1.00  0.00     0.095 C 
HETATM   41  C7  UNL     1      -6.530  16.081 -19.229  1.00  0.00     0.016 C 
HETATM   42  C8  UNL     1      -7.447  15.559 -20.295  1.00  0.00     0.016 C 
HETATM   43  C9  UNL     1      -8.293  16.734 -20.727  1.00  0.00     0.095 C 
ENDBRANCH  38  39
ENDBRANCH   7  38
TORSDOF 12
ENDMDL
MODEL 4
REMARK VINA RESULT: -9.203816667      2.981     10.187
REMARK  12 active torsions:
REMARK  status: ('A' for Active; 'I' for Inactive)
REMARK    1  A    between atoms: C4_7  and  C5_8 
REMARK    2  A    between atoms: C5_8  and  N3_9 
REMARK    3  A    between atoms: N5_21  and  C15_22 
REMARK    4  A    between atoms: C15_22  and  C16_23 
REMARK    5  A    between atoms: C15_22  and  C17_26 
REMARK    6  A    between atoms: C16_23  and  O1_24 
REMARK    7  A    between atoms: C17_26  and  C18_27 
REMARK    8  A    between atoms: C18_27  and  N6_28 
REMARK    9  A    between atoms: N7_31  and  C21_32 
REMARK   10  A    between atoms: C21_32  and  C22_33 
REMARK   11  A    between atoms: C22_33  and  O2_34 
REMARK   12  A    between atoms: C22_33  and  C23_36 
ROOT
HETATM    1  C1  UNL     1     -13.974  19.645 -12.402  1.00  0.00     0.070 C 
HETATM    2  C2  UNL     1     -13.937  19.922 -13.850  1.00  0.00     0.037 A 
HETATM    3  N1  UNL     1     -12.931  19.762 -14.707  1.00  0.00    -0.300 N 
ATOM      4  H1  UNL     1     -12.009  19.414 -14.441  1.00  0.00     0.187 HD
HETATM    5  N2  UNL     1     -13.259  20.102 -15.935  1.00  0.00    -0.271 N 
HETATM    6  C3  UNL     1     -14.573  20.506 -15.849  1.00  0.00     0.131 A 
HETATM    7  C4  UNL     1     -15.040  20.422 -14.580  1.00  0.00     0.043 A 
HETATM    8  N4  UNL     1     -15.485  20.843 -16.888  1.00  0.00    -0.374 N 
ATOM      9  H4  UNL     1     -16.400  20.444 -16.678  1.00  0.00     0.161 HD
HETATM   10  C10 UNL     1     -15.547  21.553 -18.125  1.00  0.00     0.121 C 
HETATM   11  C11 UNL     1     -14.537  22.634 -18.270  1.00  0.00     0.020 C 
HETATM   12  C12 UNL     1     -13.187  22.281 -17.684  1.00  0.00     0.010 C 
HETATM   13  C13 UNL     1     -12.673  20.965 -18.146  1.00  0.00     0.039 C 
HETATM   14  C14 UNL     1     -11.429  21.143 -19.011  1.00  0.00     0.279 C 
HETATM   15  N5  UNL     1     -10.797  19.852 -19.241  1.00  0.00     0.096 N 
HETATM   16  C28 UNL     1     -11.683  18.769 -19.086  1.00  0.00     0.275 C 
HETATM   17  C29 UNL     1     -12.112  18.675 -17.610  1.00  0.00     0.058 C 
HETATM   18  C30 UNL     1     -12.280  20.047 -16.992  1.00  0.00     0.117 C 
ENDROOT
BRANCH  15  19
HETATM   19  C15 UNL     1     -10.141  19.941 -20.580  1.00  0.00     0.251 C 
BRANCH  19  20
HETATM   20  C16 UNL     1     -10.269  21.476 -20.849  1.00  0.00     0.200 C 
BRANCH  20  21
HETATM   21  O1  UNL     1      -9.417  21.887 -21.842  1.00  0.00    -0.399 OA
ATOM     22  H1  UNL     1      -9.838  22.503 -22.430  1.00  0.00     0.209 HD
ENDBRANCH  20  21
ENDBRANCH  19  20
BRANCH  19  23
HETATM   23  C17 UNL     1      -8.727  19.585 -20.528  1.00  0.00     0.082 C 
BRANCH  23  24
HETATM   24  C18 UNL     1      -8.291  18.226 -20.135  1.00  0.00     0.065 C 
BRANCH  24  25
HETATM   25  N6  UNL     1      -7.889  17.844 -18.876  1.00  0.00    -0.370 N 
HETATM   26  C19 UNL     1      -6.534  17.338 -18.767  1.00  0.00     0.157 C 
HETATM   27  C20 UNL     1      -6.526  15.840 -18.520  1.00  0.00     0.293 C 
HETATM   28  N7  UNL     1      -7.336  15.499 -17.370  1.00  0.00     0.097 N 
HETATM   29  C26 UNL     1      -8.685  15.862 -17.623  1.00  0.00     0.317 C 
HETATM   30  C27 UNL     1      -8.780  17.337 -17.915  1.00  0.00     0.093 C 
BRANCH  28  31
HETATM   31  C21 UNL     1      -6.745  15.980 -16.168  1.00  0.00     0.304 C 
BRANCH  31  32
HETATM   32  C22 UNL     1      -7.098  15.175 -14.968  1.00  0.00     0.149 C 
BRANCH  32  33
HETATM   33  O2  UNL     1      -7.677  13.976 -15.412  1.00  0.00    -0.393 OA
ATOM     34  H2  UNL     1      -7.640  13.353 -14.695  1.00  0.00     0.210 HD
ENDBRANCH  32  33
BRANCH  32  35
HETATM   35  C23 UNL     1      -8.053  15.863 -14.050  1.00  0.00     0.008 C 
HETATM   36  C24 UNL     1      -9.408  15.196 -14.138  1.00  0.00     0.012 C 
HETATM   37  C25 UNL     1      -8.226  17.320 -14.358  1.00  0.00     0.012 C 
ENDBRANCH  32  35
ENDBRANCH  31  32
ENDBRANCH  28  31
ENDBRANCH  24  25
ENDBRANCH  23  24
ENDBRANCH  19  23
ENDBRANCH  15  19
BRANCH   7  38
HETATM   38  C5  UNL     1     -16.343  20.708 -14.020  1.00  0.00     0.076 C 
BRANCH  38  39
HETATM   39  N3  UNL     1     -16.842  22.028 -14.014  1.00  0.00    -0.292 NA
HETATM   40  C6  UNL     1     -16.356  22.839 -12.953  1.00  0.00     0.095 C 
HETATM   41  C7  UNL     1     -17.325  23.987 -12.841  1.00  0.00     0.016 C 
HETATM   42  C8  UNL     1     -18.565  23.490 -13.523  1.00  0.00     0.016 C 
HETATM   43  C9  UNL     1     -18.249  22.086 -13.985  1.00  0.00     0.095 C 
ENDBRANCH  38  39
ENDBRANCH   7  38
TORSDOF 12
ENDMDL
MODEL 5
REMARK VINA RESULT: -9.009051688      1.189      2.344
REMARK  12 active torsions:
REMARK  status: ('A' for Active; 'I' for Inactive)
REMARK    1  A    between atoms: C4_7  and  C5_8 
REMARK    2  A    between atoms: C5_8  and  N3_9 
REMARK    3  A    between atoms: N5_21  and  C15_22 
REMARK    4  A    between atoms: C15_22  and  C16_23 
REMARK    5  A    between atoms: C15_22  and  C17_26 
REMARK    6  A    between atoms: C16_23  and  O1_24 
REMARK    7  A    between atoms: C17_26  and  C18_27 
REMARK    8  A    between atoms: C18_27  and  N6_28 
REMARK    9  A    between atoms: N7_31  and  C21_32 
REMARK   10  A    between atoms: C21_32  and  C22_33 
REMARK   11  A    between atoms: C22_33  and  O2_34 
REMARK   12  A    between atoms: C22_33  and  C23_36 
ROOT
HETATM    1  C1  UNL     1      -8.718  16.230 -17.536  1.00  0.00     0.070 C 
HETATM    2  C2  UNL     1      -9.762  17.250 -17.321  1.00  0.00     0.037 A 
HETATM    3  N1  UNL     1     -10.724  17.281 -16.402  1.00  0.00    -0.300 N 
ATOM      4  H1  UNL     1     -10.863  16.553 -15.701  1.00  0.00     0.187 HD
HETATM    5  N2  UNL     1     -11.476  18.357 -16.500  1.00  0.00    -0.271 N 
HETATM    6  C3  UNL     1     -10.947  19.060 -17.559  1.00  0.00     0.131 A 
HETATM    7  C4  UNL     1      -9.890  18.417 -18.109  1.00  0.00     0.043 A 
HETATM    8  N4  UNL     1     -11.266  20.366 -18.026  1.00  0.00    -0.374 N 
ATOM      9  H4  UNL     1     -10.406  20.858 -18.271  1.00  0.00     0.161 HD
HETATM   10  C10 UNL     1     -12.386  21.218 -18.267  1.00  0.00     0.121 C 
HETATM   11  C11 UNL     1     -13.663  20.502 -18.528  1.00  0.00     0.020 C 
HETATM   12  C12 UNL     1     -13.843  19.261 -17.680  1.00  0.00     0.010 C 
HETATM   13  C13 UNL     1     -13.618  19.503 -16.231  1.00  0.00     0.039 C 
HETATM   14  C14 UNL     1     -14.915  19.333 -15.446  1.00  0.00     0.279 C 
HETATM   15  N5  UNL     1     -14.632  19.320 -14.018  1.00  0.00     0.096 N 
HETATM   16  C28 UNL     1     -13.416  19.951 -13.691  1.00  0.00     0.275 C 
HETATM   17  C29 UNL     1     -12.250  19.129 -14.272  1.00  0.00     0.058 C 
HETATM   18  C30 UNL     1     -12.605  18.539 -15.621  1.00  0.00     0.117 C 
ENDROOT
BRANCH  15  19
HETATM   19  C15 UNL     1     -15.838  19.897 -13.349  1.00  0.00     0.251 C 
BRANCH  19  20
HETATM   20  C16 UNL     1     -15.161  20.974 -12.441  1.00  0.00     0.200 C 
BRANCH  20  21
HETATM   21  O1  UNL     1     -15.040  20.538 -11.146  1.00  0.00    -0.399 OA
ATOM     22  H1  UNL     1     -14.189  20.145 -10.987  1.00  0.00     0.209 HD
ENDBRANCH  20  21
ENDBRANCH  19  20
BRANCH  19  23
HETATM   23  C17 UNL     1     -16.728  20.564 -14.293  1.00  0.00     0.082 C 
BRANCH  23  24
HETATM   24  C18 UNL     1     -17.184  21.954 -14.068  1.00  0.00     0.065 C 
BRANCH  24  25
HETATM   25  N6  UNL     1     -17.198  22.958 -15.009  1.00  0.00    -0.370 N 
HETATM   26  C19 UNL     1     -18.487  23.570 -15.267  1.00  0.00     0.157 C 
HETATM   27  C20 UNL     1     -19.022  23.168 -16.630  1.00  0.00     0.293 C 
HETATM   28  N7  UNL     1     -18.058  23.453 -17.671  1.00  0.00     0.097 N 
HETATM   29  C26 UNL     1     -16.888  22.680 -17.450  1.00  0.00     0.317 C 
HETATM   30  C27 UNL     1     -16.307  22.993 -16.095  1.00  0.00     0.093 C 
BRANCH  28  31
HETATM   31  C21 UNL     1     -17.891  24.856 -17.843  1.00  0.00     0.304 C 
BRANCH  31  32
HETATM   32  C22 UNL     1     -17.809  25.275 -19.268  1.00  0.00     0.149 C 
BRANCH  32  33
HETATM   33  O2  UNL     1     -18.413  24.275 -20.044  1.00  0.00    -0.393 OA
ATOM     34  H2  UNL     1     -19.193  24.647 -20.441  1.00  0.00     0.210 HD
ENDBRANCH  32  33
BRANCH  32  35
HETATM   35  C23 UNL     1     -16.410  25.481 -19.748  1.00  0.00     0.008 C 
HETATM   36  C24 UNL     1     -15.992  24.306 -20.604  1.00  0.00     0.012 C 
HETATM   37  C25 UNL     1     -15.418  25.627 -18.634  1.00  0.00     0.012 C 
ENDBRANCH  32  35
ENDBRANCH  31  32
ENDBRANCH  28  31
ENDBRANCH  24  25
ENDBRANCH  23  24
ENDBRANCH  19  23
ENDBRANCH  15  19
BRANCH   7  38
HETATM   38  C5  UNL     1      -9.016  18.776 -19.205  1.00  0.00     0.076 C 
BRANCH  38  39
HETATM   39  N3  UNL     1      -8.011  17.885 -19.637  1.00  0.00    -0.292 NA
HETATM   40  C6  UNL     1      -6.718  18.466 -19.753  1.00  0.00     0.095 C 
HETATM   41  C7  UNL     1      -5.934  17.539 -20.644  1.00  0.00     0.016 C 
HETATM   42  C8  UNL     1      -6.983  16.750 -21.370  1.00  0.00     0.016 C 
HETATM   43  C9  UNL     1      -8.311  17.265 -20.865  1.00  0.00     0.095 C 
ENDBRANCH  38  39
ENDBRANCH   7  38
TORSDOF 12
ENDMDL
