MODEL 1
REMARK VINA RESULT: -9.185251295      0.000      0.000
REMARK  14 active torsions:
REMARK  status: ('A' for Active; 'I' for Inactive)
REMARK    1  A    between atoms: C5_5  and  C6_6 
REMARK    2  A    between atoms: C6_6  and  N1_7 
REMARK    3  A    between atoms: C7_9  and  O1_10 
REMARK    4  A    between atoms: C7_9  and  C8_12 
REMARK    5  A    between atoms: C8_12  and  C9_13 
REMARK    6  A    between atoms: C9_13  and  C10_14 
REMARK    7  A    between atoms: C12_19  and  C14_21 
REMARK    8  A    between atoms: C14_21  and  C15_22 
REMARK    9  A    between atoms: C15_22  and  C16_23 
REMARK   10  A    between atoms: C16_23  and  C17_24 
REMARK   11  A    between atoms: C17_24  and  N3_25 
REMARK   12  A    between atoms: C23_39  and  C24_40 
REMARK   13  A    between atoms: C24_40  and  C25_41 
REMARK   14  A    between atoms: C29_48  and  C30_49 
ROOT
HETATM    1  C10 UNL     1      13.831  20.657  15.905  1.00  0.00     0.177 C 
HETATM    2  N2  UNL     1      14.484  21.629  16.757  1.00  0.00    -0.346 N 
ATOM      3  H2  UNL     1      14.811  22.471  16.284  1.00  0.00     0.163 HD
HETATM    4  C11 UNL     1      14.732  21.582  18.128  1.00  0.00     0.246 C 
HETATM    5  O2  UNL     1      14.222  22.509  18.827  1.00  0.00    -0.271 OA
HETATM    6  C12 UNL     1      15.550  20.539  18.864  1.00  0.00     0.110 C 
HETATM    7  C13 UNL     1      15.380  20.813  20.338  1.00  0.00     0.049 C 
HETATM    8  N4  UNL     1      15.207  19.193  18.486  1.00  0.00    -0.342 N 
ATOM      9  H4  UNL     1      15.742  18.831  17.697  1.00  0.00     0.163 HD
HETATM   10  C18 UNL     1      14.271  18.293  19.008  1.00  0.00     0.241 C 
HETATM   11  O3  UNL     1      14.727  17.181  19.499  1.00  0.00    -0.271 OA
HETATM   12  C19 UNL     1      12.800  18.417  19.083  1.00  0.00     0.174 C 
HETATM   13  C20 UNL     1      12.309  19.251  20.256  1.00  0.00     0.042 C 
HETATM   14  N5  UNL     1      12.174  17.107  19.339  1.00  0.00    -0.342 N 
HETATM   15  C21 UNL     1      12.495  16.471  20.603  1.00  0.00     0.153 C 
HETATM   16  C22 UNL     1      11.311  16.441  18.476  1.00  0.00     0.243 C 
HETATM   17  O4  UNL     1      10.485  15.589  18.963  1.00  0.00    -0.271 OA
HETATM   18  C23 UNL     1      11.219  16.597  17.000  1.00  0.00     0.177 C 
HETATM   19  N6  UNL     1      10.088  17.468  16.726  1.00  0.00    -0.346 N 
ATOM     20  H6  UNL     1       9.332  17.529  17.408  1.00  0.00     0.163 HD
HETATM   21  C28 UNL     1      10.006  18.246  15.522  1.00  0.00     0.241 C 
HETATM   22  O5  UNL     1       8.895  18.238  14.937  1.00  0.00    -0.271 OA
HETATM   23  C29 UNL     1      11.129  19.013  14.981  1.00  0.00     0.180 C 
HETATM   24  N7  UNL     1      11.279  20.274  15.703  1.00  0.00    -0.346 N 
ATOM     25  H7  UNL     1      10.496  20.583  16.280  1.00  0.00     0.163 HD
HETATM   26  C33 UNL     1      12.403  21.084  15.662  1.00  0.00     0.241 C 
HETATM   27  O6  UNL     1      12.281  22.330  15.398  1.00  0.00    -0.271 OA
ENDROOT
BRANCH   1  28
HETATM   28  C9  UNL     1      14.458  20.694  14.528  1.00  0.00     0.043 C 
BRANCH  28  29
HETATM   29  C8  UNL     1      15.758  21.439  14.454  1.00  0.00     0.086 C 
BRANCH  29  30
HETATM   30  C7  UNL     1      15.604  22.463  13.392  1.00  0.00     0.111 C 
HETATM   31  N1  UNL     1      15.813  23.703  13.655  1.00  0.00    -0.370 N 
ATOM     32  H1  UNL     1      15.693  24.365  12.889  1.00  0.00     0.161 HD
BRANCH  31  33
HETATM   33  C6  UNL     1      16.199  24.245  14.929  1.00  0.00     0.160 C 
BRANCH  33  34
HETATM   34  C5  UNL     1      17.574  24.861  14.851  1.00  0.00    -0.040 A 
HETATM   35  C4  UNL     1      18.165  25.094  13.615  1.00  0.00     0.009 A 
HETATM   36  C3  UNL     1      19.399  25.647  13.468  1.00  0.00     0.008 A 
HETATM   37  C2  UNL     1      20.115  25.999  14.601  1.00  0.00    -0.056 A 
HETATM   38  C1  UNL     1      21.466  26.605  14.469  1.00  0.00     0.049 C 
HETATM   39  C35 UNL     1      19.558  25.782  15.842  1.00  0.00    -0.056 A 
HETATM   40  C34 UNL     1      18.293  25.215  15.966  1.00  0.00     0.016 A 
HETATM   41  C36 UNL     1      20.348  26.170  17.061  1.00  0.00     0.049 C 
ENDBRANCH  33  34
ENDBRANCH  31  33
BRANCH  30  42
HETATM   42  O1  UNL     1      15.231  22.120  12.087  1.00  0.00    -0.350 OA
ATOM     43  H1  UNL     1      14.553  21.464  11.974  1.00  0.00     0.219 HD
ENDBRANCH  30  42
ENDBRANCH  29  30
ENDBRANCH  28  29
ENDBRANCH   1  28
BRANCH   6  44
HETATM   44  C14 UNL     1      17.007  20.821  18.538  1.00  0.00     0.041 C 
BRANCH  44  45
HETATM   45  C15 UNL     1      17.815  21.597  19.464  1.00  0.00     0.004 C 
BRANCH  45  46
HETATM   46  C16 UNL     1      18.274  22.963  19.128  1.00  0.00     0.027 C 
BRANCH  46  47
HETATM   47  C17 UNL     1      17.497  24.013  19.972  1.00  0.00     0.229 C 
BRANCH  47  48
HETATM   48  N3  UNL     1      16.494  24.626  19.123  1.00  0.00    -0.079 N 
ATOM     49  H33 UNL     1      15.796  23.959  18.794  1.00  0.00     0.274 HD
ATOM     50  H32 UNL     1      15.864  25.241  19.640  1.00  0.00     0.274 HD
ATOM     51  H31 UNL     1      16.971  25.106  18.359  1.00  0.00     0.274 HD
ENDBRANCH  47  48
ENDBRANCH  46  47
ENDBRANCH  45  46
ENDBRANCH  44  45
ENDBRANCH   6  44
BRANCH  23  52
HETATM   52  C30 UNL     1      10.901  19.272  13.514  1.00  0.00     0.009 C 
HETATM   53  C31 UNL     1      12.154  19.100  12.722  1.00  0.00     0.012 C 
HETATM   54  C32 UNL     1      10.321  20.669  13.360  1.00  0.00     0.012 C 
ENDBRANCH  23  52
BRANCH  18  55
HETATM   55  C24 UNL     1      10.867  15.265  16.347  1.00  0.00     0.038 C 
BRANCH  55  56
HETATM   56  C25 UNL     1      10.475  15.390  14.912  1.00  0.00    -0.020 C 
HETATM   57  C26 UNL     1       9.531  14.293  14.475  1.00  0.00     0.009 C 
HETATM   58  C27 UNL     1      11.743  15.263  14.083  1.00  0.00     0.009 C 
ENDBRANCH  55  56
ENDBRANCH  18  55
TORSDOF 14
ENDMDL
MODEL 2
REMARK VINA RESULT: -8.794823335      1.101      1.501
REMARK  14 active torsions:
REMARK  status: ('A' for Active; 'I' for Inactive)
REMARK    1  A    between atoms: C5_5  and  C6_6 
REMARK    2  A    between atoms: C6_6  and  N1_7 
REMARK    3  A    between atoms: C7_9  and  O1_10 
REMARK    4  A    between atoms: C7_9  and  C8_12 
REMARK    5  A    between atoms: C8_12  and  C9_13 
REMARK    6  A    between atoms: C9_13  and  C10_14 
REMARK    7  A    between atoms: C12_19  and  C14_21 
REMARK    8  A    between atoms: C14_21  and  C15_22 
REMARK    9  A    between atoms: C15_22  and  C16_23 
REMARK   10  A    between atoms: C16_23  and  C17_24 
REMARK   11  A    between atoms: C17_24  and  N3_25 
REMARK   12  A    between atoms: C23_39  and  C24_40 
REMARK   13  A    between atoms: C24_40  and  C25_41 
REMARK   14  A    between atoms: C29_48  and  C30_49 
ROOT
HETATM    1  C10 UNL     1      14.425  21.298  16.402  1.00  0.00     0.177 C 
HETATM    2  N2  UNL     1      15.149  22.044  17.409  1.00  0.00    -0.346 N 
ATOM      3  H2  UNL     1      15.591  22.903  17.081  1.00  0.00     0.163 HD
HETATM    4  C11 UNL     1      15.332  21.761  18.763  1.00  0.00     0.246 C 
HETATM    5  O2  UNL     1      14.902  22.626  19.584  1.00  0.00    -0.271 OA
HETATM    6  C12 UNL     1      15.992  20.528  19.347  1.00  0.00     0.110 C 
HETATM    7  C13 UNL     1      15.792  20.594  20.842  1.00  0.00     0.049 C 
HETATM    8  N4  UNL     1      15.512  19.306  18.757  1.00  0.00    -0.342 N 
ATOM      9  H4  UNL     1      16.035  19.005  17.934  1.00  0.00     0.163 HD
HETATM   10  C18 UNL     1      14.457  18.457  19.109  1.00  0.00     0.241 C 
HETATM   11  O3  UNL     1      14.760  17.237  19.433  1.00  0.00    -0.271 OA
HETATM   12  C19 UNL     1      13.009  18.744  19.167  1.00  0.00     0.174 C 
HETATM   13  C20 UNL     1      12.568  19.445  20.443  1.00  0.00     0.042 C 
HETATM   14  N5  UNL     1      12.226  17.495  19.201  1.00  0.00    -0.342 N 
HETATM   15  C21 UNL     1      12.417  16.642  20.359  1.00  0.00     0.153 C 
HETATM   16  C22 UNL     1      11.329  17.077  18.225  1.00  0.00     0.243 C 
HETATM   17  O4  UNL     1      10.390  16.266  18.554  1.00  0.00    -0.271 OA
HETATM   18  C23 UNL     1      11.319  17.464  16.789  1.00  0.00     0.177 C 
HETATM   19  N6  UNL     1      10.308  18.497  16.626  1.00  0.00    -0.346 N 
ATOM     20  H6  UNL     1       9.536  18.544  17.291  1.00  0.00     0.163 HD
HETATM   21  C28 UNL     1      10.367  19.451  15.556  1.00  0.00     0.241 C 
HETATM   22  O5  UNL     1       9.289  19.666  14.950  1.00  0.00    -0.271 OA
HETATM   23  C29 UNL     1      11.593  20.150  15.168  1.00  0.00     0.180 C 
HETATM   24  N7  UNL     1      11.857  21.261  16.080  1.00  0.00    -0.346 N 
ATOM     25  H7  UNL     1      11.091  21.570  16.680  1.00  0.00     0.163 HD
HETATM   26  C33 UNL     1      13.068  21.926  16.194  1.00  0.00     0.241 C 
HETATM   27  O6  UNL     1      13.102  23.204  16.122  1.00  0.00    -0.271 OA
ENDROOT
BRANCH   1  28
HETATM   28  C9  UNL     1      15.110  21.468  15.062  1.00  0.00     0.043 C 
BRANCH  28  29
HETATM   29  C8  UNL     1      16.424  22.189  15.121  1.00  0.00     0.086 C 
BRANCH  29  30
HETATM   30  C7  UNL     1      16.269  23.425  14.315  1.00  0.00     0.111 C 
HETATM   31  N1  UNL     1      16.532  24.571  14.832  1.00  0.00    -0.370 N 
ATOM     32  H1  UNL     1      16.408  25.388  14.234  1.00  0.00     0.161 HD
BRANCH  31  33
HETATM   33  C6  UNL     1      16.983  24.809  16.176  1.00  0.00     0.160 C 
BRANCH  33  34
HETATM   34  C5  UNL     1      18.330  25.489  16.172  1.00  0.00    -0.040 A 
HETATM   35  C4  UNL     1      19.038  25.643  17.358  1.00  0.00     0.009 A 
HETATM   36  C3  UNL     1      20.256  26.243  17.430  1.00  0.00     0.008 A 
HETATM   37  C2  UNL     1      20.833  26.730  16.268  1.00  0.00    -0.056 A 
HETATM   38  C1  UNL     1      22.164  27.391  16.318  1.00  0.00     0.049 C 
HETATM   39  C35 UNL     1      20.158  26.593  15.075  1.00  0.00    -0.056 A 
HETATM   40  C34 UNL     1      18.912  25.975  15.027  1.00  0.00     0.016 A 
HETATM   41  C36 UNL     1      20.798  27.128  13.824  1.00  0.00     0.049 C 
ENDBRANCH  33  34
ENDBRANCH  31  33
BRANCH  30  42
HETATM   42  O1  UNL     1      15.837  23.386  12.984  1.00  0.00    -0.350 OA
ATOM     43  H1  UNL     1      16.476  23.181  12.312  1.00  0.00     0.219 HD
ENDBRANCH  30  42
ENDBRANCH  29  30
ENDBRANCH  28  29
ENDBRANCH   1  28
BRANCH   6  44
HETATM   44  C14 UNL     1      17.484  20.678  19.104  1.00  0.00     0.041 C 
BRANCH  44  45
HETATM   45  C15 UNL     1      18.267  21.560  19.954  1.00  0.00     0.004 C 
BRANCH  45  46
HETATM   46  C16 UNL     1      18.768  22.862  19.462  1.00  0.00     0.027 C 
BRANCH  46  47
HETATM   47  C17 UNL     1      18.571  23.957  20.548  1.00  0.00     0.229 C 
BRANCH  47  48
HETATM   48  N3  UNL     1      17.206  24.443  20.461  1.00  0.00    -0.079 N 
ATOM     49  H33 UNL     1      17.130  25.302  19.917  1.00  0.00     0.274 HD
ATOM     50  H32 UNL     1      16.616  23.854  19.875  1.00  0.00     0.274 HD
ATOM     51  H31 UNL     1      16.842  24.545  21.409  1.00  0.00     0.274 HD
ENDBRANCH  47  48
ENDBRANCH  46  47
ENDBRANCH  45  46
ENDBRANCH  44  45
ENDBRANCH   6  44
BRANCH  23  52
HETATM   52  C30 UNL     1      11.460  20.654  13.754  1.00  0.00     0.009 C 
HETATM   53  C31 UNL     1      12.641  20.283  12.922  1.00  0.00     0.012 C 
HETATM   54  C32 UNL     1      11.250  22.159  13.801  1.00  0.00     0.012 C 
ENDBRANCH  23  52
BRANCH  18  55
HETATM   55  C24 UNL     1      10.843  16.299  15.929  1.00  0.00     0.038 C 
BRANCH  55  56
HETATM   56  C25 UNL     1      11.004  16.534  14.464  1.00  0.00    -0.020 C 
HETATM   57  C26 UNL     1       9.696  16.421  13.715  1.00  0.00     0.009 C 
HETATM   58  C27 UNL     1      11.935  15.457  13.931  1.00  0.00     0.009 C 
ENDBRANCH  55  56
ENDBRANCH  18  55
TORSDOF 14
ENDMDL
MODEL 3
REMARK VINA RESULT: -8.322182952      8.036     14.968
REMARK  14 active torsions:
REMARK  status: ('A' for Active; 'I' for Inactive)
REMARK    1  A    between atoms: C5_5  and  C6_6 
REMARK    2  A    between atoms: C6_6  and  N1_7 
REMARK    3  A    between atoms: C7_9  and  O1_10 
REMARK    4  A    between atoms: C7_9  and  C8_12 
REMARK    5  A    between atoms: C8_12  and  C9_13 
REMARK    6  A    between atoms: C9_13  and  C10_14 
REMARK    7  A    between atoms: C12_19  and  C14_21 
REMARK    8  A    between atoms: C14_21  and  C15_22 
REMARK    9  A    between atoms: C15_22  and  C16_23 
REMARK   10  A    between atoms: C16_23  and  C17_24 
REMARK   11  A    between atoms: C17_24  and  N3_25 
REMARK   12  A    between atoms: C23_39  and  C24_40 
REMARK   13  A    between atoms: C24_40  and  C25_41 
REMARK   14  A    between atoms: C29_48  and  C30_49 
ROOT
HETATM    1  C10 UNL     1      24.882  26.772  17.772  1.00  0.00     0.177 C 
HETATM    2  N2  UNL     1      24.391  25.423  17.962  1.00  0.00    -0.346 N 
ATOM      3  H2  UNL     1      23.721  25.102  17.264  1.00  0.00     0.163 HD
HETATM    4  C11 UNL     1      24.701  24.499  18.960  1.00  0.00     0.246 C 
HETATM    5  O2  UNL     1      25.203  23.400  18.577  1.00  0.00    -0.271 OA
HETATM    6  C12 UNL     1      24.493  24.675  20.451  1.00  0.00     0.110 C 
HETATM    7  C13 UNL     1      25.140  23.490  21.124  1.00  0.00     0.049 C 
HETATM    8  N4  UNL     1      24.975  25.943  20.935  1.00  0.00    -0.342 N 
ATOM      9  H4  UNL     1      24.282  26.692  20.908  1.00  0.00     0.163 HD
HETATM   10  C18 UNL     1      26.222  26.333  21.435  1.00  0.00     0.241 C 
HETATM   11  O3  UNL     1      26.263  26.761  22.660  1.00  0.00    -0.271 OA
HETATM   12  C19 UNL     1      27.538  26.334  20.761  1.00  0.00     0.174 C 
HETATM   13  C20 UNL     1      28.225  24.978  20.743  1.00  0.00     0.042 C 
HETATM   14  N5  UNL     1      28.504  27.172  21.495  1.00  0.00    -0.342 N 
HETATM   15  C21 UNL     1      28.846  26.741  22.838  1.00  0.00     0.153 C 
HETATM   16  C22 UNL     1      29.106  28.327  21.009  1.00  0.00     0.243 C 
HETATM   17  O4  UNL     1      30.231  28.694  21.505  1.00  0.00    -0.271 OA
HETATM   18  C23 UNL     1      28.591  29.227  19.943  1.00  0.00     0.177 C 
HETATM   19  N6  UNL     1      29.294  28.892  18.715  1.00  0.00    -0.346 N 
ATOM     20  H6  UNL     1      30.215  28.456  18.774  1.00  0.00     0.163 HD
HETATM   21  C28 UNL     1      28.728  29.155  17.423  1.00  0.00     0.241 C 
HETATM   22  O5  UNL     1      29.502  29.667  16.577  1.00  0.00    -0.271 OA
HETATM   23  C29 UNL     1      27.337  28.857  17.078  1.00  0.00     0.180 C 
HETATM   24  N7  UNL     1      27.179  27.436  16.780  1.00  0.00    -0.346 N 
ATOM     25  H7  UNL     1      28.025  26.895  16.602  1.00  0.00     0.163 HD
HETATM   26  C33 UNL     1      25.967  26.766  16.722  1.00  0.00     0.241 C 
HETATM   27  O6  UNL     1      25.681  26.054  15.697  1.00  0.00    -0.271 OA
ENDROOT
BRANCH   1  28
HETATM   28  C9  UNL     1      23.790  27.622  17.158  1.00  0.00     0.043 C 
BRANCH  28  29
HETATM   29  C8  UNL     1      22.446  26.959  17.093  1.00  0.00     0.086 C 
BRANCH  29  30
HETATM   30  C7  UNL     1      22.088  26.861  15.656  1.00  0.00     0.111 C 
HETATM   31  N1  UNL     1      20.895  26.536  15.308  1.00  0.00    -0.370 N 
ATOM     32  H1  UNL     1      20.703  26.484  14.308  1.00  0.00     0.161 HD
BRANCH  31  33
HETATM   33  C6  UNL     1      19.805  26.240  16.197  1.00  0.00     0.160 C 
BRANCH  33  34
HETATM   34  C5  UNL     1      18.739  25.444  15.486  1.00  0.00    -0.040 A 
HETATM   35  C4  UNL     1      18.037  24.456  16.164  1.00  0.00     0.009 A 
HETATM   36  C3  UNL     1      17.063  23.701  15.589  1.00  0.00     0.008 A 
HETATM   37  C2  UNL     1      16.745  23.918  14.257  1.00  0.00    -0.056 A 
HETATM   38  C1  UNL     1      15.685  23.106  13.603  1.00  0.00     0.049 C 
HETATM   39  C35 UNL     1      17.422  24.891  13.556  1.00  0.00    -0.056 A 
HETATM   40  C34 UNL     1      18.415  25.651  14.168  1.00  0.00     0.016 A 
HETATM   41  C36 UNL     1      17.066  25.114  12.112  1.00  0.00     0.049 C 
ENDBRANCH  33  34
ENDBRANCH  31  33
BRANCH  30  42
HETATM   42  O1  UNL     1      23.024  27.114  14.646  1.00  0.00    -0.350 OA
ATOM     43  H1  UNL     1      22.967  26.606  13.845  1.00  0.00     0.219 HD
ENDBRANCH  30  42
ENDBRANCH  29  30
ENDBRANCH  28  29
ENDBRANCH   1  28
BRANCH   6  44
HETATM   44  C14 UNL     1      23.000  24.552  20.700  1.00  0.00     0.041 C 
BRANCH  44  45
HETATM   45  C15 UNL     1      22.311  25.576  21.468  1.00  0.00     0.004 C 
BRANCH  45  46
HETATM   46  C16 UNL     1      21.020  26.141  21.016  1.00  0.00     0.027 C 
BRANCH  46  47
HETATM   47  C17 UNL     1      21.222  27.592  20.497  1.00  0.00     0.229 C 
BRANCH  47  48
HETATM   48  N3  UNL     1      20.305  28.462  21.209  1.00  0.00    -0.079 N 
ATOM     49  H33 UNL     1      20.638  28.702  22.143  1.00  0.00     0.274 HD
ATOM     50  H32 UNL     1      20.281  29.407  20.824  1.00  0.00     0.274 HD
ATOM     51  H31 UNL     1      19.387  28.019  21.220  1.00  0.00     0.274 HD
ENDBRANCH  47  48
ENDBRANCH  46  47
ENDBRANCH  45  46
ENDBRANCH  44  45
ENDBRANCH   6  44
BRANCH  23  52
HETATM   52  C30 UNL     1      26.923  29.691  15.892  1.00  0.00     0.009 C 
HETATM   53  C31 UNL     1      25.657  30.435  16.156  1.00  0.00     0.012 C 
HETATM   54  C32 UNL     1      26.801  28.774  14.684  1.00  0.00     0.012 C 
ENDBRANCH  23  52
BRANCH  18  55
HETATM   55  C24 UNL     1      28.973  30.673  20.241  1.00  0.00     0.038 C 
BRANCH  55  56
HETATM   56  C25 UNL     1      27.798  31.565  20.470  1.00  0.00    -0.020 C 
HETATM   57  C26 UNL     1      27.191  32.063  19.178  1.00  0.00     0.009 C 
HETATM   58  C27 UNL     1      28.293  32.776  21.243  1.00  0.00     0.009 C 
ENDBRANCH  55  56
ENDBRANCH  18  55
TORSDOF 14
ENDMDL
MODEL 4
REMARK VINA RESULT: -8.242997398      7.756     14.684
REMARK  14 active torsions:
REMARK  status: ('A' for Active; 'I' for Inactive)
REMARK    1  A    between atoms: C5_5  and  C6_6 
REMARK    2  A    between atoms: C6_6  and  N1_7 
REMARK    3  A    between atoms: C7_9  and  O1_10 
REMARK    4  A    between atoms: C7_9  and  C8_12 
REMARK    5  A    between atoms: C8_12  and  C9_13 
REMARK    6  A    between atoms: C9_13  and  C10_14 
REMARK    7  A    between atoms: C12_19  and  C14_21 
REMARK    8  A    between atoms: C14_21  and  C15_22 
REMARK    9  A    between atoms: C15_22  and  C16_23 
REMARK   10  A    between atoms: C16_23  and  C17_24 
REMARK   11  A    between atoms: C17_24  and  N3_25 
REMARK   12  A    between atoms: C23_39  and  C24_40 
REMARK   13  A    between atoms: C24_40  and  C25_41 
REMARK   14  A    between atoms: C29_48  and  C30_49 
ROOT
HETATM    1  C10 UNL     1      24.577  26.608  17.847  1.00  0.00     0.177 C 
HETATM    2  N2  UNL     1      24.086  25.262  18.060  1.00  0.00    -0.346 N 
ATOM      3  H2  UNL     1      23.426  24.924  17.360  1.00  0.00     0.163 HD
HETATM    4  C11 UNL     1      24.383  24.361  19.083  1.00  0.00     0.246 C 
HETATM    5  O2  UNL     1      24.894  23.256  18.731  1.00  0.00    -0.271 OA
HETATM    6  C12 UNL     1      24.155  24.570  20.566  1.00  0.00     0.110 C 
HETATM    7  C13 UNL     1      24.795  23.402  21.275  1.00  0.00     0.049 C 
HETATM    8  N4  UNL     1      24.627  25.850  21.028  1.00  0.00    -0.342 N 
ATOM      9  H4  UNL     1      23.934  26.596  20.974  1.00  0.00     0.163 HD
HETATM   10  C18 UNL     1      25.867  26.253  21.537  1.00  0.00     0.241 C 
HETATM   11  O3  UNL     1      25.890  26.709  22.752  1.00  0.00    -0.271 OA
HETATM   12  C19 UNL     1      27.191  26.243  20.881  1.00  0.00     0.174 C 
HETATM   13  C20 UNL     1      27.882  24.888  20.903  1.00  0.00     0.042 C 
HETATM   14  N5  UNL     1      28.145  27.100  21.610  1.00  0.00    -0.342 N 
HETATM   15  C21 UNL     1      28.470  26.699  22.966  1.00  0.00     0.153 C 
HETATM   16  C22 UNL     1      28.752  28.245  21.106  1.00  0.00     0.243 C 
HETATM   17  O4  UNL     1      29.869  28.625  21.609  1.00  0.00    -0.271 OA
HETATM   18  C23 UNL     1      28.250  29.120  20.013  1.00  0.00     0.177 C 
HETATM   19  N6  UNL     1      28.971  28.758  18.803  1.00  0.00    -0.346 N 
ATOM     20  H6  UNL     1      29.892  28.327  18.885  1.00  0.00     0.163 HD
HETATM   21  C28 UNL     1      28.422  28.992  17.497  1.00  0.00     0.241 C 
HETATM   22  O5  UNL     1      29.207  29.486  16.651  1.00  0.00    -0.271 OA
HETATM   23  C29 UNL     1      27.037  28.683  17.140  1.00  0.00     0.180 C 
HETATM   24  N7  UNL     1      26.886  27.255  16.872  1.00  0.00    -0.346 N 
ATOM     25  H7  UNL     1      27.736  26.712  16.718  1.00  0.00     0.163 HD
HETATM   26  C33 UNL     1      25.676  26.581  16.812  1.00  0.00     0.241 C 
HETATM   27  O6  UNL     1      25.406  25.845  15.800  1.00  0.00    -0.271 OA
ENDROOT
BRANCH   1  28
HETATM   28  C9  UNL     1      23.492  27.441  17.199  1.00  0.00     0.043 C 
BRANCH  28  29
HETATM   29  C8  UNL     1      22.094  26.980  17.489  1.00  0.00     0.086 C 
BRANCH  29  30
HETATM   30  C7  UNL     1      21.250  27.436  16.358  1.00  0.00     0.111 C 
HETATM   31  N1  UNL     1      20.221  26.754  16.003  1.00  0.00    -0.370 N 
ATOM     32  H1  UNL     1      19.676  27.113  15.220  1.00  0.00     0.161 HD
BRANCH  31  33
HETATM   33  C6  UNL     1      19.766  25.532  16.607  1.00  0.00     0.160 C 
BRANCH  33  34
HETATM   34  C5  UNL     1      18.684  24.896  15.771  1.00  0.00    -0.040 A 
HETATM   35  C4  UNL     1      17.909  23.869  16.297  1.00  0.00     0.009 A 
HETATM   36  C3  UNL     1      16.915  23.251  15.603  1.00  0.00     0.008 A 
HETATM   37  C2  UNL     1      16.653  23.655  14.304  1.00  0.00    -0.056 A 
HETATM   38  C1  UNL     1      15.573  22.996  13.523  1.00  0.00     0.049 C 
HETATM   39  C35 UNL     1      17.402  24.671  13.753  1.00  0.00    -0.056 A 
HETATM   40  C34 UNL     1      18.414  25.288  14.484  1.00  0.00     0.016 A 
HETATM   41  C36 UNL     1      17.105  25.098  12.342  1.00  0.00     0.049 C 
ENDBRANCH  33  34
ENDBRANCH  31  33
BRANCH  30  42
HETATM   42  O1  UNL     1      21.541  28.608  15.649  1.00  0.00    -0.350 OA
ATOM     43  H1  UNL     1      21.598  29.422  16.134  1.00  0.00     0.219 HD
ENDBRANCH  30  42
ENDBRANCH  29  30
ENDBRANCH  28  29
ENDBRANCH   1  28
BRANCH   6  44
HETATM   44  C14 UNL     1      22.659  24.449  20.797  1.00  0.00     0.041 C 
BRANCH  44  45
HETATM   45  C15 UNL     1      22.053  23.132  20.912  1.00  0.00     0.004 C 
BRANCH  45  46
HETATM   46  C16 UNL     1      20.609  22.924  20.667  1.00  0.00     0.027 C 
BRANCH  46  47
HETATM   47  C17 UNL     1      19.958  24.237  20.150  1.00  0.00     0.229 C 
BRANCH  47  48
HETATM   48  N3  UNL     1      18.805  24.532  20.980  1.00  0.00    -0.079 N 
ATOM     49  H33 UNL     1      18.006  24.862  20.439  1.00  0.00     0.274 HD
ATOM     50  H32 UNL     1      18.373  23.692  21.366  1.00  0.00     0.274 HD
ATOM     51  H31 UNL     1      19.092  25.192  21.702  1.00  0.00     0.274 HD
ENDBRANCH  47  48
ENDBRANCH  46  47
ENDBRANCH  45  46
ENDBRANCH  44  45
ENDBRANCH   6  44
BRANCH  23  52
HETATM   52  C30 UNL     1      26.638  29.488  15.930  1.00  0.00     0.009 C 
HETATM   53  C31 UNL     1      25.406  30.291  16.184  1.00  0.00     0.012 C 
HETATM   54  C32 UNL     1      26.462  28.535  14.759  1.00  0.00     0.012 C 
ENDBRANCH  23  52
BRANCH  18  55
HETATM   55  C24 UNL     1      28.625  30.572  20.284  1.00  0.00     0.038 C 
BRANCH  55  56
HETATM   56  C25 UNL     1      27.524  31.537  19.991  1.00  0.00    -0.020 C 
HETATM   57  C26 UNL     1      27.814  32.392  18.778  1.00  0.00     0.009 C 
HETATM   58  C27 UNL     1      27.402  32.464  21.189  1.00  0.00     0.009 C 
ENDBRANCH  55  56
ENDBRANCH  18  55
TORSDOF 14
ENDMDL
MODEL 5
REMARK VINA RESULT: -8.040227722      7.930     14.898
REMARK  14 active torsions:
REMARK  status: ('A' for Active; 'I' for Inactive)
REMARK    1  A    between atoms: C5_5  and  C6_6 
REMARK    2  A    between atoms: C6_6  and  N1_7 
REMARK    3  A    between atoms: C7_9  and  O1_10 
REMARK    4  A    between atoms: C7_9  and  C8_12 
REMARK    5  A    between atoms: C8_12  and  C9_13 
REMARK    6  A    between atoms: C9_13  and  C10_14 
REMARK    7  A    between atoms: C12_19  and  C14_21 
REMARK    8  A    between atoms: C14_21  and  C15_22 
REMARK    9  A    between atoms: C15_22  and  C16_23 
REMARK   10  A    between atoms: C16_23  and  C17_24 
REMARK   11  A    between atoms: C17_24  and  N3_25 
REMARK   12  A    between atoms: C23_39  and  C24_40 
REMARK   13  A    between atoms: C24_40  and  C25_41 
REMARK   14  A    between atoms: C29_48  and  C30_49 
ROOT
HETATM    1  C10 UNL     1      24.936  26.765  17.652  1.00  0.00     0.177 C 
HETATM    2  N2  UNL     1      24.471  25.400  17.789  1.00  0.00    -0.346 N 
ATOM      3  H2  UNL     1      23.860  25.072  17.042  1.00  0.00     0.163 HD
HETATM    4  C11 UNL     1      24.738  24.469  18.793  1.00  0.00     0.246 C 
HETATM    5  O2  UNL     1      25.297  23.391  18.429  1.00  0.00    -0.271 OA
HETATM    6  C12 UNL     1      24.425  24.616  20.268  1.00  0.00     0.110 C 
HETATM    7  C13 UNL     1      25.058  23.438  20.967  1.00  0.00     0.049 C 
HETATM    8  N4  UNL     1      24.836  25.889  20.801  1.00  0.00    -0.342 N 
ATOM      9  H4  UNL     1      24.126  26.619  20.737  1.00  0.00     0.163 HD
HETATM   10  C18 UNL     1      26.035  26.304  21.392  1.00  0.00     0.241 C 
HETATM   11  O3  UNL     1      25.980  26.714  22.622  1.00  0.00    -0.271 OA
HETATM   12  C19 UNL     1      27.393  26.353  20.810  1.00  0.00     0.174 C 
HETATM   13  C20 UNL     1      28.118  25.016  20.819  1.00  0.00     0.042 C 
HETATM   14  N5  UNL     1      28.282  27.205  21.620  1.00  0.00    -0.342 N 
HETATM   15  C21 UNL     1      28.544  26.762  22.977  1.00  0.00     0.153 C 
HETATM   16  C22 UNL     1      28.883  28.384  21.192  1.00  0.00     0.243 C 
HETATM   17  O4  UNL     1      29.960  28.774  21.769  1.00  0.00    -0.271 OA
HETATM   18  C23 UNL     1      28.417  29.287  20.106  1.00  0.00     0.177 C 
HETATM   19  N6  UNL     1      29.211  28.990  18.925  1.00  0.00    -0.346 N 
ATOM     20  H6  UNL     1      30.138  28.579  19.041  1.00  0.00     0.163 HD
HETATM   21  C28 UNL     1      28.727  29.258  17.600  1.00  0.00     0.241 C 
HETATM   22  O5  UNL     1      29.542  29.804  16.817  1.00  0.00    -0.271 OA
HETATM   23  C29 UNL     1      27.372  28.928  17.157  1.00  0.00     0.180 C 
HETATM   24  N7  UNL     1      27.275  27.507  16.829  1.00  0.00    -0.346 N 
ATOM     25  H7  UNL     1      28.147  26.993  16.702  1.00  0.00     0.163 HD
HETATM   26  C33 UNL     1      26.089  26.805  16.678  1.00  0.00     0.241 C 
HETATM   27  O6  UNL     1      25.895  26.102  15.627  1.00  0.00    -0.271 OA
ENDROOT
BRANCH   1  28
HETATM   28  C9  UNL     1      23.864  27.594  16.976  1.00  0.00     0.043 C 
BRANCH  28  29
HETATM   29  C8  UNL     1      22.797  26.794  16.289  1.00  0.00     0.086 C 
BRANCH  29  30
HETATM   30  C7  UNL     1      21.510  27.158  16.932  1.00  0.00     0.111 C 
HETATM   31  N1  UNL     1      20.419  27.129  16.255  1.00  0.00    -0.370 N 
ATOM     32  H1  UNL     1      19.564  27.388  16.746  1.00  0.00     0.161 HD
BRANCH  31  33
HETATM   33  C6  UNL     1      20.291  26.766  14.870  1.00  0.00     0.160 C 
BRANCH  33  34
HETATM   34  C5  UNL     1      19.126  25.829  14.671  1.00  0.00    -0.040 A 
HETATM   35  C4  UNL     1      18.295  25.973  13.567  1.00  0.00     0.009 A 
HETATM   36  C3  UNL     1      17.228  25.166  13.322  1.00  0.00     0.008 A 
HETATM   37  C2  UNL     1      16.944  24.143  14.213  1.00  0.00    -0.056 A 
HETATM   38  C1  UNL     1      15.783  23.246  13.970  1.00  0.00     0.049 C 
HETATM   39  C35 UNL     1      17.748  23.972  15.318  1.00  0.00    -0.056 A 
HETATM   40  C34 UNL     1      18.834  24.812  15.546  1.00  0.00     0.016 A 
HETATM   41  C36 UNL     1      17.425  22.858  16.275  1.00  0.00     0.049 C 
ENDBRANCH  33  34
ENDBRANCH  31  33
BRANCH  30  42
HETATM   42  O1  UNL     1      21.443  27.540  18.277  1.00  0.00    -0.350 OA
ATOM     43  H1  UNL     1      22.007  27.095  18.898  1.00  0.00     0.219 HD
ENDBRANCH  30  42
ENDBRANCH  29  30
ENDBRANCH  28  29
ENDBRANCH   1  28
BRANCH   6  44
HETATM   44  C14 UNL     1      22.922  24.448  20.412  1.00  0.00     0.041 C 
BRANCH  44  45
HETATM   45  C15 UNL     1      22.368  23.130  20.678  1.00  0.00     0.004 C 
BRANCH  45  46
HETATM   46  C16 UNL     1      20.917  22.933  20.893  1.00  0.00     0.027 C 
BRANCH  46  47
HETATM   47  C17 UNL     1      20.105  23.911  19.998  1.00  0.00     0.229 C 
BRANCH  47  48
HETATM   48  N3  UNL     1      19.244  24.704  20.856  1.00  0.00    -0.079 N 
ATOM     49  H33 UNL     1      19.769  25.292  21.503  1.00  0.00     0.274 HD
ATOM     50  H32 UNL     1      18.764  25.448  20.351  1.00  0.00     0.274 HD
ATOM     51  H31 UNL     1      18.600  24.073  21.333  1.00  0.00     0.274 HD
ENDBRANCH  47  48
ENDBRANCH  46  47
ENDBRANCH  45  46
ENDBRANCH  44  45
ENDBRANCH   6  44
BRANCH  23  52
HETATM   52  C30 UNL     1      27.016  29.768  15.956  1.00  0.00     0.009 C 
HETATM   53  C31 UNL     1      25.718  30.478  16.146  1.00  0.00     0.012 C 
HETATM   54  C32 UNL     1      26.996  28.867  14.732  1.00  0.00     0.012 C 
ENDBRANCH  23  52
BRANCH  18  55
HETATM   55  C24 UNL     1      28.736  30.737  20.449  1.00  0.00     0.038 C 
BRANCH  55  56
HETATM   56  C25 UNL     1      27.630  31.685  20.123  1.00  0.00    -0.020 C 
HETATM   57  C26 UNL     1      27.982  32.611  18.981  1.00  0.00     0.009 C 
HETATM   58  C27 UNL     1      27.390  32.543  21.354  1.00  0.00     0.009 C 
ENDBRANCH  55  56
ENDBRANCH  18  55
TORSDOF 14
ENDMDL
