MODEL 1
REMARK VINA RESULT: -8.642380552      0.000      0.000
REMARK  2 active torsions:
REMARK  status: ('A' for Active; 'I' for Inactive)
REMARK    1  A    between atoms: C2_2  and  C3_3 
REMARK    2  A    between atoms: C3_3  and  C4_4 
ROOT
HETATM    1  C4  UNL     1      19.247  14.345 -11.141  1.00  0.00    -0.012 C 
HETATM    2  C5  UNL     1      19.435  12.991 -11.741  1.00  0.00     0.008 C 
HETATM    3  C6  UNL     1      18.445  12.178 -10.925  1.00  0.00     0.042 C 
HETATM    4  C7  UNL     1      17.312  13.130 -10.609  1.00  0.00     0.097 C 
HETATM    5  C8  UNL     1      16.074  12.632 -11.279  1.00  0.00     0.041 C 
HETATM    6  C9  UNL     1      14.812  13.257 -10.783  1.00  0.00     0.010 C 
HETATM    7  C10 UNL     1      14.748  13.434  -9.301  1.00  0.00     0.104 C 
HETATM    8  C11 UNL     1      15.313  12.281  -8.522  1.00  0.00     0.369 C 
HETATM    9  N1  UNL     1      14.992  12.431  -7.140  1.00  0.00    -0.014 N 
ATOM     10  H11 UNL     1      15.295  13.344  -6.802  1.00  0.00     0.283 HD
ATOM     11  H12 UNL     1      15.586  11.827  -6.571  1.00  0.00     0.283 HD
HETATM   12  C12 UNL     1      13.609  12.214  -6.823  1.00  0.00     0.247 C 
HETATM   13  C13 UNL     1      13.082  10.882  -7.249  1.00  0.00     0.111 C 
HETATM   14  C14 UNL     1      14.079  10.195  -8.125  1.00  0.00     0.118 C 
HETATM   15  N2  UNL     1      14.253   8.913  -8.110  1.00  0.00    -0.383 N 
ATOM     16  H21 UNL     1      14.934   8.443  -8.709  1.00  0.00     0.157 HD
ATOM     17  H22 UNL     1      13.715   8.303  -7.495  1.00  0.00     0.157 HD
HETATM   18  O1  UNL     1      14.818  11.032  -8.970  1.00  0.00    -0.277 OA
HETATM   19  O2  UNL     1      16.706  12.221  -8.646  1.00  0.00    -0.168 OA
HETATM   20  O3  UNL     1      17.155  13.303  -9.236  1.00  0.00    -0.225 OA
HETATM   21  C15 UNL     1      17.754  14.493 -11.153  1.00  0.00     0.045 C 
ENDROOT
BRANCH   1  22
HETATM   22  C3  UNL     1      19.972  15.446 -11.833  1.00  0.00     0.004 C 
BRANCH  22  23
HETATM   23  C2  UNL     1      19.218  16.727 -11.934  1.00  0.00    -0.004 C 
HETATM   24  C1  UNL     1      20.229  17.815 -12.318  1.00  0.00     0.005 C 
ENDBRANCH  22  23
ENDBRANCH   1  22
TORSDOF 2
ENDMDL
MODEL 2
REMARK VINA RESULT: -8.547495317      0.987      1.190
REMARK  2 active torsions:
REMARK  status: ('A' for Active; 'I' for Inactive)
REMARK    1  A    between atoms: C2_2  and  C3_3 
REMARK    2  A    between atoms: C3_3  and  C4_4 
ROOT
HETATM    1  C4  UNL     1      19.823  13.041 -11.584  1.00  0.00    -0.012 C 
HETATM    2  C5  UNL     1      19.553  11.814 -12.390  1.00  0.00     0.008 C 
HETATM    3  C6  UNL     1      18.464  11.161 -11.556  1.00  0.00     0.042 C 
HETATM    4  C7  UNL     1      17.690  12.307 -10.944  1.00  0.00     0.097 C 
HETATM    5  C8  UNL     1      16.297  12.280 -11.484  1.00  0.00     0.041 C 
HETATM    6  C9  UNL     1      15.326  13.119 -10.721  1.00  0.00     0.010 C 
HETATM    7  C10 UNL     1      15.471  13.042  -9.237  1.00  0.00     0.104 C 
HETATM    8  C11 UNL     1      15.762  11.662  -8.721  1.00  0.00     0.369 C 
HETATM    9  N1  UNL     1      15.644  11.645  -7.299  1.00  0.00    -0.014 N 
ATOM     10  H11 UNL     1      16.228  12.371  -6.885  1.00  0.00     0.283 HD
ATOM     11  H12 UNL     1      16.097  10.816  -6.916  1.00  0.00     0.283 HD
HETATM   12  C12 UNL     1      14.298  11.749  -6.812  1.00  0.00     0.247 C 
HETATM   13  C13 UNL     1      13.371  10.700  -7.337  1.00  0.00     0.111 C 
HETATM   14  C14 UNL     1      14.033   9.940  -8.440  1.00  0.00     0.118 C 
HETATM   15  N2  UNL     1      13.836   8.675  -8.632  1.00  0.00    -0.383 N 
ATOM     16  H21 UNL     1      14.287   8.156  -9.385  1.00  0.00     0.157 HD
ATOM     17  H22 UNL     1      13.214   8.131  -8.034  1.00  0.00     0.157 HD
HETATM   18  O1  UNL     1      14.887  10.687  -9.260  1.00  0.00    -0.277 OA
HETATM   19  O2  UNL     1      17.059  11.259  -9.060  1.00  0.00    -0.168 OA
HETATM   20  O3  UNL     1      17.733  12.270  -9.553  1.00  0.00    -0.225 OA
HETATM   21  C15 UNL     1      18.442  13.579 -11.352  1.00  0.00     0.045 C 
ENDROOT
BRANCH   1  22
HETATM   22  C3  UNL     1      20.756  14.016 -12.215  1.00  0.00     0.004 C 
BRANCH  22  23
HETATM   23  C2  UNL     1      21.328  15.029 -11.284  1.00  0.00    -0.004 C 
HETATM   24  C1  UNL     1      20.892  16.408 -11.797  1.00  0.00     0.005 C 
ENDBRANCH  22  23
ENDBRANCH   1  22
TORSDOF 2
ENDMDL
MODEL 3
REMARK VINA RESULT: -8.364030307      2.791      6.888
REMARK  2 active torsions:
REMARK  status: ('A' for Active; 'I' for Inactive)
REMARK    1  A    between atoms: C2_2  and  C3_3 
REMARK    2  A    between atoms: C3_3  and  C4_4 
ROOT
HETATM    1  C4  UNL     1      15.879   9.950  -6.756  1.00  0.00    -0.012 C 
HETATM    2  C5  UNL     1      14.650  10.759  -7.003  1.00  0.00     0.008 C 
HETATM    3  C6  UNL     1      15.210  11.867  -7.879  1.00  0.00     0.042 C 
HETATM    4  C7  UNL     1      16.321  11.221  -8.677  1.00  0.00     0.097 C 
HETATM    5  C8  UNL     1      15.943  11.248 -10.122  1.00  0.00     0.041 C 
HETATM    6  C9  UNL     1      17.073  10.971 -11.058  1.00  0.00     0.010 C 
HETATM    7  C10 UNL     1      18.360  11.631 -10.689  1.00  0.00     0.104 C 
HETATM    8  C11 UNL     1      18.205  13.033 -10.174  1.00  0.00     0.369 C 
HETATM    9  N1  UNL     1      19.484  13.657 -10.079  1.00  0.00    -0.014 N 
ATOM     10  H11 UNL     1      20.119  13.082  -9.525  1.00  0.00     0.283 HD
ATOM     11  H12 UNL     1      19.432  14.484  -9.485  1.00  0.00     0.283 HD
HETATM   12  C12 UNL     1      20.082  13.985 -11.342  1.00  0.00     0.247 C 
HETATM   13  C13 UNL     1      19.238  14.858 -12.214  1.00  0.00     0.111 C 
HETATM   14  C14 UNL     1      17.863  14.973 -11.641  1.00  0.00     0.118 C 
HETATM   15  N2  UNL     1      17.162  16.058 -11.723  1.00  0.00    -0.383 N 
ATOM     16  H21 UNL     1      16.223  16.138 -11.332  1.00  0.00     0.157 HD
ATOM     17  H22 UNL     1      17.517  16.895 -12.186  1.00  0.00     0.157 HD
HETATM   18  O1  UNL     1      17.375  13.825 -11.005  1.00  0.00    -0.277 OA
HETATM   19  O2  UNL     1      17.615  13.042  -8.904  1.00  0.00    -0.168 OA
HETATM   20  O3  UNL     1      17.551  11.823  -8.426  1.00  0.00    -0.225 OA
HETATM   21  C15 UNL     1      16.438   9.790  -8.139  1.00  0.00     0.045 C 
ENDROOT
BRANCH   1  22
HETATM   22  C3  UNL     1      15.653   8.664  -6.040  1.00  0.00     0.004 C 
BRANCH  22  23
HETATM   23  C2  UNL     1      16.306   8.566  -4.705  1.00  0.00    -0.004 C 
HETATM   24  C1  UNL     1      15.596   7.442  -3.939  1.00  0.00     0.005 C 
ENDBRANCH  22  23
ENDBRANCH   1  22
TORSDOF 2
ENDMDL
MODEL 4
REMARK VINA RESULT: -8.335028257      2.935      6.884
REMARK  2 active torsions:
REMARK  status: ('A' for Active; 'I' for Inactive)
REMARK    1  A    between atoms: C2_2  and  C3_3 
REMARK    2  A    between atoms: C3_3  and  C4_4 
ROOT
HETATM    1  C4  UNL     1      16.243  10.439  -8.122  1.00  0.00    -0.012 C 
HETATM    2  C5  UNL     1      15.191  11.492  -8.225  1.00  0.00     0.008 C 
HETATM    3  C6  UNL     1      15.981  12.619  -8.869  1.00  0.00     0.042 C 
HETATM    4  C7  UNL     1      16.993  11.938  -9.763  1.00  0.00     0.097 C 
HETATM    5  C8  UNL     1      16.693  12.299 -11.180  1.00  0.00     0.041 C 
HETATM    6  C9  UNL     1      17.797  11.995 -12.139  1.00  0.00     0.010 C 
HETATM    7  C10 UNL     1      19.163  12.327 -11.637  1.00  0.00     0.104 C 
HETATM    8  C11 UNL     1      19.238  13.615 -10.867  1.00  0.00     0.369 C 
HETATM    9  N1  UNL     1      20.602  13.963 -10.642  1.00  0.00    -0.014 N 
ATOM     10  H11 UNL     1      21.098  13.190 -10.199  1.00  0.00     0.283 HD
ATOM     11  H12 UNL     1      20.672  14.663  -9.902  1.00  0.00     0.283 HD
HETATM   12  C12 UNL     1      21.307  14.402 -11.813  1.00  0.00     0.247 C 
HETATM   13  C13 UNL     1      20.673  15.561 -12.513  1.00  0.00     0.111 C 
HETATM   14  C14 UNL     1      19.316  15.821 -11.945  1.00  0.00     0.118 C 
HETATM   15  N2  UNL     1      18.825  17.013 -11.828  1.00  0.00    -0.383 N 
ATOM     16  H21 UNL     1      17.899  17.191 -11.440  1.00  0.00     0.157 HD
ATOM     17  H22 UNL     1      19.346  17.840 -12.120  1.00  0.00     0.157 HD
HETATM   18  O1  UNL     1      18.602  14.686 -11.543  1.00  0.00    -0.277 OA
HETATM   19  O2  UNL     1      18.601  13.499  -9.626  1.00  0.00    -0.168 OA
HETATM   20  O3  UNL     1      18.298  12.245  -9.387  1.00  0.00    -0.225 OA
HETATM   21  C15 UNL     1      16.828  10.436  -9.503  1.00  0.00     0.045 C 
ENDROOT
BRANCH   1  22
HETATM   22  C3  UNL     1      15.758   9.107  -7.665  1.00  0.00     0.004 C 
BRANCH  22  23
HETATM   23  C2  UNL     1      16.565   8.484  -6.579  1.00  0.00    -0.004 C 
HETATM   24  C1  UNL     1      15.896   8.859  -5.250  1.00  0.00     0.005 C 
ENDBRANCH  22  23
ENDBRANCH   1  22
TORSDOF 2
ENDMDL
MODEL 5
REMARK VINA RESULT: -8.317142673      1.104      1.141
REMARK  2 active torsions:
REMARK  status: ('A' for Active; 'I' for Inactive)
REMARK    1  A    between atoms: C2_2  and  C3_3 
REMARK    2  A    between atoms: C3_3  and  C4_4 
ROOT
HETATM    1  C4  UNL     1      18.510  14.030 -11.333  1.00  0.00    -0.012 C 
HETATM    2  C5  UNL     1      19.121  12.672 -11.221  1.00  0.00     0.008 C 
HETATM    3  C6  UNL     1      18.292  12.081 -10.093  1.00  0.00     0.042 C 
HETATM    4  C7  UNL     1      16.919  12.696 -10.241  1.00  0.00     0.097 C 
HETATM    5  C8  UNL     1      15.945  11.610 -10.565  1.00  0.00     0.041 C 
HETATM    6  C9  UNL     1      14.513  11.998 -10.396  1.00  0.00     0.010 C 
HETATM    7  C10 UNL     1      14.230  12.811  -9.177  1.00  0.00     0.104 C 
HETATM    8  C11 UNL     1      14.985  12.368  -7.956  1.00  0.00     0.369 C 
HETATM    9  N1  UNL     1      14.474  13.037  -6.804  1.00  0.00    -0.014 N 
ATOM     10  H11 UNL     1      14.481  14.047  -6.948  1.00  0.00     0.283 HD
ATOM     11  H12 UNL     1      15.135  12.966  -6.031  1.00  0.00     0.283 HD
HETATM   12  C12 UNL     1      13.171  12.601  -6.390  1.00  0.00     0.247 C 
HETATM   13  C13 UNL     1      13.071  11.134  -6.118  1.00  0.00     0.111 C 
HETATM   14  C14 UNL     1      14.311  10.443  -6.585  1.00  0.00     0.118 C 
HETATM   15  N2  UNL     1      14.817   9.425  -5.967  1.00  0.00    -0.383 N 
ATOM     16  H21 UNL     1      15.663   8.953  -6.286  1.00  0.00     0.157 HD
ATOM     17  H22 UNL     1      14.392   9.042  -5.123  1.00  0.00     0.157 HD
HETATM   18  O1  UNL     1      14.896  10.970  -7.744  1.00  0.00    -0.277 OA
HETATM   19  O2  UNL     1      16.348  12.663  -8.069  1.00  0.00    -0.168 OA
HETATM   20  O3  UNL     1      16.560  13.429  -9.113  1.00  0.00    -0.225 OA
HETATM   21  C15 UNL     1      17.043  13.716 -11.379  1.00  0.00     0.045 C 
ENDROOT
BRANCH   1  22
HETATM   22  C3  UNL     1      18.993  14.845 -12.482  1.00  0.00     0.004 C 
BRANCH  22  23
HETATM   23  C2  UNL     1      19.720  16.090 -12.106  1.00  0.00    -0.004 C 
HETATM   24  C1  UNL     1      18.687  17.223 -12.079  1.00  0.00     0.005 C 
ENDBRANCH  22  23
ENDBRANCH   1  22
TORSDOF 2
ENDMDL
