MODEL 1
REMARK VINA RESULT: -7.012390452      0.000      0.000
REMARK  2 active torsions:
REMARK  status: ('A' for Active; 'I' for Inactive)
REMARK    1  A    between atoms: C2_2  and  C3_3 
REMARK    2  A    between atoms: C8_12  and  C9_13 
ROOT
HETATM    1  C3  UNL     1      16.882  13.131  -9.631  1.00  0.00     0.028 C 
HETATM    2  C4  UNL     1      18.397  12.789  -9.776  1.00  0.00     0.060 C 
HETATM    3  C5  UNL     1      19.145  13.751 -10.553  1.00  0.00    -0.001 C 
HETATM    4  N1  UNL     1      20.365  14.011 -10.244  1.00  0.00    -0.404 N 
ATOM      5  H11 UNL     1      20.893  14.690 -10.792  1.00  0.00     0.155 HD
ATOM      6  H12 UNL     1      20.756  13.513  -9.445  1.00  0.00     0.155 HD
HETATM    7  C6  UNL     1      18.580  14.469 -11.708  1.00  0.00     0.150 C 
HETATM    8  C7  UNL     1      19.313  15.729 -11.963  1.00  0.00     0.070 C 
HETATM    9  N2  UNL     1      19.864  16.712 -12.169  1.00  0.00    -0.197 NA
HETATM   10  C8  UNL     1      17.168  14.903 -11.239  1.00  0.00     0.098 C 
HETATM   11  C13 UNL     1      16.475  13.553 -10.995  1.00  0.00     0.152 C 
HETATM   12  C14 UNL     1      15.054  13.600 -11.193  1.00  0.00     0.085 C 
HETATM   13  N5  UNL     1      13.904  13.621 -11.391  1.00  0.00    -0.195 NA
HETATM   14  C15 UNL     1      17.062  12.515 -11.911  1.00  0.00     0.085 C 
HETATM   15  N6  UNL     1      17.495  11.694 -12.626  1.00  0.00    -0.195 NA
ENDROOT
BRANCH  10  16
HETATM   16  C9  UNL     1      16.529  15.733 -12.252  1.00  0.00     0.041 A 
HETATM   17  N3  UNL     1      16.635  15.607 -13.589  1.00  0.00    -0.354 N 
HETATM   18  C10 UNL     1      15.879  16.523 -14.221  1.00  0.00     0.180 A 
ATOM     19  H3  UNL     1      17.212  14.911 -14.060  1.00  0.00     0.166 HD
HETATM   20  N4  UNL     1      15.274  17.253 -13.274  1.00  0.00    -0.354 N 
HETATM   21  C11 UNL     1      15.661  16.784 -12.066  1.00  0.00     0.029 A 
ATOM     22  H4  UNL     1      14.632  18.029 -13.437  1.00  0.00     0.166 HD
HETATM   23  C12 UNL     1      15.198  17.423 -10.789  1.00  0.00     0.070 C 
ENDBRANCH  10  16
BRANCH   1  24
HETATM   24  C2  UNL     1      16.287  11.887  -9.076  1.00  0.00     0.003 C 
HETATM   25  C1  UNL     1      17.201  10.874  -8.497  1.00  0.00     0.005 C 
ENDBRANCH   1  24
TORSDOF 2
ENDMDL
MODEL 2
REMARK VINA RESULT: -6.946009679      1.737      3.792
REMARK  2 active torsions:
REMARK  status: ('A' for Active; 'I' for Inactive)
REMARK    1  A    between atoms: C2_2  and  C3_3 
REMARK    2  A    between atoms: C8_12  and  C9_13 
ROOT
HETATM    1  C3  UNL     1      17.179  11.872 -11.941  1.00  0.00     0.028 C 
HETATM    2  C4  UNL     1      15.948  11.766 -10.988  1.00  0.00     0.060 C 
HETATM    3  C5  UNL     1      15.193  12.993 -10.862  1.00  0.00    -0.001 C 
HETATM    4  N1  UNL     1      13.918  12.945 -10.717  1.00  0.00    -0.404 N 
ATOM      5  H11 UNL     1      13.385  13.810 -10.628  1.00  0.00     0.155 HD
ATOM      6  H12 UNL     1      13.489  12.020 -10.696  1.00  0.00     0.155 HD
HETATM    7  C6  UNL     1      15.814  14.327 -10.892  1.00  0.00     0.150 C 
HETATM    8  C7  UNL     1      14.834  15.363 -11.290  1.00  0.00     0.070 C 
HETATM    9  N2  UNL     1      14.090  16.175 -11.605  1.00  0.00    -0.197 NA
HETATM   10  C8  UNL     1      16.831  14.255 -12.060  1.00  0.00     0.098 C 
HETATM   11  C13 UNL     1      17.806  13.168 -11.577  1.00  0.00     0.152 C 
HETATM   12  C14 UNL     1      19.138  13.336 -12.084  1.00  0.00     0.085 C 
HETATM   13  N5  UNL     1      20.233  13.488 -12.458  1.00  0.00    -0.195 NA
HETATM   14  C15 UNL     1      17.850  13.167 -10.074  1.00  0.00     0.085 C 
HETATM   15  N6  UNL     1      17.912  13.158  -8.904  1.00  0.00    -0.195 NA
ENDROOT
BRANCH  10  16
HETATM   16  C9  UNL     1      17.444  15.558 -12.283  1.00  0.00     0.041 A 
HETATM   17  N3  UNL     1      18.414  16.134 -11.545  1.00  0.00    -0.354 N 
HETATM   18  C10 UNL     1      18.767  17.324 -12.061  1.00  0.00     0.180 A 
ATOM     19  H3  UNL     1      18.825  15.723 -10.708  1.00  0.00     0.166 HD
HETATM   20  N4  UNL     1      18.012  17.520 -13.151  1.00  0.00    -0.354 N 
HETATM   21  C11 UNL     1      17.199  16.450 -13.299  1.00  0.00     0.029 A 
ATOM     22  H4  UNL     1      18.046  18.335 -13.763  1.00  0.00     0.166 HD
HETATM   23  C12 UNL     1      16.185  16.380 -14.404  1.00  0.00     0.070 C 
ENDBRANCH  10  16
BRANCH   1  24
HETATM   24  C2  UNL     1      17.943  10.625 -11.677  1.00  0.00     0.003 C 
HETATM   25  C1  UNL     1      18.611   9.960 -12.819  1.00  0.00     0.005 C 
ENDBRANCH   1  24
TORSDOF 2
ENDMDL
MODEL 3
REMARK VINA RESULT: -6.641197030      3.682      5.908
REMARK  2 active torsions:
REMARK  status: ('A' for Active; 'I' for Inactive)
REMARK    1  A    between atoms: C2_2  and  C3_3 
REMARK    2  A    between atoms: C8_12  and  C9_13 
ROOT
HETATM    1  C3  UNL     1      13.839  12.655  -5.948  1.00  0.00     0.028 C 
HETATM    2  C4  UNL     1      13.850  11.149  -5.543  1.00  0.00     0.060 C 
HETATM    3  C5  UNL     1      14.671  10.317  -6.393  1.00  0.00    -0.001 C 
HETATM    4  N1  UNL     1      15.305   9.319  -5.889  1.00  0.00    -0.404 N 
ATOM      5  H11 UNL     1      15.884   8.732  -6.489  1.00  0.00     0.155 HD
ATOM      6  H12 UNL     1      15.195   9.158  -4.889  1.00  0.00     0.155 HD
HETATM    7  C6  UNL     1      14.829  10.549  -7.838  1.00  0.00     0.150 C 
HETATM    8  C7  UNL     1      16.084   9.947  -8.342  1.00  0.00     0.070 C 
HETATM    9  N2  UNL     1      17.056   9.494  -8.745  1.00  0.00    -0.197 NA
HETATM   10  C8  UNL     1      15.029  12.081  -7.963  1.00  0.00     0.098 C 
HETATM   11  C13 UNL     1      13.698  12.630  -7.426  1.00  0.00     0.152 C 
HETATM   12  C14 UNL     1      13.333  13.894  -7.999  1.00  0.00     0.085 C 
HETATM   13  N5  UNL     1      13.008  14.901  -8.491  1.00  0.00    -0.195 NA
HETATM   14  C15 UNL     1      12.602  11.636  -7.692  1.00  0.00     0.085 C 
HETATM   15  N6  UNL     1      11.730  10.883  -7.902  1.00  0.00    -0.195 NA
ENDROOT
BRANCH  10  16
HETATM   16  C9  UNL     1      15.317  12.445  -9.345  1.00  0.00     0.041 A 
HETATM   17  N3  UNL     1      14.447  12.472 -10.374  1.00  0.00    -0.354 N 
HETATM   18  C10 UNL     1      15.048  12.892 -11.501  1.00  0.00     0.180 A 
ATOM     19  H3  UNL     1      13.464  12.209 -10.307  1.00  0.00     0.166 HD
HETATM   20  N4  UNL     1      16.329  13.141 -11.194  1.00  0.00    -0.354 N 
HETATM   21  C11 UNL     1      16.509  12.872  -9.881  1.00  0.00     0.029 A 
ATOM     22  H4  UNL     1      17.045  13.475 -11.840  1.00  0.00     0.166 HD
HETATM   23  C12 UNL     1      17.855  13.001  -9.229  1.00  0.00     0.070 C 
ENDBRANCH  10  16
BRANCH   1  24
HETATM   24  C2  UNL     1      12.727  13.231  -5.147  1.00  0.00     0.003 C 
HETATM   25  C1  UNL     1      11.969  12.327  -4.252  1.00  0.00     0.005 C 
ENDBRANCH   1  24
TORSDOF 2
ENDMDL
MODEL 4
REMARK VINA RESULT: -6.529904510      1.536      5.529
REMARK  2 active torsions:
REMARK  status: ('A' for Active; 'I' for Inactive)
REMARK    1  A    between atoms: C2_2  and  C3_3 
REMARK    2  A    between atoms: C8_12  and  C9_13 
ROOT
HETATM    1  C3  UNL     1      16.598  17.607 -11.556  1.00  0.00     0.028 C 
HETATM    2  C4  UNL     1      15.057  17.631 -11.798  1.00  0.00     0.060 C 
HETATM    3  C5  UNL     1      14.415  16.346 -11.633  1.00  0.00    -0.001 C 
HETATM    4  N1  UNL     1      13.226  16.284 -11.150  1.00  0.00    -0.404 N 
ATOM      5  H11 UNL     1      12.774  15.378 -11.034  1.00  0.00     0.155 HD
ATOM      6  H12 UNL     1      12.781  17.167 -10.901  1.00  0.00     0.155 HD
HETATM    7  C6  UNL     1      15.058  15.072 -11.995  1.00  0.00     0.150 C 
HETATM    8  C7  UNL     1      14.459  13.942 -11.251  1.00  0.00     0.070 C 
HETATM    9  N2  UNL     1      14.011  13.057 -10.676  1.00  0.00    -0.197 NA
HETATM   10  C8  UNL     1      16.504  15.200 -11.451  1.00  0.00     0.098 C 
HETATM   11  C13 UNL     1      17.055  16.384 -12.263  1.00  0.00     0.152 C 
HETATM   12  C14 UNL     1      18.474  16.321 -12.465  1.00  0.00     0.085 C 
HETATM   13  N5  UNL     1      19.622  16.257 -12.669  1.00  0.00    -0.195 NA
HETATM   14  C15 UNL     1      16.371  16.434 -13.602  1.00  0.00     0.085 C 
HETATM   15  N6  UNL     1      15.863  16.483 -14.656  1.00  0.00    -0.195 NA
ENDROOT
BRANCH  10  16
HETATM   16  C9  UNL     1      17.231  13.952 -11.638  1.00  0.00     0.041 A 
HETATM   17  N3  UNL     1      17.621  13.407 -12.807  1.00  0.00    -0.354 N 
HETATM   18  C10 UNL     1      18.303  12.267 -12.604  1.00  0.00     0.180 A 
ATOM     19  H3  UNL     1      17.424  13.807 -13.725  1.00  0.00     0.166 HD
HETATM   20  N4  UNL     1      18.355  12.071 -11.278  1.00  0.00    -0.354 N 
HETATM   21  C11 UNL     1      17.704  13.091 -10.675  1.00  0.00     0.029 A 
ATOM     22  H4  UNL     1      18.807  11.288 -10.807  1.00  0.00     0.166 HD
HETATM   23  C12 UNL     1      17.535  13.144  -9.184  1.00  0.00     0.070 C 
ENDBRANCH  10  16
BRANCH   1  24
HETATM   24  C2  UNL     1      17.059  18.924 -12.066  1.00  0.00     0.003 C 
HETATM   25  C1  UNL     1      16.044  19.976 -12.304  1.00  0.00     0.005 C 
ENDBRANCH   1  24
TORSDOF 2
ENDMDL
MODEL 5
REMARK VINA RESULT: -6.462974395      2.087      3.225
REMARK  2 active torsions:
REMARK  status: ('A' for Active; 'I' for Inactive)
REMARK    1  A    between atoms: C2_2  and  C3_3 
REMARK    2  A    between atoms: C8_12  and  C9_13 
ROOT
HETATM    1  C3  UNL     1      16.578  11.523  -8.217  1.00  0.00     0.028 C 
HETATM    2  C4  UNL     1      17.192  10.339  -9.026  1.00  0.00     0.060 C 
HETATM    3  C5  UNL     1      17.482  10.656 -10.406  1.00  0.00    -0.001 C 
HETATM    4  N1  UNL     1      18.504  10.130 -10.980  1.00  0.00    -0.404 N 
ATOM      5  H11 UNL     1      18.709  10.354 -11.953  1.00  0.00     0.155 HD
ATOM      6  H12 UNL     1      19.076   9.498 -10.420  1.00  0.00     0.155 HD
HETATM    7  C6  UNL     1      16.656  11.568 -11.214  1.00  0.00     0.150 C 
HETATM    8  C7  UNL     1      17.432  12.133 -12.341  1.00  0.00     0.070 C 
HETATM    9  N2  UNL     1      18.021  12.587 -13.213  1.00  0.00    -0.197 NA
HETATM   10  C8  UNL     1      16.368  12.765 -10.272  1.00  0.00     0.098 C 
HETATM   11  C13 UNL     1      15.568  12.103  -9.138  1.00  0.00     0.152 C 
HETATM   12  C14 UNL     1      14.641  12.995  -8.502  1.00  0.00     0.085 C 
HETATM   13  N5  UNL     1      13.857  13.703  -8.007  1.00  0.00    -0.195 NA
HETATM   14  C15 UNL     1      14.815  10.920  -9.680  1.00  0.00     0.085 C 
HETATM   15  N6  UNL     1      14.208  10.003 -10.084  1.00  0.00    -0.195 NA
ENDROOT
BRANCH  10  16
HETATM   16  C9  UNL     1      15.647  13.811 -10.986  1.00  0.00     0.041 A 
HETATM   17  N3  UNL     1      14.337  13.823 -11.303  1.00  0.00    -0.354 N 
HETATM   18  C10 UNL     1      14.004  14.964 -11.930  1.00  0.00     0.180 A 
ATOM     19  H3  UNL     1      13.686  13.066 -11.095  1.00  0.00     0.166 HD
HETATM   20  N4  UNL     1      15.119  15.704 -12.020  1.00  0.00    -0.354 N 
HETATM   21  C11 UNL     1      16.131  15.013 -11.448  1.00  0.00     0.029 A 
ATOM     22  H4  UNL     1      15.190  16.628 -12.445  1.00  0.00     0.166 HD
HETATM   23  C12 UNL     1      17.534  15.546 -11.428  1.00  0.00     0.070 C 
ENDBRANCH  10  16
BRANCH   1  24
HETATM   24  C2  UNL     1      16.099  10.887  -6.962  1.00  0.00     0.003 C 
HETATM   25  C1  UNL     1      16.335   9.437  -6.780  1.00  0.00     0.005 C 
ENDBRANCH   1  24
TORSDOF 2
ENDMDL
