MODEL 1
REMARK VINA RESULT: -7.153983575      0.000      0.000
REMARK  11 active torsions:
REMARK  status: ('A' for Active; 'I' for Inactive)
REMARK    1  A    between atoms: C2_2  and  O1_3 
REMARK    2  A    between atoms: O1_3  and  C3_4 
REMARK    3  A    between atoms: C3_4  and  C4_6 
REMARK    4  A    between atoms: C4_6  and  O3_7 
REMARK    5  A    between atoms: C4_6  and  C5_9 
REMARK    6  A    between atoms: C9_14  and  O5_15 
REMARK    7  A    between atoms: O5_15  and  C10_16 
REMARK    8  A    between atoms: C13_20  and  O7_22 
REMARK    9  A    between atoms: C16_25  and  O8_26 
REMARK   10  A    between atoms: O8_26  and  C17_27 
REMARK   11  A    between atoms: C20_31  and  O10_32 
ROOT
HETATM    1  C5  UNL     1      25.014 -25.090   1.077  1.00  0.00     0.123 C 
HETATM    2  C6  UNL     1      23.857 -25.202   1.970  1.00  0.00     0.147 C 
HETATM    3  O4  UNL     1      23.934 -24.530   2.985  1.00  0.00    -0.296 OA
HETATM    4  C7  UNL     1      22.585 -25.973   1.899  1.00  0.00     0.053 C 
HETATM    5  C8  UNL     1      21.495 -25.160   1.260  1.00  0.00     0.027 C 
HETATM    6  C9  UNL     1      22.091 -26.351   3.288  1.00  0.00     0.150 C 
HETATM    7  C12 UNL     1      23.156 -27.323   3.727  1.00  0.00     0.071 C 
HETATM    8  C13 UNL     1      23.408 -28.118   2.459  1.00  0.00     0.064 C 
HETATM    9  C14 UNL     1      22.780 -29.508   2.562  1.00  0.00     0.046 C 
HETATM   10  C15 UNL     1      22.796 -27.329   1.312  1.00  0.00     0.067 C 
HETATM   11  C16 UNL     1      23.663 -27.428   0.124  1.00  0.00     0.142 C 
HETATM   12  C19 UNL     1      23.707 -26.217  -0.775  1.00  0.00     0.065 C 
HETATM   13  C20 UNL     1      24.723 -25.202  -0.379  1.00  0.00     0.135 C 
ENDROOT
BRANCH   1  14
HETATM   14  C4  UNL     1      25.630 -23.700   1.291  1.00  0.00     0.231 C 
BRANCH  14  15
HETATM   15  C3  UNL     1      26.856 -23.507   0.519  1.00  0.00     0.288 C 
HETATM   16  O2  UNL     1      26.934 -22.554  -0.293  1.00  0.00    -0.262 OA
BRANCH  15  17
HETATM   17  O1  UNL     1      27.952 -24.344   0.648  1.00  0.00    -0.320 OA
BRANCH  17  18
HETATM   18  C2  UNL     1      28.399 -25.161  -0.427  1.00  0.00     0.174 C 
HETATM   19  C1  UNL     1      28.287 -26.628  -0.050  1.00  0.00     0.034 C 
ENDBRANCH  17  18
ENDBRANCH  15  17
ENDBRANCH  14  15
BRANCH  14  20
HETATM   20  O3  UNL     1      24.701 -22.698   1.069  1.00  0.00    -0.385 OA
ATOM     21  H3  UNL     1      23.959 -22.998   0.556  1.00  0.00     0.210 HD
ENDBRANCH  14  20
ENDBRANCH   1  14
BRANCH  13  22
HETATM   22  O10 UNL     1      24.390 -23.918  -0.866  1.00  0.00    -0.395 OA
ATOM     23  H10 UNL     1      24.061 -24.011  -1.752  1.00  0.00     0.210 HD
ENDBRANCH  13  22
BRANCH   6  24
HETATM   24  O5  UNL     1      21.937 -25.264   4.135  1.00  0.00    -0.315 OA
BRANCH  24  25
HETATM   25  C10 UNL     1      21.209 -25.395   5.303  1.00  0.00     0.255 C 
HETATM   26  C11 UNL     1      21.689 -24.774   6.565  1.00  0.00     0.126 C 
HETATM   27  O6  UNL     1      20.140 -26.053   5.240  1.00  0.00    -0.266 OA
ENDBRANCH  24  25
ENDBRANCH   6  24
BRANCH  11  28
HETATM   28  O8  UNL     1      23.152 -28.511  -0.675  1.00  0.00    -0.316 OA
BRANCH  28  29
HETATM   29  C17 UNL     1      23.950 -29.522  -1.150  1.00  0.00     0.255 C 
HETATM   30  C18 UNL     1      25.398 -29.644  -0.844  1.00  0.00     0.126 C 
HETATM   31  O9  UNL     1      23.451 -30.401  -1.884  1.00  0.00    -0.266 OA
ENDBRANCH  28  29
ENDBRANCH  11  28
BRANCH   8  32
HETATM   32  O7  UNL     1      24.765 -28.287   2.364  1.00  0.00    -0.390 OA
ATOM     33  H7  UNL     1      24.949 -29.175   2.646  1.00  0.00     0.210 HD
ENDBRANCH   8  32
TORSDOF 11
ENDMDL
MODEL 2
REMARK VINA RESULT: -6.857144512      0.821      1.085
REMARK  11 active torsions:
REMARK  status: ('A' for Active; 'I' for Inactive)
REMARK    1  A    between atoms: C2_2  and  O1_3 
REMARK    2  A    between atoms: O1_3  and  C3_4 
REMARK    3  A    between atoms: C3_4  and  C4_6 
REMARK    4  A    between atoms: C4_6  and  O3_7 
REMARK    5  A    between atoms: C4_6  and  C5_9 
REMARK    6  A    between atoms: C9_14  and  O5_15 
REMARK    7  A    between atoms: O5_15  and  C10_16 
REMARK    8  A    between atoms: C13_20  and  O7_22 
REMARK    9  A    between atoms: C16_25  and  O8_26 
REMARK   10  A    between atoms: O8_26  and  C17_27 
REMARK   11  A    between atoms: C20_31  and  O10_32 
ROOT
HETATM    1  C5  UNL     1      24.993 -25.118   1.066  1.00  0.00     0.123 C 
HETATM    2  C6  UNL     1      23.840 -25.230   1.965  1.00  0.00     0.147 C 
HETATM    3  O4  UNL     1      23.917 -24.548   2.974  1.00  0.00    -0.296 OA
HETATM    4  C7  UNL     1      22.573 -26.011   1.907  1.00  0.00     0.053 C 
HETATM    5  C8  UNL     1      21.475 -25.212   1.266  1.00  0.00     0.027 C 
HETATM    6  C9  UNL     1      22.088 -26.380   3.302  1.00  0.00     0.150 C 
HETATM    7  C12 UNL     1      23.163 -27.340   3.745  1.00  0.00     0.071 C 
HETATM    8  C13 UNL     1      23.415 -28.145   2.483  1.00  0.00     0.064 C 
HETATM    9  C14 UNL     1      22.798 -29.539   2.602  1.00  0.00     0.046 C 
HETATM   10  C15 UNL     1      22.792 -27.371   1.332  1.00  0.00     0.067 C 
HETATM   11  C16 UNL     1      23.654 -27.475   0.141  1.00  0.00     0.142 C 
HETATM   12  C19 UNL     1      23.685 -26.272  -0.769  1.00  0.00     0.065 C 
HETATM   13  C20 UNL     1      24.695 -25.246  -0.388  1.00  0.00     0.135 C 
ENDROOT
BRANCH   1  14
HETATM   14  C4  UNL     1      25.599 -23.722   1.264  1.00  0.00     0.231 C 
BRANCH  14  15
HETATM   15  C3  UNL     1      26.817 -23.525   0.481  1.00  0.00     0.288 C 
HETATM   16  O2  UNL     1      26.878 -22.582  -0.345  1.00  0.00    -0.262 OA
BRANCH  15  17
HETATM   17  O1  UNL     1      27.924 -24.348   0.614  1.00  0.00    -0.320 OA
BRANCH  17  18
HETATM   18  C2  UNL     1      28.380 -25.165  -0.458  1.00  0.00     0.174 C 
HETATM   19  C1  UNL     1      28.363 -26.626  -0.045  1.00  0.00     0.034 C 
ENDBRANCH  17  18
ENDBRANCH  15  17
ENDBRANCH  14  15
BRANCH  14  20
HETATM   20  O3  UNL     1      24.660 -22.729   1.042  1.00  0.00    -0.385 OA
ATOM     21  H3  UNL     1      23.775 -23.016   1.236  1.00  0.00     0.210 HD
ENDBRANCH  14  20
ENDBRANCH   1  14
BRANCH  13  22
HETATM   22  O10 UNL     1      24.351 -23.969  -0.884  1.00  0.00    -0.395 OA
ATOM     23  H10 UNL     1      23.477 -24.017  -1.253  1.00  0.00     0.210 HD
ENDBRANCH  13  22
BRANCH   6  24
HETATM   24  O5  UNL     1      21.931 -25.286   4.140  1.00  0.00    -0.315 OA
BRANCH  24  25
HETATM   25  C10 UNL     1      21.209 -25.412   5.312  1.00  0.00     0.255 C 
HETATM   26  C11 UNL     1      21.693 -24.779   6.567  1.00  0.00     0.126 C 
HETATM   27  O6  UNL     1      20.144 -26.075   5.260  1.00  0.00    -0.266 OA
ENDBRANCH  24  25
ENDBRANCH   6  24
BRANCH  11  28
HETATM   28  O8  UNL     1      23.148 -28.569  -0.645  1.00  0.00    -0.316 OA
BRANCH  28  29
HETATM   29  C17 UNL     1      22.008 -28.471  -1.405  1.00  0.00     0.255 C 
HETATM   30  C18 UNL     1      20.647 -28.311  -0.833  1.00  0.00     0.126 C 
HETATM   31  O9  UNL     1      22.097 -28.517  -2.650  1.00  0.00    -0.266 OA
ENDBRANCH  28  29
ENDBRANCH  11  28
BRANCH   8  32
HETATM   32  O7  UNL     1      24.773 -28.305   2.383  1.00  0.00    -0.390 OA
ATOM     33  H7  UNL     1      24.979 -28.309   1.456  1.00  0.00     0.210 HD
ENDBRANCH   8  32
TORSDOF 11
ENDMDL
MODEL 3
REMARK VINA RESULT: -6.810324664      1.456      1.595
REMARK  11 active torsions:
REMARK  status: ('A' for Active; 'I' for Inactive)
REMARK    1  A    between atoms: C2_2  and  O1_3 
REMARK    2  A    between atoms: O1_3  and  C3_4 
REMARK    3  A    between atoms: C3_4  and  C4_6 
REMARK    4  A    between atoms: C4_6  and  O3_7 
REMARK    5  A    between atoms: C4_6  and  C5_9 
REMARK    6  A    between atoms: C9_14  and  O5_15 
REMARK    7  A    between atoms: O5_15  and  C10_16 
REMARK    8  A    between atoms: C13_20  and  O7_22 
REMARK    9  A    between atoms: C16_25  and  O8_26 
REMARK   10  A    between atoms: O8_26  and  C17_27 
REMARK   11  A    between atoms: C20_31  and  O10_32 
ROOT
HETATM    1  C5  UNL     1      24.260 -25.208   1.673  1.00  0.00     0.123 C 
HETATM    2  C6  UNL     1      23.223 -25.586   2.638  1.00  0.00     0.147 C 
HETATM    3  O4  UNL     1      23.516 -25.379   3.803  1.00  0.00    -0.296 OA
HETATM    4  C7  UNL     1      21.864 -26.179   2.494  1.00  0.00     0.053 C 
HETATM    5  C8  UNL     1      20.814 -25.108   2.408  1.00  0.00     0.027 C 
HETATM    6  C9  UNL     1      21.509 -27.042   3.697  1.00  0.00     0.150 C 
HETATM    7  C12 UNL     1      22.489 -28.178   3.544  1.00  0.00     0.071 C 
HETATM    8  C13 UNL     1      22.470 -28.420   2.046  1.00  0.00     0.064 C 
HETATM    9  C14 UNL     1      21.688 -29.691   1.715  1.00  0.00     0.046 C 
HETATM   10  C15 UNL     1      21.822 -27.202   1.408  1.00  0.00     0.067 C 
HETATM   11  C16 UNL     1      22.508 -26.879   0.144  1.00  0.00     0.142 C 
HETATM   12  C19 UNL     1      22.590 -25.417  -0.219  1.00  0.00     0.065 C 
HETATM   13  C20 UNL     1      23.770 -24.713   0.356  1.00  0.00     0.135 C 
ENDROOT
BRANCH   1  14
HETATM   14  C4  UNL     1      25.071 -24.061   2.293  1.00  0.00     0.231 C 
BRANCH  14  15
HETATM   15  C3  UNL     1      26.171 -23.627   1.435  1.00  0.00     0.288 C 
HETATM   16  O2  UNL     1      26.357 -22.402   1.236  1.00  0.00    -0.262 OA
BRANCH  15  17
HETATM   17  O1  UNL     1      27.031 -24.524   0.822  1.00  0.00    -0.320 OA
BRANCH  17  18
HETATM   18  C2  UNL     1      28.329 -24.790   1.342  1.00  0.00     0.174 C 
HETATM   19  C1  UNL     1      28.722 -26.228   1.054  1.00  0.00     0.034 C 
ENDBRANCH  17  18
ENDBRANCH  15  17
ENDBRANCH  14  15
BRANCH  14  20
HETATM   20  O3  UNL     1      24.251 -23.013   2.675  1.00  0.00    -0.385 OA
ATOM     21  H3  UNL     1      23.329 -23.232   2.612  1.00  0.00     0.210 HD
ENDBRANCH  14  20
ENDBRANCH   1  14
BRANCH  13  22
HETATM   22  O10 UNL     1      23.545 -23.322   0.460  1.00  0.00    -0.395 OA
ATOM     23  H10 UNL     1      22.740 -23.185   0.945  1.00  0.00     0.210 HD
ENDBRANCH  13  22
BRANCH   6  24
HETATM   24  O5  UNL     1      21.607 -26.373   4.907  1.00  0.00    -0.315 OA
BRANCH  24  25
HETATM   25  C10 UNL     1      20.979 -26.879   6.029  1.00  0.00     0.255 C 
HETATM   26  C11 UNL     1      21.643 -26.816   7.358  1.00  0.00     0.126 C 
HETATM   27  O6  UNL     1      19.840 -27.384   5.869  1.00  0.00    -0.266 OA
ENDBRANCH  24  25
ENDBRANCH   6  24
BRANCH  11  28
HETATM   28  O8  UNL     1      21.764 -27.519  -0.908  1.00  0.00    -0.316 OA
BRANCH  28  29
HETATM   29  C17 UNL     1      22.300 -28.500  -1.706  1.00  0.00     0.255 C 
HETATM   30  C18 UNL     1      21.669 -28.978  -2.963  1.00  0.00     0.126 C 
HETATM   31  O9  UNL     1      23.379 -29.035  -1.375  1.00  0.00    -0.266 OA
ENDBRANCH  28  29
ENDBRANCH  11  28
BRANCH   8  32
HETATM   32  O7  UNL     1      23.771 -28.628   1.665  1.00  0.00    -0.390 OA
ATOM     33  H7  UNL     1      24.252 -27.844   1.903  1.00  0.00     0.210 HD
ENDBRANCH   8  32
TORSDOF 11
ENDMDL
MODEL 4
REMARK VINA RESULT: -6.548223954      1.155      1.316
REMARK  11 active torsions:
REMARK  status: ('A' for Active; 'I' for Inactive)
REMARK    1  A    between atoms: C2_2  and  O1_3 
REMARK    2  A    between atoms: O1_3  and  C3_4 
REMARK    3  A    between atoms: C3_4  and  C4_6 
REMARK    4  A    between atoms: C4_6  and  O3_7 
REMARK    5  A    between atoms: C4_6  and  C5_9 
REMARK    6  A    between atoms: C9_14  and  O5_15 
REMARK    7  A    between atoms: O5_15  and  C10_16 
REMARK    8  A    between atoms: C13_20  and  O7_22 
REMARK    9  A    between atoms: C16_25  and  O8_26 
REMARK   10  A    between atoms: O8_26  and  C17_27 
REMARK   11  A    between atoms: C20_31  and  O10_32 
ROOT
HETATM    1  C5  UNL     1      24.679 -25.970   0.379  1.00  0.00     0.123 C 
HETATM    2  C6  UNL     1      23.584 -25.865   1.348  1.00  0.00     0.147 C 
HETATM    3  O4  UNL     1      23.813 -25.128   2.293  1.00  0.00    -0.296 OA
HETATM    4  C7  UNL     1      22.228 -26.476   1.426  1.00  0.00     0.053 C 
HETATM    5  C8  UNL     1      21.198 -25.588   0.786  1.00  0.00     0.027 C 
HETATM    6  C9  UNL     1      21.795 -26.676   2.871  1.00  0.00     0.150 C 
HETATM    7  C12 UNL     1      22.767 -27.734   3.327  1.00  0.00     0.071 C 
HETATM    8  C13 UNL     1      22.830 -28.654   2.121  1.00  0.00     0.064 C 
HETATM    9  C14 UNL     1      22.052 -29.943   2.387  1.00  0.00     0.046 C 
HETATM   10  C15 UNL     1      22.234 -27.891   0.950  1.00  0.00     0.067 C 
HETATM   11  C16 UNL     1      22.995 -28.192  -0.276  1.00  0.00     0.142 C 
HETATM   12  C19 UNL     1      23.116 -27.073  -1.281  1.00  0.00     0.065 C 
HETATM   13  C20 UNL     1      24.271 -26.162  -1.041  1.00  0.00     0.135 C 
ENDROOT
BRANCH   1  14
HETATM   14  C4  UNL     1      25.468 -24.654   0.429  1.00  0.00     0.231 C 
BRANCH  14  15
HETATM   15  C3  UNL     1      26.629 -24.665  -0.458  1.00  0.00     0.288 C 
HETATM   16  O2  UNL     1      26.810 -23.714  -1.256  1.00  0.00    -0.262 OA
BRANCH  15  17
HETATM   17  O1  UNL     1      27.554 -25.697  -0.454  1.00  0.00    -0.320 OA
BRANCH  17  18
HETATM   18  C2  UNL     1      28.224 -26.096   0.736  1.00  0.00     0.174 C 
HETATM   19  C1  UNL     1      28.842 -24.889   1.418  1.00  0.00     0.034 C 
ENDBRANCH  17  18
ENDBRANCH  15  17
ENDBRANCH  14  15
BRANCH  14  20
HETATM   20  O3  UNL     1      24.644 -23.564   0.210  1.00  0.00    -0.385 OA
ATOM     21  H3  UNL     1      23.748 -23.818   0.024  1.00  0.00     0.210 HD
ENDBRANCH  14  20
ENDBRANCH   1  14
BRANCH  13  22
HETATM   22  O10 UNL     1      24.058 -24.890  -1.618  1.00  0.00    -0.395 OA
ATOM     23  H10 UNL     1      24.891 -24.564  -1.936  1.00  0.00     0.210 HD
ENDBRANCH  13  22
BRANCH   6  24
HETATM   24  O5  UNL     1      21.833 -25.514   3.626  1.00  0.00    -0.315 OA
BRANCH  24  25
HETATM   25  C10 UNL     1      21.234 -25.479   4.871  1.00  0.00     0.255 C 
HETATM   26  C11 UNL     1      21.969 -24.944   6.047  1.00  0.00     0.126 C 
HETATM   27  O6  UNL     1      20.058 -25.913   4.953  1.00  0.00    -0.266 OA
ENDBRANCH  24  25
ENDBRANCH   6  24
BRANCH  11  28
HETATM   28  O8  UNL     1      22.303 -29.264  -0.942  1.00  0.00    -0.316 OA
BRANCH  28  29
HETATM   29  C17 UNL     1      22.929 -30.423  -1.330  1.00  0.00     0.255 C 
HETATM   30  C18 UNL     1      22.671 -31.107  -2.623  1.00  0.00     0.126 C 
HETATM   31  O9  UNL     1      23.766 -30.950  -0.568  1.00  0.00    -0.266 OA
ENDBRANCH  28  29
ENDBRANCH  11  28
BRANCH   8  32
HETATM   32  O7  UNL     1      24.148 -28.997   1.958  1.00  0.00    -0.390 OA
ATOM     33  H7  UNL     1      24.172 -29.941   1.856  1.00  0.00     0.210 HD
ENDBRANCH   8  32
TORSDOF 11
ENDMDL
MODEL 5
REMARK VINA RESULT: -6.393906142      1.598      6.283
REMARK  11 active torsions:
REMARK  status: ('A' for Active; 'I' for Inactive)
REMARK    1  A    between atoms: C2_2  and  O1_3 
REMARK    2  A    between atoms: O1_3  and  C3_4 
REMARK    3  A    between atoms: C3_4  and  C4_6 
REMARK    4  A    between atoms: C4_6  and  O3_7 
REMARK    5  A    between atoms: C4_6  and  C5_9 
REMARK    6  A    between atoms: C9_14  and  O5_15 
REMARK    7  A    between atoms: O5_15  and  C10_16 
REMARK    8  A    between atoms: C13_20  and  O7_22 
REMARK    9  A    between atoms: C16_25  and  O8_26 
REMARK   10  A    between atoms: O8_26  and  C17_27 
REMARK   11  A    between atoms: C20_31  and  O10_32 
ROOT
HETATM    1  C5  UNL     1      22.644 -26.223   1.779  1.00  0.00     0.123 C 
HETATM    2  C6  UNL     1      23.175 -27.267   0.897  1.00  0.00     0.147 C 
HETATM    3  O4  UNL     1      23.040 -28.403   1.320  1.00  0.00    -0.296 OA
HETATM    4  C7  UNL     1      23.854 -27.235  -0.428  1.00  0.00     0.053 C 
HETATM    5  C8  UNL     1      22.862 -27.369  -1.547  1.00  0.00     0.027 C 
HETATM    6  C9  UNL     1      24.835 -28.390  -0.573  1.00  0.00     0.150 C 
HETATM    7  C12 UNL     1      25.878 -28.022   0.452  1.00  0.00     0.071 C 
HETATM    8  C13 UNL     1      26.001 -26.521   0.262  1.00  0.00     0.064 C 
HETATM    9  C14 UNL     1      27.297 -26.176  -0.472  1.00  0.00     0.046 C 
HETATM   10  C15 UNL     1      24.788 -26.076  -0.539  1.00  0.00     0.067 C 
HETATM   11  C16 UNL     1      24.315 -24.772  -0.038  1.00  0.00     0.142 C 
HETATM   12  C19 UNL     1      22.827 -24.532  -0.096  1.00  0.00     0.065 C 
HETATM   13  C20 UNL     1      22.084 -25.023   1.098  1.00  0.00     0.135 C 
ENDROOT
BRANCH   1  14
HETATM   14  C4  UNL     1      21.493 -26.841   2.586  1.00  0.00     0.231 C 
BRANCH  14  15
HETATM   15  C3  UNL     1      20.965 -25.926   3.596  1.00  0.00     0.288 C 
HETATM   16  O2  UNL     1      19.783 -25.516   3.504  1.00  0.00    -0.262 OA
BRANCH  15  17
HETATM   17  O1  UNL     1      21.726 -25.487   4.667  1.00  0.00    -0.320 OA
BRANCH  17  18
HETATM   18  C2  UNL     1      21.125 -25.048   5.880  1.00  0.00     0.174 C 
HETATM   19  C1  UNL     1      21.619 -25.891   7.043  1.00  0.00     0.034 C 
ENDBRANCH  17  18
ENDBRANCH  15  17
ENDBRANCH  14  15
BRANCH  14  20
HETATM   20  O3  UNL     1      20.506 -27.339   1.753  1.00  0.00    -0.385 OA
ATOM     21  H3  UNL     1      20.798 -28.091   1.252  1.00  0.00     0.210 HD
ENDBRANCH  14  20
ENDBRANCH   1  14
BRANCH  13  22
HETATM   22  O10 UNL     1      20.727 -25.274   0.799  1.00  0.00    -0.395 OA
ATOM     23  H10 UNL     1      20.390 -24.540   0.298  1.00  0.00     0.210 HD
ENDBRANCH  13  22
BRANCH   6  24
HETATM   24  O5  UNL     1      24.259 -29.634  -0.368  1.00  0.00    -0.315 OA
BRANCH  24  25
HETATM   25  C10 UNL     1      24.380 -30.619  -1.330  1.00  0.00     0.255 C 
HETATM   26  C11 UNL     1      25.723 -31.064  -1.788  1.00  0.00     0.126 C 
HETATM   27  O6  UNL     1      23.317 -31.108  -1.786  1.00  0.00    -0.266 OA
ENDBRANCH  24  25
ENDBRANCH   6  24
BRANCH  11  28
HETATM   28  O8  UNL     1      24.924 -23.763  -0.865  1.00  0.00    -0.316 OA
BRANCH  28  29
HETATM   29  C17 UNL     1      25.955 -22.968  -0.428  1.00  0.00     0.255 C 
HETATM   30  C18 UNL     1      26.260 -22.726   1.005  1.00  0.00     0.126 C 
HETATM   31  O9  UNL     1      26.691 -22.406  -1.266  1.00  0.00    -0.266 OA
ENDBRANCH  28  29
ENDBRANCH  11  28
BRANCH   8  32
HETATM   32  O7  UNL     1      26.080 -25.972   1.516  1.00  0.00    -0.390 OA
ATOM     33  H7  UNL     1      27.005 -25.876   1.712  1.00  0.00     0.210 HD
ENDBRANCH   8  32
TORSDOF 11
ENDMDL
