MODEL 1
REMARK VINA RESULT: -8.876903105      0.000      0.000
REMARK  7 active torsions:
REMARK  status: ('A' for Active; 'I' for Inactive)
REMARK    1  A    between atoms: C2_2  and  O2_4 
REMARK    2  A    between atoms: O2_4  and  C3_5 
REMARK    3  A    between atoms: C4_6  and  O3_7 
REMARK    4  A    between atoms: C6_10  and  N1_11 
REMARK       I    between atoms: N1_11  and  C7_13 
REMARK    5  A    between atoms: C7_13  and  C8_15 
REMARK    6  A    between atoms: C11_20  and  C12_21 
REMARK    7  A    between atoms: C15_24  and  O7_25 
ROOT
HETATM    1  N1  UNL     1      21.944 -23.927   6.882  1.00  0.00    -0.334 N 
ATOM      2  H1  UNL     1      22.960 -23.906   6.799  1.00  0.00     0.165 HD
HETATM    3  C7  UNL     1      21.292 -22.947   7.671  1.00  0.00     0.228 C 
HETATM    4  O4  UNL     1      20.050 -22.974   7.770  1.00  0.00    -0.273 OA
ENDROOT
BRANCH   3   5
HETATM    5  C8  UNL     1      22.037 -21.890   8.383  1.00  0.00     0.135 C 
HETATM    6  C9  UNL     1      23.084 -22.525   9.246  1.00  0.00     0.188 C 
HETATM    7  O5  UNL     1      23.036 -21.956  10.495  1.00  0.00    -0.358 OA
HETATM    8  C10 UNL     1      21.775 -21.454  10.702  1.00  0.00     0.293 C 
HETATM    9  O6  UNL     1      21.936 -20.161  11.252  1.00  0.00    -0.325 OA
HETATM   10  C18 UNL     1      21.194 -21.124   9.348  1.00  0.00     0.195 C 
HETATM   11  C11 UNL     1      22.368 -19.464  10.109  1.00  0.00     0.298 C 
HETATM   12  O8  UNL     1      21.417 -19.761   9.156  1.00  0.00    -0.346 OA
BRANCH  11  13
HETATM   13  C12 UNL     1      22.432 -18.012  10.364  1.00  0.00    -0.004 A 
HETATM   14  C13 UNL     1      22.575 -17.494  11.635  1.00  0.00     0.015 A 
HETATM   15  C14 UNL     1      22.634 -16.123  11.868  1.00  0.00     0.037 A 
HETATM   16  C15 UNL     1      22.550 -15.242  10.817  1.00  0.00     0.065 A 
HETATM   17  C16 UNL     1      22.407 -15.748   9.544  1.00  0.00     0.037 A 
HETATM   18  C17 UNL     1      22.349 -17.111   9.322  1.00  0.00     0.015 A 
BRANCH  16  19
HETATM   19  O7  UNL     1      22.612 -13.872  11.073  1.00  0.00    -0.361 OA
ATOM     20  H7  UNL     1      22.450 -13.262  10.363  1.00  0.00     0.217 HD
ENDBRANCH  16  19
ENDBRANCH  11  13
ENDBRANCH   3   5
BRANCH   1  21
HETATM   21  C6  UNL     1      21.194 -24.956   6.191  1.00  0.00     0.226 C 
HETATM   22  C5  UNL     1      21.138 -26.239   6.914  1.00  0.00     0.088 C 
HETATM   23  C4  UNL     1      21.487 -27.481   6.200  1.00  0.00     0.154 C 
HETATM   24  C3  UNL     1      21.652 -27.283   4.709  1.00  0.00     0.189 C 
HETATM   25  C19 UNL     1      22.494 -26.006   4.576  1.00  0.00     0.152 C 
HETATM   26  O9  UNL     1      21.653 -24.974   4.891  1.00  0.00    -0.359 OA
HETATM   27  C20 UNL     1      23.036 -25.844   3.197  1.00  0.00     0.042 C 
BRANCH  23  28
HETATM   28  O3  UNL     1      22.685 -28.059   6.649  1.00  0.00    -0.393 OA
ATOM     29  H3  UNL     1      23.261 -27.335   6.864  1.00  0.00     0.210 HD
ENDBRANCH  23  28
BRANCH  24  30
HETATM   30  O2  UNL     1      20.365 -27.040   4.171  1.00  0.00    -0.311 OA
BRANCH  30  31
HETATM   31  C2  UNL     1      19.940 -27.673   2.993  1.00  0.00     0.255 C 
HETATM   32  C1  UNL     1      20.632 -28.822   2.393  1.00  0.00     0.126 C 
HETATM   33  O1  UNL     1      18.899 -27.183   2.463  1.00  0.00    -0.266 OA
ENDBRANCH  30  31
ENDBRANCH  24  30
ENDBRANCH   1  21
TORSDOF 7
ENDMDL
MODEL 2
REMARK VINA RESULT: -8.420627609      2.074      3.236
REMARK  7 active torsions:
REMARK  status: ('A' for Active; 'I' for Inactive)
REMARK    1  A    between atoms: C2_2  and  O2_4 
REMARK    2  A    between atoms: O2_4  and  C3_5 
REMARK    3  A    between atoms: C4_6  and  O3_7 
REMARK    4  A    between atoms: C6_10  and  N1_11 
REMARK       I    between atoms: N1_11  and  C7_13 
REMARK    5  A    between atoms: C7_13  and  C8_15 
REMARK    6  A    between atoms: C11_20  and  C12_21 
REMARK    7  A    between atoms: C15_24  and  O7_25 
ROOT
HETATM    1  N1  UNL     1      21.301 -24.954   7.820  1.00  0.00    -0.334 N 
ATOM      2  H1  UNL     1      20.601 -25.046   8.556  1.00  0.00     0.165 HD
HETATM    3  C7  UNL     1      21.835 -23.675   7.525  1.00  0.00     0.228 C 
HETATM    4  O4  UNL     1      22.690 -23.565   6.626  1.00  0.00    -0.273 OA
ENDROOT
BRANCH   3   5
HETATM    5  C8  UNL     1      21.411 -22.461   8.252  1.00  0.00     0.135 C 
HETATM    6  C9  UNL     1      19.963 -22.202   7.969  1.00  0.00     0.188 C 
HETATM    7  O5  UNL     1      19.803 -20.873   7.660  1.00  0.00    -0.358 OA
HETATM    8  C10 UNL     1      20.992 -20.386   7.180  1.00  0.00     0.293 C 
HETATM    9  O6  UNL     1      21.213 -19.144   7.821  1.00  0.00    -0.325 OA
HETATM   10  C18 UNL     1      22.097 -21.223   7.779  1.00  0.00     0.195 C 
HETATM   11  C11 UNL     1      21.554 -19.595   9.109  1.00  0.00     0.298 C 
HETATM   12  O8  UNL     1      22.558 -20.513   8.888  1.00  0.00    -0.346 OA
BRANCH  11  13
HETATM   13  C12 UNL     1      22.028 -18.481   9.954  1.00  0.00    -0.004 A 
HETATM   14  C13 UNL     1      22.246 -18.627  11.309  1.00  0.00     0.015 A 
HETATM   15  C14 UNL     1      22.693 -17.572  12.100  1.00  0.00     0.037 A 
HETATM   16  C15 UNL     1      22.931 -16.342  11.535  1.00  0.00     0.065 A 
HETATM   17  C16 UNL     1      22.718 -16.185  10.183  1.00  0.00     0.037 A 
HETATM   18  C17 UNL     1      22.273 -17.239   9.406  1.00  0.00     0.015 A 
BRANCH  16  19
HETATM   19  O7  UNL     1      23.379 -15.299  12.345  1.00  0.00    -0.361 OA
ATOM     20  H7  UNL     1      23.841 -15.504  13.150  1.00  0.00     0.217 HD
ENDBRANCH  16  19
ENDBRANCH  11  13
ENDBRANCH   3   5
BRANCH   1  21
HETATM   21  C6  UNL     1      21.730 -26.133   7.094  1.00  0.00     0.226 C 
HETATM   22  C5  UNL     1      20.736 -26.632   6.128  1.00  0.00     0.088 C 
HETATM   23  C4  UNL     1      20.370 -28.060   6.149  1.00  0.00     0.154 C 
HETATM   24  C3  UNL     1      21.258 -28.889   7.052  1.00  0.00     0.189 C 
HETATM   25  C19 UNL     1      21.382 -28.063   8.340  1.00  0.00     0.152 C 
HETATM   26  O9  UNL     1      22.212 -27.020   8.033  1.00  0.00    -0.359 OA
HETATM   27  C20 UNL     1      21.941 -28.871   9.461  1.00  0.00     0.042 C 
BRANCH  23  28
HETATM   28  O3  UNL     1      19.055 -28.287   6.585  1.00  0.00    -0.393 OA
ATOM     29  H3  UNL     1      19.047 -28.081   7.512  1.00  0.00     0.210 HD
ENDBRANCH  23  28
BRANCH  24  30
HETATM   30  O2  UNL     1      22.530 -28.967   6.435  1.00  0.00    -0.311 OA
BRANCH  30  31
HETATM   31  C2  UNL     1      23.132 -30.207   6.170  1.00  0.00     0.255 C 
HETATM   32  C1  UNL     1      22.764 -31.061   5.032  1.00  0.00     0.126 C 
HETATM   33  O1  UNL     1      24.033 -30.555   6.989  1.00  0.00    -0.266 OA
ENDBRANCH  30  31
ENDBRANCH  24  30
ENDBRANCH   1  21
TORSDOF 7
ENDMDL
MODEL 3
REMARK VINA RESULT: -8.347166672      1.897      2.589
REMARK  7 active torsions:
REMARK  status: ('A' for Active; 'I' for Inactive)
REMARK    1  A    between atoms: C2_2  and  O2_4 
REMARK    2  A    between atoms: O2_4  and  C3_5 
REMARK    3  A    between atoms: C4_6  and  O3_7 
REMARK    4  A    between atoms: C6_10  and  N1_11 
REMARK       I    between atoms: N1_11  and  C7_13 
REMARK    5  A    between atoms: C7_13  and  C8_15 
REMARK    6  A    between atoms: C11_20  and  C12_21 
REMARK    7  A    between atoms: C15_24  and  O7_25 
ROOT
HETATM    1  N1  UNL     1      21.930 -24.803   5.308  1.00  0.00    -0.334 N 
ATOM      2  H1  UNL     1      22.490 -24.013   4.987  1.00  0.00     0.165 HD
HETATM    3  C7  UNL     1      21.537 -24.870   6.668  1.00  0.00     0.228 C 
HETATM    4  O4  UNL     1      20.853 -25.835   7.057  1.00  0.00    -0.273 OA
ENDROOT
BRANCH   3   5
HETATM    5  C8  UNL     1      21.912 -23.828   7.645  1.00  0.00     0.135 C 
HETATM    6  C9  UNL     1      21.856 -24.408   9.025  1.00  0.00     0.188 C 
HETATM    7  O5  UNL     1      21.182 -23.538   9.846  1.00  0.00    -0.358 OA
HETATM    8  C10 UNL     1      20.344 -22.768   9.078  1.00  0.00     0.293 C 
HETATM    9  O6  UNL     1      20.502 -21.433   9.516  1.00  0.00    -0.325 OA
HETATM   10  C18 UNL     1      20.944 -22.693   7.694  1.00  0.00     0.195 C 
HETATM   11  C11 UNL     1      21.771 -21.150   8.978  1.00  0.00     0.298 C 
HETATM   12  O8  UNL     1      21.656 -21.494   7.649  1.00  0.00    -0.346 OA
BRANCH  11  13
HETATM   13  C12 UNL     1      22.107 -19.721   9.132  1.00  0.00    -0.004 A 
HETATM   14  C13 UNL     1      22.216 -19.119  10.369  1.00  0.00     0.015 A 
HETATM   15  C14 UNL     1      22.533 -17.771  10.506  1.00  0.00     0.037 A 
HETATM   16  C15 UNL     1      22.749 -16.998   9.390  1.00  0.00     0.065 A 
HETATM   17  C16 UNL     1      22.644 -17.588   8.150  1.00  0.00     0.037 A 
HETATM   18  C17 UNL     1      22.327 -18.928   8.023  1.00  0.00     0.015 A 
BRANCH  16  19
HETATM   19  O7  UNL     1      23.067 -15.650   9.550  1.00  0.00    -0.361 OA
ATOM     20  H7  UNL     1      22.370 -15.029   9.730  1.00  0.00     0.217 HD
ENDBRANCH  16  19
ENDBRANCH  11  13
ENDBRANCH   3   5
BRANCH   1  21
HETATM   21  C6  UNL     1      21.552 -25.836   4.365  1.00  0.00     0.226 C 
HETATM   22  C5  UNL     1      22.613 -26.827   4.109  1.00  0.00     0.088 C 
HETATM   23  C4  UNL     1      22.973 -27.150   2.717  1.00  0.00     0.154 C 
HETATM   24  C3  UNL     1      22.019 -26.555   1.703  1.00  0.00     0.189 C 
HETATM   25  C19 UNL     1      21.804 -25.109   2.172  1.00  0.00     0.152 C 
HETATM   26  O9  UNL     1      21.001 -25.195   3.276  1.00  0.00    -0.359 OA
HETATM   27  C20 UNL     1      21.163 -24.277   1.115  1.00  0.00     0.042 C 
BRANCH  23  28
HETATM   28  O3  UNL     1      24.252 -26.697   2.357  1.00  0.00    -0.393 OA
ATOM     29  H3  UNL     1      24.224 -26.551   1.419  1.00  0.00     0.210 HD
ENDBRANCH  23  28
BRANCH  24  30
HETATM   30  O2  UNL     1      20.795 -27.259   1.813  1.00  0.00    -0.311 OA
BRANCH  30  31
HETATM   31  C2  UNL     1      19.998 -27.507   0.685  1.00  0.00     0.255 C 
HETATM   32  C1  UNL     1      20.509 -28.112  -0.553  1.00  0.00     0.126 C 
HETATM   33  O1  UNL     1      18.782 -27.171   0.799  1.00  0.00    -0.266 OA
ENDBRANCH  30  31
ENDBRANCH  24  30
ENDBRANCH   1  21
TORSDOF 7
ENDMDL
MODEL 4
REMARK VINA RESULT: -8.320444439      2.060      3.121
REMARK  7 active torsions:
REMARK  status: ('A' for Active; 'I' for Inactive)
REMARK    1  A    between atoms: C2_2  and  O2_4 
REMARK    2  A    between atoms: O2_4  and  C3_5 
REMARK    3  A    between atoms: C4_6  and  O3_7 
REMARK    4  A    between atoms: C6_10  and  N1_11 
REMARK       I    between atoms: N1_11  and  C7_13 
REMARK    5  A    between atoms: C7_13  and  C8_15 
REMARK    6  A    between atoms: C11_20  and  C12_21 
REMARK    7  A    between atoms: C15_24  and  O7_25 
ROOT
HETATM    1  N1  UNL     1      22.310 -24.899   4.890  1.00  0.00    -0.334 N 
ATOM      2  H1  UNL     1      23.107 -24.279   4.743  1.00  0.00     0.165 HD
HETATM    3  C7  UNL     1      21.573 -24.807   6.097  1.00  0.00     0.228 C 
HETATM    4  O4  UNL     1      20.600 -25.565   6.274  1.00  0.00    -0.273 OA
ENDROOT
BRANCH   3   5
HETATM    5  C8  UNL     1      21.920 -23.840   7.157  1.00  0.00     0.135 C 
HETATM    6  C9  UNL     1      21.786 -24.507   8.491  1.00  0.00     0.188 C 
HETATM    7  O5  UNL     1      21.088 -23.677   9.335  1.00  0.00    -0.358 OA
HETATM    8  C10 UNL     1      20.305 -22.840   8.581  1.00  0.00     0.293 C 
HETATM    9  O6  UNL     1      20.466 -21.540   9.113  1.00  0.00    -0.325 OA
HETATM   10  C18 UNL     1      20.973 -22.689   7.235  1.00  0.00     0.195 C 
HETATM   11  C11 UNL     1      21.765 -21.251   8.656  1.00  0.00     0.298 C 
HETATM   12  O8  UNL     1      21.709 -21.505   7.302  1.00  0.00    -0.346 OA
BRANCH  11  13
HETATM   13  C12 UNL     1      22.121 -19.843   8.918  1.00  0.00    -0.004 A 
HETATM   14  C13 UNL     1      22.409 -18.955   7.902  1.00  0.00     0.015 A 
HETATM   15  C14 UNL     1      22.744 -17.628   8.158  1.00  0.00     0.037 A 
HETATM   16  C15 UNL     1      22.794 -17.168   9.452  1.00  0.00     0.065 A 
HETATM   17  C16 UNL     1      22.508 -18.046  10.474  1.00  0.00     0.037 A 
HETATM   18  C17 UNL     1      22.177 -19.363  10.211  1.00  0.00     0.015 A 
BRANCH  16  19
HETATM   19  O7  UNL     1      23.131 -15.836   9.685  1.00  0.00    -0.361 OA
ATOM     20  H7  UNL     1      23.857 -15.637  10.265  1.00  0.00     0.217 HD
ENDBRANCH  16  19
ENDBRANCH  11  13
ENDBRANCH   3   5
BRANCH   1  21
HETATM   21  C6  UNL     1      21.954 -25.855   3.862  1.00  0.00     0.226 C 
HETATM   22  C5  UNL     1      23.062 -26.741   3.462  1.00  0.00     0.088 C 
HETATM   23  C4  UNL     1      23.374 -26.897   2.030  1.00  0.00     0.154 C 
HETATM   24  C3  UNL     1      22.338 -26.271   1.123  1.00  0.00     0.189 C 
HETATM   25  C19 UNL     1      22.053 -24.897   1.747  1.00  0.00     0.152 C 
HETATM   26  O9  UNL     1      21.311 -25.147   2.869  1.00  0.00    -0.359 OA
HETATM   27  C20 UNL     1      21.310 -24.009   0.809  1.00  0.00     0.042 C 
BRANCH  23  28
HETATM   28  O3  UNL     1      24.604 -26.324   1.667  1.00  0.00    -0.393 OA
ATOM     29  H3  UNL     1      25.204 -26.520   2.377  1.00  0.00     0.210 HD
ENDBRANCH  23  28
BRANCH  24  30
HETATM   30  O2  UNL     1      21.168 -27.064   1.210  1.00  0.00    -0.311 OA
BRANCH  30  31
HETATM   31  C2  UNL     1      20.943 -28.125   0.320  1.00  0.00     0.255 C 
HETATM   32  C1  UNL     1      21.489 -28.171  -1.043  1.00  0.00     0.126 C 
HETATM   33  O1  UNL     1      20.225 -29.065   0.773  1.00  0.00    -0.266 OA
ENDBRANCH  30  31
ENDBRANCH  24  30
ENDBRANCH   1  21
TORSDOF 7
ENDMDL
MODEL 5
REMARK VINA RESULT: -8.106183260      2.406     10.412
REMARK  7 active torsions:
REMARK  status: ('A' for Active; 'I' for Inactive)
REMARK    1  A    between atoms: C2_2  and  O2_4 
REMARK    2  A    between atoms: O2_4  and  C3_5 
REMARK    3  A    between atoms: C4_6  and  O3_7 
REMARK    4  A    between atoms: C6_10  and  N1_11 
REMARK       I    between atoms: N1_11  and  C7_13 
REMARK    5  A    between atoms: C7_13  and  C8_15 
REMARK    6  A    between atoms: C11_20  and  C12_21 
REMARK    7  A    between atoms: C15_24  and  O7_25 
ROOT
HETATM    1  N1  UNL     1      21.187 -23.830   6.578  1.00  0.00    -0.334 N 
ATOM      2  H1  UNL     1      20.925 -23.415   5.684  1.00  0.00     0.165 HD
HETATM    3  C7  UNL     1      21.329 -25.237   6.676  1.00  0.00     0.228 C 
HETATM    4  O4  UNL     1      21.650 -25.741   7.769  1.00  0.00    -0.273 OA
ENDROOT
BRANCH   3   5
HETATM    5  C8  UNL     1      21.110 -26.130   5.521  1.00  0.00     0.135 C 
HETATM    6  C9  UNL     1      20.505 -27.413   6.002  1.00  0.00     0.188 C 
HETATM    7  O5  UNL     1      21.177 -28.464   5.427  1.00  0.00    -0.358 OA
HETATM    8  C10 UNL     1      22.441 -28.048   5.092  1.00  0.00     0.293 C 
HETATM    9  O6  UNL     1      22.692 -28.518   3.782  1.00  0.00    -0.325 OA
HETATM   10  C18 UNL     1      22.378 -26.557   4.859  1.00  0.00     0.195 C 
HETATM   11  C11 UNL     1      21.868 -27.643   3.050  1.00  0.00     0.298 C 
HETATM   12  O8  UNL     1      22.244 -26.389   3.481  1.00  0.00    -0.346 OA
BRANCH  11  13
HETATM   13  C12 UNL     1      22.088 -27.795   1.598  1.00  0.00    -0.004 A 
HETATM   14  C13 UNL     1      23.337 -28.043   1.065  1.00  0.00     0.015 A 
HETATM   15  C14 UNL     1      23.537 -28.185  -0.305  1.00  0.00     0.037 A 
HETATM   16  C15 UNL     1      22.474 -28.081  -1.170  1.00  0.00     0.065 A 
HETATM   17  C16 UNL     1      21.223 -27.834  -0.649  1.00  0.00     0.037 A 
HETATM   18  C17 UNL     1      21.034 -27.693   0.713  1.00  0.00     0.015 A 
BRANCH  16  19
HETATM   19  O7  UNL     1      22.696 -28.227  -2.539  1.00  0.00    -0.361 OA
ATOM     20  H7  UNL     1      22.757 -27.451  -3.083  1.00  0.00     0.217 HD
ENDBRANCH  16  19
ENDBRANCH  11  13
ENDBRANCH   3   5
BRANCH   1  21
HETATM   21  C6  UNL     1      21.407 -22.971   7.724  1.00  0.00     0.226 C 
HETATM   22  C5  UNL     1      20.176 -22.352   8.249  1.00  0.00     0.088 C 
HETATM   23  C4  UNL     1      20.148 -20.897   8.481  1.00  0.00     0.154 C 
HETATM   24  C3  UNL     1      21.508 -20.246   8.346  1.00  0.00     0.189 C 
HETATM   25  C19 UNL     1      22.105 -20.853   7.069  1.00  0.00     0.152 C 
HETATM   26  O9  UNL     1      22.453 -22.135   7.396  1.00  0.00    -0.359 OA
HETATM   27  C20 UNL     1      23.293 -20.087   6.597  1.00  0.00     0.042 C 
BRANCH  23  28
HETATM   28  O3  UNL     1      19.301 -20.212   7.595  1.00  0.00    -0.393 OA
ATOM     29  H3  UNL     1      19.681 -19.349   7.484  1.00  0.00     0.210 HD
ENDBRANCH  23  28
BRANCH  24  30
HETATM   30  O2  UNL     1      22.285 -20.660   9.455  1.00  0.00    -0.311 OA
BRANCH  30  31
HETATM   31  C2  UNL     1      22.609 -19.766  10.486  1.00  0.00     0.255 C 
HETATM   32  C1  UNL     1      22.890 -20.184  11.867  1.00  0.00     0.126 C 
HETATM   33  O1  UNL     1      22.647 -18.545  10.150  1.00  0.00    -0.266 OA
ENDBRANCH  30  31
ENDBRANCH  24  30
ENDBRANCH   1  21
TORSDOF 7
ENDMDL
