MODEL 1
REMARK VINA RESULT: -8.379629117      0.000      0.000
REMARK  9 active torsions:
REMARK  status: ('A' for Active; 'I' for Inactive)
REMARK    1  A    between atoms: N1_1  and  S1_4 
REMARK    2  A    between atoms: S1_4  and  C1_7 
REMARK    3  A    between atoms: C5_11  and  N2_12 
REMARK    4  A    between atoms: N2_12  and  C6_14 
REMARK    5  A    between atoms: C6_14  and  N3_16 
REMARK    6  A    between atoms: N3_16  and  N4_18 
REMARK    7  A    between atoms: C7_20  and  C8_21 
REMARK    8  A    between atoms: C10_25  and  N6_26 
REMARK    9  A    between atoms: C12_30  and  N7_31 
ROOT
HETATM    1  N3  UNL     1      22.123 -25.097   5.385  1.00  0.00    -0.276 N 
ATOM      2  H3  UNL     1      21.415 -25.737   5.745  1.00  0.00     0.189 HD
ENDROOT
BRANCH   1   3
HETATM    3  C6  UNL     1      22.876 -25.462   4.206  1.00  0.00     0.191 C 
HETATM    4  S2  UNL     1      22.978 -27.036   3.875  1.00  0.00    -0.039 SA
BRANCH   3   5
HETATM    5  N2  UNL     1      23.491 -24.483   3.441  1.00  0.00    -0.332 N 
ATOM      6  H2  UNL     1      23.912 -23.714   3.962  1.00  0.00     0.168 HD
BRANCH   5   7
HETATM    7  C5  UNL     1      23.608 -24.411   2.044  1.00  0.00     0.035 A 
HETATM    8  C4  UNL     1      22.563 -24.612   1.181  1.00  0.00     0.029 A 
HETATM    9  C3  UNL     1      22.842 -24.538  -0.191  1.00  0.00     0.004 A 
HETATM   10  C2  UNL     1      24.108 -24.276  -0.658  1.00  0.00     0.025 A 
HETATM   11  C1  UNL     1      25.163 -24.072   0.201  1.00  0.00     0.081 A 
HETATM   12  C13 UNL     1      24.899 -24.143   1.541  1.00  0.00     0.054 A 
BRANCH  11  13
HETATM   13  S1  UNL     1      26.784 -23.736  -0.394  1.00  0.00     0.256 S 
HETATM   14  O1  UNL     1      26.828 -24.300  -1.805  1.00  0.00    -0.201 OA
HETATM   15  O2  UNL     1      27.791 -24.445   0.448  1.00  0.00    -0.201 OA
BRANCH  13  16
HETATM   16  N1  UNL     1      27.095 -22.055  -0.415  1.00  0.00    -0.324 N 
ATOM     17  H12 UNL     1      26.398 -21.349  -0.654  1.00  0.00     0.169 HD
ATOM     18  H11 UNL     1      28.064 -21.869  -0.157  1.00  0.00     0.169 HD
ENDBRANCH  13  16
ENDBRANCH  11  13
ENDBRANCH   5   7
ENDBRANCH   3   5
ENDBRANCH   1   3
BRANCH   1  19
HETATM   19  N4  UNL     1      22.347 -23.892   6.036  1.00  0.00    -0.307 N 
HETATM   20  C7  UNL     1      21.877 -23.707   7.235  1.00  0.00     0.139 C 
ATOM     21  H4  UNL     1      22.879 -23.154   5.576  1.00  0.00     0.186 HD
BRANCH  20  22
HETATM   22  C8  UNL     1      22.119 -22.443   7.906  1.00  0.00     0.082 A 
HETATM   23  N5  UNL     1      22.167 -21.335   7.122  1.00  0.00    -0.360 N 
HETATM   24  C9  UNL     1      22.342 -20.100   7.589  1.00  0.00     0.124 A 
ATOM     25  H5  UNL     1      22.062 -21.456   6.114  1.00  0.00     0.165 HD
HETATM   26  C10 UNL     1      22.485 -19.962   8.954  1.00  0.00     0.120 A 
HETATM   27  C11 UNL     1      22.445 -21.048   9.785  1.00  0.00     0.075 A 
HETATM   28  C12 UNL     1      22.257 -22.344   9.265  1.00  0.00     0.133 A 
BRANCH  26  29
HETATM   29  N6  UNL     1      22.676 -18.652   9.494  1.00  0.00    -0.114 N 
HETATM   30  O3  UNL     1      22.365 -18.402  10.663  1.00  0.00    -0.532 OA
HETATM   31  O4  UNL     1      23.209 -17.661   8.707  1.00  0.00    -0.532 OA
ENDBRANCH  26  29
BRANCH  28  32
HETATM   32  N7  UNL     1      22.221 -23.424  10.160  1.00  0.00    -0.113 N 
HETATM   33  O5  UNL     1      21.081 -23.766  10.597  1.00  0.00    -0.532 OA
HETATM   34  O6  UNL     1      23.312 -24.094  10.561  1.00  0.00    -0.532 OA
ENDBRANCH  28  32
ENDBRANCH  20  22
ENDBRANCH   1  19
TORSDOF 9
ENDMDL
MODEL 2
REMARK VINA RESULT: -8.252559718      5.231      9.236
REMARK  9 active torsions:
REMARK  status: ('A' for Active; 'I' for Inactive)
REMARK    1  A    between atoms: N1_1  and  S1_4 
REMARK    2  A    between atoms: S1_4  and  C1_7 
REMARK    3  A    between atoms: C5_11  and  N2_12 
REMARK    4  A    between atoms: N2_12  and  C6_14 
REMARK    5  A    between atoms: C6_14  and  N3_16 
REMARK    6  A    between atoms: N3_16  and  N4_18 
REMARK    7  A    between atoms: C7_20  and  C8_21 
REMARK    8  A    between atoms: C10_25  and  N6_26 
REMARK    9  A    between atoms: C12_30  and  N7_31 
ROOT
HETATM    1  N3  UNL     1      21.262 -19.127   7.040  1.00  0.00    -0.276 N 
ATOM      2  H3  UNL     1      20.338 -18.745   7.238  1.00  0.00     0.189 HD
ENDROOT
BRANCH   1   3
HETATM    3  C6  UNL     1      22.401 -18.238   6.982  1.00  0.00     0.191 C 
HETATM    4  S2  UNL     1      23.490 -18.536   5.834  1.00  0.00    -0.039 SA
BRANCH   3   5
HETATM    5  N2  UNL     1      22.529 -17.211   7.905  1.00  0.00    -0.332 N 
ATOM      6  H2  UNL     1      22.613 -16.272   7.515  1.00  0.00     0.168 HD
BRANCH   5   7
HETATM    7  C5  UNL     1      22.558 -17.295   9.307  1.00  0.00     0.035 A 
HETATM    8  C4  UNL     1      22.822 -16.231  10.128  1.00  0.00     0.029 A 
HETATM    9  C3  UNL     1      22.847 -16.476  11.507  1.00  0.00     0.004 A 
HETATM   10  C2  UNL     1      22.616 -17.730  12.023  1.00  0.00     0.025 A 
HETATM   11  C1  UNL     1      22.350 -18.804  11.206  1.00  0.00     0.081 A 
HETATM   12  C13 UNL     1      22.324 -18.573   9.859  1.00  0.00     0.054 A 
BRANCH  11  13
HETATM   13  S1  UNL     1      22.054 -20.410  11.862  1.00  0.00     0.256 S 
HETATM   14  O1  UNL     1      21.511 -20.185  13.265  1.00  0.00    -0.201 OA
HETATM   15  O2  UNL     1      23.336 -21.167  11.948  1.00  0.00    -0.201 OA
BRANCH  13  16
HETATM   16  N1  UNL     1      20.915 -21.261  10.912  1.00  0.00    -0.324 N 
ATOM     17  H12 UNL     1      20.124 -20.823  10.441  1.00  0.00     0.169 HD
ATOM     18  H11 UNL     1      21.144 -22.255  10.890  1.00  0.00     0.169 HD
ENDBRANCH  13  16
ENDBRANCH  11  13
ENDBRANCH   5   7
ENDBRANCH   3   5
ENDBRANCH   1   3
BRANCH   1  19
HETATM   19  N4  UNL     1      21.405 -20.492   6.829  1.00  0.00    -0.307 N 
HETATM   20  C7  UNL     1      20.575 -21.324   7.388  1.00  0.00     0.139 C 
ATOM     21  H4  UNL     1      22.158 -20.841   6.238  1.00  0.00     0.186 HD
BRANCH  20  22
HETATM   22  C8  UNL     1      20.734 -22.748   7.160  1.00  0.00     0.082 A 
HETATM   23  N5  UNL     1      19.975 -23.296   6.176  1.00  0.00    -0.360 N 
HETATM   24  C9  UNL     1      20.032 -24.579   5.820  1.00  0.00     0.124 A 
ATOM     25  H5  UNL     1      19.322 -22.690   5.680  1.00  0.00     0.165 HD
HETATM   26  C10 UNL     1      20.921 -25.380   6.507  1.00  0.00     0.120 A 
HETATM   27  C11 UNL     1      21.706 -24.873   7.507  1.00  0.00     0.075 A 
HETATM   28  C12 UNL     1      21.626 -23.512   7.863  1.00  0.00     0.133 A 
BRANCH  26  29
HETATM   29  N6  UNL     1      21.011 -26.762   6.155  1.00  0.00    -0.114 N 
HETATM   30  O3  UNL     1      20.026 -27.365   5.719  1.00  0.00    -0.532 OA
HETATM   31  O4  UNL     1      22.203 -27.428   6.303  1.00  0.00    -0.532 OA
ENDBRANCH  26  29
BRANCH  28  32
HETATM   32  N7  UNL     1      22.455 -23.042   8.894  1.00  0.00    -0.113 N 
HETATM   33  O5  UNL     1      22.465 -23.713   9.969  1.00  0.00    -0.532 OA
HETATM   34  O6  UNL     1      23.216 -21.942   8.792  1.00  0.00    -0.532 OA
ENDBRANCH  28  32
ENDBRANCH  20  22
ENDBRANCH   1  19
TORSDOF 9
ENDMDL
MODEL 3
REMARK VINA RESULT: -8.247861361      7.486     11.073
REMARK  9 active torsions:
REMARK  status: ('A' for Active; 'I' for Inactive)
REMARK    1  A    between atoms: N1_1  and  S1_4 
REMARK    2  A    between atoms: S1_4  and  C1_7 
REMARK    3  A    between atoms: C5_11  and  N2_12 
REMARK    4  A    between atoms: N2_12  and  C6_14 
REMARK    5  A    between atoms: C6_14  and  N3_16 
REMARK    6  A    between atoms: N3_16  and  N4_18 
REMARK    7  A    between atoms: C7_20  and  C8_21 
REMARK    8  A    between atoms: C10_25  and  N6_26 
REMARK    9  A    between atoms: C12_30  and  N7_31 
ROOT
HETATM    1  N3  UNL     1      20.958 -22.652  10.914  1.00  0.00    -0.276 N 
ATOM      2  H3  UNL     1      20.518 -23.159  10.146  1.00  0.00     0.189 HD
ENDROOT
BRANCH   1   3
HETATM    3  C6  UNL     1      21.485 -23.388  12.041  1.00  0.00     0.191 C 
HETATM    4  S2  UNL     1      22.082 -24.852  11.729  1.00  0.00    -0.039 SA
BRANCH   3   5
HETATM    5  N2  UNL     1      21.433 -22.843  13.315  1.00  0.00    -0.332 N 
ATOM      6  H2  UNL     1      22.308 -22.456  13.667  1.00  0.00     0.168 HD
BRANCH   5   7
HETATM    7  C5  UNL     1      20.333 -22.755  14.183  1.00  0.00     0.035 A 
HETATM    8  C4  UNL     1      19.996 -21.619  14.872  1.00  0.00     0.029 A 
HETATM    9  C3  UNL     1      18.887 -21.693  15.725  1.00  0.00     0.004 A 
HETATM   10  C2  UNL     1      18.161 -22.852  15.870  1.00  0.00     0.025 A 
HETATM   11  C1  UNL     1      18.492 -23.996  15.181  1.00  0.00     0.081 A 
HETATM   12  C13 UNL     1      19.573 -23.933  14.347  1.00  0.00     0.054 A 
BRANCH  11  13
HETATM   13  S1  UNL     1      17.566 -25.481  15.364  1.00  0.00     0.256 S 
HETATM   14  O1  UNL     1      17.270 -25.956  13.950  1.00  0.00    -0.201 OA
HETATM   15  O2  UNL     1      16.279 -25.194  16.063  1.00  0.00    -0.201 OA
BRANCH  13  16
HETATM   16  N1  UNL     1      18.461 -26.663  16.215  1.00  0.00    -0.324 N 
ATOM     17  H12 UNL     1      18.544 -27.636  15.920  1.00  0.00     0.169 HD
ATOM     18  H11 UNL     1      18.891 -26.254  17.044  1.00  0.00     0.169 HD
ENDBRANCH  13  16
ENDBRANCH  11  13
ENDBRANCH   5   7
ENDBRANCH   3   5
ENDBRANCH   1   3
BRANCH   1  19
HETATM   19  N4  UNL     1      21.040 -21.267  10.859  1.00  0.00    -0.307 N 
HETATM   20  C7  UNL     1      22.191 -20.693  10.664  1.00  0.00     0.139 C 
ATOM     21  H4  UNL     1      20.199 -20.701  10.970  1.00  0.00     0.186 HD
BRANCH  20  22
HETATM   22  C8  UNL     1      22.264 -19.245  10.607  1.00  0.00     0.082 A 
HETATM   23  N5  UNL     1      22.422 -18.595  11.789  1.00  0.00    -0.360 N 
HETATM   24  C9  UNL     1      22.542 -17.273  11.901  1.00  0.00     0.124 A 
ATOM     25  H5  UNL     1      22.450 -19.153  12.643  1.00  0.00     0.165 HD
HETATM   26  C10 UNL     1      22.499 -16.540  10.733  1.00  0.00     0.120 A 
HETATM   27  C11 UNL     1      22.340 -17.150   9.519  1.00  0.00     0.075 A 
HETATM   28  C12 UNL     1      22.215 -18.550   9.428  1.00  0.00     0.133 A 
BRANCH  26  29
HETATM   29  N6  UNL     1      22.624 -15.119  10.811  1.00  0.00    -0.114 N 
HETATM   30  O3  UNL     1      22.856 -14.451   9.798  1.00  0.00    -0.532 OA
HETATM   31  O4  UNL     1      22.486 -14.487  12.022  1.00  0.00    -0.532 OA
ENDBRANCH  26  29
BRANCH  28  32
HETATM   32  N7  UNL     1      22.057 -19.127   8.159  1.00  0.00    -0.113 N 
HETATM   33  O5  UNL     1      23.117 -19.365   7.504  1.00  0.00    -0.532 OA
HETATM   34  O6  UNL     1      20.865 -19.430   7.623  1.00  0.00    -0.532 OA
ENDBRANCH  28  32
ENDBRANCH  20  22
ENDBRANCH   1  19
TORSDOF 9
ENDMDL
MODEL 4
REMARK VINA RESULT: -8.241941348      6.875     10.795
REMARK  9 active torsions:
REMARK  status: ('A' for Active; 'I' for Inactive)
REMARK    1  A    between atoms: N1_1  and  S1_4 
REMARK    2  A    between atoms: S1_4  and  C1_7 
REMARK    3  A    between atoms: C5_11  and  N2_12 
REMARK    4  A    between atoms: N2_12  and  C6_14 
REMARK    5  A    between atoms: C6_14  and  N3_16 
REMARK    6  A    between atoms: N3_16  and  N4_18 
REMARK    7  A    between atoms: C7_20  and  C8_21 
REMARK    8  A    between atoms: C10_25  and  N6_26 
REMARK    9  A    between atoms: C12_30  and  N7_31 
ROOT
HETATM    1  N3  UNL     1      20.460 -23.532  10.156  1.00  0.00    -0.276 N 
ATOM      2  H3  UNL     1      19.915 -23.921   9.386  1.00  0.00     0.189 HD
ENDROOT
BRANCH   1   3
HETATM    3  C6  UNL     1      21.010 -24.419  11.156  1.00  0.00     0.191 C 
HETATM    4  S2  UNL     1      22.110 -25.482  10.649  1.00  0.00    -0.039 SA
BRANCH   3   5
HETATM    5  N2  UNL     1      20.566 -24.351  12.467  1.00  0.00    -0.332 N 
ATOM      6  H2  UNL     1      21.039 -23.668  13.060  1.00  0.00     0.168 HD
BRANCH   5   7
HETATM    7  C5  UNL     1      19.550 -25.097  13.086  1.00  0.00     0.035 A 
HETATM    8  C4  UNL     1      19.212 -26.373  12.717  1.00  0.00     0.029 A 
HETATM    9  C3  UNL     1      18.154 -26.980  13.408  1.00  0.00     0.004 A 
HETATM   10  C2  UNL     1      17.480 -26.329  14.414  1.00  0.00     0.025 A 
HETATM   11  C1  UNL     1      17.813 -25.049  14.791  1.00  0.00     0.081 A 
HETATM   12  C13 UNL     1      18.844 -24.450  14.122  1.00  0.00     0.054 A 
BRANCH  11  13
HETATM   13  S1  UNL     1      16.952 -24.213  16.078  1.00  0.00     0.256 S 
HETATM   14  O1  UNL     1      15.804 -23.485  15.397  1.00  0.00    -0.201 OA
HETATM   15  O2  UNL     1      17.851 -23.214  16.725  1.00  0.00    -0.201 OA
BRANCH  13  16
HETATM   16  N1  UNL     1      16.353 -25.320  17.236  1.00  0.00    -0.324 N 
ATOM     17  H12 UNL     1      16.730 -25.419  18.178  1.00  0.00     0.169 HD
ATOM     18  H11 UNL     1      15.577 -25.854  16.847  1.00  0.00     0.169 HD
ENDBRANCH  13  16
ENDBRANCH  11  13
ENDBRANCH   5   7
ENDBRANCH   3   5
ENDBRANCH   1   3
BRANCH   1  19
HETATM   19  N4  UNL     1      20.660 -22.160  10.223  1.00  0.00    -0.307 N 
HETATM   20  C7  UNL     1      21.863 -21.675  10.124  1.00  0.00     0.139 C 
ATOM     21  H4  UNL     1      19.866 -21.534  10.351  1.00  0.00     0.186 HD
BRANCH  20  22
HETATM   22  C8  UNL     1      22.059 -20.239  10.195  1.00  0.00     0.082 A 
HETATM   23  N5  UNL     1      22.231 -19.707  11.433  1.00  0.00    -0.360 N 
HETATM   24  C9  UNL     1      22.459 -18.415  11.663  1.00  0.00     0.124 A 
ATOM     25  H5  UNL     1      22.183 -20.336  12.236  1.00  0.00     0.165 HD
HETATM   26  C10 UNL     1      22.517 -17.585  10.562  1.00  0.00     0.120 A 
HETATM   27  C11 UNL     1      22.349 -18.074   9.296  1.00  0.00     0.075 A 
HETATM   28  C12 UNL     1      22.110 -19.446   9.081  1.00  0.00     0.133 A 
BRANCH  26  29
HETATM   29  N6  UNL     1      22.759 -16.192  10.768  1.00  0.00    -0.114 N 
HETATM   30  O3  UNL     1      22.884 -15.427   9.806  1.00  0.00    -0.532 OA
HETATM   31  O4  UNL     1      22.854 -15.696  12.045  1.00  0.00    -0.532 OA
ENDBRANCH  26  29
BRANCH  28  32
HETATM   32  N7  UNL     1      21.947 -19.897   7.762  1.00  0.00    -0.113 N 
HETATM   33  O5  UNL     1      20.783 -19.806   7.268  1.00  0.00    -0.532 OA
HETATM   34  O6  UNL     1      22.943 -20.406   7.022  1.00  0.00    -0.532 OA
ENDBRANCH  28  32
ENDBRANCH  20  22
ENDBRANCH   1  19
TORSDOF 9
ENDMDL
MODEL 5
REMARK VINA RESULT: -8.165537863      6.958     11.675
REMARK  9 active torsions:
REMARK  status: ('A' for Active; 'I' for Inactive)
REMARK    1  A    between atoms: N1_1  and  S1_4 
REMARK    2  A    between atoms: S1_4  and  C1_7 
REMARK    3  A    between atoms: C5_11  and  N2_12 
REMARK    4  A    between atoms: N2_12  and  C6_14 
REMARK    5  A    between atoms: C6_14  and  N3_16 
REMARK    6  A    between atoms: N3_16  and  N4_18 
REMARK    7  A    between atoms: C7_20  and  C8_21 
REMARK    8  A    between atoms: C10_25  and  N6_26 
REMARK    9  A    between atoms: C12_30  and  N7_31 
ROOT
HETATM    1  N3  UNL     1      21.033 -20.482  12.847  1.00  0.00    -0.276 N 
ATOM      2  H3  UNL     1      20.736 -19.786  13.531  1.00  0.00     0.189 HD
ENDROOT
BRANCH   1   3
HETATM    3  C6  UNL     1      21.145 -21.867  13.247  1.00  0.00     0.191 C 
HETATM    4  S2  UNL     1      21.607 -22.910  12.109  1.00  0.00    -0.039 SA
BRANCH   3   5
HETATM    5  N2  UNL     1      20.832 -22.244  14.544  1.00  0.00    -0.332 N 
ATOM      6  H2  UNL     1      21.620 -22.314  15.188  1.00  0.00     0.168 HD
BRANCH   5   7
HETATM    7  C5  UNL     1      19.572 -22.542  15.087  1.00  0.00     0.035 A 
HETATM    8  C4  UNL     1      18.738 -21.603  15.634  1.00  0.00     0.029 A 
HETATM    9  C3  UNL     1      17.523 -22.057  16.165  1.00  0.00     0.004 A 
HETATM   10  C2  UNL     1      17.174 -23.387  16.140  1.00  0.00     0.025 A 
HETATM   11  C1  UNL     1      18.006 -24.336  15.592  1.00  0.00     0.081 A 
HETATM   12  C13 UNL     1      19.193 -23.902  15.072  1.00  0.00     0.054 A 
BRANCH  11  13
HETATM   13  S1  UNL     1      17.564 -26.039  15.558  1.00  0.00     0.256 S 
HETATM   14  O1  UNL     1      16.253 -26.137  16.324  1.00  0.00    -0.201 OA
HETATM   15  O2  UNL     1      18.602 -26.847  16.260  1.00  0.00    -0.201 OA
BRANCH  13  16
HETATM   16  N1  UNL     1      17.358 -26.589  13.952  1.00  0.00    -0.324 N 
ATOM     17  H12 UNL     1      17.177 -27.561  13.702  1.00  0.00     0.169 HD
ATOM     18  H11 UNL     1      17.443 -25.812  13.297  1.00  0.00     0.169 HD
ENDBRANCH  13  16
ENDBRANCH  11  13
ENDBRANCH   5   7
ENDBRANCH   3   5
ENDBRANCH   1   3
BRANCH   1  19
HETATM   19  N4  UNL     1      21.321 -20.083  11.549  1.00  0.00    -0.307 N 
HETATM   20  C7  UNL     1      21.998 -18.991  11.343  1.00  0.00     0.139 C 
ATOM     21  H4  UNL     1      21.004 -20.644  10.760  1.00  0.00     0.186 HD
BRANCH  20  22
HETATM   22  C8  UNL     1      22.294 -18.584   9.981  1.00  0.00     0.082 A 
HETATM   23  N5  UNL     1      22.227 -19.549   9.028  1.00  0.00    -0.360 N 
HETATM   24  C9  UNL     1      22.434 -19.330   7.730  1.00  0.00     0.124 A 
ATOM     25  H5  UNL     1      22.004 -20.500   9.324  1.00  0.00     0.165 HD
HETATM   26  C10 UNL     1      22.735 -18.037   7.356  1.00  0.00     0.120 A 
HETATM   27  C11 UNL     1      22.815 -17.031   8.280  1.00  0.00     0.075 A 
HETATM   28  C12 UNL     1      22.591 -17.291   9.646  1.00  0.00     0.133 A 
BRANCH  26  29
HETATM   29  N6  UNL     1      22.965 -17.760   5.973  1.00  0.00    -0.114 N 
HETATM   30  O3  UNL     1      23.384 -18.642   5.216  1.00  0.00    -0.532 OA
HETATM   31  O4  UNL     1      22.718 -16.503   5.477  1.00  0.00    -0.532 OA
ENDBRANCH  26  29
BRANCH  28  32
HETATM   32  N7  UNL     1      22.683 -16.223  10.553  1.00  0.00    -0.113 N 
HETATM   33  O5  UNL     1      22.222 -15.106  10.168  1.00  0.00    -0.532 OA
HETATM   34  O6  UNL     1      23.222 -16.331  11.776  1.00  0.00    -0.532 OA
ENDBRANCH  28  32
ENDBRANCH  20  22
ENDBRANCH   1  19
TORSDOF 9
ENDMDL
