MODEL 1
REMARK VINA RESULT: -8.906992422      0.000      0.000
REMARK  14 active torsions:
REMARK  status: ('A' for Active; 'I' for Inactive)
REMARK    1  A    between atoms: N2_5  and  C4_7 
REMARK    2  A    between atoms: C4_7  and  C5_8 
REMARK    3  A    between atoms: C5_8  and  C6_9 
REMARK    4  A    between atoms: C6_9  and  C7_10 
REMARK    5  A    between atoms: C9_15  and  C10_16 
REMARK    6  A    between atoms: C10_16  and  C11_17 
REMARK    7  A    between atoms: C16_24  and  C17_25 
REMARK    8  A    between atoms: C17_25  and  C18_26 
REMARK    9  A    between atoms: C21_31  and  O3_32 
REMARK   10  A    between atoms: C22_34  and  C23_35 
REMARK   11  A    between atoms: C23_35  and  C24_36 
REMARK   12  A    between atoms: C32_48  and  O4_49 
REMARK   13  A    between atoms: C33_51  and  C34_52 
REMARK   14  A    between atoms: C34_52  and  C35_53 
ROOT
HETATM    1  C1  UNL     1       7.789  19.189   9.713  1.00  0.00     0.105 C 
HETATM    2  C2  UNL     1       8.005  18.397  10.616  1.00  0.00    -0.116 C 
HETATM    3  C3  UNL     1       8.282  17.475  11.680  1.00  0.00     0.154 C 
HETATM    4  N1  UNL     1       7.180  17.006  12.447  1.00  0.00    -0.074 NA
HETATM    5  N2  UNL     1       9.494  17.069  11.949  1.00  0.00    -0.372 N 
ATOM      6  H2  UNL     1       9.679  16.413  12.708  1.00  0.00     0.161 HD
ENDROOT
BRANCH   5   7
HETATM    7  C4  UNL     1      10.549  17.582  11.136  1.00  0.00     0.121 C 
BRANCH   7   8
HETATM    8  C5  UNL     1      11.923  17.512  11.815  1.00  0.00     0.023 C 
BRANCH   8   9
HETATM    9  C6  UNL     1      12.221  18.930  12.243  1.00  0.00     0.048 C 
BRANCH   9  10
HETATM   10  C7  UNL     1      12.310  19.102  13.744  1.00  0.00     0.180 C 
HETATM   11  N3  UNL     1      11.806  17.884  14.387  1.00  0.00    -0.335 N 
HETATM   12  C8  UNL     1      10.859  17.864  15.446  1.00  0.00     0.269 C 
ATOM     13  H3  UNL     1      12.160  16.989  14.050  1.00  0.00     0.164 HD
HETATM   14  O1  UNL     1      10.019  16.900  15.300  1.00  0.00    -0.266 OA
HETATM   15  C9  UNL     1      10.800  18.790  16.579  1.00  0.00     0.102 C 
HETATM   16  N4  UNL     1      11.061  18.166  17.884  1.00  0.00    -0.313 N 
HETATM   17  C14 UNL     1      10.633  16.791  18.145  1.00  0.00     0.160 C 
HETATM   18  C15 UNL     1      11.725  18.833  18.953  1.00  0.00     0.270 C 
HETATM   19  O2  UNL     1      11.071  18.727  20.067  1.00  0.00    -0.266 OA
HETATM   20  C16 UNL     1      12.995  19.588  18.936  1.00  0.00     0.080 C 
HETATM   21  N5  UNL     1      12.818  21.017  18.888  1.00  0.00    -0.334 N 
HETATM   22  C21 UNL     1      13.568  22.072  18.418  1.00  0.00     0.164 C 
ATOM     23  H5  UNL     1      11.933  21.316  19.297  1.00  0.00     0.168 HD
HETATM   24  C22 UNL     1      13.999  22.460  17.050  1.00  0.00     0.066 C 
HETATM   25  N7  UNL     1      13.141  21.970  16.027  1.00  0.00    -0.339 N 
HETATM   26  C32 UNL     1      13.364  21.565  14.716  1.00  0.00     0.139 C 
ATOM     27  H7  UNL     1      12.165  21.902  16.313  1.00  0.00     0.167 HD
HETATM   28  C33 UNL     1      14.264  20.493  14.216  1.00  0.00     0.153 C 
HETATM   29  N8  UNL     1      13.677  19.216  14.099  1.00  0.00    -0.390 N 
ATOM     30  H8  UNL     1      14.234  18.378  14.267  1.00  0.00     0.156 HD
BRANCH  15  31
HETATM   31  C10 UNL     1       9.785  19.835  16.555  1.00  0.00     0.012 C 
BRANCH  31  32
HETATM   32  C11 UNL     1       9.704  20.921  15.590  1.00  0.00     0.002 C 
HETATM   33  C12 UNL     1       8.944  22.161  16.013  1.00  0.00     0.013 C 
HETATM   34  C13 UNL     1       9.338  20.529  14.180  1.00  0.00     0.013 C 
ENDBRANCH  31  32
ENDBRANCH  15  31
BRANCH  20  35
HETATM   35  C17 UNL     1      14.112  19.013  18.159  1.00  0.00     0.067 C 
BRANCH  35  36
HETATM   36  C18 UNL     1      15.252  18.633  19.097  1.00  0.00    -0.017 C 
HETATM   37  C19 UNL     1      15.073  19.297  20.457  1.00  0.00     0.010 C 
HETATM   38  C20 UNL     1      15.112  17.128  19.372  1.00  0.00     0.010 C 
ENDBRANCH  35  36
ENDBRANCH  20  35
BRANCH  22  39
HETATM   39  O3  UNL     1      14.008  22.930  19.298  1.00  0.00    -0.345 OA
ATOM     40  H3  UNL     1      13.972  23.849  19.063  1.00  0.00     0.219 HD
ENDBRANCH  22  39
BRANCH  24  41
HETATM   41  C23 UNL     1      15.470  22.337  16.796  1.00  0.00     0.102 C 
BRANCH  41  42
HETATM   42  C24 UNL     1      16.248  23.295  17.598  1.00  0.00    -0.025 A 
HETATM   43  C25 UNL     1      16.125  24.669  17.585  1.00  0.00     0.096 A 
HETATM   44  N6  UNL     1      16.999  25.198  18.467  1.00  0.00    -0.365 N 
HETATM   45  C26 UNL     1      17.695  24.210  19.061  1.00  0.00     0.042 A 
ATOM     46  H6  UNL     1      17.115  26.193  18.656  1.00  0.00     0.165 HD
HETATM   47  C27 UNL     1      18.685  24.233  20.018  1.00  0.00     0.030 A 
HETATM   48  C31 UNL     1      17.229  23.017  18.521  1.00  0.00    -0.002 A 
HETATM   49  C28 UNL     1      19.227  23.044  20.450  1.00  0.00     0.002 A 
HETATM   50  C29 UNL     1      18.765  21.862  19.916  1.00  0.00     0.001 A 
HETATM   51  C30 UNL     1      17.787  21.816  18.969  1.00  0.00     0.014 A 
ENDBRANCH  41  42
ENDBRANCH  24  41
BRANCH  26  52
HETATM   52  O4  UNL     1      12.738  22.151  13.735  1.00  0.00    -0.348 OA
ATOM     53  H4  UNL     1      12.234  21.637  13.117  1.00  0.00     0.219 HD
ENDBRANCH  26  52
BRANCH  28  54
HETATM   54  C34 UNL     1      14.927  20.997  12.924  1.00  0.00     0.037 C 
BRANCH  54  55
HETATM   55  C35 UNL     1      14.994  22.480  12.843  1.00  0.00    -0.020 C 
HETATM   56  C36 UNL     1      15.386  22.921  11.454  1.00  0.00     0.009 C 
HETATM   57  C37 UNL     1      16.148  22.905  13.764  1.00  0.00     0.009 C 
ENDBRANCH  54  55
ENDBRANCH  28  54
ENDBRANCH   9  10
ENDBRANCH   8   9
ENDBRANCH   7   8
ENDBRANCH   5   7
TORSDOF 14
ENDMDL
MODEL 2
REMARK VINA RESULT: -8.690127470      1.144      1.934
REMARK  14 active torsions:
REMARK  status: ('A' for Active; 'I' for Inactive)
REMARK    1  A    between atoms: N2_5  and  C4_7 
REMARK    2  A    between atoms: C4_7  and  C5_8 
REMARK    3  A    between atoms: C5_8  and  C6_9 
REMARK    4  A    between atoms: C6_9  and  C7_10 
REMARK    5  A    between atoms: C9_15  and  C10_16 
REMARK    6  A    between atoms: C10_16  and  C11_17 
REMARK    7  A    between atoms: C16_24  and  C17_25 
REMARK    8  A    between atoms: C17_25  and  C18_26 
REMARK    9  A    between atoms: C21_31  and  O3_32 
REMARK   10  A    between atoms: C22_34  and  C23_35 
REMARK   11  A    between atoms: C23_35  and  C24_36 
REMARK   12  A    between atoms: C32_48  and  O4_49 
REMARK   13  A    between atoms: C33_51  and  C34_52 
REMARK   14  A    between atoms: C34_52  and  C35_53 
ROOT
HETATM    1  C1  UNL     1      14.686  15.902  11.842  1.00  0.00     0.105 C 
HETATM    2  C2  UNL     1      13.705  15.782  11.127  1.00  0.00    -0.116 C 
HETATM    3  C3  UNL     1      12.540  15.660  10.297  1.00  0.00     0.154 C 
HETATM    4  N1  UNL     1      12.712  15.097   9.003  1.00  0.00    -0.074 NA
HETATM    5  N2  UNL     1      11.359  16.046  10.698  1.00  0.00    -0.372 N 
ATOM      6  H2  UNL     1      10.538  15.954  10.100  1.00  0.00     0.161 HD
ENDROOT
BRANCH   5   7
HETATM    7  C4  UNL     1      11.264  16.601  12.011  1.00  0.00     0.121 C 
BRANCH   7   8
HETATM    8  C5  UNL     1      10.833  18.072  12.014  1.00  0.00     0.023 C 
BRANCH   8   9
HETATM    9  C6  UNL     1      12.077  18.845  12.389  1.00  0.00     0.048 C 
BRANCH   9  10
HETATM   10  C7  UNL     1      12.223  19.067  13.879  1.00  0.00     0.180 C 
HETATM   11  N3  UNL     1      11.730  17.879  14.582  1.00  0.00    -0.335 N 
HETATM   12  C8  UNL     1      10.823  17.908  15.676  1.00  0.00     0.269 C 
ATOM     13  H3  UNL     1      12.061  16.968  14.264  1.00  0.00     0.164 HD
HETATM   14  O1  UNL     1       9.967  16.951  15.595  1.00  0.00    -0.266 OA
HETATM   15  C9  UNL     1      10.817  18.873  16.777  1.00  0.00     0.102 C 
HETATM   16  N4  UNL     1      11.118  18.292  18.092  1.00  0.00    -0.313 N 
HETATM   17  C14 UNL     1      10.685  16.932  18.417  1.00  0.00     0.160 C 
HETATM   18  C15 UNL     1      11.829  18.988  19.112  1.00  0.00     0.270 C 
HETATM   19  O2  UNL     1      11.216  18.928  20.252  1.00  0.00    -0.266 OA
HETATM   20  C16 UNL     1      13.107  19.725  19.022  1.00  0.00     0.080 C 
HETATM   21  N5  UNL     1      12.945  21.153  18.930  1.00  0.00    -0.334 N 
HETATM   22  C21 UNL     1      13.689  22.181  18.395  1.00  0.00     0.164 C 
ATOM     23  H5  UNL     1      12.079  21.478  19.360  1.00  0.00     0.168 HD
HETATM   24  C22 UNL     1      14.074  22.516  17.000  1.00  0.00     0.066 C 
HETATM   25  N7  UNL     1      13.173  22.002  16.027  1.00  0.00    -0.339 N 
HETATM   26  C32 UNL     1      13.342  21.548  14.724  1.00  0.00     0.139 C 
ATOM     27  H7  UNL     1      12.207  21.956  16.351  1.00  0.00     0.167 HD
HETATM   28  C33 UNL     1      14.210  20.449  14.230  1.00  0.00     0.153 C 
HETATM   29  N8  UNL     1      13.604  19.175  14.179  1.00  0.00    -0.390 N 
ATOM     30  H8  UNL     1      14.157  18.337  14.356  1.00  0.00     0.156 HD
BRANCH  15  31
HETATM   31  C10 UNL     1       9.814  19.930  16.753  1.00  0.00     0.012 C 
BRANCH  31  32
HETATM   32  C11 UNL     1       9.723  20.996  15.767  1.00  0.00     0.002 C 
HETATM   33  C12 UNL     1       8.933  22.228  16.156  1.00  0.00     0.013 C 
HETATM   34  C13 UNL     1       9.383  20.570  14.360  1.00  0.00     0.013 C 
ENDBRANCH  31  32
ENDBRANCH  15  31
BRANCH  20  35
HETATM   35  C17 UNL     1      14.187  19.108  18.225  1.00  0.00     0.067 C 
BRANCH  35  36
HETATM   36  C18 UNL     1      15.314  18.654  19.146  1.00  0.00    -0.017 C 
HETATM   37  C19 UNL     1      15.178  19.300  20.520  1.00  0.00     0.010 C 
HETATM   38  C20 UNL     1      15.101  17.152  19.394  1.00  0.00     0.010 C 
ENDBRANCH  35  36
ENDBRANCH  20  35
BRANCH  22  39
HETATM   39  O3  UNL     1      14.171  23.063  19.229  1.00  0.00    -0.345 OA
ATOM     40  H3  UNL     1      14.123  23.976  18.969  1.00  0.00     0.219 HD
ENDBRANCH  22  39
BRANCH  24  41
HETATM   41  C23 UNL     1      15.533  22.365  16.697  1.00  0.00     0.102 C 
BRANCH  41  42
HETATM   42  C24 UNL     1      16.354  23.315  17.463  1.00  0.00    -0.025 A 
HETATM   43  C25 UNL     1      16.325  24.691  17.368  1.00  0.00     0.096 A 
HETATM   44  N6  UNL     1      17.212  25.212  18.243  1.00  0.00    -0.365 N 
HETATM   45  C26 UNL     1      17.824  24.217  18.912  1.00  0.00     0.042 A 
ATOM     46  H6  UNL     1      17.390  26.207  18.377  1.00  0.00     0.165 HD
HETATM   47  C27 UNL     1      18.790  24.231  19.893  1.00  0.00     0.030 A 
HETATM   48  C31 UNL     1      17.292  23.028  18.429  1.00  0.00    -0.002 A 
HETATM   49  C28 UNL     1      19.240  23.037  20.408  1.00  0.00     0.002 A 
HETATM   50  C29 UNL     1      18.713  21.859  19.929  1.00  0.00     0.001 A 
HETATM   51  C30 UNL     1      17.756  21.822  18.960  1.00  0.00     0.014 A 
ENDBRANCH  41  42
ENDBRANCH  24  41
BRANCH  26  52
HETATM   52  O4  UNL     1      12.687  22.109  13.747  1.00  0.00    -0.348 OA
ATOM     53  H4  UNL     1      12.765  23.043  13.596  1.00  0.00     0.219 HD
ENDBRANCH  26  52
BRANCH  28  54
HETATM   54  C34 UNL     1      14.830  20.899  12.897  1.00  0.00     0.037 C 
BRANCH  54  55
HETATM   55  C35 UNL     1      14.947  22.375  12.777  1.00  0.00    -0.020 C 
HETATM   56  C36 UNL     1      15.375  22.766  11.384  1.00  0.00     0.009 C 
HETATM   57  C37 UNL     1      16.100  22.788  13.706  1.00  0.00     0.009 C 
ENDBRANCH  54  55
ENDBRANCH  28  54
ENDBRANCH   9  10
ENDBRANCH   8   9
ENDBRANCH   7   8
ENDBRANCH   5   7
TORSDOF 14
ENDMDL
MODEL 3
REMARK VINA RESULT: -8.435099947     11.527     16.516
REMARK  14 active torsions:
REMARK  status: ('A' for Active; 'I' for Inactive)
REMARK    1  A    between atoms: N2_5  and  C4_7 
REMARK    2  A    between atoms: C4_7  and  C5_8 
REMARK    3  A    between atoms: C5_8  and  C6_9 
REMARK    4  A    between atoms: C6_9  and  C7_10 
REMARK    5  A    between atoms: C9_15  and  C10_16 
REMARK    6  A    between atoms: C10_16  and  C11_17 
REMARK    7  A    between atoms: C16_24  and  C17_25 
REMARK    8  A    between atoms: C17_25  and  C18_26 
REMARK    9  A    between atoms: C21_31  and  O3_32 
REMARK   10  A    between atoms: C22_34  and  C23_35 
REMARK   11  A    between atoms: C23_35  and  C24_36 
REMARK   12  A    between atoms: C32_48  and  O4_49 
REMARK   13  A    between atoms: C33_51  and  C34_52 
REMARK   14  A    between atoms: C34_52  and  C35_53 
ROOT
HETATM    1  C1  UNL     1      20.844  26.638  18.127  1.00  0.00     0.105 C 
HETATM    2  C2  UNL     1      20.921  27.050  16.982  1.00  0.00    -0.116 C 
HETATM    3  C3  UNL     1      21.026  27.514  15.627  1.00  0.00     0.154 C 
HETATM    4  N1  UNL     1      19.935  28.261  15.103  1.00  0.00    -0.074 NA
HETATM    5  N2  UNL     1      22.075  27.272  14.890  1.00  0.00    -0.372 N 
ATOM      6  H2  UNL     1      22.139  27.607  13.929  1.00  0.00     0.161 HD
ENDROOT
BRANCH   5   7
HETATM    7  C4  UNL     1      23.131  26.518  15.486  1.00  0.00     0.121 C 
BRANCH   7   8
HETATM    8  C5  UNL     1      24.457  27.285  15.553  1.00  0.00     0.023 C 
BRANCH   8   9
HETATM    9  C6  UNL     1      24.408  28.038  16.863  1.00  0.00     0.048 C 
BRANCH   9  10
HETATM   10  C7  UNL     1      25.712  28.005  17.629  1.00  0.00     0.180 C 
HETATM   11  N3  UNL     1      26.145  29.383  17.880  1.00  0.00    -0.335 N 
HETATM   12  C8  UNL     1      27.455  29.875  17.632  1.00  0.00     0.269 C 
ATOM     13  H3  UNL     1      25.458  30.034  18.260  1.00  0.00     0.164 HD
HETATM   14  O1  UNL     1      27.419  31.066  17.145  1.00  0.00    -0.266 OA
HETATM   15  C9  UNL     1      28.713  29.167  17.879  1.00  0.00     0.102 C 
HETATM   16  N4  UNL     1      29.556  29.778  18.916  1.00  0.00    -0.313 N 
HETATM   17  C14 UNL     1      29.584  31.231  19.086  1.00  0.00     0.160 C 
HETATM   18  C15 UNL     1      30.381  29.024  19.799  1.00  0.00     0.270 C 
HETATM   19  O2  UNL     1      31.590  29.489  19.843  1.00  0.00    -0.266 OA
HETATM   20  C16 UNL     1      30.037  27.843  20.619  1.00  0.00     0.080 C 
HETATM   21  N5  UNL     1      30.464  26.595  20.042  1.00  0.00    -0.334 N 
HETATM   22  C21 UNL     1      30.031  25.290  20.125  1.00  0.00     0.164 C 
ATOM     23  H5  UNL     1      31.274  26.701  19.431  1.00  0.00     0.168 HD
HETATM   24  C22 UNL     1      28.774  24.625  19.692  1.00  0.00     0.066 C 
HETATM   25  N7  UNL     1      28.120  25.295  18.622  1.00  0.00    -0.339 N 
HETATM   26  C32 UNL     1      26.783  25.443  18.272  1.00  0.00     0.139 C 
ATOM     27  H7  UNL     1      28.762  25.761  17.981  1.00  0.00     0.167 HD
HETATM   28  C33 UNL     1      25.676  26.030  19.070  1.00  0.00     0.153 C 
HETATM   29  N8  UNL     1      25.471  27.415  18.894  1.00  0.00    -0.390 N 
ATOM     30  H8  UNL     1      25.150  27.989  19.674  1.00  0.00     0.156 HD
BRANCH  15  31
HETATM   31  C10 UNL     1      29.410  28.593  16.736  1.00  0.00     0.012 C 
BRANCH  31  32
HETATM   32  C11 UNL     1      28.814  27.752  15.709  1.00  0.00     0.002 C 
HETATM   33  C12 UNL     1      29.485  26.424  15.433  1.00  0.00     0.013 C 
HETATM   34  C13 UNL     1      28.447  28.441  14.417  1.00  0.00     0.013 C 
ENDBRANCH  31  32
ENDBRANCH  15  31
BRANCH  20  35
HETATM   35  C17 UNL     1      28.735  27.863  21.316  1.00  0.00     0.067 C 
BRANCH  35  36
HETATM   36  C18 UNL     1      28.954  27.781  22.822  1.00  0.00    -0.017 C 
HETATM   37  C19 UNL     1      28.691  29.132  23.478  1.00  0.00     0.010 C 
HETATM   38  C20 UNL     1      27.858  26.856  23.375  1.00  0.00     0.010 C 
ENDBRANCH  35  36
ENDBRANCH  20  35
BRANCH  22  39
HETATM   39  O3  UNL     1      30.841  24.427  20.676  1.00  0.00    -0.345 OA
ATOM     40  H3  UNL     1      30.457  23.625  21.009  1.00  0.00     0.219 HD
ENDBRANCH  22  39
BRANCH  24  41
HETATM   41  C23 UNL     1      27.899  24.149  20.810  1.00  0.00     0.102 C 
BRANCH  41  42
HETATM   42  C24 UNL     1      27.869  22.680  20.897  1.00  0.00    -0.025 A 
HETATM   43  C25 UNL     1      28.624  21.890  21.739  1.00  0.00     0.096 A 
HETATM   44  N6  UNL     1      28.302  20.595  21.535  1.00  0.00    -0.365 N 
HETATM   45  C26 UNL     1      27.356  20.510  20.581  1.00  0.00     0.042 A 
ATOM     46  H6  UNL     1      28.712  19.802  22.028  1.00  0.00     0.165 HD
HETATM   47  C27 UNL     1      26.708  19.429  20.026  1.00  0.00     0.030 A 
HETATM   48  C31 UNL     1      27.081  21.811  20.178  1.00  0.00    -0.002 A 
HETATM   49  C28 UNL     1      25.765  19.643  19.047  1.00  0.00     0.002 A 
HETATM   50  C29 UNL     1      25.492  20.932  18.649  1.00  0.00     0.001 A 
HETATM   51  C30 UNL     1      26.120  22.015  19.184  1.00  0.00     0.014 A 
ENDBRANCH  41  42
ENDBRANCH  24  41
BRANCH  26  52
HETATM   52  O4  UNL     1      26.364  25.041  17.107  1.00  0.00    -0.348 OA
ATOM     53  H4  UNL     1      26.213  24.117  16.948  1.00  0.00     0.219 HD
ENDBRANCH  26  52
BRANCH  28  54
HETATM   54  C34 UNL     1      24.419  25.178  18.832  1.00  0.00     0.037 C 
BRANCH  54  55
HETATM   55  C35 UNL     1      23.588  25.011  20.053  1.00  0.00    -0.020 C 
HETATM   56  C36 UNL     1      24.459  24.919  21.282  1.00  0.00     0.009 C 
HETATM   57  C37 UNL     1      22.901  23.643  19.917  1.00  0.00     0.009 C 
ENDBRANCH  54  55
ENDBRANCH  28  54
ENDBRANCH   9  10
ENDBRANCH   8   9
ENDBRANCH   7   8
ENDBRANCH   5   7
TORSDOF 14
ENDMDL
MODEL 4
REMARK VINA RESULT: -8.128501958      1.617      2.314
REMARK  14 active torsions:
REMARK  status: ('A' for Active; 'I' for Inactive)
REMARK    1  A    between atoms: N2_5  and  C4_7 
REMARK    2  A    between atoms: C4_7  and  C5_8 
REMARK    3  A    between atoms: C5_8  and  C6_9 
REMARK    4  A    between atoms: C6_9  and  C7_10 
REMARK    5  A    between atoms: C9_15  and  C10_16 
REMARK    6  A    between atoms: C10_16  and  C11_17 
REMARK    7  A    between atoms: C16_24  and  C17_25 
REMARK    8  A    between atoms: C17_25  and  C18_26 
REMARK    9  A    between atoms: C21_31  and  O3_32 
REMARK   10  A    between atoms: C22_34  and  C23_35 
REMARK   11  A    between atoms: C23_35  and  C24_36 
REMARK   12  A    between atoms: C32_48  and  O4_49 
REMARK   13  A    between atoms: C33_51  and  C34_52 
REMARK   14  A    between atoms: C34_52  and  C35_53 
ROOT
HETATM    1  C1  UNL     1      14.777  15.890  11.738  1.00  0.00     0.105 C 
HETATM    2  C2  UNL     1      13.802  15.742  11.019  1.00  0.00    -0.116 C 
HETATM    3  C3  UNL     1      12.645  15.589  10.183  1.00  0.00     0.154 C 
HETATM    4  N1  UNL     1      12.829  14.981   8.911  1.00  0.00    -0.074 NA
HETATM    5  N2  UNL     1      11.459  15.984  10.561  1.00  0.00    -0.372 N 
ATOM      6  H2  UNL     1      10.644  15.870   9.959  1.00  0.00     0.161 HD
ENDROOT
BRANCH   5   7
HETATM    7  C4  UNL     1      11.352  16.583  11.853  1.00  0.00     0.121 C 
BRANCH   7   8
HETATM    8  C5  UNL     1      10.987  18.072  11.798  1.00  0.00     0.023 C 
BRANCH   8   9
HETATM    9  C6  UNL     1      12.233  18.797  12.254  1.00  0.00     0.048 C 
BRANCH   9  10
HETATM   10  C7  UNL     1      12.310  18.981  13.754  1.00  0.00     0.180 C 
HETATM   11  N3  UNL     1      11.847  17.751  14.403  1.00  0.00    -0.335 N 
HETATM   12  C8  UNL     1      10.898  17.704  15.460  1.00  0.00     0.269 C 
ATOM     13  H3  UNL     1      12.234  16.866  14.073  1.00  0.00     0.164 HD
HETATM   14  O1  UNL     1      10.093  16.710  15.317  1.00  0.00    -0.266 OA
HETATM   15  C9  UNL     1      10.803  18.634  16.586  1.00  0.00     0.102 C 
HETATM   16  N4  UNL     1      11.080  18.029  17.896  1.00  0.00    -0.313 N 
HETATM   17  C14 UNL     1      10.701  16.641  18.165  1.00  0.00     0.160 C 
HETATM   18  C15 UNL     1      11.717  18.726  18.963  1.00  0.00     0.270 C 
HETATM   19  O2  UNL     1      11.063  18.604  20.075  1.00  0.00    -0.266 OA
HETATM   20  C16 UNL     1      12.960  19.526  18.945  1.00  0.00     0.080 C 
HETATM   21  N5  UNL     1      12.732  20.946  18.887  1.00  0.00    -0.334 N 
HETATM   22  C21 UNL     1      13.446  22.024  18.412  1.00  0.00     0.164 C 
ATOM     23  H5  UNL     1      11.835  21.217  19.291  1.00  0.00     0.168 HD
HETATM   24  C22 UNL     1      13.868  22.419  17.043  1.00  0.00     0.066 C 
HETATM   25  N7  UNL     1      13.032  21.892  16.020  1.00  0.00    -0.339 N 
HETATM   26  C32 UNL     1      13.273  21.486  14.713  1.00  0.00     0.139 C 
ATOM     27  H7  UNL     1      12.057  21.791  16.304  1.00  0.00     0.167 HD
HETATM   28  C33 UNL     1      14.212  20.444  14.223  1.00  0.00     0.153 C 
HETATM   29  N8  UNL     1      13.671  19.146  14.112  1.00  0.00    -0.390 N 
ATOM     30  H8  UNL     1      14.257  18.330  14.288  1.00  0.00     0.156 HD
BRANCH  15  31
HETATM   31  C10 UNL     1       9.752  19.643  16.552  1.00  0.00     0.012 C 
BRANCH  31  32
HETATM   32  C11 UNL     1       9.721  20.814  15.688  1.00  0.00     0.002 C 
HETATM   33  C12 UNL     1       8.986  22.031  16.204  1.00  0.00     0.013 C 
HETATM   34  C13 UNL     1       9.378  20.560  14.240  1.00  0.00     0.013 C 
ENDBRANCH  31  32
ENDBRANCH  15  31
BRANCH  20  35
HETATM   35  C17 UNL     1      14.099  18.984  18.176  1.00  0.00     0.067 C 
BRANCH  35  36
HETATM   36  C18 UNL     1      15.211  18.561  19.128  1.00  0.00    -0.017 C 
HETATM   37  C19 UNL     1      15.067  19.268  20.470  1.00  0.00     0.010 C 
HETATM   38  C20 UNL     1      14.981  17.074  19.438  1.00  0.00     0.010 C 
ENDBRANCH  35  36
ENDBRANCH  20  35
BRANCH  22  39
HETATM   39  O3  UNL     1      13.852  22.903  19.288  1.00  0.00    -0.345 OA
ATOM     40  H3  UNL     1      14.505  22.618  19.916  1.00  0.00     0.219 HD
ENDBRANCH  22  39
BRANCH  24  41
HETATM   41  C23 UNL     1      15.343  22.346  16.795  1.00  0.00     0.102 C 
BRANCH  41  42
HETATM   42  C24 UNL     1      16.022  23.602  17.150  1.00  0.00    -0.025 A 
HETATM   43  C25 UNL     1      15.503  24.633  17.905  1.00  0.00     0.096 A 
HETATM   44  N6  UNL     1      16.434  25.604  18.024  1.00  0.00    -0.365 N 
HETATM   45  C26 UNL     1      17.552  25.240  17.368  1.00  0.00     0.042 A 
ATOM     46  H6  UNL     1      16.310  26.479  18.533  1.00  0.00     0.165 HD
HETATM   47  C27 UNL     1      18.762  25.876  17.197  1.00  0.00     0.030 A 
HETATM   48  C31 UNL     1      17.301  23.989  16.819  1.00  0.00    -0.002 A 
HETATM   49  C28 UNL     1      19.747  25.256  16.463  1.00  0.00     0.002 A 
HETATM   50  C29 UNL     1      19.498  24.015  15.919  1.00  0.00     0.001 A 
HETATM   51  C30 UNL     1      18.310  23.369  16.076  1.00  0.00     0.014 A 
ENDBRANCH  41  42
ENDBRANCH  24  41
BRANCH  26  52
HETATM   52  O4  UNL     1      12.630  22.044  13.727  1.00  0.00    -0.348 OA
ATOM     53  H4  UNL     1      12.224  21.506  13.058  1.00  0.00     0.219 HD
ENDBRANCH  26  52
BRANCH  28  54
HETATM   54  C34 UNL     1      14.861  20.963  12.930  1.00  0.00     0.037 C 
BRANCH  54  55
HETATM   55  C35 UNL     1      14.796  22.442  12.797  1.00  0.00    -0.020 C 
HETATM   56  C36 UNL     1      14.927  22.854  11.351  1.00  0.00     0.009 C 
HETATM   57  C37 UNL     1      16.044  22.988  13.508  1.00  0.00     0.009 C 
ENDBRANCH  54  55
ENDBRANCH  28  54
ENDBRANCH   9  10
ENDBRANCH   8   9
ENDBRANCH   7   8
ENDBRANCH   5   7
TORSDOF 14
ENDMDL
MODEL 5
REMARK VINA RESULT: -8.040264336     11.077     16.577
REMARK  14 active torsions:
REMARK  status: ('A' for Active; 'I' for Inactive)
REMARK    1  A    between atoms: N2_5  and  C4_7 
REMARK    2  A    between atoms: C4_7  and  C5_8 
REMARK    3  A    between atoms: C5_8  and  C6_9 
REMARK    4  A    between atoms: C6_9  and  C7_10 
REMARK    5  A    between atoms: C9_15  and  C10_16 
REMARK    6  A    between atoms: C10_16  and  C11_17 
REMARK    7  A    between atoms: C16_24  and  C17_25 
REMARK    8  A    between atoms: C17_25  and  C18_26 
REMARK    9  A    between atoms: C21_31  and  O3_32 
REMARK   10  A    between atoms: C22_34  and  C23_35 
REMARK   11  A    between atoms: C23_35  and  C24_36 
REMARK   12  A    between atoms: C32_48  and  O4_49 
REMARK   13  A    between atoms: C33_51  and  C34_52 
REMARK   14  A    between atoms: C34_52  and  C35_53 
ROOT
HETATM    1  C1  UNL     1      19.965  27.247  14.103  1.00  0.00     0.105 C 
HETATM    2  C2  UNL     1      20.456  27.091  15.209  1.00  0.00    -0.116 C 
HETATM    3  C3  UNL     1      21.055  26.919  16.502  1.00  0.00     0.154 C 
HETATM    4  N1  UNL     1      20.199  26.974  17.636  1.00  0.00    -0.074 NA
HETATM    5  N2  UNL     1      22.336  26.717  16.652  1.00  0.00    -0.372 N 
ATOM      6  H2  UNL     1      22.751  26.595  17.576  1.00  0.00     0.161 HD
ENDROOT
BRANCH   5   7
HETATM    7  C4  UNL     1      23.132  26.673  15.467  1.00  0.00     0.121 C 
BRANCH   7   8
HETATM    8  C5  UNL     1      24.573  27.148  15.691  1.00  0.00     0.023 C 
BRANCH   8   9
HETATM    9  C6  UNL     1      24.551  27.848  17.031  1.00  0.00     0.048 C 
BRANCH   9  10
HETATM   10  C7  UNL     1      25.868  27.775  17.772  1.00  0.00     0.180 C 
HETATM   11  N3  UNL     1      26.337  29.140  18.033  1.00  0.00    -0.335 N 
HETATM   12  C8  UNL     1      27.654  29.604  17.767  1.00  0.00     0.269 C 
ATOM     13  H3  UNL     1      25.672  29.801  18.433  1.00  0.00     0.164 HD
HETATM   14  O1  UNL     1      27.638  30.801  17.295  1.00  0.00    -0.266 OA
HETATM   15  C9  UNL     1      28.899  28.864  17.983  1.00  0.00     0.102 C 
HETATM   16  N4  UNL     1      29.775  29.442  19.012  1.00  0.00    -0.313 N 
HETATM   17  C14 UNL     1      29.839  30.892  19.200  1.00  0.00     0.160 C 
HETATM   18  C15 UNL     1      30.597  28.658  19.871  1.00  0.00     0.270 C 
HETATM   19  O2  UNL     1      31.817  29.094  19.899  1.00  0.00    -0.266 OA
HETATM   20  C16 UNL     1      30.239  27.475  20.682  1.00  0.00     0.080 C 
HETATM   21  N5  UNL     1      30.627  26.224  20.082  1.00  0.00    -0.334 N 
HETATM   22  C21 UNL     1      30.165  24.929  20.157  1.00  0.00     0.164 C 
ATOM     23  H5  UNL     1      31.429  26.320  19.459  1.00  0.00     0.168 HD
HETATM   24  C22 UNL     1      28.886  24.298  19.739  1.00  0.00     0.066 C 
HETATM   25  N7  UNL     1      28.229  24.997  18.688  1.00  0.00    -0.339 N 
HETATM   26  C32 UNL     1      26.890  25.181  18.365  1.00  0.00     0.139 C 
ATOM     27  H7  UNL     1      28.870  25.456  18.042  1.00  0.00     0.167 HD
HETATM   28  C33 UNL     1      25.811  25.784  19.189  1.00  0.00     0.153 C 
HETATM   29  N8  UNL     1      25.635  27.175  19.034  1.00  0.00    -0.390 N 
ATOM     30  H8  UNL     1      25.342  27.746  19.827  1.00  0.00     0.156 HD
BRANCH  15  31
HETATM   31  C10 UNL     1      29.562  28.288  16.821  1.00  0.00     0.012 C 
BRANCH  31  32
HETATM   32  C11 UNL     1      28.905  27.603  15.717  1.00  0.00     0.002 C 
HETATM   33  C12 UNL     1      29.381  26.203  15.396  1.00  0.00     0.013 C 
HETATM   34  C13 UNL     1      28.725  28.406  14.452  1.00  0.00     0.013 C 
ENDBRANCH  31  32
ENDBRANCH  15  31
BRANCH  20  35
HETATM   35  C17 UNL     1      28.951  27.516  21.403  1.00  0.00     0.067 C 
BRANCH  35  36
HETATM   36  C18 UNL     1      29.195  27.788  22.883  1.00  0.00    -0.017 C 
HETATM   37  C19 UNL     1      30.665  27.591  23.230  1.00  0.00     0.010 C 
HETATM   38  C20 UNL     1      28.936  29.287  23.102  1.00  0.00     0.010 C 
ENDBRANCH  35  36
ENDBRANCH  20  35
BRANCH  22  39
HETATM   39  O3  UNL     1      30.964  24.041  20.683  1.00  0.00    -0.345 OA
ATOM     40  H3  UNL     1      31.895  24.148  20.526  1.00  0.00     0.219 HD
ENDBRANCH  22  39
BRANCH  24  41
HETATM   41  C23 UNL     1      28.019  23.829  20.866  1.00  0.00     0.102 C 
BRANCH  41  42
HETATM   42  C24 UNL     1      27.954  22.361  20.934  1.00  0.00    -0.025 A 
HETATM   43  C25 UNL     1      28.702  21.541  21.754  1.00  0.00     0.096 A 
HETATM   44  N6  UNL     1      28.345  20.257  21.536  1.00  0.00    -0.365 N 
HETATM   45  C26 UNL     1      27.383  20.208  20.596  1.00  0.00     0.042 A 
ATOM     46  H6  UNL     1      28.743  19.447  22.012  1.00  0.00     0.165 HD
HETATM   47  C27 UNL     1      26.700  19.151  20.036  1.00  0.00     0.030 A 
HETATM   48  C31 UNL     1      27.134  21.521  20.215  1.00  0.00    -0.002 A 
HETATM   49  C28 UNL     1      25.748  19.402  19.075  1.00  0.00     0.002 A 
HETATM   50  C29 UNL     1      25.501  20.703  18.698  1.00  0.00     0.001 A 
HETATM   51  C30 UNL     1      26.164  21.763  19.238  1.00  0.00     0.014 A 
ENDBRANCH  41  42
ENDBRANCH  24  41
BRANCH  26  52
HETATM   52  O4  UNL     1      26.440  24.803  17.202  1.00  0.00    -0.348 OA
ATOM     53  H4  UNL     1      25.702  25.252  16.808  1.00  0.00     0.219 HD
ENDBRANCH  26  52
BRANCH  28  54
HETATM   54  C34 UNL     1      24.530  24.964  18.963  1.00  0.00     0.037 C 
BRANCH  54  55
HETATM   55  C35 UNL     1      23.706  24.819  20.192  1.00  0.00    -0.020 C 
HETATM   56  C36 UNL     1      24.585  24.639  21.406  1.00  0.00     0.009 C 
HETATM   57  C37 UNL     1      22.930  23.503  20.032  1.00  0.00     0.009 C 
ENDBRANCH  54  55
ENDBRANCH  28  54
ENDBRANCH   9  10
ENDBRANCH   8   9
ENDBRANCH   7   8
ENDBRANCH   5   7
TORSDOF 14
ENDMDL
