MODEL 1
REMARK VINA RESULT: -9.575964047      0.000      0.000
REMARK  11 active torsions:
REMARK  status: ('A' for Active; 'I' for Inactive)
REMARK    1  A    between atoms: C6_6  and  N1_7 
REMARK    2  A    between atoms: N2_10  and  C9_11 
REMARK    3  A    between atoms: C9_11  and  C10_12 
REMARK    4  A    between atoms: C10_12  and  C11_13 
REMARK    5  A    between atoms: C11_13  and  O1_14 
REMARK    6  A    between atoms: O1_14  and  C12_15 
REMARK    7  A    between atoms: C13_18  and  N4_19 
REMARK    8  A    between atoms: C16_22  and  C17_23 
REMARK    9  A    between atoms: C21_32  and  C22_33 
REMARK   10  A    between atoms: C22_33  and  C23_34 
REMARK   11  A    between atoms: C23_34  and  C24_35 
ROOT
HETATM    1  C12 UNL     1      19.796  24.418  18.402  1.00  0.00     0.169 A 
HETATM    2  N3  UNL     1      20.489  25.107  17.490  1.00  0.00    -0.170 N 
ATOM      3  H3  UNL     1      20.425  24.819  16.514  1.00  0.00     0.186 HD
HETATM    4  C13 UNL     1      21.265  26.163  17.794  1.00  0.00     0.685 A 
HETATM    5  N5  UNL     1      21.321  26.515  19.100  1.00  0.00    -0.155 N 
ATOM      6  H5  UNL     1      21.900  27.312  19.366  1.00  0.00     0.187 HD
HETATM    7  C20 UNL     1      20.645  25.860  20.060  1.00  0.00     0.270 A 
HETATM    8  O4  UNL     1      20.698  26.190  21.277  1.00  0.00    -0.267 OA
HETATM    9  C21 UNL     1      19.851  24.777  19.742  1.00  0.00     0.062 A 
ENDROOT
BRANCH   1  10
HETATM   10  O1  UNL     1      18.993  23.323  18.069  1.00  0.00    -0.335 OA
BRANCH  10  11
HETATM   11  C11 UNL     1      18.701  23.115  16.720  1.00  0.00     0.179 C 
BRANCH  11  12
HETATM   12  C10 UNL     1      17.677  24.095  16.189  1.00  0.00     0.046 C 
BRANCH  12  13
HETATM   13  C9  UNL     1      17.106  23.668  14.873  1.00  0.00     0.124 C 
BRANCH  13  14
HETATM   14  N2  UNL     1      15.785  23.191  15.038  1.00  0.00    -0.390 N 
HETATM   15  C8  UNL     1      15.050  23.652  16.151  1.00  0.00     0.141 C 
HETATM   16  C7  UNL     1      13.815  22.887  16.472  1.00  0.00     0.143 C 
HETATM   17  N1  UNL     1      14.088  21.469  16.488  1.00  0.00    -0.374 N 
HETATM   18  C26 UNL     1      14.857  20.936  15.388  1.00  0.00     0.167 C 
HETATM   19  C25 UNL     1      15.442  21.943  14.485  1.00  0.00     0.078 C 
BRANCH  17  20
HETATM   20  C6  UNL     1      13.610  20.628  17.546  1.00  0.00     0.042 A 
HETATM   21  C4  UNL     1      12.425  19.945  17.466  1.00  0.00    -0.034 A 
HETATM   22  C3  UNL     1      11.980  19.141  18.489  1.00  0.00     0.015 A 
HETATM   23  C5  UNL     1      11.596  20.066  16.256  1.00  0.00     0.050 C 
HETATM   24  C2  UNL     1      12.724  18.989  19.648  1.00  0.00    -0.061 A 
HETATM   25  C1  UNL     1      12.253  18.129  20.770  1.00  0.00     0.048 C 
HETATM   26  C29 UNL     1      13.920  19.679  19.728  1.00  0.00     0.015 A 
HETATM   27  C27 UNL     1      14.371  20.490  18.700  1.00  0.00    -0.034 A 
HETATM   28  C28 UNL     1      15.654  21.189  18.865  1.00  0.00     0.050 C 
ENDBRANCH  17  20
ENDBRANCH  13  14
ENDBRANCH  12  13
ENDBRANCH  11  12
ENDBRANCH  10  11
ENDBRANCH   1  10
BRANCH   9  29
HETATM   29  C22 UNL     1      19.083  24.010  20.749  1.00  0.00     0.059 C 
BRANCH  29  30
HETATM   30  C23 UNL     1      19.929  23.001  21.483  1.00  0.00     0.118 C 
BRANCH  30  31
HETATM   31  C24 UNL     1      19.305  21.654  21.282  1.00  0.00     0.172 C 
HETATM   32  O5  UNL     1      19.321  21.054  20.184  1.00  0.00    -0.648 OA
HETATM   33  O6  UNL     1      18.662  21.013  22.357  1.00  0.00    -0.648 OA
ENDBRANCH  30  31
ENDBRANCH  29  30
ENDBRANCH   9  29
BRANCH   4  34
HETATM   34  N4  UNL     1      21.998  26.887  16.799  1.00  0.00    -0.217 N 
HETATM   35  C14 UNL     1      21.295  27.841  16.012  1.00  0.00     0.142 C 
HETATM   36  C15 UNL     1      22.109  28.732  15.154  1.00  0.00     0.036 C 
HETATM   37  C16 UNL     1      23.565  28.470  15.119  1.00  0.00     0.090 C 
HETATM   38  C18 UNL     1      24.109  27.930  16.430  1.00  0.00     0.036 C 
HETATM   39  C19 UNL     1      23.418  26.601  16.657  1.00  0.00     0.142 C 
BRANCH  37  40
HETATM   40  C17 UNL     1      24.313  29.647  14.637  1.00  0.00     0.177 C 
HETATM   41  O2  UNL     1      24.184  30.083  13.477  1.00  0.00    -0.648 OA
HETATM   42  O3  UNL     1      25.187  30.286  15.508  1.00  0.00    -0.648 OA
ENDBRANCH  37  40
ENDBRANCH   4  34
TORSDOF 11
ENDMDL
MODEL 2
REMARK VINA RESULT: -9.558772569      3.102      9.014
REMARK  11 active torsions:
REMARK  status: ('A' for Active; 'I' for Inactive)
REMARK    1  A    between atoms: C6_6  and  N1_7 
REMARK    2  A    between atoms: N2_10  and  C9_11 
REMARK    3  A    between atoms: C9_11  and  C10_12 
REMARK    4  A    between atoms: C10_12  and  C11_13 
REMARK    5  A    between atoms: C11_13  and  O1_14 
REMARK    6  A    between atoms: O1_14  and  C12_15 
REMARK    7  A    between atoms: C13_18  and  N4_19 
REMARK    8  A    between atoms: C16_22  and  C17_23 
REMARK    9  A    between atoms: C21_32  and  C22_33 
REMARK   10  A    between atoms: C22_33  and  C23_34 
REMARK   11  A    between atoms: C23_34  and  C24_35 
ROOT
HETATM    1  C12 UNL     1      16.615  21.520  16.695  1.00  0.00     0.169 A 
HETATM    2  N3  UNL     1      17.681  21.986  17.352  1.00  0.00    -0.170 N 
ATOM      3  H3  UNL     1      18.477  22.318  16.808  1.00  0.00     0.186 HD
HETATM    4  C13 UNL     1      17.757  22.039  18.694  1.00  0.00     0.685 A 
HETATM    5  N5  UNL     1      16.679  21.591  19.378  1.00  0.00    -0.155 N 
ATOM      6  H5  UNL     1      16.703  21.618  20.397  1.00  0.00     0.187 HD
HETATM    7  C20 UNL     1      15.579  21.112  18.771  1.00  0.00     0.270 A 
HETATM    8  O4  UNL     1      14.575  20.695  19.411  1.00  0.00    -0.267 OA
HETATM    9  C21 UNL     1      15.507  21.060  17.393  1.00  0.00     0.062 A 
ENDROOT
BRANCH   1  10
HETATM   10  O1  UNL     1      16.551  21.471  15.298  1.00  0.00    -0.335 OA
BRANCH  10  11
HETATM   11  C11 UNL     1      16.272  22.658  14.617  1.00  0.00     0.179 C 
BRANCH  11  12
HETATM   12  C10 UNL     1      16.693  23.886  15.393  1.00  0.00     0.046 C 
BRANCH  12  13
HETATM   13  C9  UNL     1      17.728  24.692  14.672  1.00  0.00     0.124 C 
BRANCH  13  14
HETATM   14  N2  UNL     1      18.826  24.961  15.520  1.00  0.00    -0.390 N 
HETATM   15  C8  UNL     1      18.849  26.199  16.198  1.00  0.00     0.141 C 
HETATM   16  C7  UNL     1      20.154  26.580  16.803  1.00  0.00     0.143 C 
HETATM   17  N1  UNL     1      21.224  26.406  15.849  1.00  0.00    -0.374 N 
HETATM   18  C26 UNL     1      21.245  25.169  15.104  1.00  0.00     0.167 C 
HETATM   19  C25 UNL     1      20.052  24.319  15.265  1.00  0.00     0.078 C 
BRANCH  17  20
HETATM   20  C6  UNL     1      22.225  27.415  15.657  1.00  0.00     0.042 A 
HETATM   21  C4  UNL     1      22.121  28.380  14.690  1.00  0.00    -0.034 A 
HETATM   22  C3  UNL     1      23.088  29.343  14.519  1.00  0.00     0.015 A 
HETATM   23  C5  UNL     1      20.946  28.400  13.805  1.00  0.00     0.050 C 
HETATM   24  C2  UNL     1      24.213  29.371  15.327  1.00  0.00    -0.061 A 
HETATM   25  C1  UNL     1      25.275  30.401  15.150  1.00  0.00     0.048 C 
HETATM   26  C29 UNL     1      24.317  28.396  16.302  1.00  0.00     0.015 A 
HETATM   27  C27 UNL     1      23.345  27.425  16.478  1.00  0.00    -0.034 A 
HETATM   28  C28 UNL     1      23.532  26.424  17.539  1.00  0.00     0.050 C 
ENDBRANCH  17  20
ENDBRANCH  13  14
ENDBRANCH  12  13
ENDBRANCH  11  12
ENDBRANCH  10  11
ENDBRANCH   1  10
BRANCH   9  29
HETATM   29  C22 UNL     1      14.328  20.542  16.662  1.00  0.00     0.059 C 
BRANCH  29  30
HETATM   30  C23 UNL     1      13.290  21.604  16.403  1.00  0.00     0.118 C 
BRANCH  30  31
HETATM   31  C24 UNL     1      12.725  21.361  15.037  1.00  0.00     0.172 C 
HETATM   32  O5  UNL     1      11.760  22.011  14.577  1.00  0.00    -0.648 OA
HETATM   33  O6  UNL     1      13.282  20.365  14.215  1.00  0.00    -0.648 OA
ENDBRANCH  30  31
ENDBRANCH  29  30
ENDBRANCH   9  29
BRANCH   4  34
HETATM   34  N4  UNL     1      18.911  22.544  19.376  1.00  0.00    -0.217 N 
HETATM   35  C14 UNL     1      19.602  23.645  18.798  1.00  0.00     0.142 C 
HETATM   36  C15 UNL     1      20.646  24.290  19.626  1.00  0.00     0.036 C 
HETATM   37  C16 UNL     1      20.942  23.657  20.931  1.00  0.00     0.090 C 
HETATM   38  C18 UNL     1      19.731  22.998  21.567  1.00  0.00     0.036 C 
HETATM   39  C19 UNL     1      19.305  21.896  20.618  1.00  0.00     0.142 C 
BRANCH  37  40
HETATM   40  C17 UNL     1      21.622  24.597  21.845  1.00  0.00     0.177 C 
HETATM   41  O2  UNL     1      20.989  25.385  22.573  1.00  0.00    -0.648 OA
HETATM   42  O3  UNL     1      23.010  24.596  21.891  1.00  0.00    -0.648 OA
ENDBRANCH  37  40
ENDBRANCH   4  34
TORSDOF 11
ENDMDL
MODEL 3
REMARK VINA RESULT: -9.530251236      2.896      9.264
REMARK  11 active torsions:
REMARK  status: ('A' for Active; 'I' for Inactive)
REMARK    1  A    between atoms: C6_6  and  N1_7 
REMARK    2  A    between atoms: N2_10  and  C9_11 
REMARK    3  A    between atoms: C9_11  and  C10_12 
REMARK    4  A    between atoms: C10_12  and  C11_13 
REMARK    5  A    between atoms: C11_13  and  O1_14 
REMARK    6  A    between atoms: O1_14  and  C12_15 
REMARK    7  A    between atoms: C13_18  and  N4_19 
REMARK    8  A    between atoms: C16_22  and  C17_23 
REMARK    9  A    between atoms: C21_32  and  C22_33 
REMARK   10  A    between atoms: C22_33  and  C23_34 
REMARK   11  A    between atoms: C23_34  and  C24_35 
ROOT
HETATM    1  C12 UNL     1      16.040  21.456  16.822  1.00  0.00     0.169 A 
HETATM    2  N3  UNL     1      16.928  21.968  17.679  1.00  0.00    -0.170 N 
ATOM      3  H3  UNL     1      17.745  22.447  17.300  1.00  0.00     0.186 HD
HETATM    4  C13 UNL     1      16.800  21.884  19.015  1.00  0.00     0.685 A 
HETATM    5  N5  UNL     1      15.702  21.241  19.477  1.00  0.00    -0.155 N 
ATOM      6  H5  UNL     1      15.573  21.159  20.486  1.00  0.00     0.187 HD
HETATM    7  C20 UNL     1      14.775  20.707  18.663  1.00  0.00     0.270 A 
HETATM    8  O4  UNL     1      13.752  20.109  19.096  1.00  0.00    -0.267 OA
HETATM    9  C21 UNL     1      14.912  20.797  17.292  1.00  0.00     0.062 A 
ENDROOT
BRANCH   1  10
HETATM   10  O1  UNL     1      16.187  21.552  15.435  1.00  0.00    -0.335 OA
BRANCH  10  11
HETATM   11  C11 UNL     1      15.962  22.795  14.840  1.00  0.00     0.179 C 
BRANCH  11  12
HETATM   12  C10 UNL     1      17.229  23.610  14.698  1.00  0.00     0.046 C 
BRANCH  12  13
HETATM   13  C9  UNL     1      17.256  24.791  15.618  1.00  0.00     0.124 C 
BRANCH  13  14
HETATM   14  N2  UNL     1      18.528  24.921  16.220  1.00  0.00    -0.390 N 
HETATM   15  C8  UNL     1      18.776  26.071  16.999  1.00  0.00     0.141 C 
HETATM   16  C7  UNL     1      20.203  26.332  17.330  1.00  0.00     0.143 C 
HETATM   17  N1  UNL     1      21.024  26.230  16.146  1.00  0.00    -0.374 N 
HETATM   18  C26 UNL     1      20.804  25.087  15.291  1.00  0.00     0.167 C 
HETATM   19  C25 UNL     1      19.627  24.268  15.628  1.00  0.00     0.078 C 
BRANCH  17  20
HETATM   20  C6  UNL     1      22.017  27.218  15.838  1.00  0.00     0.042 A 
HETATM   21  C4  UNL     1      23.235  27.256  16.463  1.00  0.00    -0.034 A 
HETATM   22  C3  UNL     1      24.179  28.209  16.156  1.00  0.00     0.015 A 
HETATM   23  C5  UNL     1      23.557  26.256  17.492  1.00  0.00     0.050 C 
HETATM   24  C2  UNL     1      23.928  29.172  15.192  1.00  0.00    -0.061 A 
HETATM   25  C1  UNL     1      24.935  30.216  14.852  1.00  0.00     0.048 C 
HETATM   26  C29 UNL     1      22.697  29.132  14.562  1.00  0.00     0.015 A 
HETATM   27  C27 UNL     1      21.745  28.175  14.869  1.00  0.00    -0.034 A 
HETATM   28  C28 UNL     1      20.461  28.202  14.151  1.00  0.00     0.050 C 
ENDBRANCH  17  20
ENDBRANCH  13  14
ENDBRANCH  12  13
ENDBRANCH  11  12
ENDBRANCH  10  11
ENDBRANCH   1  10
BRANCH   9  29
HETATM   29  C22 UNL     1      13.931  20.229  16.340  1.00  0.00     0.059 C 
BRANCH  29  30
HETATM   30  C23 UNL     1      12.791  21.170  16.047  1.00  0.00     0.118 C 
BRANCH  30  31
HETATM   31  C24 UNL     1      12.433  21.011  14.601  1.00  0.00     0.172 C 
HETATM   32  O5  UNL     1      13.264  20.677  13.728  1.00  0.00    -0.648 OA
HETATM   33  O6  UNL     1      11.112  21.244  14.177  1.00  0.00    -0.648 OA
ENDBRANCH  30  31
ENDBRANCH  29  30
ENDBRANCH   9  29
BRANCH   4  34
HETATM   34  N4  UNL     1      17.766  22.441  19.914  1.00  0.00    -0.217 N 
HETATM   35  C14 UNL     1      18.706  21.559  20.517  1.00  0.00     0.142 C 
HETATM   36  C15 UNL     1      19.827  22.181  21.258  1.00  0.00     0.036 C 
HETATM   37  C16 UNL     1      19.800  23.655  21.389  1.00  0.00     0.090 C 
HETATM   38  C18 UNL     1      19.163  24.351  20.199  1.00  0.00     0.036 C 
HETATM   39  C19 UNL     1      17.725  23.876  20.153  1.00  0.00     0.142 C 
BRANCH  37  40
HETATM   40  C17 UNL     1      21.136  24.193  21.712  1.00  0.00     0.177 C 
HETATM   41  O2  UNL     1      22.088  23.453  22.024  1.00  0.00    -0.648 OA
HETATM   42  O3  UNL     1      21.332  25.567  21.664  1.00  0.00    -0.648 OA
ENDBRANCH  37  40
ENDBRANCH   4  34
TORSDOF 11
ENDMDL
MODEL 4
REMARK VINA RESULT: -9.524222959      3.130      9.090
REMARK  11 active torsions:
REMARK  status: ('A' for Active; 'I' for Inactive)
REMARK    1  A    between atoms: C6_6  and  N1_7 
REMARK    2  A    between atoms: N2_10  and  C9_11 
REMARK    3  A    between atoms: C9_11  and  C10_12 
REMARK    4  A    between atoms: C10_12  and  C11_13 
REMARK    5  A    between atoms: C11_13  and  O1_14 
REMARK    6  A    between atoms: O1_14  and  C12_15 
REMARK    7  A    between atoms: C13_18  and  N4_19 
REMARK    8  A    between atoms: C16_22  and  C17_23 
REMARK    9  A    between atoms: C21_32  and  C22_33 
REMARK   10  A    between atoms: C22_33  and  C23_34 
REMARK   11  A    between atoms: C23_34  and  C24_35 
ROOT
HETATM    1  C12 UNL     1      16.554  21.499  16.681  1.00  0.00     0.169 A 
HETATM    2  N3  UNL     1      17.621  21.970  17.333  1.00  0.00    -0.170 N 
ATOM      3  H3  UNL     1      18.411  22.311  16.786  1.00  0.00     0.186 HD
HETATM    4  C13 UNL     1      17.706  22.017  18.675  1.00  0.00     0.685 A 
HETATM    5  N5  UNL     1      16.636  21.556  19.364  1.00  0.00    -0.155 N 
ATOM      6  H5  UNL     1      16.666  21.578  20.384  1.00  0.00     0.187 HD
HETATM    7  C20 UNL     1      15.535  21.072  18.762  1.00  0.00     0.270 A 
HETATM    8  O4  UNL     1      14.539  20.643  19.407  1.00  0.00    -0.267 OA
HETATM    9  C21 UNL     1      15.454  21.026  17.385  1.00  0.00     0.062 A 
ENDROOT
BRANCH   1  10
HETATM   10  O1  UNL     1      16.481  21.457  15.285  1.00  0.00    -0.335 OA
BRANCH  10  11
HETATM   11  C11 UNL     1      16.229  22.653  14.610  1.00  0.00     0.179 C 
BRANCH  11  12
HETATM   12  C10 UNL     1      16.669  23.868  15.395  1.00  0.00     0.046 C 
BRANCH  12  13
HETATM   13  C9  UNL     1      17.718  24.662  14.681  1.00  0.00     0.124 C 
BRANCH  13  14
HETATM   14  N2  UNL     1      18.810  24.926  15.539  1.00  0.00    -0.390 N 
HETATM   15  C8  UNL     1      18.833  26.162  16.218  1.00  0.00     0.141 C 
HETATM   16  C7  UNL     1      20.134  26.537  16.835  1.00  0.00     0.143 C 
HETATM   17  N1  UNL     1      21.212  26.360  15.890  1.00  0.00    -0.374 N 
HETATM   18  C26 UNL     1      21.233  25.124  15.143  1.00  0.00     0.167 C 
HETATM   19  C25 UNL     1      20.036  24.279  15.293  1.00  0.00     0.078 C 
BRANCH  17  20
HETATM   20  C6  UNL     1      22.218  27.365  15.707  1.00  0.00     0.042 A 
HETATM   21  C4  UNL     1      23.350  27.421  16.476  1.00  0.00    -0.034 A 
HETATM   22  C3  UNL     1      24.307  28.391  16.288  1.00  0.00     0.015 A 
HETATM   23  C5  UNL     1      23.560  26.423  17.536  1.00  0.00     0.050 C 
HETATM   24  C2  UNL     1      24.160  29.353  15.302  1.00  0.00    -0.061 A 
HETATM   25  C1  UNL     1      25.183  30.415  15.090  1.00  0.00     0.048 C 
HETATM   26  C29 UNL     1      23.017  29.294  14.526  1.00  0.00     0.015 A 
HETATM   27  C27 UNL     1      22.050  28.320  14.713  1.00  0.00    -0.034 A 
HETATM   28  C28 UNL     1      20.864  28.329  13.844  1.00  0.00     0.050 C 
ENDBRANCH  17  20
ENDBRANCH  13  14
ENDBRANCH  12  13
ENDBRANCH  11  12
ENDBRANCH  10  11
ENDBRANCH   1  10
BRANCH   9  29
HETATM   29  C22 UNL     1      14.275  20.503  16.659  1.00  0.00     0.059 C 
BRANCH  29  30
HETATM   30  C23 UNL     1      13.271  21.577  16.327  1.00  0.00     0.118 C 
BRANCH  30  31
HETATM   31  C24 UNL     1      12.723  21.280  14.965  1.00  0.00     0.172 C 
HETATM   32  O5  UNL     1      11.655  21.774  14.540  1.00  0.00    -0.648 OA
HETATM   33  O6  UNL     1      13.417  20.409  14.105  1.00  0.00    -0.648 OA
ENDBRANCH  30  31
ENDBRANCH  29  30
ENDBRANCH   9  29
BRANCH   4  34
HETATM   34  N4  UNL     1      18.860  22.527  19.352  1.00  0.00    -0.217 N 
HETATM   35  C14 UNL     1      19.500  23.676  18.810  1.00  0.00     0.142 C 
HETATM   36  C15 UNL     1      20.545  24.316  19.643  1.00  0.00     0.036 C 
HETATM   37  C16 UNL     1      20.894  23.633  20.909  1.00  0.00     0.090 C 
HETATM   38  C18 UNL     1      19.721  22.905  21.542  1.00  0.00     0.036 C 
HETATM   39  C19 UNL     1      19.306  21.835  20.553  1.00  0.00     0.142 C 
BRANCH  37  40
HETATM   40  C17 UNL     1      21.567  24.551  21.849  1.00  0.00     0.177 C 
HETATM   41  O2  UNL     1      20.947  25.443  22.459  1.00  0.00    -0.648 OA
HETATM   42  O3  UNL     1      22.933  24.411  22.056  1.00  0.00    -0.648 OA
ENDBRANCH  37  40
ENDBRANCH   4  34
TORSDOF 11
ENDMDL
MODEL 5
REMARK VINA RESULT: -9.521753510      2.889      9.282
REMARK  11 active torsions:
REMARK  status: ('A' for Active; 'I' for Inactive)
REMARK    1  A    between atoms: C6_6  and  N1_7 
REMARK    2  A    between atoms: N2_10  and  C9_11 
REMARK    3  A    between atoms: C9_11  and  C10_12 
REMARK    4  A    between atoms: C10_12  and  C11_13 
REMARK    5  A    between atoms: C11_13  and  O1_14 
REMARK    6  A    between atoms: O1_14  and  C12_15 
REMARK    7  A    between atoms: C13_18  and  N4_19 
REMARK    8  A    between atoms: C16_22  and  C17_23 
REMARK    9  A    between atoms: C21_32  and  C22_33 
REMARK   10  A    between atoms: C22_33  and  C23_34 
REMARK   11  A    between atoms: C23_34  and  C24_35 
ROOT
HETATM    1  C12 UNL     1      16.023  21.485  16.770  1.00  0.00     0.169 A 
HETATM    2  N3  UNL     1      16.893  21.999  17.644  1.00  0.00    -0.170 N 
ATOM      3  H3  UNL     1      17.699  22.508  17.281  1.00  0.00     0.186 HD
HETATM    4  C13 UNL     1      16.760  21.880  18.977  1.00  0.00     0.685 A 
HETATM    5  N5  UNL     1      15.677  21.199  19.417  1.00  0.00    -0.155 N 
ATOM      6  H5  UNL     1      15.545  21.089  20.423  1.00  0.00     0.187 HD
HETATM    7  C20 UNL     1      14.768  20.660  18.585  1.00  0.00     0.270 A 
HETATM    8  O4  UNL     1      13.758  20.026  18.998  1.00  0.00    -0.267 OA
HETATM    9  C21 UNL     1      14.910  20.786  17.218  1.00  0.00     0.062 A 
ENDROOT
BRANCH   1  10
HETATM   10  O1  UNL     1      16.175  21.618  15.386  1.00  0.00    -0.335 OA
BRANCH  10  11
HETATM   11  C11 UNL     1      16.023  22.891  14.834  1.00  0.00     0.179 C 
BRANCH  11  12
HETATM   12  C10 UNL     1      17.342  23.615  14.668  1.00  0.00     0.046 C 
BRANCH  12  13
HETATM   13  C9  UNL     1      17.416  24.864  15.489  1.00  0.00     0.124 C 
BRANCH  13  14
HETATM   14  N2  UNL     1      18.688  24.985  16.093  1.00  0.00    -0.390 N 
HETATM   15  C8  UNL     1      18.926  26.108  16.913  1.00  0.00     0.141 C 
HETATM   16  C7  UNL     1      20.352  26.371  17.251  1.00  0.00     0.143 C 
HETATM   17  N1  UNL     1      21.171  26.320  16.063  1.00  0.00    -0.374 N 
HETATM   18  C26 UNL     1      20.960  25.207  15.168  1.00  0.00     0.167 C 
HETATM   19  C25 UNL     1      19.792  24.365  15.477  1.00  0.00     0.078 C 
BRANCH  17  20
HETATM   20  C6  UNL     1      22.154  27.328  15.789  1.00  0.00     0.042 A 
HETATM   21  C4  UNL     1      21.977  28.286  14.826  1.00  0.00    -0.034 A 
HETATM   22  C3  UNL     1      22.928  29.247  14.576  1.00  0.00     0.015 A 
HETATM   23  C5  UNL     1      20.739  28.300  14.032  1.00  0.00     0.050 C 
HETATM   24  C2  UNL     1      24.111  29.281  15.297  1.00  0.00    -0.061 A 
HETATM   25  C1  UNL     1      25.156  30.310  15.034  1.00  0.00     0.048 C 
HETATM   26  C29 UNL     1      24.288  28.313  16.269  1.00  0.00     0.015 A 
HETATM   27  C27 UNL     1      23.333  27.343  16.524  1.00  0.00    -0.034 A 
HETATM   28  C28 UNL     1      23.599  26.350  17.574  1.00  0.00     0.050 C 
ENDBRANCH  17  20
ENDBRANCH  13  14
ENDBRANCH  12  13
ENDBRANCH  11  12
ENDBRANCH  10  11
ENDBRANCH   1  10
BRANCH   9  29
HETATM   29  C22 UNL     1      13.949  20.216  16.247  1.00  0.00     0.059 C 
BRANCH  29  30
HETATM   30  C23 UNL     1      12.772  21.121  15.992  1.00  0.00     0.118 C 
BRANCH  30  31
HETATM   31  C24 UNL     1      11.555  20.257  15.863  1.00  0.00     0.172 C 
HETATM   32  O5  UNL     1      11.363  19.243  16.571  1.00  0.00    -0.648 OA
HETATM   33  O6  UNL     1      10.568  20.573  14.911  1.00  0.00    -0.648 OA
ENDBRANCH  30  31
ENDBRANCH  29  30
ENDBRANCH   9  29
BRANCH   4  34
HETATM   34  N4  UNL     1      17.707  22.440  19.894  1.00  0.00    -0.217 N 
HETATM   35  C14 UNL     1      18.563  21.550  20.599  1.00  0.00     0.142 C 
HETATM   36  C15 UNL     1      19.677  22.156  21.364  1.00  0.00     0.036 C 
HETATM   37  C16 UNL     1      19.724  23.635  21.407  1.00  0.00     0.090 C 
HETATM   38  C18 UNL     1      19.189  24.289  20.146  1.00  0.00     0.036 C 
HETATM   39  C19 UNL     1      17.732  23.887  20.047  1.00  0.00     0.142 C 
BRANCH  37  40
HETATM   40  C17 UNL     1      21.068  24.122  21.773  1.00  0.00     0.177 C 
HETATM   41  O2  UNL     1      21.970  23.351  22.152  1.00  0.00    -0.648 OA
HETATM   42  O3  UNL     1      21.331  25.483  21.689  1.00  0.00    -0.648 OA
ENDBRANCH  37  40
ENDBRANCH   4  34
TORSDOF 11
ENDMDL
