MODEL 1
REMARK VINA RESULT: -7.654804955      0.000      0.000
REMARK  3 active torsions:
REMARK  status: ('A' for Active; 'I' for Inactive)
REMARK    1  A    between atoms: N1_1  and  C1_4 
REMARK    2  A    between atoms: C3_8  and  N3_9 
REMARK    3  A    between atoms: N4_11  and  N5_13 
ROOT
HETATM    1  C1  UNL     1      32.035  65.919   8.640  1.00  0.00     0.692 A 
HETATM    2  N2  UNL     1      31.515  65.577   9.832  1.00  0.00    -0.171 N 
ATOM      3  H2  UNL     1      32.036  65.394  10.689  1.00  0.00     0.186 HD
HETATM    4  C2  UNL     1      30.169  65.521   9.685  1.00  0.00     0.181 A 
HETATM    5  C3  UNL     1      29.180  65.223  10.585  1.00  0.00     0.164 A 
HETATM    6  C4  UNL     1      27.867  65.245  10.135  1.00  0.00     0.281 A 
HETATM    7  O1  UNL     1      26.937  64.977  10.934  1.00  0.00    -0.265 OA
HETATM    8  N6  UNL     1      27.549  65.548   8.863  1.00  0.00    -0.272 N 
ATOM      9  H6  UNL     1      26.576  65.559   8.558  1.00  0.00     0.174 HD
HETATM   10  C5  UNL     1      28.542  65.837   8.003  1.00  0.00     0.350 A 
HETATM   11  O2  UNL     1      28.330  66.129   6.799  1.00  0.00    -0.244 OA
HETATM   12  N7  UNL     1      29.844  65.823   8.415  1.00  0.00    -0.171 N 
HETATM   13  N8  UNL     1      30.992  66.059   7.803  1.00  0.00    -0.120 N 
ATOM     14  H8  UNL     1      31.076  66.316   6.820  1.00  0.00     0.206 HD
ENDROOT
BRANCH   5  15
HETATM   15  N3  UNL     1      29.431  64.896  11.931  1.00  0.00    -0.278 N 
HETATM   16  N4  UNL     1      29.018  63.830  12.484  1.00  0.00    -0.249 N 
ATOM     17  H4  UNL     1      28.476  63.172  11.925  1.00  0.00     0.207 HD
ATOM     18  H3  UNL     1      29.973  65.552  12.494  1.00  0.00     0.189 HD
BRANCH  16  19
HETATM   19  N5  UNL     1      29.267  63.521  13.803  1.00  0.00    -0.331 N 
ATOM     20  H52 UNL     1      28.908  64.161  14.511  1.00  0.00     0.178 HD
ATOM     21  H51 UNL     1      29.786  62.692  14.093  1.00  0.00     0.178 HD
ENDBRANCH  16  19
ENDBRANCH   5  15
BRANCH   1  22
HETATM   22  N1  UNL     1      33.302  66.084   8.340  1.00  0.00    -0.233 N 
ATOM     23  H12 UNL     1      33.881  66.890   8.577  1.00  0.00     0.174 HD
ATOM     24  H11 UNL     1      33.906  65.442   7.828  1.00  0.00     0.174 HD
ENDBRANCH   1  22
TORSDOF 3
ENDMDL
MODEL 2
REMARK VINA RESULT: -7.288671308      1.157      4.218
REMARK  3 active torsions:
REMARK  status: ('A' for Active; 'I' for Inactive)
REMARK    1  A    between atoms: N1_1  and  C1_4 
REMARK    2  A    between atoms: C3_8  and  N3_9 
REMARK    3  A    between atoms: N4_11  and  N5_13 
ROOT
HETATM    1  C1  UNL     1      28.851  64.251  12.329  1.00  0.00     0.692 A 
HETATM    2  N2  UNL     1      29.772  64.416  11.362  1.00  0.00    -0.171 N 
ATOM      3  H2  UNL     1      30.771  64.224  11.440  1.00  0.00     0.186 HD
HETATM    4  C2  UNL     1      29.128  64.885  10.266  1.00  0.00     0.181 A 
HETATM    5  C3  UNL     1      29.599  65.214   9.023  1.00  0.00     0.164 A 
HETATM    6  C4  UNL     1      28.685  65.677   8.085  1.00  0.00     0.281 A 
HETATM    7  O1  UNL     1      29.083  65.988   6.937  1.00  0.00    -0.265 OA
HETATM    8  N6  UNL     1      27.374  65.804   8.364  1.00  0.00    -0.272 N 
ATOM      9  H6  UNL     1      26.723  66.146   7.658  1.00  0.00     0.174 HD
HETATM   10  C5  UNL     1      26.943  65.472   9.594  1.00  0.00     0.350 A 
HETATM   11  O2  UNL     1      25.736  65.562   9.934  1.00  0.00    -0.244 OA
HETATM   12  N7  UNL     1      27.818  65.015  10.537  1.00  0.00    -0.171 N 
HETATM   13  N8  UNL     1      27.676  64.625  11.793  1.00  0.00    -0.120 N 
ATOM     14  H8  UNL     1      26.787  64.610  12.292  1.00  0.00     0.206 HD
ENDROOT
BRANCH   5  15
HETATM   15  N3  UNL     1      30.954  65.110   8.654  1.00  0.00    -0.278 N 
HETATM   16  N4  UNL     1      31.760  66.091   8.650  1.00  0.00    -0.249 N 
ATOM     17  H4  UNL     1      31.410  67.008   8.931  1.00  0.00     0.207 HD
ATOM     18  H3  UNL     1      31.308  64.195   8.373  1.00  0.00     0.189 HD
BRANCH  16  19
HETATM   19  N5  UNL     1      33.083  65.978   8.286  1.00  0.00    -0.331 N 
ATOM     20  H52 UNL     1      33.587  65.149   8.600  1.00  0.00     0.178 HD
ATOM     21  H51 UNL     1      33.569  66.678   7.726  1.00  0.00     0.178 HD
ENDBRANCH  16  19
ENDBRANCH   5  15
BRANCH   1  22
HETATM   22  N1  UNL     1      29.047  63.816  13.551  1.00  0.00    -0.233 N 
ATOM     23  H12 UNL     1      28.560  63.043  14.004  1.00  0.00     0.174 HD
ATOM     24  H11 UNL     1      29.709  64.176  14.238  1.00  0.00     0.174 HD
ENDBRANCH   1  22
TORSDOF 3
ENDMDL
MODEL 3
REMARK VINA RESULT: -6.978523067      1.691      3.612
REMARK  3 active torsions:
REMARK  status: ('A' for Active; 'I' for Inactive)
REMARK    1  A    between atoms: N1_1  and  C1_4 
REMARK    2  A    between atoms: C3_8  and  N3_9 
REMARK    3  A    between atoms: N4_11  and  N5_13 
ROOT
HETATM    1  C1  UNL     1      26.077  65.699   9.367  1.00  0.00     0.692 A 
HETATM    2  N2  UNL     1      26.876  65.455  10.421  1.00  0.00    -0.171 N 
ATOM      3  H2  UNL     1      26.583  65.362  11.394  1.00  0.00     0.186 HD
HETATM    4  C2  UNL     1      28.144  65.355   9.953  1.00  0.00     0.181 A 
HETATM    5  C3  UNL     1      29.324  65.115  10.606  1.00  0.00     0.164 A 
HETATM    6  C4  UNL     1      30.486  65.069   9.847  1.00  0.00     0.281 A 
HETATM    7  O1  UNL     1      31.584  64.851  10.413  1.00  0.00    -0.265 OA
HETATM    8  N6  UNL     1      30.479  65.250   8.513  1.00  0.00    -0.272 N 
ATOM      9  H6  UNL     1      31.346  65.211   7.978  1.00  0.00     0.174 HD
HETATM   10  C5  UNL     1      29.304  65.484   7.902  1.00  0.00     0.350 A 
HETATM   11  O2  UNL     1      29.212  65.663   6.661  1.00  0.00    -0.244 OA
HETATM   12  N7  UNL     1      28.145  65.535   8.621  1.00  0.00    -0.171 N 
HETATM   13  N8  UNL     1      26.881  65.742   8.291  1.00  0.00    -0.120 N 
ATOM     14  H8  UNL     1      26.557  65.912   7.339  1.00  0.00     0.206 HD
ENDROOT
BRANCH   5  15
HETATM   15  N3  UNL     1      29.415  64.916  11.997  1.00  0.00    -0.278 N 
HETATM   16  N4  UNL     1      29.151  63.813  12.568  1.00  0.00    -0.249 N 
ATOM     17  H4  UNL     1      28.857  63.025  11.991  1.00  0.00     0.207 HD
ATOM     18  H3  UNL     1      29.709  65.702  12.578  1.00  0.00     0.189 HD
BRANCH  16  19
HETATM   19  N5  UNL     1      29.242  63.630  13.930  1.00  0.00    -0.331 N 
ATOM     20  H52 UNL     1      28.877  64.371  14.529  1.00  0.00     0.178 HD
ATOM     21  H51 UNL     1      29.651  62.799  14.355  1.00  0.00     0.178 HD
ENDBRANCH  16  19
ENDBRANCH   5  15
BRANCH   1  22
HETATM   22  N1  UNL     1      24.776  65.865   9.375  1.00  0.00    -0.233 N 
ATOM     23  H12 UNL     1      24.276  66.736   9.559  1.00  0.00     0.174 HD
ATOM     24  H11 UNL     1      24.060  65.159   9.202  1.00  0.00     0.174 HD
ENDBRANCH   1  22
TORSDOF 3
ENDMDL
MODEL 4
REMARK VINA RESULT: -6.960601020      1.994      4.667
REMARK  3 active torsions:
REMARK  status: ('A' for Active; 'I' for Inactive)
REMARK    1  A    between atoms: N1_1  and  C1_4 
REMARK    2  A    between atoms: C3_8  and  N3_9 
REMARK    3  A    between atoms: N4_11  and  N5_13 
ROOT
HETATM    1  C1  UNL     1      27.627  62.694  13.266  1.00  0.00     0.692 A 
HETATM    2  N2  UNL     1      28.702  63.346  12.789  1.00  0.00    -0.171 N 
ATOM      3  H2  UNL     1      29.640  63.341  13.191  1.00  0.00     0.186 HD
HETATM    4  C2  UNL     1      28.311  64.012  11.677  1.00  0.00     0.181 A 
HETATM    5  C3  UNL     1      29.013  64.819  10.821  1.00  0.00     0.164 A 
HETATM    6  C4  UNL     1      28.330  65.375   9.747  1.00  0.00     0.281 A 
HETATM    7  O1  UNL     1      28.945  66.119   8.945  1.00  0.00    -0.265 OA
HETATM    8  N6  UNL     1      27.023  65.142   9.530  1.00  0.00    -0.272 N 
ATOM      9  H6  UNL     1      26.544  65.560   8.733  1.00  0.00     0.174 HD
HETATM   10  C5  UNL     1      26.361  64.345  10.388  1.00  0.00     0.350 A 
HETATM   11  O2  UNL     1      25.140  64.077  10.257  1.00  0.00    -0.244 OA
HETATM   12  N7  UNL     1      27.004  63.785  11.454  1.00  0.00    -0.171 N 
HETATM   13  N8  UNL     1      26.614  62.983  12.431  1.00  0.00    -0.120 N 
ATOM     14  H8  UNL     1      25.664  62.629  12.537  1.00  0.00     0.206 HD
ENDROOT
BRANCH   5  15
HETATM   15  N3  UNL     1      30.382  65.112  10.979  1.00  0.00    -0.278 N 
HETATM   16  N4  UNL     1      31.301  64.566  10.295  1.00  0.00    -0.249 N 
ATOM     17  H4  UNL     1      31.038  63.877   9.590  1.00  0.00     0.207 HD
ATOM     18  H3  UNL     1      30.649  65.802  11.682  1.00  0.00     0.189 HD
BRANCH  16  19
HETATM   19  N5  UNL     1      32.636  64.859  10.458  1.00  0.00    -0.331 N 
ATOM     20  H52 UNL     1      33.129  65.266   9.663  1.00  0.00     0.178 HD
ATOM     21  H51 UNL     1      33.142  64.687  11.327  1.00  0.00     0.178 HD
ENDBRANCH  16  19
ENDBRANCH   5  15
BRANCH   1  22
HETATM   22  N1  UNL     1      27.565  61.928  14.330  1.00  0.00    -0.233 N 
ATOM     23  H12 UNL     1      26.890  62.001  15.091  1.00  0.00     0.174 HD
ATOM     24  H11 UNL     1      28.175  61.146  14.566  1.00  0.00     0.174 HD
ENDBRANCH   1  22
TORSDOF 3
ENDMDL
MODEL 5
REMARK VINA RESULT: -6.959320964      1.984      4.418
REMARK  3 active torsions:
REMARK  status: ('A' for Active; 'I' for Inactive)
REMARK    1  A    between atoms: N1_1  and  C1_4 
REMARK    2  A    between atoms: C3_8  and  N3_9 
REMARK    3  A    between atoms: N4_11  and  N5_13 
ROOT
HETATM    1  C1  UNL     1      26.919  63.090  12.086  1.00  0.00     0.692 A 
HETATM    2  N2  UNL     1      28.172  63.243  11.623  1.00  0.00    -0.171 N 
ATOM      3  H2  UNL     1      29.009  62.781  11.978  1.00  0.00     0.186 HD
HETATM    4  C2  UNL     1      28.118  64.125  10.596  1.00  0.00     0.181 A 
HETATM    5  C3  UNL     1      29.106  64.621   9.787  1.00  0.00     0.164 A 
HETATM    6  C4  UNL     1      28.743  65.530   8.802  1.00  0.00     0.281 A 
HETATM    7  O1  UNL     1      29.624  66.003   8.045  1.00  0.00    -0.265 OA
HETATM    8  N6  UNL     1      27.468  65.924   8.626  1.00  0.00    -0.272 N 
ATOM      9  H6  UNL     1      27.226  66.592   7.894  1.00  0.00     0.174 HD
HETATM   10  C5  UNL     1      26.521  65.419   9.435  1.00  0.00     0.350 A 
HETATM   11  O2  UNL     1      25.308  65.736   9.337  1.00  0.00    -0.244 OA
HETATM   12  N7  UNL     1      26.847  64.525  10.414  1.00  0.00    -0.171 N 
HETATM   13  N8  UNL     1      26.141  63.883  11.329  1.00  0.00    -0.120 N 
ATOM     14  H8  UNL     1      25.132  63.978  11.446  1.00  0.00     0.206 HD
ENDROOT
BRANCH   5  15
HETATM   15  N3  UNL     1      30.462  64.259   9.908  1.00  0.00    -0.278 N 
HETATM   16  N4  UNL     1      31.339  64.991  10.462  1.00  0.00    -0.249 N 
ATOM     17  H4  UNL     1      31.049  65.892  10.842  1.00  0.00     0.207 HD
ATOM     18  H3  UNL     1      30.756  63.358   9.529  1.00  0.00     0.189 HD
BRANCH  16  19
HETATM   19  N5  UNL     1      32.662  64.627  10.573  1.00  0.00    -0.331 N 
ATOM     20  H52 UNL     1      33.213  65.076  11.306  1.00  0.00     0.178 HD
ATOM     21  H51 UNL     1      33.105  63.940   9.964  1.00  0.00     0.178 HD
ENDBRANCH  16  19
ENDBRANCH   5  15
BRANCH   1  22
HETATM   22  N1  UNL     1      26.523  62.325  13.076  1.00  0.00    -0.233 N 
ATOM     23  H12 UNL     1      27.118  61.887  13.780  1.00  0.00     0.174 HD
ATOM     24  H11 UNL     1      25.568  62.047  13.300  1.00  0.00     0.174 HD
ENDBRANCH   1  22
TORSDOF 3
ENDMDL
