MODEL 1
REMARK VINA RESULT: -6.658377180      0.000      0.000
REMARK  9 active torsions:
REMARK  status: ('A' for Active; 'I' for Inactive)
REMARK    1  A    between atoms: C2_2  and  N1_3 
REMARK    2  A    between atoms: C2_2  and  C13_23 
REMARK    3  A    between atoms: N1_3  and  C3_5 
REMARK    4  A    between atoms: C3_5  and  C4_6 
REMARK    5  A    between atoms: C3_5  and  C8_14 
REMARK    6  A    between atoms: C4_6  and  C5_7 
REMARK    7  A    between atoms: C5_7  and  C6_8 
REMARK    8  A    between atoms: C6_8  and  N2_9 
REMARK       I    between atoms: N2_9  and  C7_11 
REMARK    9  A    between atoms: C8_14  and  N4_15 
ROOT
HETATM    1  C3  UNL     1      29.002  66.699   9.736  1.00  0.00     0.113 C 
ENDROOT
BRANCH   1   2
HETATM    2  N1  UNL     1      28.018  65.699   9.417  1.00  0.00    -0.403 N 
ATOM      3  H1  UNL     1      28.255  64.713   9.529  1.00  0.00     0.154 HD
BRANCH   2   4
HETATM    4  C2  UNL     1      26.750  66.047   8.958  1.00  0.00     0.162 C 
HETATM    5  C1  UNL     1      26.506  66.522   7.585  1.00  0.00     0.041 C 
BRANCH   4   6
HETATM    6  C13 UNL     1      25.680  65.049   9.282  1.00  0.00     0.253 C 
HETATM    7  N5  UNL     1      25.419  64.088   8.285  1.00  0.00    -0.060 NA
HETATM    8  O2  UNL     1      25.021  65.001  10.327  1.00  0.00    -0.275 OA
ENDBRANCH   4   6
ENDBRANCH   2   4
ENDBRANCH   1   2
BRANCH   1   9
HETATM    9  C4  UNL     1      29.443  66.692  11.156  1.00  0.00     0.029 C 
BRANCH   9  10
HETATM   10  C5  UNL     1      28.532  66.077  12.170  1.00  0.00     0.022 C 
BRANCH  10  11
HETATM   11  C6  UNL     1      29.076  64.731  12.645  1.00  0.00     0.124 C 
BRANCH  11  12
HETATM   12  N2  UNL     1      28.132  63.713  12.289  1.00  0.00    -0.345 N 
HETATM   13  C7  UNL     1      28.080  62.968  11.093  1.00  0.00     0.328 C 
HETATM   14  N3  UNL     1      27.046  61.975  10.915  1.00  0.00    -0.040 NA
HETATM   15  O1  UNL     1      28.917  63.154  10.178  1.00  0.00    -0.251 OA
ATOM     16  H2  UNL     1      27.414  63.503  12.982  1.00  0.00     0.163 HD
ENDBRANCH  11  12
ENDBRANCH  10  11
ENDBRANCH   9  10
ENDBRANCH   1   9
BRANCH   1  17
HETATM   17  C8  UNL     1      30.154  66.439   8.801  1.00  0.00     0.143 C 
HETATM   18  C9  UNL     1      31.468  66.958   9.434  1.00  0.00     0.041 C 
HETATM   19  C10 UNL     1      32.401  66.862   8.231  1.00  0.00     0.003 C 
HETATM   20  C11 UNL     1      31.552  67.029   7.012  1.00  0.00     0.003 C 
HETATM   21  C12 UNL     1      30.141  67.328   7.561  1.00  0.00     0.041 C 
BRANCH  17  22
HETATM   22  N4  UNL     1      30.412  65.134   8.395  1.00  0.00    -0.068 N 
ATOM     23  H43 UNL     1      29.877  64.496   8.984  1.00  0.00     0.275 HD
ATOM     24  H42 UNL     1      29.974  64.980   7.486  1.00  0.00     0.275 HD
ATOM     25  H41 UNL     1      31.378  64.812   8.353  1.00  0.00     0.275 HD
ENDBRANCH  17  22
ENDBRANCH   1  17
TORSDOF 9
ENDMDL
MODEL 2
REMARK VINA RESULT: -6.551011916      1.410      1.644
REMARK  9 active torsions:
REMARK  status: ('A' for Active; 'I' for Inactive)
REMARK    1  A    between atoms: C2_2  and  N1_3 
REMARK    2  A    between atoms: C2_2  and  C13_23 
REMARK    3  A    between atoms: N1_3  and  C3_5 
REMARK    4  A    between atoms: C3_5  and  C4_6 
REMARK    5  A    between atoms: C3_5  and  C8_14 
REMARK    6  A    between atoms: C4_6  and  C5_7 
REMARK    7  A    between atoms: C5_7  and  C6_8 
REMARK    8  A    between atoms: C6_8  and  N2_9 
REMARK       I    between atoms: N2_9  and  C7_11 
REMARK    9  A    between atoms: C8_14  and  N4_15 
ROOT
HETATM    1  C3  UNL     1      29.433  66.338  10.074  1.00  0.00     0.113 C 
ENDROOT
BRANCH   1   2
HETATM    2  N1  UNL     1      28.177  66.881   9.629  1.00  0.00    -0.403 N 
ATOM      3  H1  UNL     1      28.131  67.857   9.335  1.00  0.00     0.154 HD
BRANCH   2   4
HETATM    4  C2  UNL     1      27.022  66.103   9.589  1.00  0.00     0.162 C 
HETATM    5  C1  UNL     1      25.889  66.320  10.506  1.00  0.00     0.041 C 
BRANCH   4   6
HETATM    6  C13 UNL     1      26.455  65.908   8.217  1.00  0.00     0.253 C 
HETATM    7  N5  UNL     1      25.681  64.744   8.036  1.00  0.00    -0.060 NA
HETATM    8  O2  UNL     1      26.607  66.665   7.251  1.00  0.00    -0.275 OA
ENDBRANCH   4   6
ENDBRANCH   2   4
ENDBRANCH   1   2
BRANCH   1   9
HETATM    9  C4  UNL     1      29.333  64.987  10.686  1.00  0.00     0.029 C 
BRANCH   9  10
HETATM   10  C5  UNL     1      29.049  64.901  12.152  1.00  0.00     0.022 C 
BRANCH  10  11
HETATM   11  C6  UNL     1      28.195  63.675  12.470  1.00  0.00     0.124 C 
BRANCH  11  12
HETATM   12  N2  UNL     1      28.020  62.923  11.263  1.00  0.00    -0.345 N 
HETATM   13  C7  UNL     1      26.807  62.498  10.682  1.00  0.00     0.328 C 
HETATM   14  N3  UNL     1      26.832  61.745   9.449  1.00  0.00    -0.040 NA
HETATM   15  O1  UNL     1      25.705  62.764  11.217  1.00  0.00    -0.251 OA
ATOM     16  H2  UNL     1      28.873  62.664  10.766  1.00  0.00     0.163 HD
ENDBRANCH  11  12
ENDBRANCH  10  11
ENDBRANCH   9  10
ENDBRANCH   1   9
BRANCH   1  17
HETATM   17  C8  UNL     1      30.318  66.325   8.855  1.00  0.00     0.143 C 
HETATM   18  C9  UNL     1      31.737  66.812   9.234  1.00  0.00     0.041 C 
HETATM   19  C10 UNL     1      32.340  66.992   7.844  1.00  0.00     0.003 C 
HETATM   20  C11 UNL     1      31.208  67.313   6.922  1.00  0.00     0.003 C 
HETATM   21  C12 UNL     1      29.974  67.415   7.843  1.00  0.00     0.041 C 
BRANCH  17  22
HETATM   22  N4  UNL     1      30.492  65.132   8.162  1.00  0.00    -0.068 N 
ATOM     23  H43 UNL     1      31.078  64.510   8.720  1.00  0.00     0.275 HD
ATOM     24  H42 UNL     1      29.609  64.622   8.158  1.00  0.00     0.275 HD
ATOM     25  H41 UNL     1      30.858  65.162   7.211  1.00  0.00     0.275 HD
ENDBRANCH  17  22
ENDBRANCH   1  17
TORSDOF 9
ENDMDL
MODEL 3
REMARK VINA RESULT: -6.447313085      2.151      4.614
REMARK  9 active torsions:
REMARK  status: ('A' for Active; 'I' for Inactive)
REMARK    1  A    between atoms: C2_2  and  N1_3 
REMARK    2  A    between atoms: C2_2  and  C13_23 
REMARK    3  A    between atoms: N1_3  and  C3_5 
REMARK    4  A    between atoms: C3_5  and  C4_6 
REMARK    5  A    between atoms: C3_5  and  C8_14 
REMARK    6  A    between atoms: C4_6  and  C5_7 
REMARK    7  A    between atoms: C5_7  and  C6_8 
REMARK    8  A    between atoms: C6_8  and  N2_9 
REMARK       I    between atoms: N2_9  and  C7_11 
REMARK    9  A    between atoms: C8_14  and  N4_15 
ROOT
HETATM    1  C3  UNL     1      27.867  65.689   9.406  1.00  0.00     0.113 C 
ENDROOT
BRANCH   1   2
HETATM    2  N1  UNL     1      28.599  66.917   9.247  1.00  0.00    -0.403 N 
ATOM      3  H1  UNL     1      28.173  67.795   9.544  1.00  0.00     0.154 HD
BRANCH   2   4
HETATM    4  C2  UNL     1      29.878  66.934   8.696  1.00  0.00     0.162 C 
HETATM    5  C1  UNL     1      30.960  66.056   9.174  1.00  0.00     0.041 C 
BRANCH   4   6
HETATM    6  C13 UNL     1      29.907  66.903   7.198  1.00  0.00     0.253 C 
HETATM    7  N5  UNL     1      31.002  67.550   6.594  1.00  0.00    -0.060 NA
HETATM    8  O2  UNL     1      29.067  66.368   6.465  1.00  0.00    -0.275 OA
ENDBRANCH   4   6
ENDBRANCH   2   4
ENDBRANCH   1   2
BRANCH   1   9
HETATM    9  C4  UNL     1      27.854  65.159  10.795  1.00  0.00     0.029 C 
BRANCH   9  10
HETATM   10  C5  UNL     1      28.346  63.764  11.017  1.00  0.00     0.022 C 
BRANCH  10  11
HETATM   11  C6  UNL     1      27.178  62.792  11.166  1.00  0.00     0.124 C 
BRANCH  11  12
HETATM   12  N2  UNL     1      27.567  61.532  10.604  1.00  0.00    -0.345 N 
HETATM   13  C7  UNL     1      26.942  60.829   9.553  1.00  0.00     0.328 C 
HETATM   14  N3  UNL     1      27.486  59.563   9.119  1.00  0.00    -0.040 NA
HETATM   15  O1  UNL     1      25.921  61.285   8.986  1.00  0.00    -0.251 OA
ATOM     16  H2  UNL     1      28.391  61.092  11.013  1.00  0.00     0.163 HD
ENDBRANCH  11  12
ENDBRANCH  10  11
ENDBRANCH   9  10
ENDBRANCH   1   9
BRANCH   1  17
HETATM   17  C8  UNL     1      26.472  65.990   8.920  1.00  0.00     0.143 C 
HETATM   18  C9  UNL     1      25.673  66.704  10.036  1.00  0.00     0.041 C 
HETATM   19  C10 UNL     1      24.268  66.636   9.444  1.00  0.00     0.003 C 
HETATM   20  C11 UNL     1      24.223  65.419   8.578  1.00  0.00     0.003 C 
HETATM   21  C12 UNL     1      25.597  64.747   8.781  1.00  0.00     0.041 C 
BRANCH  17  22
HETATM   22  N4  UNL     1      26.310  66.763   7.775  1.00  0.00    -0.068 N 
ATOM     23  H43 UNL     1      26.492  67.739   8.010  1.00  0.00     0.275 HD
ATOM     24  H42 UNL     1      27.079  66.566   7.134  1.00  0.00     0.275 HD
ATOM     25  H41 UNL     1      25.431  66.706   7.261  1.00  0.00     0.275 HD
ENDBRANCH  17  22
ENDBRANCH   1  17
TORSDOF 9
ENDMDL
MODEL 4
REMARK VINA RESULT: -6.425143250      1.233      1.245
REMARK  9 active torsions:
REMARK  status: ('A' for Active; 'I' for Inactive)
REMARK    1  A    between atoms: C2_2  and  N1_3 
REMARK    2  A    between atoms: C2_2  and  C13_23 
REMARK    3  A    between atoms: N1_3  and  C3_5 
REMARK    4  A    between atoms: C3_5  and  C4_6 
REMARK    5  A    between atoms: C3_5  and  C8_14 
REMARK    6  A    between atoms: C4_6  and  C5_7 
REMARK    7  A    between atoms: C5_7  and  C6_8 
REMARK    8  A    between atoms: C6_8  and  N2_9 
REMARK       I    between atoms: N2_9  and  C7_11 
REMARK    9  A    between atoms: C8_14  and  N4_15 
ROOT
HETATM    1  C3  UNL     1      29.043  66.691   9.768  1.00  0.00     0.113 C 
ENDROOT
BRANCH   1   2
HETATM    2  N1  UNL     1      28.169  65.553   9.676  1.00  0.00    -0.403 N 
ATOM      3  H1  UNL     1      28.536  64.624   9.883  1.00  0.00     0.154 HD
BRANCH   2   4
HETATM    4  C2  UNL     1      26.832  65.690   9.310  1.00  0.00     0.162 C 
HETATM    5  C1  UNL     1      26.418  66.299   8.033  1.00  0.00     0.041 C 
BRANCH   4   6
HETATM    6  C13 UNL     1      26.008  64.454   9.502  1.00  0.00     0.253 C 
HETATM    7  N5  UNL     1      24.731  64.652  10.062  1.00  0.00    -0.060 NA
HETATM    8  O2  UNL     1      26.349  63.300   9.217  1.00  0.00    -0.275 OA
ENDBRANCH   4   6
ENDBRANCH   2   4
ENDBRANCH   1   2
BRANCH   1   9
HETATM    9  C4  UNL     1      29.617  66.915  11.121  1.00  0.00     0.029 C 
BRANCH   9  10
HETATM   10  C5  UNL     1      28.669  67.119  12.260  1.00  0.00     0.022 C 
BRANCH  10  11
HETATM   11  C6  UNL     1      28.943  66.118  13.382  1.00  0.00     0.124 C 
BRANCH  11  12
HETATM   12  N2  UNL     1      27.863  65.177  13.418  1.00  0.00    -0.345 N 
HETATM   13  C7  UNL     1      27.768  63.949  12.731  1.00  0.00     0.328 C 
HETATM   14  N3  UNL     1      26.592  63.127  12.897  1.00  0.00    -0.040 NA
HETATM   15  O1  UNL     1      28.690  63.557  11.977  1.00  0.00    -0.251 OA
ATOM     16  H2  UNL     1      27.070  65.424  14.010  1.00  0.00     0.163 HD
ENDBRANCH  11  12
ENDBRANCH  10  11
ENDBRANCH   9  10
ENDBRANCH   1   9
BRANCH   1  17
HETATM   17  C8  UNL     1      30.123  66.451   8.745  1.00  0.00     0.143 C 
HETATM   18  C9  UNL     1      31.477  66.976   9.281  1.00  0.00     0.041 C 
HETATM   19  C10 UNL     1      32.316  66.899   8.009  1.00  0.00     0.003 C 
HETATM   20  C11 UNL     1      31.376  67.069   6.861  1.00  0.00     0.003 C 
HETATM   21  C12 UNL     1      30.008  67.350   7.518  1.00  0.00     0.041 C 
BRANCH  17  22
HETATM   22  N4  UNL     1      30.360  65.151   8.309  1.00  0.00    -0.068 N 
ATOM     23  H43 UNL     1      30.588  65.175   7.315  1.00  0.00     0.275 HD
ATOM     24  H42 UNL     1      31.241  64.826   8.708  1.00  0.00     0.275 HD
ATOM     25  H41 UNL     1      29.646  64.440   8.466  1.00  0.00     0.275 HD
ENDBRANCH  17  22
ENDBRANCH   1  17
TORSDOF 9
ENDMDL
MODEL 5
REMARK VINA RESULT: -6.341656343      1.981      4.939
REMARK  9 active torsions:
REMARK  status: ('A' for Active; 'I' for Inactive)
REMARK    1  A    between atoms: C2_2  and  N1_3 
REMARK    2  A    between atoms: C2_2  and  C13_23 
REMARK    3  A    between atoms: N1_3  and  C3_5 
REMARK    4  A    between atoms: C3_5  and  C4_6 
REMARK    5  A    between atoms: C3_5  and  C8_14 
REMARK    6  A    between atoms: C4_6  and  C5_7 
REMARK    7  A    between atoms: C5_7  and  C6_8 
REMARK    8  A    between atoms: C6_8  and  N2_9 
REMARK       I    between atoms: N2_9  and  C7_11 
REMARK    9  A    between atoms: C8_14  and  N4_15 
ROOT
HETATM    1  C3  UNL     1      28.243  66.198  10.306  1.00  0.00     0.113 C 
ENDROOT
BRANCH   1   2
HETATM    2  N1  UNL     1      29.060  65.895   9.162  1.00  0.00    -0.403 N 
ATOM      3  H1  UNL     1      28.905  65.023   8.656  1.00  0.00     0.154 HD
BRANCH   2   4
HETATM    4  C2  UNL     1      30.058  66.765   8.729  1.00  0.00     0.162 C 
HETATM    5  C1  UNL     1      31.447  66.683   9.217  1.00  0.00     0.041 C 
BRANCH   4   6
HETATM    6  C13 UNL     1      30.116  66.950   7.244  1.00  0.00     0.253 C 
HETATM    7  N5  UNL     1      29.122  66.279   6.505  1.00  0.00    -0.060 NA
HETATM    8  O2  UNL     1      30.947  67.627   6.627  1.00  0.00    -0.275 OA
ENDBRANCH   4   6
ENDBRANCH   2   4
ENDBRANCH   1   2
BRANCH   1   9
HETATM    9  C4  UNL     1      26.807  66.418   9.993  1.00  0.00     0.029 C 
BRANCH   9  10
HETATM   10  C5  UNL     1      26.310  65.993   8.647  1.00  0.00     0.022 C 
BRANCH  10  11
HETATM   11  C6  UNL     1      24.802  65.755   8.673  1.00  0.00     0.124 C 
BRANCH  11  12
HETATM   12  N2  UNL     1      24.534  64.493   8.049  1.00  0.00    -0.345 N 
HETATM   13  C7  UNL     1      24.391  63.237   8.675  1.00  0.00     0.328 C 
HETATM   14  N3  UNL     1      24.118  62.067   7.872  1.00  0.00    -0.040 NA
HETATM   15  O1  UNL     1      24.496  63.117   9.918  1.00  0.00    -0.251 OA
ATOM     16  H2  UNL     1      24.436  64.504   7.034  1.00  0.00     0.163 HD
ENDBRANCH  11  12
ENDBRANCH  10  11
ENDBRANCH   9  10
ENDBRANCH   1   9
BRANCH   1  17
HETATM   17  C8  UNL     1      28.428  65.038  11.249  1.00  0.00     0.143 C 
HETATM   18  C9  UNL     1      28.047  63.718  10.535  1.00  0.00     0.041 C 
HETATM   19  C10 UNL     1      28.027  62.765  11.727  1.00  0.00     0.003 C 
HETATM   20  C11 UNL     1      27.674  63.582  12.927  1.00  0.00     0.003 C 
HETATM   21  C12 UNL     1      27.390  64.992  12.367  1.00  0.00     0.041 C 
BRANCH  17  22
HETATM   22  N4  UNL     1      29.681  64.822  11.814  1.00  0.00    -0.068 N 
ATOM     23  H43 UNL     1      29.963  65.662  12.319  1.00  0.00     0.275 HD
ATOM     24  H42 UNL     1      29.587  64.153  12.578  1.00  0.00     0.275 HD
ATOM     25  H41 UNL     1      30.450  64.526  11.212  1.00  0.00     0.275 HD
ENDBRANCH  17  22
ENDBRANCH   1  17
TORSDOF 9
ENDMDL
