MODEL 1
REMARK VINA RESULT: -6.063952895      0.000      0.000
REMARK  9 active torsions:
REMARK  status: ('A' for Active; 'I' for Inactive)
REMARK    1  A    between atoms: C2_2  and  N1_3 
REMARK    2  A    between atoms: N1_3  and  C3_4 
REMARK    3  A    between atoms: C3_4  and  C4_5 
REMARK       I    between atoms: C4_5  and  N2_7 
REMARK    4  A    between atoms: N2_7  and  N3_9 
REMARK    5  A    between atoms: C5_11  and  O2_12 
REMARK    6  A    between atoms: C5_11  and  C6_14 
REMARK       I    between atoms: C6_14  and  N4_16 
REMARK    7  A    between atoms: N4_16  and  N5_17 
REMARK       I    between atoms: N5_17  and  C7_19 
REMARK    8  A    between atoms: C7_19  and  C8_21 
REMARK    9  A    between atoms: C11_24  and  O5_26 
ROOT
HETATM    1  N3  UNL     1      36.850  -0.472  11.347  1.00  0.00    -0.272 N 
ATOM      2  H3  UNL     1      36.732   0.004  10.452  1.00  0.00     0.189 HD
HETATM    3  C5  UNL     1      36.925   0.279  12.460  1.00  0.00     0.241 C 
ENDROOT
BRANCH   1   4
HETATM    4  N2  UNL     1      36.928  -1.904  11.342  1.00  0.00    -0.267 N 
HETATM    5  C4  UNL     1      35.755  -2.678  11.201  1.00  0.00     0.254 C 
HETATM    6  O1  UNL     1      34.672  -2.095  11.014  1.00  0.00    -0.270 OA
ATOM      7  H2  UNL     1      37.832  -2.365  11.442  1.00  0.00     0.190 HD
BRANCH   5   8
HETATM    8  C3  UNL     1      35.912  -4.147  11.297  1.00  0.00     0.229 C 
BRANCH   8   9
HETATM    9  N1  UNL     1      35.885  -4.592  12.669  1.00  0.00    -0.357 N 
HETATM   10  C11 UNL     1      37.032  -4.743  13.348  1.00  0.00     0.109 C 
HETATM   11  C12 UNL     1      38.440  -4.564  12.940  1.00  0.00     0.097 C 
BRANCH   9  12
HETATM   12  C2  UNL     1      34.588  -4.881  13.312  1.00  0.00     0.120 C 
HETATM   13  C1  UNL     1      33.886  -6.057  12.690  1.00  0.00     0.026 C 
ENDBRANCH   9  12
BRANCH  10  14
HETATM   14  O5  UNL     1      36.991  -5.116  14.632  1.00  0.00    -0.350 OA
ATOM     15  H5  UNL     1      37.804  -5.262  15.102  1.00  0.00     0.219 HD
ENDBRANCH  10  14
ENDBRANCH   8   9
ENDBRANCH   5   8
ENDBRANCH   1   4
BRANCH   3  16
HETATM   16  O2  UNL     1      37.058  -0.717  13.515  1.00  0.00    -0.340 OA
ATOM     17  H2  UNL     1      37.877  -0.476  13.931  1.00  0.00     0.219 HD
ENDBRANCH   3  16
BRANCH   3  18
HETATM   18  C6  UNL     1      36.928   1.551  13.060  1.00  0.00     0.387 C 
HETATM   19  O3  UNL     1      36.881   2.540  12.236  1.00  0.00    -0.245 OA
HETATM   20  N4  UNL     1      36.973   1.688  14.427  1.00  0.00    -0.275 NA
BRANCH  20  21
HETATM   21  N5  UNL     1      37.007   1.909  15.748  1.00  0.00    -0.199 N 
HETATM   22  C7  UNL     1      37.455   0.937  16.742  1.00  0.00     0.250 C 
HETATM   23  O4  UNL     1      37.812  -0.166  16.259  1.00  0.00    -0.271 OA
ATOM     24  H5  UNL     1      36.699   2.821  16.084  1.00  0.00     0.205 HD
BRANCH  22  25
HETATM   25  C8  UNL     1      37.455   1.349  18.111  1.00  0.00     0.080 A 
HETATM   26  C9  UNL     1      37.996   2.589  18.679  1.00  0.00     0.015 A 
HETATM   27  C10 UNL     1      38.872   1.368  18.762  1.00  0.00     0.015 A 
ENDBRANCH  22  25
ENDBRANCH  20  21
ENDBRANCH   3  18
TORSDOF 9
ENDMDL
MODEL 2
REMARK VINA RESULT: -5.731861010      3.448      8.642
REMARK  9 active torsions:
REMARK  status: ('A' for Active; 'I' for Inactive)
REMARK    1  A    between atoms: C2_2  and  N1_3 
REMARK    2  A    between atoms: N1_3  and  C3_4 
REMARK    3  A    between atoms: C3_4  and  C4_5 
REMARK       I    between atoms: C4_5  and  N2_7 
REMARK    4  A    between atoms: N2_7  and  N3_9 
REMARK    5  A    between atoms: C5_11  and  O2_12 
REMARK    6  A    between atoms: C5_11  and  C6_14 
REMARK       I    between atoms: C6_14  and  N4_16 
REMARK    7  A    between atoms: N4_16  and  N5_17 
REMARK       I    between atoms: N5_17  and  C7_19 
REMARK    8  A    between atoms: C7_19  and  C8_21 
REMARK    9  A    between atoms: C11_24  and  O5_26 
ROOT
HETATM    1  N3  UNL     1      35.202  -4.560  13.824  1.00  0.00    -0.272 N 
ATOM      2  H3  UNL     1      35.161  -5.075  14.704  1.00  0.00     0.189 HD
HETATM    3  C5  UNL     1      34.663  -5.130  12.731  1.00  0.00     0.241 C 
ENDROOT
BRANCH   1   4
HETATM    4  N2  UNL     1      35.831  -3.271  13.825  1.00  0.00    -0.267 N 
HETATM    5  C4  UNL     1      37.204  -3.152  14.133  1.00  0.00     0.254 C 
HETATM    6  O1  UNL     1      37.864  -4.187  14.336  1.00  0.00    -0.270 OA
ATOM      7  H2  UNL     1      35.285  -2.439  13.603  1.00  0.00     0.190 HD
BRANCH   5   8
HETATM    8  C3  UNL     1      37.753  -1.779  14.200  1.00  0.00     0.229 C 
BRANCH   8   9
HETATM    9  N1  UNL     1      38.111  -1.288  12.891  1.00  0.00    -0.357 N 
HETATM   10  C11 UNL     1      39.323  -1.557  12.382  1.00  0.00     0.109 C 
HETATM   11  C12 UNL     1      40.478  -2.285  12.943  1.00  0.00     0.097 C 
BRANCH   9  12
HETATM   12  C2  UNL     1      37.134  -0.489  12.125  1.00  0.00     0.120 C 
HETATM   13  C1  UNL     1      36.893   0.864  12.735  1.00  0.00     0.026 C 
ENDBRANCH   9  12
BRANCH  10  14
HETATM   14  O5  UNL     1      39.627  -1.131  11.151  1.00  0.00    -0.350 OA
ATOM     15  H5  UNL     1      40.253  -0.424  11.043  1.00  0.00     0.219 HD
ENDBRANCH  10  14
ENDBRANCH   8   9
ENDBRANCH   5   8
ENDBRANCH   1   4
BRANCH   3  16
HETATM   16  O2  UNL     1      34.875  -4.122  11.701  1.00  0.00    -0.340 OA
ATOM     17  H2  UNL     1      35.462  -4.558  11.095  1.00  0.00     0.219 HD
ENDBRANCH   3  16
BRANCH   3  18
HETATM   18  C6  UNL     1      34.001  -6.222  12.141  1.00  0.00     0.387 C 
HETATM   19  O3  UNL     1      32.867  -6.520  12.672  1.00  0.00    -0.245 OA
HETATM   20  N4  UNL     1      34.552  -6.891  11.074  1.00  0.00    -0.275 NA
BRANCH  20  21
HETATM   21  N5  UNL     1      35.015  -7.591  10.030  1.00  0.00    -0.199 N 
HETATM   22  C7  UNL     1      36.172  -8.483  10.074  1.00  0.00     0.250 C 
HETATM   23  O4  UNL     1      36.730  -8.547  11.197  1.00  0.00    -0.271 OA
ATOM     24  H5  UNL     1      34.526  -7.495   9.141  1.00  0.00     0.205 HD
BRANCH  22  25
HETATM   25  C8  UNL     1      36.512  -9.178   8.871  1.00  0.00     0.080 A 
HETATM   26  C9  UNL     1      35.605  -9.672   7.829  1.00  0.00     0.015 A 
HETATM   27  C10 UNL     1      36.060 -10.671   8.859  1.00  0.00     0.015 A 
ENDBRANCH  22  25
ENDBRANCH  20  21
ENDBRANCH   3  18
TORSDOF 9
ENDMDL
MODEL 3
REMARK VINA RESULT: -5.558588213      2.323      7.548
REMARK  9 active torsions:
REMARK  status: ('A' for Active; 'I' for Inactive)
REMARK    1  A    between atoms: C2_2  and  N1_3 
REMARK    2  A    between atoms: N1_3  and  C3_4 
REMARK    3  A    between atoms: C3_4  and  C4_5 
REMARK       I    between atoms: C4_5  and  N2_7 
REMARK    4  A    between atoms: N2_7  and  N3_9 
REMARK    5  A    between atoms: C5_11  and  O2_12 
REMARK    6  A    between atoms: C5_11  and  C6_14 
REMARK       I    between atoms: C6_14  and  N4_16 
REMARK    7  A    between atoms: N4_16  and  N5_17 
REMARK       I    between atoms: N5_17  and  C7_19 
REMARK    8  A    between atoms: C7_19  and  C8_21 
REMARK    9  A    between atoms: C11_24  and  O5_26 
ROOT
HETATM    1  N3  UNL     1      38.126   2.876  15.781  1.00  0.00    -0.272 N 
ATOM      2  H3  UNL     1      38.908   3.401  15.389  1.00  0.00     0.189 HD
HETATM    3  C5  UNL     1      37.185   2.416  14.936  1.00  0.00     0.241 C 
ENDROOT
BRANCH   1   4
HETATM    4  N2  UNL     1      38.094   2.671  17.200  1.00  0.00    -0.267 N 
HETATM    5  C4  UNL     1      38.852   3.501  18.054  1.00  0.00     0.254 C 
HETATM    6  O1  UNL     1      39.489   4.447  17.558  1.00  0.00    -0.270 OA
ATOM      7  H2  UNL     1      37.522   1.923  17.593  1.00  0.00     0.190 HD
BRANCH   5   8
HETATM    8  C3  UNL     1      38.834   3.164  19.496  1.00  0.00     0.229 C 
BRANCH   8   9
HETATM    9  N1  UNL     1      38.254   1.864  19.728  1.00  0.00    -0.357 N 
HETATM   10  C11 UNL     1      39.045   0.783  19.814  1.00  0.00     0.109 C 
HETATM   11  C12 UNL     1      40.506   0.628  19.677  1.00  0.00     0.097 C 
BRANCH   9  12
HETATM   12  C2  UNL     1      36.790   1.737  19.865  1.00  0.00     0.120 C 
HETATM   13  C1  UNL     1      36.296   2.192  21.210  1.00  0.00     0.026 C 
ENDBRANCH   9  12
BRANCH  10  14
HETATM   14  O5  UNL     1      38.498  -0.411  20.070  1.00  0.00    -0.350 OA
ATOM     15  H5  UNL     1      38.065  -0.557  20.903  1.00  0.00     0.219 HD
ENDBRANCH  10  14
ENDBRANCH   8   9
ENDBRANCH   5   8
ENDBRANCH   1   4
BRANCH   3  16
HETATM   16  O2  UNL     1      36.270   1.709  15.822  1.00  0.00    -0.340 OA
ATOM     17  H2  UNL     1      36.672   0.852  15.901  1.00  0.00     0.219 HD
ENDBRANCH   3  16
BRANCH   3  18
HETATM   18  C6  UNL     1      36.694   2.301  13.622  1.00  0.00     0.387 C 
HETATM   19  O3  UNL     1      36.392   3.418  13.058  1.00  0.00    -0.245 OA
HETATM   20  N4  UNL     1      36.565   1.073  13.020  1.00  0.00    -0.275 NA
BRANCH  20  21
HETATM   21  N5  UNL     1      36.417  -0.083  12.357  1.00  0.00    -0.199 N 
HETATM   22  C7  UNL     1      37.037  -1.348  12.745  1.00  0.00     0.250 C 
HETATM   23  O4  UNL     1      37.752  -1.276  13.774  1.00  0.00    -0.271 OA
ATOM     24  H5  UNL     1      35.830  -0.078  11.524  1.00  0.00     0.205 HD
BRANCH  22  25
HETATM   25  C8  UNL     1      36.748  -2.494  11.940  1.00  0.00     0.080 A 
HETATM   26  C9  UNL     1      35.540  -2.759  11.150  1.00  0.00     0.015 A 
HETATM   27  C10 UNL     1      35.610  -3.393  12.514  1.00  0.00     0.015 A 
ENDBRANCH  22  25
ENDBRANCH  20  21
ENDBRANCH   3  18
TORSDOF 9
ENDMDL
MODEL 4
REMARK VINA RESULT: -5.544446264      3.557      9.029
REMARK  9 active torsions:
REMARK  status: ('A' for Active; 'I' for Inactive)
REMARK    1  A    between atoms: C2_2  and  N1_3 
REMARK    2  A    between atoms: N1_3  and  C3_4 
REMARK    3  A    between atoms: C3_4  and  C4_5 
REMARK       I    between atoms: C4_5  and  N2_7 
REMARK    4  A    between atoms: N2_7  and  N3_9 
REMARK    5  A    between atoms: C5_11  and  O2_12 
REMARK    6  A    between atoms: C5_11  and  C6_14 
REMARK       I    between atoms: C6_14  and  N4_16 
REMARK    7  A    between atoms: N4_16  and  N5_17 
REMARK       I    between atoms: N5_17  and  C7_19 
REMARK    8  A    between atoms: C7_19  and  C8_21 
REMARK    9  A    between atoms: C11_24  and  O5_26 
ROOT
HETATM    1  N3  UNL     1      35.434  -5.226  13.904  1.00  0.00    -0.272 N 
ATOM      2  H3  UNL     1      35.812  -5.797  14.661  1.00  0.00     0.189 HD
HETATM    3  C5  UNL     1      34.676  -5.832  12.972  1.00  0.00     0.241 C 
ENDROOT
BRANCH   1   4
HETATM    4  N2  UNL     1      35.741  -3.826  13.897  1.00  0.00    -0.267 N 
HETATM    5  C4  UNL     1      37.050  -3.388  13.599  1.00  0.00     0.254 C 
HETATM    6  O1  UNL     1      37.905  -4.232  13.280  1.00  0.00    -0.270 OA
ATOM      7  H2  UNL     1      35.012  -3.144  14.109  1.00  0.00     0.190 HD
BRANCH   5   8
HETATM    8  C3  UNL     1      37.303  -1.933  13.702  1.00  0.00     0.229 C 
BRANCH   8   9
HETATM    9  N1  UNL     1      37.562  -1.348  12.409  1.00  0.00    -0.357 N 
HETATM   10  C11 UNL     1      36.544  -1.092  11.573  1.00  0.00     0.109 C 
HETATM   11  C12 UNL     1      35.093  -1.334  11.698  1.00  0.00     0.097 C 
BRANCH   9  12
HETATM   12  C2  UNL     1      38.952  -1.041  12.018  1.00  0.00     0.120 C 
HETATM   13  C1  UNL     1      39.462   0.223  12.653  1.00  0.00     0.026 C 
ENDBRANCH   9  12
BRANCH  10  14
HETATM   14  O5  UNL     1      36.793  -0.512  10.394  1.00  0.00    -0.350 OA
ATOM     15  H5  UNL     1      37.114   0.382  10.372  1.00  0.00     0.219 HD
ENDBRANCH  10  14
ENDBRANCH   8   9
ENDBRANCH   5   8
ENDBRANCH   1   4
BRANCH   3  16
HETATM   16  O2  UNL     1      34.298  -4.732  12.096  1.00  0.00    -0.340 OA
ATOM     17  H2  UNL     1      34.519  -3.965  12.610  1.00  0.00     0.219 HD
ENDBRANCH   3  16
BRANCH   3  18
HETATM   18  C6  UNL     1      34.090  -7.008  12.469  1.00  0.00     0.387 C 
HETATM   19  O3  UNL     1      33.204  -7.543  13.235  1.00  0.00    -0.245 OA
HETATM   20  N4  UNL     1      34.459  -7.515  11.246  1.00  0.00    -0.275 NA
BRANCH  20  21
HETATM   21  N5  UNL     1      34.754  -8.070  10.063  1.00  0.00    -0.199 N 
HETATM   22  C7  UNL     1      36.032  -8.699   9.735  1.00  0.00     0.250 C 
HETATM   23  O4  UNL     1      36.870  -8.677  10.670  1.00  0.00    -0.271 OA
ATOM     24  H5  UNL     1      34.036  -8.052   9.339  1.00  0.00     0.205 HD
BRANCH  22  25
HETATM   25  C8  UNL     1      36.168  -9.269   8.432  1.00  0.00     0.080 A 
HETATM   26  C9  UNL     1      35.130  -9.906   7.614  1.00  0.00     0.015 A 
HETATM   27  C10 UNL     1      36.023 -10.822   8.407  1.00  0.00     0.015 A 
ENDBRANCH  22  25
ENDBRANCH  20  21
ENDBRANCH   3  18
TORSDOF 9
ENDMDL
MODEL 5
REMARK VINA RESULT: -5.513160449      2.291      7.623
REMARK  9 active torsions:
REMARK  status: ('A' for Active; 'I' for Inactive)
REMARK    1  A    between atoms: C2_2  and  N1_3 
REMARK    2  A    between atoms: N1_3  and  C3_4 
REMARK    3  A    between atoms: C3_4  and  C4_5 
REMARK       I    between atoms: C4_5  and  N2_7 
REMARK    4  A    between atoms: N2_7  and  N3_9 
REMARK    5  A    between atoms: C5_11  and  O2_12 
REMARK    6  A    between atoms: C5_11  and  C6_14 
REMARK       I    between atoms: C6_14  and  N4_16 
REMARK    7  A    between atoms: N4_16  and  N5_17 
REMARK       I    between atoms: N5_17  and  C7_19 
REMARK    8  A    between atoms: C7_19  and  C8_21 
REMARK    9  A    between atoms: C11_24  and  O5_26 
ROOT
HETATM    1  N3  UNL     1      38.337   2.737  15.334  1.00  0.00    -0.272 N 
ATOM      2  H3  UNL     1      39.277   2.982  15.021  1.00  0.00     0.189 HD
HETATM    3  C5  UNL     1      37.434   2.376  14.406  1.00  0.00     0.241 C 
ENDROOT
BRANCH   1   4
HETATM    4  N2  UNL     1      38.057   2.799  16.740  1.00  0.00    -0.267 N 
HETATM    5  C4  UNL     1      38.917   3.512  17.603  1.00  0.00     0.254 C 
HETATM    6  O1  UNL     1      39.876   4.135  17.114  1.00  0.00    -0.270 OA
ATOM      7  H2  UNL     1      37.235   2.327  17.116  1.00  0.00     0.190 HD
BRANCH   5   8
HETATM    8  C3  UNL     1      38.606   3.450  19.050  1.00  0.00     0.229 C 
BRANCH   8   9
HETATM    9  N1  UNL     1      38.832   2.129  19.583  1.00  0.00    -0.357 N 
HETATM   10  C11 UNL     1      37.807   1.426  20.089  1.00  0.00     0.109 C 
HETATM   11  C12 UNL     1      36.380   1.765  20.260  1.00  0.00     0.097 C 
BRANCH   9  12
HETATM   12  C2  UNL     1      40.195   1.564  19.567  1.00  0.00     0.120 C 
HETATM   13  C1  UNL     1      40.397   0.579  18.449  1.00  0.00     0.026 C 
ENDBRANCH   9  12
BRANCH  10  14
HETATM   14  O5  UNL     1      38.021   0.186  20.543  1.00  0.00    -0.350 OA
ATOM     15  H5  UNL     1      38.641  -0.375  20.091  1.00  0.00     0.219 HD
ENDBRANCH  10  14
ENDBRANCH   8   9
ENDBRANCH   5   8
ENDBRANCH   1   4
BRANCH   3  16
HETATM   16  O2  UNL     1      36.251   2.077  15.202  1.00  0.00    -0.340 OA
ATOM     17  H2  UNL     1      36.021   2.924  15.566  1.00  0.00     0.219 HD
ENDBRANCH   3  16
BRANCH   3  18
HETATM   18  C6  UNL     1      37.114   2.153  13.053  1.00  0.00     0.387 C 
HETATM   19  O3  UNL     1      37.054   3.216  12.329  1.00  0.00    -0.245 OA
HETATM   20  N4  UNL     1      36.896   0.883  12.578  1.00  0.00    -0.275 NA
BRANCH  20  21
HETATM   21  N5  UNL     1      36.677  -0.322  12.033  1.00  0.00    -0.199 N 
HETATM   22  C7  UNL     1      37.118  -1.589  12.612  1.00  0.00     0.250 C 
HETATM   23  O4  UNL     1      37.748  -1.469  13.692  1.00  0.00    -0.271 OA
ATOM     24  H5  UNL     1      36.166  -0.357  11.151  1.00  0.00     0.205 HD
BRANCH  22  25
HETATM   25  C8  UNL     1      36.773  -2.786  11.911  1.00  0.00     0.080 A 
HETATM   26  C9  UNL     1      35.579  -3.042  11.098  1.00  0.00     0.015 A 
HETATM   27  C10 UNL     1      35.549  -3.539  12.519  1.00  0.00     0.015 A 
ENDBRANCH  22  25
ENDBRANCH  20  21
ENDBRANCH   3  18
TORSDOF 9
ENDMDL
