MODEL 1
REMARK VINA RESULT: -6.461663984      0.000      0.000
REMARK  4 active torsions:
REMARK  status: ('A' for Active; 'I' for Inactive)
REMARK    1  A    between atoms: O1_2  and  C2_3 
REMARK    2  A    between atoms: C2_3  and  C3_4 
REMARK       I    between atoms: N2_6  and  C4_8 
REMARK    3  A    between atoms: C4_8  and  C5_10 
REMARK    4  A    between atoms: C5_10  and  N4_16 
REMARK       I    between atoms: N3_11  and  C6_13 
ROOT
HETATM    1  N4  UNL     1      35.602  -1.015  12.037  1.00  0.00    -0.275 N 
ATOM      2  H4  UNL     1      34.836  -0.395  12.302  1.00  0.00     0.180 HD
HETATM    3  C8  UNL     1      35.353  -2.187  11.322  1.00  0.00     0.183 C 
HETATM    4  N5  UNL     1      35.133  -3.168  10.725  1.00  0.00    -0.172 NA
ENDROOT
BRANCH   1   5
HETATM    5  C5  UNL     1      36.971  -0.696  12.399  1.00  0.00     0.186 C 
HETATM    6  N3  UNL     1      37.817  -1.591  12.119  1.00  0.00    -0.308 N 
HETATM    7  C6  UNL     1      39.184  -1.491  12.379  1.00  0.00     0.219 C 
ATOM      8  H3  UNL     1      37.479  -2.443  11.673  1.00  0.00     0.170 HD
HETATM    9  C7  UNL     1      40.111  -0.962  11.345  1.00  0.00     0.117 C 
HETATM   10  O3  UNL     1      39.642  -1.846  13.486  1.00  0.00    -0.274 OA
BRANCH   5  11
HETATM   11  C4  UNL     1      37.270   0.555  13.022  1.00  0.00     0.291 C 
HETATM   12  N2  UNL     1      37.735   0.669  14.340  1.00  0.00    -0.307 N 
HETATM   13  C3  UNL     1      37.303   1.584  15.122  1.00  0.00     0.171 C 
ATOM     14  H2  UNL     1      38.432   0.008  14.682  1.00  0.00     0.170 HD
HETATM   15  N1  UNL     1      36.296   2.508  14.641  1.00  0.00    -0.080 NA
HETATM   16  O2  UNL     1      37.115   1.649  12.378  1.00  0.00    -0.264 OA
BRANCH  13  17
HETATM   17  C2  UNL     1      37.745   1.766  16.520  1.00  0.00     0.284 C 
HETATM   18  N6  UNL     1      39.010   1.068  16.625  1.00  0.00    -0.362 N 
HETATM   19  C9  UNL     1      39.268   0.404  17.843  1.00  0.00     0.223 C 
ATOM     20  H6  UNL     1      39.681   1.058  15.857  1.00  0.00     0.158 HD
HETATM   21  C10 UNL     1      38.439   0.821  18.987  1.00  0.00     0.250 C 
HETATM   22  O4  UNL     1      38.881   0.942  20.157  1.00  0.00    -0.270 OA
HETATM   23  N7  UNL     1      37.054   1.090  18.679  1.00  0.00    -0.268 N 
HETATM   24  N8  UNL     1      36.746   1.113  17.328  1.00  0.00    -0.070 NA
ATOM     25  H7  UNL     1      36.354   1.252  19.403  1.00  0.00     0.185 HD
BRANCH  17  26
HETATM   26  O1  UNL     1      37.962   3.065  16.795  1.00  0.00    -0.345 OA
HETATM   27  C1  UNL     1      39.090   3.692  16.425  1.00  0.00     0.206 C 
ENDBRANCH  17  26
ENDBRANCH  13  17
ENDBRANCH   5  11
ENDBRANCH   1   5
TORSDOF 4
ENDMDL
MODEL 2
REMARK VINA RESULT: -6.175827330      1.897      3.063
REMARK  4 active torsions:
REMARK  status: ('A' for Active; 'I' for Inactive)
REMARK    1  A    between atoms: O1_2  and  C2_3 
REMARK    2  A    between atoms: C2_3  and  C3_4 
REMARK       I    between atoms: N2_6  and  C4_8 
REMARK    3  A    between atoms: C4_8  and  C5_10 
REMARK    4  A    between atoms: C5_10  and  N4_16 
REMARK       I    between atoms: N3_11  and  C6_13 
ROOT
HETATM    1  N4  UNL     1      36.441  -1.785  13.011  1.00  0.00    -0.275 N 
ATOM      2  H4  UNL     1      36.645  -2.641  13.528  1.00  0.00     0.180 HD
HETATM    3  C8  UNL     1      35.594  -1.808  11.903  1.00  0.00     0.183 C 
HETATM    4  N5  UNL     1      34.884  -1.840  10.974  1.00  0.00    -0.172 NA
ENDROOT
BRANCH   1   5
HETATM    5  C5  UNL     1      37.027  -0.520  13.415  1.00  0.00     0.186 C 
HETATM    6  N3  UNL     1      36.556   0.495  12.829  1.00  0.00    -0.308 N 
HETATM    7  C6  UNL     1      36.975   1.805  13.064  1.00  0.00     0.219 C 
ATOM      8  H3  UNL     1      35.821   0.348  12.138  1.00  0.00     0.170 HD
HETATM    9  C7  UNL     1      36.275   2.651  14.066  1.00  0.00     0.117 C 
HETATM   10  O3  UNL     1      37.943   2.280  12.434  1.00  0.00    -0.274 OA
BRANCH   5  11
HETATM   11  C4  UNL     1      38.057  -0.496  14.406  1.00  0.00     0.291 C 
HETATM   12  N2  UNL     1      37.829  -0.155  15.747  1.00  0.00    -0.307 N 
HETATM   13  C3  UNL     1      38.649   0.582  16.395  1.00  0.00     0.171 C 
ATOM     14  H2  UNL     1      36.993  -0.503  16.216  1.00  0.00     0.170 HD
HETATM   15  N1  UNL     1      39.825   1.093  15.721  1.00  0.00    -0.080 NA
HETATM   16  O2  UNL     1      39.260  -0.793  14.092  1.00  0.00    -0.264 OA
BRANCH  13  17
HETATM   17  C2  UNL     1      38.477   0.982  17.806  1.00  0.00     0.284 C 
HETATM   18  N6  UNL     1      37.142   0.557  18.175  1.00  0.00    -0.362 N 
HETATM   19  C9  UNL     1      36.426   1.402  19.049  1.00  0.00     0.223 C 
ATOM     20  H6  UNL     1      36.740  -0.310  17.820  1.00  0.00     0.158 HD
HETATM   21  C10 UNL     1      37.234   2.380  19.797  1.00  0.00     0.250 C 
HETATM   22  O4  UNL     1      37.021   2.684  20.998  1.00  0.00    -0.270 OA
HETATM   23  N7  UNL     1      38.313   2.986  19.053  1.00  0.00    -0.268 N 
HETATM   24  N8  UNL     1      38.561   2.422  17.812  1.00  0.00    -0.070 NA
ATOM     25  H7  UNL     1      38.853   3.773  19.415  1.00  0.00     0.185 HD
BRANCH  17  26
HETATM   26  O1  UNL     1      39.352   0.342  18.602  1.00  0.00    -0.345 OA
HETATM   27  C1  UNL     1      39.288  -0.982  18.811  1.00  0.00     0.206 C 
ENDBRANCH  17  26
ENDBRANCH  13  17
ENDBRANCH   5  11
ENDBRANCH   1   5
TORSDOF 4
ENDMDL
MODEL 3
REMARK VINA RESULT: -6.139627934      1.194      1.671
REMARK  4 active torsions:
REMARK  status: ('A' for Active; 'I' for Inactive)
REMARK    1  A    between atoms: O1_2  and  C2_3 
REMARK    2  A    between atoms: C2_3  and  C3_4 
REMARK       I    between atoms: N2_6  and  C4_8 
REMARK    3  A    between atoms: C4_8  and  C5_10 
REMARK    4  A    between atoms: C5_10  and  N4_16 
REMARK       I    between atoms: N3_11  and  C6_13 
ROOT
HETATM    1  N4  UNL     1      35.831  -0.822  11.497  1.00  0.00    -0.275 N 
ATOM      2  H4  UNL     1      35.182  -0.042  11.393  1.00  0.00     0.180 HD
HETATM    3  C8  UNL     1      35.462  -2.110  11.106  1.00  0.00     0.183 C 
HETATM    4  N5  UNL     1      35.142  -3.186  10.778  1.00  0.00    -0.172 NA
ENDROOT
BRANCH   1   5
HETATM    5  C5  UNL     1      37.155  -0.615  12.054  1.00  0.00     0.186 C 
HETATM    6  N3  UNL     1      38.002  -1.504  11.758  1.00  0.00    -0.308 N 
HETATM    7  C6  UNL     1      39.329  -1.501  12.187  1.00  0.00     0.219 C 
ATOM      8  H3  UNL     1      37.695  -2.276  11.166  1.00  0.00     0.170 HD
HETATM    9  C7  UNL     1      40.390  -0.885  11.347  1.00  0.00     0.117 C 
HETATM   10  O3  UNL     1      39.639  -2.015  13.282  1.00  0.00    -0.274 OA
BRANCH   5  11
HETATM   11  C4  UNL     1      37.412   0.531  12.870  1.00  0.00     0.291 C 
HETATM   12  N2  UNL     1      37.821   0.449  14.208  1.00  0.00    -0.307 N 
HETATM   13  C3  UNL     1      37.347   1.235  15.098  1.00  0.00     0.171 C 
ATOM     14  H2  UNL     1      38.512  -0.251  14.477  1.00  0.00     0.170 HD
HETATM   15  N1  UNL     1      36.350   2.214  14.718  1.00  0.00    -0.080 NA
HETATM   16  O2  UNL     1      37.272   1.707  12.389  1.00  0.00    -0.264 OA
BRANCH  13  17
HETATM   17  C2  UNL     1      37.729   1.209  16.525  1.00  0.00     0.284 C 
HETATM   18  N6  UNL     1      36.563   0.724  17.235  1.00  0.00    -0.362 N 
HETATM   19  C9  UNL     1      36.310   1.292  18.501  1.00  0.00     0.223 C 
ATOM     20  H6  UNL     1      35.955   0.009  16.839  1.00  0.00     0.158 HD
HETATM   21  C10 UNL     1      37.447   1.990  19.127  1.00  0.00     0.250 C 
HETATM   22  O4  UNL     1      37.705   1.934  20.356  1.00  0.00    -0.270 OA
HETATM   23  N7  UNL     1      38.268   2.763  18.225  1.00  0.00    -0.268 N 
HETATM   24  N8  UNL     1      37.994   2.581  16.879  1.00  0.00    -0.070 NA
ATOM     25  H7  UNL     1      38.996   3.397  18.555  1.00  0.00     0.185 HD
BRANCH  17  26
HETATM   26  O1  UNL     1      38.736   0.344  16.741  1.00  0.00    -0.345 OA
HETATM   27  C1  UNL     1      38.517  -0.925  17.119  1.00  0.00     0.206 C 
ENDBRANCH  17  26
ENDBRANCH  13  17
ENDBRANCH   5  11
ENDBRANCH   1   5
TORSDOF 4
ENDMDL
MODEL 4
REMARK VINA RESULT: -6.022661307      2.419      6.686
REMARK  4 active torsions:
REMARK  status: ('A' for Active; 'I' for Inactive)
REMARK    1  A    between atoms: O1_2  and  C2_3 
REMARK    2  A    between atoms: C2_3  and  C3_4 
REMARK       I    between atoms: N2_6  and  C4_8 
REMARK    3  A    between atoms: C4_8  and  C5_10 
REMARK    4  A    between atoms: C5_10  and  N4_16 
REMARK       I    between atoms: N3_11  and  C6_13 
ROOT
HETATM    1  N4  UNL     1      38.240   0.811  16.713  1.00  0.00    -0.275 N 
ATOM      2  H4  UNL     1      38.901   0.038  16.794  1.00  0.00     0.180 HD
HETATM    3  C8  UNL     1      37.743   1.443  17.853  1.00  0.00     0.183 C 
HETATM    4  N5  UNL     1      37.331   1.964  18.815  1.00  0.00    -0.172 NA
ENDROOT
BRANCH   1   5
HETATM    5  C5  UNL     1      37.797   1.273  15.410  1.00  0.00     0.186 C 
HETATM    6  N3  UNL     1      37.128   2.344  15.425  1.00  0.00    -0.308 N 
HETATM    7  C6  UNL     1      36.607   2.963  14.289  1.00  0.00     0.219 C 
ATOM      8  H3  UNL     1      36.957   2.787  16.328  1.00  0.00     0.170 HD
HETATM    9  C7  UNL     1      37.381   4.017  13.583  1.00  0.00     0.117 C 
HETATM   10  O3  UNL     1      35.483   2.636  13.853  1.00  0.00    -0.274 OA
BRANCH   5  11
HETATM   11  C4  UNL     1      38.128   0.524  14.239  1.00  0.00     0.291 C 
HETATM   12  N2  UNL     1      37.404  -0.597  13.809  1.00  0.00    -0.307 N 
HETATM   13  C3  UNL     1      37.994  -1.638  13.358  1.00  0.00     0.171 C 
ATOM     14  H2  UNL     1      36.385  -0.582  13.858  1.00  0.00     0.170 HD
HETATM   15  N1  UNL     1      39.441  -1.666  13.311  1.00  0.00    -0.080 NA
HETATM   16  O2  UNL     1      39.130   0.862  13.520  1.00  0.00    -0.264 OA
BRANCH  13  17
HETATM   17  C2  UNL     1      37.300  -2.855  12.889  1.00  0.00     0.284 C 
HETATM   18  N6  UNL     1      36.847  -2.555  11.546  1.00  0.00    -0.362 N 
HETATM   19  C9  UNL     1      35.598  -3.088  11.164  1.00  0.00     0.223 C 
ATOM     20  H6  UNL     1      37.404  -1.987  10.908  1.00  0.00     0.158 HD
HETATM   21  C10 UNL     1      35.095  -4.197  11.994  1.00  0.00     0.250 C 
HETATM   22  O4  UNL     1      34.498  -5.199  11.526  1.00  0.00    -0.270 OA
HETATM   23  N7  UNL     1      35.334  -4.063  13.412  1.00  0.00    -0.268 N 
HETATM   24  N8  UNL     1      36.170  -3.018  13.770  1.00  0.00    -0.070 NA
ATOM     25  H7  UNL     1      34.917  -4.691  14.099  1.00  0.00     0.185 HD
BRANCH  17  26
HETATM   26  O1  UNL     1      38.144  -3.899  12.820  1.00  0.00    -0.345 OA
HETATM   27  C1  UNL     1      38.367  -4.705  13.871  1.00  0.00     0.206 C 
ENDBRANCH  17  26
ENDBRANCH  13  17
ENDBRANCH   5  11
ENDBRANCH   1   5
TORSDOF 4
ENDMDL
MODEL 5
REMARK VINA RESULT: -6.008919726      4.609      8.478
REMARK  4 active torsions:
REMARK  status: ('A' for Active; 'I' for Inactive)
REMARK    1  A    between atoms: O1_2  and  C2_3 
REMARK    2  A    between atoms: C2_3  and  C3_4 
REMARK       I    between atoms: N2_6  and  C4_8 
REMARK    3  A    between atoms: C4_8  and  C5_10 
REMARK    4  A    between atoms: C5_10  and  N4_16 
REMARK       I    between atoms: N3_11  and  C6_13 
ROOT
HETATM    1  N4  UNL     1      37.029  -1.986  15.524  1.00  0.00    -0.275 N 
ATOM      2  H4  UNL     1      36.106  -1.752  15.890  1.00  0.00     0.180 HD
HETATM    3  C8  UNL     1      38.184  -1.606  16.210  1.00  0.00     0.183 C 
HETATM    4  N5  UNL     1      39.144  -1.281  16.791  1.00  0.00    -0.172 NA
ENDROOT
BRANCH   1   5
HETATM    5  C5  UNL     1      37.168  -2.721  14.279  1.00  0.00     0.186 C 
HETATM    6  N3  UNL     1      38.358  -2.952  13.927  1.00  0.00    -0.308 N 
HETATM    7  C6  UNL     1      38.717  -3.640  12.768  1.00  0.00     0.219 C 
ATOM      8  H3  UNL     1      39.108  -2.613  14.530  1.00  0.00     0.170 HD
HETATM    9  C7  UNL     1      38.948  -5.108  12.805  1.00  0.00     0.117 C 
HETATM   10  O3  UNL     1      38.848  -3.028  11.687  1.00  0.00    -0.274 OA
BRANCH   5  11
HETATM   11  C4  UNL     1      36.001  -3.122  13.556  1.00  0.00     0.291 C 
HETATM   12  N2  UNL     1      35.475  -4.421  13.600  1.00  0.00    -0.307 N 
HETATM   13  C3  UNL     1      35.038  -4.997  12.545  1.00  0.00     0.171 C 
ATOM     14  H2  UNL     1      35.441  -4.916  14.490  1.00  0.00     0.170 HD
HETATM   15  N1  UNL     1      35.108  -4.300  11.277  1.00  0.00    -0.080 NA
HETATM   16  O2  UNL     1      35.380  -2.281  12.820  1.00  0.00    -0.264 OA
BRANCH  13  17
HETATM   17  C2  UNL     1      34.471  -6.361  12.513  1.00  0.00     0.284 C 
HETATM   18  N6  UNL     1      35.517  -7.208  11.979  1.00  0.00    -0.362 N 
HETATM   19  C9  UNL     1      35.110  -8.262  11.134  1.00  0.00     0.223 C 
ATOM     20  H6  UNL     1      36.499  -7.051  12.202  1.00  0.00     0.158 HD
HETATM   21  C10 UNL     1      33.686  -8.632  11.213  1.00  0.00     0.250 C 
HETATM   22  O4  UNL     1      33.272  -9.817  11.165  1.00  0.00    -0.270 OA
HETATM   23  N7  UNL     1      32.768  -7.525  11.353  1.00  0.00    -0.268 N 
HETATM   24  N8  UNL     1      33.363  -6.296  11.592  1.00  0.00    -0.070 NA
ATOM     25  H7  UNL     1      31.757  -7.640  11.281  1.00  0.00     0.185 HD
BRANCH  17  26
HETATM   26  O1  UNL     1      34.177  -6.793  13.752  1.00  0.00    -0.345 OA
HETATM   27  C1  UNL     1      34.849  -7.799  14.334  1.00  0.00     0.206 C 
ENDBRANCH  17  26
ENDBRANCH  13  17
ENDBRANCH   5  11
ENDBRANCH   1   5
TORSDOF 4
ENDMDL
