MODEL 1
REMARK VINA RESULT: -8.050118909      0.000      0.000
REMARK  17 active torsions:
REMARK  status: ('A' for Active; 'I' for Inactive)
REMARK    1  A    between atoms: O1_2  and  C2_3 
REMARK       I    between atoms: C2_3  and  N1_5 
REMARK    2  A    between atoms: N1_5  and  C3_7 
REMARK    3  A    between atoms: C6_11  and  S2_12 
REMARK    4  A    between atoms: S2_12  and  C7_13 
REMARK    5  A    between atoms: C7_13  and  C8_14 
REMARK       I    between atoms: C8_14  and  N2_16 
REMARK    6  A    between atoms: N2_16  and  C9_18 
REMARK    7  A    between atoms: C9_18  and  C10_19 
REMARK    8  A    between atoms: C10_19  and  C11_20 
REMARK    9  A    between atoms: C11_20  and  C12_21 
REMARK   10  A    between atoms: C12_21  and  C13_22 
REMARK   11  A    between atoms: C13_22  and  C14_23 
REMARK   12  A    between atoms: C14_23  and  O4_24 
REMARK   13  A    between atoms: C15_26  and  C16_27 
REMARK   14  A    between atoms: C17_31  and  C18_32 
REMARK   15  A    between atoms: C22_39  and  N5_40 
REMARK   16  A    between atoms: N5_40  and  N6_42 
REMARK   17  A    between atoms: N7_46  and  O7_47 
ROOT
HETATM    1  C3  UNL     1     -38.880  23.403   8.374  1.00  0.00     0.148 C 
HETATM    2  C4  UNL     1     -37.601  22.857   7.703  1.00  0.00     0.177 C 
HETATM    3  S1  UNL     1     -36.231  23.097   8.827  1.00  0.00    -0.112 SA
HETATM    4  C5  UNL     1     -36.030  21.536   9.628  1.00  0.00     0.068 C 
HETATM    5  C6  UNL     1     -36.537  20.350   8.981  1.00  0.00     0.040 C 
HETATM    6  C15 UNL     1     -37.550  20.334   8.145  1.00  0.00     0.127 C 
HETATM    7  N3  UNL     1     -38.212  21.548   7.845  1.00  0.00    -0.346 N 
HETATM    8  C17 UNL     1     -39.438  22.218   7.577  1.00  0.00     0.162 C 
ENDROOT
BRANCH   8   9
HETATM    9  C18 UNL     1     -39.703  22.611   6.137  1.00  0.00     0.047 C 
HETATM   10  C19 UNL     1     -39.085  23.560   5.464  1.00  0.00     0.076 C 
HETATM   11  S3  UNL     1     -39.810  23.566   3.827  1.00  0.00    -0.093 SA
HETATM   12  C20 UNL     1     -41.347  22.694   4.377  1.00  0.00     0.260 C 
HETATM   13  N4  UNL     1     -41.801  21.769   3.407  1.00  0.00    -0.355 N 
HETATM   14  N8  UNL     1     -40.677  21.888   5.401  1.00  0.00    -0.299 N 
HETATM   15  C21 UNL     1     -41.960  20.527   4.080  1.00  0.00     0.107 A 
ATOM     16  H4  UNL     1     -41.979  21.957   2.420  1.00  0.00     0.162 HD
HETATM   17  C22 UNL     1     -42.560  19.268   3.948  1.00  0.00     0.096 A 
HETATM   18  C24 UNL     1     -41.283  20.576   5.292  1.00  0.00     0.166 A 
HETATM   19  C23 UNL     1     -42.220  18.589   5.101  1.00  0.00     0.158 A 
HETATM   20  N7  UNL     1     -41.466  19.375   5.880  1.00  0.00    -0.214 N 
BRANCH  17  21
HETATM   21  N5  UNL     1     -43.354  18.792   2.877  1.00  0.00    -0.304 N 
ATOM     22  H5  UNL     1     -43.964  19.434   2.370  1.00  0.00     0.186 HD
BRANCH  21  23
HETATM   23  N6  UNL     1     -43.303  17.447   2.515  1.00  0.00    -0.345 N 
ATOM     24  H62 UNL     1     -43.628  16.744   3.179  1.00  0.00     0.176 HD
ATOM     25  H61 UNL     1     -42.945  17.179   1.599  1.00  0.00     0.176 HD
ENDBRANCH  21  23
ENDBRANCH  17  21
BRANCH  20  26
HETATM   26  O7  UNL     1     -40.957  18.993   7.097  1.00  0.00    -0.281 OA
ATOM     27  H7  UNL     1     -41.409  18.425   7.710  1.00  0.00     0.245 HD
ENDBRANCH  20  26
ENDBRANCH   8   9
BRANCH   1  28
HETATM   28  N1  UNL     1     -38.957  23.132   9.775  1.00  0.00    -0.327 N 
HETATM   29  C2  UNL     1     -38.805  24.175  10.738  1.00  0.00     0.360 C 
HETATM   30  O2  UNL     1     -38.595  25.374  10.337  1.00  0.00    -0.239 OA
ATOM     31  H1  UNL     1     -39.124  22.178  10.092  1.00  0.00     0.165 HD
BRANCH  29  32
HETATM   32  O1  UNL     1     -38.868  24.009  12.086  1.00  0.00    -0.309 OA
HETATM   33  C1  UNL     1     -38.179  23.117  12.894  1.00  0.00     0.215 C 
ENDBRANCH  29  32
ENDBRANCH   1  28
BRANCH   6  34
HETATM   34  C16 UNL     1     -37.960  19.056   7.566  1.00  0.00     0.228 C 
HETATM   35  O5  UNL     1     -38.212  18.086   8.331  1.00  0.00    -0.643 OA
HETATM   36  O6  UNL     1     -38.065  18.922   6.202  1.00  0.00    -0.643 OA
ENDBRANCH   6  34
BRANCH   5  37
HETATM   37  S2  UNL     1     -35.706  18.781   9.338  1.00  0.00    -0.118 SA
BRANCH  37  38
HETATM   38  C7  UNL     1     -33.985  19.154   9.724  1.00  0.00     0.182 C 
BRANCH  38  39
HETATM   39  C8  UNL     1     -33.795  19.091  11.197  1.00  0.00     0.227 C 
HETATM   40  O3  UNL     1     -32.702  19.292  11.715  1.00  0.00    -0.273 OA
HETATM   41  N2  UNL     1     -34.938  18.785  12.043  1.00  0.00    -0.360 N 
ATOM     42  H2  UNL     1     -35.871  18.614  11.668  1.00  0.00     0.162 HD
BRANCH  41  43
HETATM   43  C9  UNL     1     -34.642  18.742  13.479  1.00  0.00     0.122 C 
BRANCH  43  44
HETATM   44  C10 UNL     1     -34.859  17.328  13.947  1.00  0.00     0.020 C 
BRANCH  44  45
HETATM   45  C11 UNL     1     -36.169  16.813  13.313  1.00  0.00     0.002 C 
BRANCH  45  46
HETATM   46  C12 UNL     1     -36.601  15.662  14.146  1.00  0.00     0.002 C 
BRANCH  46  47
HETATM   47  C13 UNL     1     -35.564  14.652  14.497  1.00  0.00     0.026 C 
BRANCH  47  48
HETATM   48  C14 UNL     1     -35.807  13.261  14.035  1.00  0.00     0.164 C 
BRANCH  48  49
HETATM   49  O4  UNL     1     -36.542  12.485  14.901  1.00  0.00    -0.401 OA
ATOM     50  H4  UNL     1     -36.236  11.591  14.994  1.00  0.00     0.209 HD
ENDBRANCH  48  49
ENDBRANCH  47  48
ENDBRANCH  46  47
ENDBRANCH  45  46
ENDBRANCH  44  45
ENDBRANCH  43  44
ENDBRANCH  41  43
ENDBRANCH  38  39
ENDBRANCH  37  38
ENDBRANCH   5  37
TORSDOF 17
ENDMDL
MODEL 2
REMARK VINA RESULT: -7.847775521      3.641     10.510
REMARK  17 active torsions:
REMARK  status: ('A' for Active; 'I' for Inactive)
REMARK    1  A    between atoms: O1_2  and  C2_3 
REMARK       I    between atoms: C2_3  and  N1_5 
REMARK    2  A    between atoms: N1_5  and  C3_7 
REMARK    3  A    between atoms: C6_11  and  S2_12 
REMARK    4  A    between atoms: S2_12  and  C7_13 
REMARK    5  A    between atoms: C7_13  and  C8_14 
REMARK       I    between atoms: C8_14  and  N2_16 
REMARK    6  A    between atoms: N2_16  and  C9_18 
REMARK    7  A    between atoms: C9_18  and  C10_19 
REMARK    8  A    between atoms: C10_19  and  C11_20 
REMARK    9  A    between atoms: C11_20  and  C12_21 
REMARK   10  A    between atoms: C12_21  and  C13_22 
REMARK   11  A    between atoms: C13_22  and  C14_23 
REMARK   12  A    between atoms: C14_23  and  O4_24 
REMARK   13  A    between atoms: C15_26  and  C16_27 
REMARK   14  A    between atoms: C17_31  and  C18_32 
REMARK   15  A    between atoms: C22_39  and  N5_40 
REMARK   16  A    between atoms: N5_40  and  N6_42 
REMARK   17  A    between atoms: N7_46  and  O7_47 
ROOT
HETATM    1  C3  UNL     1     -35.045  21.175   9.671  1.00  0.00     0.148 C 
HETATM    2  C4  UNL     1     -35.689  22.022   8.552  1.00  0.00     0.177 C 
HETATM    3  S1  UNL     1     -35.914  20.979   7.117  1.00  0.00    -0.112 SA
HETATM    4  C5  UNL     1     -37.603  20.471   7.192  1.00  0.00     0.068 C 
HETATM    5  C6  UNL     1     -38.538  21.269   7.947  1.00  0.00     0.040 C 
HETATM    6  C15 UNL     1     -38.215  22.018   8.978  1.00  0.00     0.127 C 
HETATM    7  N3  UNL     1     -36.866  22.058   9.401  1.00  0.00    -0.346 N 
HETATM    8  C17 UNL     1     -35.944  22.117  10.482  1.00  0.00     0.162 C 
ENDROOT
BRANCH   8   9
HETATM    9  C18 UNL     1     -35.255  23.446  10.724  1.00  0.00     0.047 C 
HETATM   10  C19 UNL     1     -34.553  24.129   9.844  1.00  0.00     0.076 C 
HETATM   11  S3  UNL     1     -33.992  25.605  10.688  1.00  0.00    -0.093 SA
HETATM   12  C20 UNL     1     -34.226  24.872  12.372  1.00  0.00     0.260 C 
HETATM   13  N4  UNL     1     -34.716  25.825  13.295  1.00  0.00    -0.355 N 
HETATM   14  N8  UNL     1     -35.386  24.059  11.997  1.00  0.00    -0.299 N 
HETATM   15  C21 UNL     1     -35.871  25.250  13.892  1.00  0.00     0.107 A 
ATOM     16  H4  UNL     1     -34.319  26.744  13.492  1.00  0.00     0.162 HD
HETATM   17  C22 UNL     1     -36.732  25.387  14.989  1.00  0.00     0.096 A 
HETATM   18  C24 UNL     1     -36.297  24.177  13.119  1.00  0.00     0.166 A 
HETATM   19  C23 UNL     1     -37.662  24.378  14.838  1.00  0.00     0.158 A 
HETATM   20  N7  UNL     1     -37.391  23.677  13.730  1.00  0.00    -0.214 N 
BRANCH  17  21
HETATM   21  N5  UNL     1     -36.662  26.338  16.034  1.00  0.00    -0.304 N 
ATOM     22  H5  UNL     1     -35.791  26.469  16.548  1.00  0.00     0.186 HD
BRANCH  21  23
HETATM   23  N6  UNL     1     -37.784  27.097  16.362  1.00  0.00    -0.345 N 
ATOM     24  H62 UNL     1     -38.698  26.643  16.388  1.00  0.00     0.176 HD
ATOM     25  H61 UNL     1     -37.685  28.090  16.571  1.00  0.00     0.176 HD
ENDBRANCH  21  23
ENDBRANCH  17  21
BRANCH  20  26
HETATM   26  O7  UNL     1     -38.134  22.609  13.292  1.00  0.00    -0.281 OA
ATOM     27  H7  UNL     1     -38.715  22.100  13.846  1.00  0.00     0.245 HD
ENDBRANCH  20  26
ENDBRANCH   8   9
BRANCH   1  28
HETATM   28  N1  UNL     1     -35.545  19.838   9.743  1.00  0.00    -0.327 N 
HETATM   29  C2  UNL     1     -35.357  19.041  10.913  1.00  0.00     0.360 C 
HETATM   30  O2  UNL     1     -34.728  19.536  11.914  1.00  0.00    -0.239 OA
ATOM     31  H1  UNL     1     -36.045  19.446   8.945  1.00  0.00     0.165 HD
BRANCH  29  32
HETATM   32  O1  UNL     1     -35.801  17.766  11.069  1.00  0.00    -0.309 OA
HETATM   33  C1  UNL     1     -36.093  17.073  12.234  1.00  0.00     0.215 C 
ENDBRANCH  29  32
ENDBRANCH   1  28
BRANCH   6  34
HETATM   34  C16 UNL     1     -39.270  22.772   9.652  1.00  0.00     0.228 C 
HETATM   35  O5  UNL     1     -39.846  22.265  10.652  1.00  0.00    -0.643 OA
HETATM   36  O6  UNL     1     -39.624  24.019   9.194  1.00  0.00    -0.643 OA
ENDBRANCH   6  34
BRANCH   5  37
HETATM   37  S2  UNL     1     -40.272  21.246   7.425  1.00  0.00    -0.118 SA
BRANCH  37  38
HETATM   38  C7  UNL     1     -40.365  20.297   5.895  1.00  0.00     0.182 C 
BRANCH  38  39
HETATM   39  C8  UNL     1     -40.859  21.182   4.807  1.00  0.00     0.227 C 
HETATM   40  O3  UNL     1     -41.624  20.772   3.940  1.00  0.00    -0.273 OA
HETATM   41  N2  UNL     1     -40.423  22.569   4.773  1.00  0.00    -0.360 N 
ATOM     42  H2  UNL     1     -39.792  22.965   5.469  1.00  0.00     0.162 HD
BRANCH  41  43
HETATM   43  C9  UNL     1     -40.964  23.353   3.656  1.00  0.00     0.122 C 
BRANCH  43  44
HETATM   44  C10 UNL     1     -39.905  24.337   3.236  1.00  0.00     0.020 C 
BRANCH  44  45
HETATM   45  C11 UNL     1     -40.518  25.753   3.307  1.00  0.00     0.002 C 
BRANCH  45  46
HETATM   46  C12 UNL     1     -41.990  25.558   3.338  1.00  0.00     0.002 C 
BRANCH  46  47
HETATM   47  C13 UNL     1     -42.830  26.646   2.765  1.00  0.00     0.026 C 
BRANCH  47  48
HETATM   48  C14 UNL     1     -42.138  27.919   2.437  1.00  0.00     0.164 C 
BRANCH  48  49
HETATM   49  O4  UNL     1     -42.126  28.242   1.100  1.00  0.00    -0.401 OA
ATOM     50  H4  UNL     1     -41.585  28.990   0.875  1.00  0.00     0.209 HD
ENDBRANCH  48  49
ENDBRANCH  47  48
ENDBRANCH  46  47
ENDBRANCH  45  46
ENDBRANCH  44  45
ENDBRANCH  43  44
ENDBRANCH  41  43
ENDBRANCH  38  39
ENDBRANCH  37  38
ENDBRANCH   5  37
TORSDOF 17
ENDMDL
MODEL 3
REMARK VINA RESULT: -7.733897024      3.693     10.708
REMARK  17 active torsions:
REMARK  status: ('A' for Active; 'I' for Inactive)
REMARK    1  A    between atoms: O1_2  and  C2_3 
REMARK       I    between atoms: C2_3  and  N1_5 
REMARK    2  A    between atoms: N1_5  and  C3_7 
REMARK    3  A    between atoms: C6_11  and  S2_12 
REMARK    4  A    between atoms: S2_12  and  C7_13 
REMARK    5  A    between atoms: C7_13  and  C8_14 
REMARK       I    between atoms: C8_14  and  N2_16 
REMARK    6  A    between atoms: N2_16  and  C9_18 
REMARK    7  A    between atoms: C9_18  and  C10_19 
REMARK    8  A    between atoms: C10_19  and  C11_20 
REMARK    9  A    between atoms: C11_20  and  C12_21 
REMARK   10  A    between atoms: C12_21  and  C13_22 
REMARK   11  A    between atoms: C13_22  and  C14_23 
REMARK   12  A    between atoms: C14_23  and  O4_24 
REMARK   13  A    between atoms: C15_26  and  C16_27 
REMARK   14  A    between atoms: C17_31  and  C18_32 
REMARK   15  A    between atoms: C22_39  and  N5_40 
REMARK   16  A    between atoms: N5_40  and  N6_42 
REMARK   17  A    between atoms: N7_46  and  O7_47 
ROOT
HETATM    1  C3  UNL     1     -35.436  20.604   9.731  1.00  0.00     0.148 C 
HETATM    2  C4  UNL     1     -35.989  21.303   8.470  1.00  0.00     0.177 C 
HETATM    3  S1  UNL     1     -36.348  20.051   7.245  1.00  0.00    -0.112 SA
HETATM    4  C5  UNL     1     -38.084  19.764   7.392  1.00  0.00     0.068 C 
HETATM    5  C6  UNL     1     -38.912  20.788   7.981  1.00  0.00     0.040 C 
HETATM    6  C15 UNL     1     -38.494  21.669   8.862  1.00  0.00     0.127 C 
HETATM    7  N3  UNL     1     -37.145  21.628   9.285  1.00  0.00    -0.346 N 
HETATM    8  C17 UNL     1     -36.211  21.775  10.348  1.00  0.00     0.162 C 
ENDROOT
BRANCH   8   9
HETATM    9  C18 UNL     1     -35.370  23.037  10.353  1.00  0.00     0.047 C 
HETATM   10  C19 UNL     1     -35.553  24.095   9.591  1.00  0.00     0.076 C 
HETATM   11  S3  UNL     1     -34.270  25.261  10.038  1.00  0.00    -0.093 SA
HETATM   12  C20 UNL     1     -33.188  23.961  10.790  1.00  0.00     0.260 C 
HETATM   13  N4  UNL     1     -32.532  24.433  11.951  1.00  0.00    -0.355 N 
HETATM   14  N8  UNL     1     -34.298  23.138  11.277  1.00  0.00    -0.299 N 
HETATM   15  C21 UNL     1     -32.809  23.492  12.980  1.00  0.00     0.107 A 
ATOM     16  H4  UNL     1     -31.970  25.281  12.033  1.00  0.00     0.162 HD
HETATM   17  C22 UNL     1     -32.381  23.086  14.251  1.00  0.00     0.096 A 
HETATM   18  C24 UNL     1     -33.881  22.696  12.593  1.00  0.00     0.166 A 
HETATM   19  C23 UNL     1     -33.220  22.045  14.593  1.00  0.00     0.158 A 
HETATM   20  N7  UNL     1     -34.098  21.831  13.605  1.00  0.00    -0.214 N 
BRANCH  17  21
HETATM   21  N5  UNL     1     -31.313  23.612  15.017  1.00  0.00    -0.304 N 
ATOM     22  H5  UNL     1     -31.328  23.535  16.034  1.00  0.00     0.186 HD
BRANCH  21  23
HETATM   23  N6  UNL     1     -30.241  24.237  14.382  1.00  0.00    -0.345 N 
ATOM     24  H62 UNL     1     -30.357  25.190  14.036  1.00  0.00     0.176 HD
ATOM     25  H61 UNL     1     -29.357  23.741  14.268  1.00  0.00     0.176 HD
ENDBRANCH  21  23
ENDBRANCH  17  21
BRANCH  20  26
HETATM   26  O7  UNL     1     -35.076  20.867  13.638  1.00  0.00    -0.281 OA
ATOM     27  H7  UNL     1     -35.612  20.626  12.892  1.00  0.00     0.245 HD
ENDBRANCH  20  26
ENDBRANCH   8   9
BRANCH   1  28
HETATM   28  N1  UNL     1     -36.087  19.369  10.038  1.00  0.00    -0.327 N 
HETATM   29  C2  UNL     1     -35.610  18.524  11.085  1.00  0.00     0.360 C 
HETATM   30  O2  UNL     1     -34.580  18.881  11.759  1.00  0.00    -0.239 OA
ATOM     31  H1  UNL     1     -36.906  19.087   9.500  1.00  0.00     0.165 HD
BRANCH  29  32
HETATM   32  O1  UNL     1     -36.167  17.338  11.447  1.00  0.00    -0.309 OA
HETATM   33  C1  UNL     1     -36.324  16.789  12.711  1.00  0.00     0.215 C 
ENDBRANCH  29  32
ENDBRANCH   1  28
BRANCH   6  34
HETATM   34  C16 UNL     1     -39.447  22.650   9.377  1.00  0.00     0.228 C 
HETATM   35  O5  UNL     1     -39.407  23.834   8.946  1.00  0.00    -0.643 OA
HETATM   36  O6  UNL     1     -40.374  22.277  10.321  1.00  0.00    -0.643 OA
ENDBRANCH   6  34
BRANCH   5  37
HETATM   37  S2  UNL     1     -40.642  20.872   7.452  1.00  0.00    -0.118 SA
BRANCH  37  38
HETATM   38  C7  UNL     1     -40.777  19.982   5.890  1.00  0.00     0.182 C 
BRANCH  38  39
HETATM   39  C8  UNL     1     -41.000  20.960   4.794  1.00  0.00     0.227 C 
HETATM   40  O3  UNL     1     -41.497  20.625   3.723  1.00  0.00    -0.273 OA
HETATM   41  N2  UNL     1     -40.621  22.349   4.999  1.00  0.00    -0.360 N 
ATOM     42  H2  UNL     1     -40.209  22.684   5.870  1.00  0.00     0.162 HD
BRANCH  41  43
HETATM   43  C9  UNL     1     -40.879  23.229   3.854  1.00  0.00     0.122 C 
BRANCH  43  44
HETATM   44  C10 UNL     1     -39.733  24.200   3.758  1.00  0.00     0.020 C 
BRANCH  44  45
HETATM   45  C11 UNL     1     -40.297  25.556   3.282  1.00  0.00     0.002 C 
BRANCH  45  46
HETATM   46  C12 UNL     1     -41.774  25.400   3.268  1.00  0.00     0.002 C 
BRANCH  46  47
HETATM   47  C13 UNL     1     -42.575  26.569   2.810  1.00  0.00     0.026 C 
BRANCH  47  48
HETATM   48  C14 UNL     1     -41.815  27.779   2.404  1.00  0.00     0.164 C 
BRANCH  48  49
HETATM   49  O4  UNL     1     -42.220  28.345   1.218  1.00  0.00    -0.401 OA
ATOM     50  H4  UNL     1     -41.601  28.954   0.834  1.00  0.00     0.209 HD
ENDBRANCH  48  49
ENDBRANCH  47  48
ENDBRANCH  46  47
ENDBRANCH  45  46
ENDBRANCH  44  45
ENDBRANCH  43  44
ENDBRANCH  41  43
ENDBRANCH  38  39
ENDBRANCH  37  38
ENDBRANCH   5  37
TORSDOF 17
ENDMDL
MODEL 4
REMARK VINA RESULT: -7.614029371      1.998      4.075
REMARK  17 active torsions:
REMARK  status: ('A' for Active; 'I' for Inactive)
REMARK    1  A    between atoms: O1_2  and  C2_3 
REMARK       I    between atoms: C2_3  and  N1_5 
REMARK    2  A    between atoms: N1_5  and  C3_7 
REMARK    3  A    between atoms: C6_11  and  S2_12 
REMARK    4  A    between atoms: S2_12  and  C7_13 
REMARK    5  A    between atoms: C7_13  and  C8_14 
REMARK       I    between atoms: C8_14  and  N2_16 
REMARK    6  A    between atoms: N2_16  and  C9_18 
REMARK    7  A    between atoms: C9_18  and  C10_19 
REMARK    8  A    between atoms: C10_19  and  C11_20 
REMARK    9  A    between atoms: C11_20  and  C12_21 
REMARK   10  A    between atoms: C12_21  and  C13_22 
REMARK   11  A    between atoms: C13_22  and  C14_23 
REMARK   12  A    between atoms: C14_23  and  O4_24 
REMARK   13  A    between atoms: C15_26  and  C16_27 
REMARK   14  A    between atoms: C17_31  and  C18_32 
REMARK   15  A    between atoms: C22_39  and  N5_40 
REMARK   16  A    between atoms: N5_40  and  N6_42 
REMARK   17  A    between atoms: N7_46  and  O7_47 
ROOT
HETATM    1  C3  UNL     1     -38.804  23.386   8.366  1.00  0.00     0.148 C 
HETATM    2  C4  UNL     1     -37.543  22.848   7.656  1.00  0.00     0.177 C 
HETATM    3  S1  UNL     1     -36.146  23.070   8.749  1.00  0.00    -0.112 SA
HETATM    4  C5  UNL     1     -35.927  21.498   9.523  1.00  0.00     0.068 C 
HETATM    5  C6  UNL     1     -36.452  20.322   8.872  1.00  0.00     0.040 C 
HETATM    6  C15 UNL     1     -37.486  20.319   8.061  1.00  0.00     0.127 C 
HETATM    7  N3  UNL     1     -38.153  21.538   7.795  1.00  0.00    -0.346 N 
HETATM    8  C17 UNL     1     -39.384  22.213   7.567  1.00  0.00     0.162 C 
ENDROOT
BRANCH   8   9
HETATM    9  C18 UNL     1     -39.684  22.627   6.139  1.00  0.00     0.047 C 
HETATM   10  C19 UNL     1     -39.093  23.595   5.470  1.00  0.00     0.076 C 
HETATM   11  S3  UNL     1     -39.852  23.618   3.849  1.00  0.00    -0.093 SA
HETATM   12  C20 UNL     1     -41.365  22.715   4.415  1.00  0.00     0.260 C 
HETATM   13  N4  UNL     1     -41.826  21.801   3.439  1.00  0.00    -0.355 N 
HETATM   14  N8  UNL     1     -40.663  21.902   5.411  1.00  0.00    -0.299 N 
HETATM   15  C21 UNL     1     -41.954  20.545   4.093  1.00  0.00     0.107 A 
ATOM     16  H4  UNL     1     -42.027  22.003   2.459  1.00  0.00     0.162 HD
HETATM   17  C22 UNL     1     -42.539  19.280   3.952  1.00  0.00     0.096 A 
HETATM   18  C24 UNL     1     -41.253  20.583   5.292  1.00  0.00     0.166 A 
HETATM   19  C23 UNL     1     -42.166  18.587   5.085  1.00  0.00     0.158 A 
HETATM   20  N7  UNL     1     -41.407  19.370   5.863  1.00  0.00    -0.214 N 
BRANCH  17  21
HETATM   21  N5  UNL     1     -43.348  18.811   2.889  1.00  0.00    -0.304 N 
ATOM     22  H5  UNL     1     -43.963  19.457   2.393  1.00  0.00     0.186 HD
BRANCH  21  23
HETATM   23  N6  UNL     1     -43.306  17.468   2.521  1.00  0.00    -0.345 N 
ATOM     24  H62 UNL     1     -42.439  16.947   2.650  1.00  0.00     0.176 HD
ATOM     25  H61 UNL     1     -44.135  17.020   2.130  1.00  0.00     0.176 HD
ENDBRANCH  21  23
ENDBRANCH  17  21
BRANCH  20  26
HETATM   26  O7  UNL     1     -40.868  18.975   7.063  1.00  0.00    -0.281 OA
ATOM     27  H7  UNL     1     -41.096  19.357   7.902  1.00  0.00     0.245 HD
ENDBRANCH  20  26
ENDBRANCH   8   9
BRANCH   1  28
HETATM   28  N1  UNL     1     -38.848  23.096   9.765  1.00  0.00    -0.327 N 
HETATM   29  C2  UNL     1     -38.785  24.139  10.738  1.00  0.00     0.360 C 
HETATM   30  O2  UNL     1     -38.687  25.356  10.347  1.00  0.00    -0.239 OA
ATOM     31  H1  UNL     1     -38.925  22.127  10.073  1.00  0.00     0.165 HD
BRANCH  29  32
HETATM   32  O1  UNL     1     -38.823  23.954  12.084  1.00  0.00    -0.309 OA
HETATM   33  C1  UNL     1     -37.985  23.200  12.892  1.00  0.00     0.215 C 
ENDBRANCH  29  32
ENDBRANCH   1  28
BRANCH   6  34
HETATM   34  C16 UNL     1     -37.911  19.050   7.475  1.00  0.00     0.228 C 
HETATM   35  O5  UNL     1     -38.016  18.954   6.223  1.00  0.00    -0.643 OA
HETATM   36  O6  UNL     1     -38.193  17.978   8.288  1.00  0.00    -0.643 OA
ENDBRANCH   6  34
BRANCH   5  37
HETATM   37  S2  UNL     1     -35.615  18.748   9.187  1.00  0.00    -0.118 SA
BRANCH  37  38
HETATM   38  C7  UNL     1     -35.789  18.380  10.943  1.00  0.00     0.182 C 
BRANCH  38  39
HETATM   39  C8  UNL     1     -34.652  18.990  11.680  1.00  0.00     0.227 C 
HETATM   40  O3  UNL     1     -34.715  19.224  12.882  1.00  0.00    -0.273 OA
HETATM   41  N2  UNL     1     -33.434  19.315  10.954  1.00  0.00    -0.360 N 
ATOM     42  H2  UNL     1     -33.325  19.139   9.956  1.00  0.00     0.162 HD
BRANCH  41  43
HETATM   43  C9  UNL     1     -32.376  19.918  11.773  1.00  0.00     0.122 C 
BRANCH  43  44
HETATM   44  C10 UNL     1     -31.831  21.100  11.017  1.00  0.00     0.020 C 
BRANCH  44  45
HETATM   45  C11 UNL     1     -31.922  20.781   9.509  1.00  0.00     0.002 C 
BRANCH  45  46
HETATM   46  C12 UNL     1     -30.685  21.337   8.901  1.00  0.00     0.002 C 
BRANCH  46  47
HETATM   47  C13 UNL     1     -30.834  22.549   8.049  1.00  0.00     0.026 C 
BRANCH  47  48
HETATM   48  C14 UNL     1     -32.220  22.944   7.690  1.00  0.00     0.164 C 
BRANCH  48  49
HETATM   49  O4  UNL     1     -32.324  23.736   6.570  1.00  0.00    -0.401 OA
ATOM     50  H4  UNL     1     -33.130  24.236   6.508  1.00  0.00     0.209 HD
ENDBRANCH  48  49
ENDBRANCH  47  48
ENDBRANCH  46  47
ENDBRANCH  45  46
ENDBRANCH  44  45
ENDBRANCH  43  44
ENDBRANCH  41  43
ENDBRANCH  38  39
ENDBRANCH  37  38
ENDBRANCH   5  37
TORSDOF 17
ENDMDL
MODEL 5
REMARK VINA RESULT: -7.582087408      2.340      4.148
REMARK  17 active torsions:
REMARK  status: ('A' for Active; 'I' for Inactive)
REMARK    1  A    between atoms: O1_2  and  C2_3 
REMARK       I    between atoms: C2_3  and  N1_5 
REMARK    2  A    between atoms: N1_5  and  C3_7 
REMARK    3  A    between atoms: C6_11  and  S2_12 
REMARK    4  A    between atoms: S2_12  and  C7_13 
REMARK    5  A    between atoms: C7_13  and  C8_14 
REMARK       I    between atoms: C8_14  and  N2_16 
REMARK    6  A    between atoms: N2_16  and  C9_18 
REMARK    7  A    between atoms: C9_18  and  C10_19 
REMARK    8  A    between atoms: C10_19  and  C11_20 
REMARK    9  A    between atoms: C11_20  and  C12_21 
REMARK   10  A    between atoms: C12_21  and  C13_22 
REMARK   11  A    between atoms: C13_22  and  C14_23 
REMARK   12  A    between atoms: C14_23  and  O4_24 
REMARK   13  A    between atoms: C15_26  and  C16_27 
REMARK   14  A    between atoms: C17_31  and  C18_32 
REMARK   15  A    between atoms: C22_39  and  N5_40 
REMARK   16  A    between atoms: N5_40  and  N6_42 
REMARK   17  A    between atoms: N7_46  and  O7_47 
ROOT
HETATM    1  C3  UNL     1     -38.847  23.393   8.414  1.00  0.00     0.148 C 
HETATM    2  C4  UNL     1     -37.569  22.840   7.747  1.00  0.00     0.177 C 
HETATM    3  S1  UNL     1     -36.203  23.065   8.879  1.00  0.00    -0.112 SA
HETATM    4  C5  UNL     1     -36.017  21.501   9.675  1.00  0.00     0.068 C 
HETATM    5  C6  UNL     1     -36.530  20.321   9.022  1.00  0.00     0.040 C 
HETATM    6  C15 UNL     1     -37.540  20.315   8.180  1.00  0.00     0.127 C 
HETATM    7  N3  UNL     1     -38.191  21.535   7.882  1.00  0.00    -0.346 N 
HETATM    8  C17 UNL     1     -39.410  22.214   7.610  1.00  0.00     0.162 C 
ENDROOT
BRANCH   8   9
HETATM    9  C18 UNL     1     -39.666  22.615   6.170  1.00  0.00     0.047 C 
HETATM   10  C19 UNL     1     -39.039  23.562   5.504  1.00  0.00     0.076 C 
HETATM   11  S3  UNL     1     -39.755  23.578   3.863  1.00  0.00    -0.093 SA
HETATM   12  C20 UNL     1     -41.301  22.714   4.402  1.00  0.00     0.260 C 
HETATM   13  N4  UNL     1     -41.755  21.795   3.427  1.00  0.00    -0.355 N 
HETATM   14  N8  UNL     1     -40.641  21.900   5.427  1.00  0.00    -0.299 N 
HETATM   15  C21 UNL     1     -41.925  20.551   4.094  1.00  0.00     0.107 A 
ATOM     16  H4  UNL     1     -41.927  21.988   2.440  1.00  0.00     0.162 HD
HETATM   17  C22 UNL     1     -42.532  19.297   3.954  1.00  0.00     0.096 A 
HETATM   18  C24 UNL     1     -41.254  20.592   5.310  1.00  0.00     0.166 A 
HETATM   19  C23 UNL     1     -42.202  18.612   5.106  1.00  0.00     0.158 A 
HETATM   20  N7  UNL     1     -41.447  19.390   5.893  1.00  0.00    -0.214 N 
BRANCH  17  21
HETATM   21  N5  UNL     1     -43.324  18.830   2.877  1.00  0.00    -0.304 N 
ATOM     22  H5  UNL     1     -43.907  19.482   2.353  1.00  0.00     0.186 HD
BRANCH  21  23
HETATM   23  N6  UNL     1     -43.307  17.479   2.535  1.00  0.00    -0.345 N 
ATOM     24  H62 UNL     1     -42.613  16.868   2.966  1.00  0.00     0.176 HD
ATOM     25  H61 UNL     1     -43.981  17.116   1.861  1.00  0.00     0.176 HD
ENDBRANCH  21  23
ENDBRANCH  17  21
BRANCH  20  26
HETATM   26  O7  UNL     1     -40.947  19.001   7.111  1.00  0.00    -0.281 OA
ATOM     27  H7  UNL     1     -41.084  19.477   7.921  1.00  0.00     0.245 HD
ENDBRANCH  20  26
ENDBRANCH   8   9
BRANCH   1  28
HETATM   28  N1  UNL     1     -38.934  23.117   9.814  1.00  0.00    -0.327 N 
HETATM   29  C2  UNL     1     -38.798  24.159  10.781  1.00  0.00     0.360 C 
HETATM   30  O2  UNL     1     -38.594  25.361  10.384  1.00  0.00    -0.239 OA
ATOM     31  H1  UNL     1     -39.095  22.161  10.127  1.00  0.00     0.165 HD
BRANCH  29  32
HETATM   32  O1  UNL     1     -38.869  23.989  12.127  1.00  0.00    -0.309 OA
HETATM   33  C1  UNL     1     -38.166  23.114  12.942  1.00  0.00     0.215 C 
ENDBRANCH  29  32
ENDBRANCH   1  28
BRANCH   6  34
HETATM   34  C16 UNL     1     -37.955  19.042   7.595  1.00  0.00     0.228 C 
HETATM   35  O5  UNL     1     -38.226  18.074   8.356  1.00  0.00    -0.643 OA
HETATM   36  O6  UNL     1     -38.046  18.910   6.230  1.00  0.00    -0.643 OA
ENDBRANCH   6  34
BRANCH   5  37
HETATM   37  S2  UNL     1     -35.712  18.745   9.377  1.00  0.00    -0.118 SA
BRANCH  37  38
HETATM   38  C7  UNL     1     -34.663  18.991  10.822  1.00  0.00     0.182 C 
BRANCH  38  39
HETATM   39  C8  UNL     1     -33.304  19.390  10.370  1.00  0.00     0.227 C 
HETATM   40  O3  UNL     1     -32.967  19.311   9.193  1.00  0.00    -0.273 OA
HETATM   41  N2  UNL     1     -32.354  19.890  11.351  1.00  0.00    -0.360 N 
ATOM     42  H2  UNL     1     -32.581  19.982  12.340  1.00  0.00     0.162 HD
BRANCH  41  43
HETATM   43  C9  UNL     1     -31.041  20.251  10.802  1.00  0.00     0.122 C 
BRANCH  43  44
HETATM   44  C10 UNL     1     -30.631  21.559  11.423  1.00  0.00     0.020 C 
BRANCH  44  45
HETATM   45  C11 UNL     1     -30.715  22.650  10.334  1.00  0.00     0.002 C 
BRANCH  45  46
HETATM   46  C12 UNL     1     -30.444  21.961   9.046  1.00  0.00     0.002 C 
BRANCH  46  47
HETATM   47  C13 UNL     1     -31.058  22.545   7.822  1.00  0.00     0.026 C 
BRANCH  47  48
HETATM   48  C14 UNL     1     -32.540  22.652   7.807  1.00  0.00     0.164 C 
BRANCH  48  49
HETATM   49  O4  UNL     1     -33.034  23.731   7.112  1.00  0.00    -0.401 OA
ATOM     50  H4  UNL     1     -33.919  23.623   6.783  1.00  0.00     0.209 HD
ENDBRANCH  48  49
ENDBRANCH  47  48
ENDBRANCH  46  47
ENDBRANCH  45  46
ENDBRANCH  44  45
ENDBRANCH  43  44
ENDBRANCH  41  43
ENDBRANCH  38  39
ENDBRANCH  37  38
ENDBRANCH   5  37
TORSDOF 17
ENDMDL
