MODEL 1
REMARK VINA RESULT: -9.270010627      0.000      0.000
REMARK  6 active torsions:
REMARK  status: ('A' for Active; 'I' for Inactive)
REMARK    1  A    between atoms: C2_2  and  C3_3 
REMARK    2  A    between atoms: C3_3  and  C4_4 
REMARK    3  A    between atoms: C4_4  and  C5_5 
REMARK    4  A    between atoms: C5_5  and  C6_6 
REMARK    5  A    between atoms: C9_9  and  N1_10 
REMARK       I    between atoms: N2_13  and  C12_14 
REMARK       I    between atoms: C12_14  and  N3_16 
REMARK    6  A    between atoms: N3_16  and  C13_18 
ROOT
HETATM    1  N1  UNL     1      43.452  32.137  32.375  1.00  0.00     0.112 N 
HETATM    2  C10 UNL     1      43.801  33.377  32.967  1.00  0.00     0.295 C 
HETATM    3  C11 UNL     1      44.501  34.190  31.895  1.00  0.00     0.159 C 
HETATM    4  N2  UNL     1      44.738  33.210  30.863  1.00  0.00    -0.306 N 
HETATM    5  C12 UNL     1      45.832  33.145  29.977  1.00  0.00     0.320 C 
HETATM    6  O1  UNL     1      45.860  32.215  29.135  1.00  0.00    -0.247 OA
HETATM    7  N3  UNL     1      46.905  34.074  29.987  1.00  0.00    -0.337 N 
ATOM      8  H3  UNL     1      46.887  34.832  30.670  1.00  0.00     0.164 HD
HETATM    9  C18 UNL     1      43.593  32.290  30.940  1.00  0.00     0.402 C 
ENDROOT
BRANCH   7  10
HETATM   10  C13 UNL     1      48.023  33.995  29.073  1.00  0.00     0.111 C 
HETATM   11  C14 UNL     1      48.452  35.377  28.676  1.00  0.00     0.028 C 
HETATM   12  C15 UNL     1      49.588  35.908  29.502  1.00  0.00     0.029 C 
HETATM   13  C16 UNL     1      50.719  34.882  29.376  1.00  0.00     0.232 C 
HETATM   14  N4  UNL     1      50.246  33.728  30.135  1.00  0.00    -0.073 N 
HETATM   15  C17 UNL     1      49.109  33.097  29.553  1.00  0.00     0.257 C 
ATOM     16  H42 UNL     1      50.999  33.056  30.280  1.00  0.00     0.277 HD
ATOM     17  H41 UNL     1      50.060  33.985  31.105  1.00  0.00     0.277 HD
ENDBRANCH   7  10
BRANCH   1  18
HETATM   18  C9  UNL     1      42.260  31.515  32.812  1.00  0.00     0.225 C 
HETATM   19  C8  UNL     1      41.105  31.539  31.849  1.00  0.00     0.036 C 
HETATM   20  C7  UNL     1      40.113  30.426  32.232  1.00  0.00     0.007 C 
HETATM   21  C6  UNL     1      40.084  30.344  33.725  1.00  0.00    -0.014 C 
HETATM   22  C20 UNL     1      41.363  29.686  34.206  1.00  0.00     0.007 C 
HETATM   23  C19 UNL     1      42.450  30.065  33.208  1.00  0.00     0.036 C 
BRANCH  21  24
HETATM   24  C5  UNL     1      38.863  29.709  34.306  1.00  0.00     0.004 C 
BRANCH  24  25
HETATM   25  C4  UNL     1      39.064  28.299  34.801  1.00  0.00     0.000 C 
BRANCH  25  26
HETATM   26  C3  UNL     1      38.636  28.262  36.258  1.00  0.00    -0.000 C 
BRANCH  26  27
HETATM   27  C2  UNL     1      38.219  26.905  36.714  1.00  0.00    -0.005 C 
HETATM   28  C1  UNL     1      36.734  26.808  36.949  1.00  0.00     0.005 C 
ENDBRANCH  26  27
ENDBRANCH  25  26
ENDBRANCH  24  25
ENDBRANCH  21  24
ENDBRANCH   1  18
TORSDOF 6
ENDMDL
MODEL 2
REMARK VINA RESULT: -9.064012404      0.621      1.057
REMARK  6 active torsions:
REMARK  status: ('A' for Active; 'I' for Inactive)
REMARK    1  A    between atoms: C2_2  and  C3_3 
REMARK    2  A    between atoms: C3_3  and  C4_4 
REMARK    3  A    between atoms: C4_4  and  C5_5 
REMARK    4  A    between atoms: C5_5  and  C6_6 
REMARK    5  A    between atoms: C9_9  and  N1_10 
REMARK       I    between atoms: N2_13  and  C12_14 
REMARK       I    between atoms: C12_14  and  N3_16 
REMARK    6  A    between atoms: N3_16  and  C13_18 
ROOT
HETATM    1  N1  UNL     1      43.680  31.833  32.140  1.00  0.00     0.112 N 
HETATM    2  C10 UNL     1      43.909  33.093  32.746  1.00  0.00     0.295 C 
HETATM    3  C11 UNL     1      44.564  33.969  31.695  1.00  0.00     0.159 C 
HETATM    4  N2  UNL     1      44.906  33.019  30.664  1.00  0.00    -0.306 N 
HETATM    5  C12 UNL     1      46.024  33.052  29.805  1.00  0.00     0.320 C 
HETATM    6  O1  UNL     1      46.149  32.133  28.960  1.00  0.00    -0.247 OA
HETATM    7  N3  UNL     1      47.014  34.067  29.845  1.00  0.00    -0.337 N 
ATOM      8  H3  UNL     1      46.916  34.816  30.531  1.00  0.00     0.164 HD
HETATM    9  C18 UNL     1      43.841  32.006  30.709  1.00  0.00     0.402 C 
ENDROOT
BRANCH   7  10
HETATM   10  C13 UNL     1      48.156  34.088  28.959  1.00  0.00     0.111 C 
HETATM   11  C14 UNL     1      48.492  35.505  28.597  1.00  0.00     0.028 C 
HETATM   12  C15 UNL     1      49.566  36.101  29.461  1.00  0.00     0.029 C 
HETATM   13  C16 UNL     1      50.772  35.163  29.344  1.00  0.00     0.232 C 
HETATM   14  N4  UNL     1      50.367  33.963  30.071  1.00  0.00    -0.073 N 
HETATM   15  C17 UNL     1      49.294  33.262  29.449  1.00  0.00     0.257 C 
ATOM     16  H42 UNL     1      51.163  33.344  30.222  1.00  0.00     0.277 HD
ATOM     17  H41 UNL     1      50.140  34.186  31.040  1.00  0.00     0.277 HD
ENDBRANCH   7  10
BRANCH   1  18
HETATM   18  C9  UNL     1      42.534  31.110  32.546  1.00  0.00     0.225 C 
HETATM   19  C8  UNL     1      42.784  29.775  33.192  1.00  0.00     0.036 C 
HETATM   20  C7  UNL     1      41.543  29.376  34.009  1.00  0.00     0.007 C 
HETATM   21  C6  UNL     1      40.339  29.836  33.251  1.00  0.00    -0.014 C 
HETATM   22  C20 UNL     1      40.224  31.343  33.380  1.00  0.00     0.007 C 
HETATM   23  C19 UNL     1      41.644  31.881  33.499  1.00  0.00     0.036 C 
BRANCH  21  24
HETATM   24  C5  UNL     1      39.064  29.136  33.590  1.00  0.00     0.004 C 
BRANCH  24  25
HETATM   25  C4  UNL     1      38.773  29.040  35.066  1.00  0.00     0.000 C 
BRANCH  25  26
HETATM   26  C3  UNL     1      38.665  27.565  35.414  1.00  0.00    -0.000 C 
BRANCH  26  27
HETATM   27  C2  UNL     1      38.231  27.323  36.821  1.00  0.00    -0.005 C 
HETATM   28  C1  UNL     1      36.810  26.832  36.908  1.00  0.00     0.005 C 
ENDBRANCH  26  27
ENDBRANCH  25  26
ENDBRANCH  24  25
ENDBRANCH  21  24
ENDBRANCH   1  18
TORSDOF 6
ENDMDL
MODEL 3
REMARK VINA RESULT: -8.997310258      1.544      1.956
REMARK  6 active torsions:
REMARK  status: ('A' for Active; 'I' for Inactive)
REMARK    1  A    between atoms: C2_2  and  C3_3 
REMARK    2  A    between atoms: C3_3  and  C4_4 
REMARK    3  A    between atoms: C4_4  and  C5_5 
REMARK    4  A    between atoms: C5_5  and  C6_6 
REMARK    5  A    between atoms: C9_9  and  N1_10 
REMARK       I    between atoms: N2_13  and  C12_14 
REMARK       I    between atoms: C12_14  and  N3_16 
REMARK    6  A    between atoms: N3_16  and  C13_18 
ROOT
HETATM    1  N1  UNL     1      43.579  32.213  32.083  1.00  0.00     0.112 N 
HETATM    2  C10 UNL     1      43.689  32.486  30.697  1.00  0.00     0.295 C 
HETATM    3  C11 UNL     1      45.161  32.386  30.348  1.00  0.00     0.159 C 
HETATM    4  N2  UNL     1      45.789  32.343  31.647  1.00  0.00    -0.306 N 
HETATM    5  C12 UNL     1      47.041  32.878  32.012  1.00  0.00     0.320 C 
HETATM    6  O1  UNL     1      47.425  32.734  33.198  1.00  0.00    -0.247 OA
HETATM    7  N3  UNL     1      47.891  33.571  31.111  1.00  0.00    -0.337 N 
ATOM      8  H3  UNL     1      47.583  33.690  30.146  1.00  0.00     0.164 HD
HETATM    9  C18 UNL     1      44.836  31.627  32.508  1.00  0.00     0.402 C 
ENDROOT
BRANCH   7  10
HETATM   10  C13 UNL     1      49.173  34.116  31.499  1.00  0.00     0.111 C 
HETATM   11  C14 UNL     1      50.190  33.016  31.575  1.00  0.00     0.028 C 
HETATM   12  C15 UNL     1      51.002  32.867  30.320  1.00  0.00     0.029 C 
HETATM   13  C16 UNL     1      51.637  34.238  30.063  1.00  0.00     0.232 C 
HETATM   14  N4  UNL     1      50.518  35.082  29.656  1.00  0.00    -0.073 N 
HETATM   15  C17 UNL     1      49.571  35.306  30.697  1.00  0.00     0.257 C 
ATOM     16  H42 UNL     1      50.852  35.968  29.275  1.00  0.00     0.277 HD
ATOM     17  H41 UNL     1      50.061  34.703  28.826  1.00  0.00     0.277 HD
ENDBRANCH   7  10
BRANCH   1  18
HETATM   18  C9  UNL     1      42.412  31.553  32.531  1.00  0.00     0.225 C 
HETATM   19  C8  UNL     1      41.251  31.531  31.574  1.00  0.00     0.036 C 
HETATM   20  C7  UNL     1      40.301  30.388  31.969  1.00  0.00     0.007 C 
HETATM   21  C6  UNL     1      40.281  30.314  33.462  1.00  0.00    -0.014 C 
HETATM   22  C20 UNL     1      41.585  29.704  33.940  1.00  0.00     0.007 C 
HETATM   23  C19 UNL     1      42.653  30.112  32.934  1.00  0.00     0.036 C 
BRANCH  21  24
HETATM   24  C5  UNL     1      39.086  29.641  34.054  1.00  0.00     0.004 C 
BRANCH  24  25
HETATM   25  C4  UNL     1      39.365  28.856  35.309  1.00  0.00     0.000 C 
BRANCH  25  26
HETATM   26  C3  UNL     1      38.308  27.769  35.411  1.00  0.00    -0.000 C 
BRANCH  26  27
HETATM   27  C2  UNL     1      38.053  27.327  36.812  1.00  0.00    -0.005 C 
HETATM   28  C1  UNL     1      36.709  26.666  36.971  1.00  0.00     0.005 C 
ENDBRANCH  26  27
ENDBRANCH  25  26
ENDBRANCH  24  25
ENDBRANCH  21  24
ENDBRANCH   1  18
TORSDOF 6
ENDMDL
MODEL 4
REMARK VINA RESULT: -8.858458718      2.197      3.784
REMARK  6 active torsions:
REMARK  status: ('A' for Active; 'I' for Inactive)
REMARK    1  A    between atoms: C2_2  and  C3_3 
REMARK    2  A    between atoms: C3_3  and  C4_4 
REMARK    3  A    between atoms: C4_4  and  C5_5 
REMARK    4  A    between atoms: C5_5  and  C6_6 
REMARK    5  A    between atoms: C9_9  and  N1_10 
REMARK       I    between atoms: N2_13  and  C12_14 
REMARK       I    between atoms: C12_14  and  N3_16 
REMARK    6  A    between atoms: N3_16  and  C13_18 
ROOT
HETATM    1  N1  UNL     1      46.449  32.523  31.850  1.00  0.00     0.112 N 
HETATM    2  C10 UNL     1      47.344  32.990  32.844  1.00  0.00     0.295 C 
HETATM    3  C11 UNL     1      48.420  33.781  32.127  1.00  0.00     0.159 C 
HETATM    4  N2  UNL     1      48.186  33.445  30.743  1.00  0.00    -0.306 N 
HETATM    5  C12 UNL     1      49.145  33.312  29.719  1.00  0.00     0.320 C 
HETATM    6  O1  UNL     1      48.746  33.018  28.566  1.00  0.00    -0.247 OA
HETATM    7  N3  UNL     1      50.538  33.491  29.921  1.00  0.00    -0.337 N 
ATOM      8  H3  UNL     1      50.867  33.730  30.857  1.00  0.00     0.164 HD
HETATM    9  C18 UNL     1      46.730  33.264  30.635  1.00  0.00     0.402 C 
ENDROOT
BRANCH   7  10
HETATM   10  C13 UNL     1      51.512  33.351  28.862  1.00  0.00     0.111 C 
HETATM   11  C14 UNL     1      52.540  34.438  28.970  1.00  0.00     0.028 C 
HETATM   12  C15 UNL     1      53.775  34.018  29.714  1.00  0.00     0.029 C 
HETATM   13  C16 UNL     1      54.306  32.777  28.987  1.00  0.00     0.232 C 
HETATM   14  N4  UNL     1      53.336  31.732  29.303  1.00  0.00    -0.073 N 
HETATM   15  C17 UNL     1      52.049  31.967  28.739  1.00  0.00     0.257 C 
ATOM     16  H42 UNL     1      53.689  30.816  29.029  1.00  0.00     0.277 HD
ATOM     17  H41 UNL     1      53.269  31.593  30.312  1.00  0.00     0.277 HD
ENDBRANCH   7  10
BRANCH   1  18
HETATM   18  C9  UNL     1      45.083  32.410  32.198  1.00  0.00     0.225 C 
HETATM   19  C8  UNL     1      44.482  33.583  32.922  1.00  0.00     0.036 C 
HETATM   20  C7  UNL     1      42.951  33.533  32.767  1.00  0.00     0.007 C 
HETATM   21  C6  UNL     1      42.541  32.096  32.814  1.00  0.00    -0.014 C 
HETATM   22  C20 UNL     1      42.926  31.433  31.505  1.00  0.00     0.007 C 
HETATM   23  C19 UNL     1      44.181  32.139  31.010  1.00  0.00     0.036 C 
BRANCH  21  24
HETATM   24  C5  UNL     1      41.114  31.850  33.180  1.00  0.00     0.004 C 
BRANCH  24  25
HETATM   25  C4  UNL     1      40.900  30.713  34.146  1.00  0.00     0.000 C 
BRANCH  25  26
HETATM   26  C3  UNL     1      39.460  30.252  33.996  1.00  0.00    -0.000 C 
BRANCH  26  27
HETATM   27  C2  UNL     1      39.215  29.493  32.735  1.00  0.00    -0.005 C 
HETATM   28  C1  UNL     1      38.055  30.044  31.948  1.00  0.00     0.005 C 
ENDBRANCH  26  27
ENDBRANCH  25  26
ENDBRANCH  24  25
ENDBRANCH  21  24
ENDBRANCH   1  18
TORSDOF 6
ENDMDL
MODEL 5
REMARK VINA RESULT: -8.805514504      2.073      3.230
REMARK  6 active torsions:
REMARK  status: ('A' for Active; 'I' for Inactive)
REMARK    1  A    between atoms: C2_2  and  C3_3 
REMARK    2  A    between atoms: C3_3  and  C4_4 
REMARK    3  A    between atoms: C4_4  and  C5_5 
REMARK    4  A    between atoms: C5_5  and  C6_6 
REMARK    5  A    between atoms: C9_9  and  N1_10 
REMARK       I    between atoms: N2_13  and  C12_14 
REMARK       I    between atoms: C12_14  and  N3_16 
REMARK    6  A    between atoms: N3_16  and  C13_18 
ROOT
HETATM    1  N1  UNL     1      44.766  32.834  31.261  1.00  0.00     0.112 N 
HETATM    2  C10 UNL     1      44.786  32.609  29.862  1.00  0.00     0.295 C 
HETATM    3  C11 UNL     1      46.228  32.753  29.417  1.00  0.00     0.159 C 
HETATM    4  N2  UNL     1      46.858  33.334  30.579  1.00  0.00    -0.306 N 
HETATM    5  C12 UNL     1      47.927  34.253  30.605  1.00  0.00     0.320 C 
HETATM    6  O1  UNL     1      48.347  34.643  31.722  1.00  0.00    -0.247 OA
HETATM    7  N3  UNL     1      48.553  34.761  29.437  1.00  0.00    -0.337 N 
ATOM      8  H3  UNL     1      48.215  34.446  28.528  1.00  0.00     0.164 HD
HETATM    9  C18 UNL     1      46.137  32.766  31.728  1.00  0.00     0.402 C 
ENDROOT
BRANCH   7  10
HETATM   10  C13 UNL     1      49.648  35.704  29.479  1.00  0.00     0.111 C 
HETATM   11  C14 UNL     1      50.863  35.099  28.840  1.00  0.00     0.028 C 
HETATM   12  C15 UNL     1      51.027  35.474  27.395  1.00  0.00     0.029 C 
HETATM   13  C16 UNL     1      51.043  37.006  27.356  1.00  0.00     0.232 C 
HETATM   14  N4  UNL     1      49.668  37.389  27.662  1.00  0.00    -0.073 N 
HETATM   15  C17 UNL     1      49.272  37.060  28.991  1.00  0.00     0.257 C 
ATOM     16  H42 UNL     1      49.517  38.380  27.476  1.00  0.00     0.277 HD
ATOM     17  H41 UNL     1      49.020  36.989  26.982  1.00  0.00     0.277 HD
ENDBRANCH   7  10
BRANCH   1  18
HETATM   18  C9  UNL     1      43.820  32.115  32.027  1.00  0.00     0.225 C 
HETATM   19  C8  UNL     1      42.841  32.938  32.819  1.00  0.00     0.036 C 
HETATM   20  C7  UNL     1      41.617  32.069  33.157  1.00  0.00     0.007 C 
HETATM   21  C6  UNL     1      42.110  30.685  33.431  1.00  0.00    -0.014 C 
HETATM   22  C20 UNL     1      42.499  30.033  32.118  1.00  0.00     0.007 C 
HETATM   23  C19 UNL     1      42.991  31.149  31.205  1.00  0.00     0.036 C 
BRANCH  21  24
HETATM   24  C5  UNL     1      41.194  29.828  34.243  1.00  0.00     0.004 C 
BRANCH  24  25
HETATM   25  C4  UNL     1      39.746  30.245  34.203  1.00  0.00     0.000 C 
BRANCH  25  26
HETATM   26  C3  UNL     1      39.018  29.275  33.287  1.00  0.00    -0.000 C 
BRANCH  26  27
HETATM   27  C2  UNL     1      38.125  29.953  32.303  1.00  0.00    -0.005 C 
HETATM   28  C1  UNL     1      38.894  30.740  31.275  1.00  0.00     0.005 C 
ENDBRANCH  26  27
ENDBRANCH  25  26
ENDBRANCH  24  25
ENDBRANCH  21  24
ENDBRANCH   1  18
TORSDOF 6
ENDMDL
