MODEL 1
REMARK VINA RESULT: -6.872674467      0.000      0.000
REMARK  5 active torsions:
REMARK  status: ('A' for Active; 'I' for Inactive)
REMARK       I    between atoms: N1_2  and  C2_4 
REMARK    1  A    between atoms: C2_4  and  C3_6 
REMARK    2  A    between atoms: C6_9  and  N2_10 
REMARK       I    between atoms: N2_10  and  C7_12 
REMARK    3  A    between atoms: C7_12  and  C8_14 
REMARK       I    between atoms: N3_16  and  C10_18 
REMARK    4  A    between atoms: C10_18  and  C11_20 
REMARK    5  A    between atoms: C11_20  and  N4_22 
ROOT
HETATM    1  N2  UNL     1      35.122  -5.363  11.563  1.00  0.00    -0.307 N 
ATOM      2  H2  UNL     1      34.272  -5.671  12.034  1.00  0.00     0.170 HD
HETATM    3  C7  UNL     1      35.828  -6.289  10.761  1.00  0.00     0.269 C 
HETATM    4  O2  UNL     1      35.782  -6.177   9.514  1.00  0.00    -0.266 OA
ENDROOT
BRANCH   1   5
HETATM    5  C6  UNL     1      35.507  -4.153  11.722  1.00  0.00     0.122 A 
HETATM    6  C5  UNL     1      35.928  -3.731  12.967  1.00  0.00     0.052 A 
HETATM    7  C4  UNL     1      36.357  -2.429  13.204  1.00  0.00     0.040 A 
HETATM    8  C3  UNL     1      36.352  -1.559  12.143  1.00  0.00     0.116 A 
HETATM    9  N6  UNL     1      35.935  -2.008  10.944  1.00  0.00    -0.294 N 
HETATM   10  N5  UNL     1      35.529  -3.247  10.731  1.00  0.00    -0.285 N 
ATOM     11  H6  UNL     1      35.932  -1.357  10.158  1.00  0.00     0.187 HD
ATOM     12  H5  UNL     1      35.225  -3.521   9.797  1.00  0.00     0.188 HD
BRANCH   8  13
HETATM   13  C2  UNL     1      36.793  -0.189  12.344  1.00  0.00     0.269 C 
HETATM   14  N1  UNL     1      36.138   0.741  13.183  1.00  0.00    -0.360 N 
HETATM   15  C1  UNL     1      36.636   2.094  13.337  1.00  0.00     0.149 C 
ATOM     16  H1  UNL     1      35.300   0.455  13.690  1.00  0.00     0.162 HD
HETATM   17  O1  UNL     1      37.841   0.201  11.724  1.00  0.00    -0.266 OA
ENDBRANCH   8  13
ENDBRANCH   1   5
BRANCH   3  18
HETATM   18  C8  UNL     1      36.587  -7.342  11.417  1.00  0.00     0.076 C 
HETATM   19  C9  UNL     1      37.928  -7.050  12.022  1.00  0.00     0.074 C 
HETATM   20  N3  UNL     1      36.108  -8.515  11.476  1.00  0.00    -0.324 N 
HETATM   21  C10 UNL     1      34.877  -8.967  10.967  1.00  0.00     0.252 C 
ATOM     22  H3  UNL     1      36.683  -9.213  11.948  1.00  0.00     0.169 HD
HETATM   23  O3  UNL     1      34.794  -9.338   9.773  1.00  0.00    -0.271 OA
BRANCH  21  24
HETATM   24  C11 UNL     1      33.691  -9.004  11.843  1.00  0.00     0.271 C 
HETATM   25  C12 UNL     1      34.167  -8.912  13.284  1.00  0.00     0.050 C 
BRANCH  24  26
HETATM   26  N4  UNL     1      32.857  -7.865  11.523  1.00  0.00    -0.067 N 
ATOM     27  H43 UNL     1      33.222  -6.991  11.901  1.00  0.00     0.275 HD
ATOM     28  H42 UNL     1      32.895  -7.614  10.536  1.00  0.00     0.275 HD
ATOM     29  H41 UNL     1      31.909  -8.065  11.842  1.00  0.00     0.275 HD
ENDBRANCH  24  26
ENDBRANCH  21  24
ENDBRANCH   3  18
TORSDOF 5
ENDMDL
MODEL 2
REMARK VINA RESULT: -6.745709468      1.964      2.237
REMARK  5 active torsions:
REMARK  status: ('A' for Active; 'I' for Inactive)
REMARK       I    between atoms: N1_2  and  C2_4 
REMARK    1  A    between atoms: C2_4  and  C3_6 
REMARK    2  A    between atoms: C6_9  and  N2_10 
REMARK       I    between atoms: N2_10  and  C7_12 
REMARK    3  A    between atoms: C7_12  and  C8_14 
REMARK       I    between atoms: N3_16  and  C10_18 
REMARK    4  A    between atoms: C10_18  and  C11_20 
REMARK    5  A    between atoms: C11_20  and  N4_22 
ROOT
HETATM    1  N2  UNL     1      34.865  -5.891  12.977  1.00  0.00    -0.307 N 
ATOM      2  H2  UNL     1      35.145  -6.382  13.826  1.00  0.00     0.170 HD
HETATM    3  C7  UNL     1      34.112  -6.591  12.006  1.00  0.00     0.269 C 
HETATM    4  O2  UNL     1      32.893  -6.330  11.873  1.00  0.00    -0.266 OA
ENDROOT
BRANCH   1   5
HETATM    5  C6  UNL     1      35.209  -4.667  12.833  1.00  0.00     0.122 A 
HETATM    6  C5  UNL     1      35.488  -4.183  11.571  1.00  0.00     0.052 A 
HETATM    7  C4  UNL     1      35.867  -2.863  11.350  1.00  0.00     0.040 A 
HETATM    8  C3  UNL     1      35.958  -2.039  12.444  1.00  0.00     0.116 A 
HETATM    9  N6  UNL     1      35.678  -2.549  13.659  1.00  0.00    -0.294 N 
HETATM   10  N5  UNL     1      35.319  -3.805  13.856  1.00  0.00    -0.285 N 
ATOM     11  H6  UNL     1      35.748  -1.932  14.469  1.00  0.00     0.187 HD
ATOM     12  H5  UNL     1      35.122  -4.125  14.804  1.00  0.00     0.188 HD
BRANCH   8  13
HETATM   13  C2  UNL     1      36.351  -0.652  12.259  1.00  0.00     0.269 C 
HETATM   14  N1  UNL     1      36.424   0.299  13.302  1.00  0.00    -0.360 N 
HETATM   15  C1  UNL     1      36.826   1.667  13.043  1.00  0.00     0.149 C 
ATOM     16  H1  UNL     1      36.190   0.017  14.254  1.00  0.00     0.162 HD
HETATM   17  O1  UNL     1      36.651  -0.267  11.077  1.00  0.00    -0.266 OA
ENDBRANCH   8  13
ENDBRANCH   1   5
BRANCH   3  18
HETATM   18  C8  UNL     1      34.783  -7.592  11.193  1.00  0.00     0.076 C 
HETATM   19  C9  UNL     1      35.548  -7.190   9.967  1.00  0.00     0.074 C 
HETATM   20  N3  UNL     1      34.719  -8.815  11.526  1.00  0.00    -0.324 N 
HETATM   21  C10 UNL     1      34.053  -9.370  12.633  1.00  0.00     0.252 C 
ATOM     22  H3  UNL     1      35.209  -9.473  10.919  1.00  0.00     0.169 HD
HETATM   23  O3  UNL     1      32.837  -9.661  12.548  1.00  0.00    -0.271 OA
BRANCH  21  24
HETATM   24  C11 UNL     1      34.791  -9.609  13.888  1.00  0.00     0.271 C 
HETATM   25  C12 UNL     1      36.238  -9.200  13.668  1.00  0.00     0.050 C 
BRANCH  24  26
HETATM   26  N4  UNL     1      34.197  -8.791  14.924  1.00  0.00    -0.067 N 
ATOM     27  H43 UNL     1      34.287  -7.792  14.737  1.00  0.00     0.275 HD
ATOM     28  H42 UNL     1      33.178  -8.839  14.929  1.00  0.00     0.275 HD
ATOM     29  H41 UNL     1      34.607  -9.062  15.818  1.00  0.00     0.275 HD
ENDBRANCH  24  26
ENDBRANCH  21  24
ENDBRANCH   3  18
TORSDOF 5
ENDMDL
MODEL 3
REMARK VINA RESULT: -6.422878672      1.831      2.988
REMARK  5 active torsions:
REMARK  status: ('A' for Active; 'I' for Inactive)
REMARK       I    between atoms: N1_2  and  C2_4 
REMARK    1  A    between atoms: C2_4  and  C3_6 
REMARK    2  A    between atoms: C6_9  and  N2_10 
REMARK       I    between atoms: N2_10  and  C7_12 
REMARK    3  A    between atoms: C7_12  and  C8_14 
REMARK       I    between atoms: N3_16  and  C10_18 
REMARK    4  A    between atoms: C10_18  and  C11_20 
REMARK    5  A    between atoms: C11_20  and  N4_22 
ROOT
HETATM    1  N2  UNL     1      34.515  -7.045  13.308  1.00  0.00    -0.307 N 
ATOM      2  H2  UNL     1      34.492  -7.293  14.297  1.00  0.00     0.170 HD
HETATM    3  C7  UNL     1      34.230  -8.045  12.350  1.00  0.00     0.269 C 
HETATM    4  O2  UNL     1      33.134  -8.016  11.743  1.00  0.00    -0.266 OA
ENDROOT
BRANCH   1   5
HETATM    5  C6  UNL     1      34.801  -5.841  12.984  1.00  0.00     0.122 A 
HETATM    6  C5  UNL     1      35.622  -5.093  13.805  1.00  0.00     0.052 A 
HETATM    7  C4  UNL     1      35.969  -3.779  13.508  1.00  0.00     0.040 A 
HETATM    8  C3  UNL     1      35.463  -3.236  12.353  1.00  0.00     0.116 A 
HETATM    9  N6  UNL     1      34.666  -3.997  11.580  1.00  0.00    -0.294 N 
HETATM   10  N5  UNL     1      34.343  -5.245  11.872  1.00  0.00    -0.285 N 
ATOM     11  H6  UNL     1      34.292  -3.589  10.722  1.00  0.00     0.187 HD
ATOM     12  H5  UNL     1      33.733  -5.765  11.241  1.00  0.00     0.188 HD
BRANCH   8  13
HETATM   13  C2  UNL     1      35.800  -1.867  12.004  1.00  0.00     0.269 C 
HETATM   14  N1  UNL     1      36.471  -0.969  12.865  1.00  0.00    -0.360 N 
HETATM   15  C1  UNL     1      36.775   0.386  12.448  1.00  0.00     0.149 C 
ATOM     16  H1  UNL     1      36.746  -1.280  13.797  1.00  0.00     0.162 HD
HETATM   17  O1  UNL     1      35.469  -1.446  10.842  1.00  0.00    -0.266 OA
ENDBRANCH   8  13
ENDBRANCH   1   5
BRANCH   3  18
HETATM   18  C8  UNL     1      35.224  -9.077  12.104  1.00  0.00     0.076 C 
HETATM   19  C9  UNL     1      35.177 -10.375  12.853  1.00  0.00     0.074 C 
HETATM   20  N3  UNL     1      36.138  -8.874  11.247  1.00  0.00    -0.324 N 
HETATM   21  C10 UNL     1      36.336  -7.727  10.458  1.00  0.00     0.252 C 
ATOM     22  H3  UNL     1      36.808  -9.632  11.115  1.00  0.00     0.169 HD
HETATM   23  O3  UNL     1      36.992  -6.762  10.914  1.00  0.00    -0.271 OA
BRANCH  21  24
HETATM   24  C11 UNL     1      35.772  -7.667   9.097  1.00  0.00     0.271 C 
HETATM   25  C12 UNL     1      35.747  -6.211   8.660  1.00  0.00     0.050 C 
BRANCH  24  26
HETATM   26  N4  UNL     1      36.628  -8.434   8.217  1.00  0.00    -0.067 N 
ATOM     27  H43 UNL     1      36.181  -8.654   7.326  1.00  0.00     0.275 HD
ATOM     28  H42 UNL     1      37.406  -7.887   7.849  1.00  0.00     0.275 HD
ATOM     29  H41 UNL     1      36.936  -9.267   8.718  1.00  0.00     0.275 HD
ENDBRANCH  24  26
ENDBRANCH  21  24
ENDBRANCH   3  18
TORSDOF 5
ENDMDL
MODEL 4
REMARK VINA RESULT: -6.382111136      2.681      3.415
REMARK  5 active torsions:
REMARK  status: ('A' for Active; 'I' for Inactive)
REMARK       I    between atoms: N1_2  and  C2_4 
REMARK    1  A    between atoms: C2_4  and  C3_6 
REMARK    2  A    between atoms: C6_9  and  N2_10 
REMARK       I    between atoms: N2_10  and  C7_12 
REMARK    3  A    between atoms: C7_12  and  C8_14 
REMARK       I    between atoms: N3_16  and  C10_18 
REMARK    4  A    between atoms: C10_18  and  C11_20 
REMARK    5  A    between atoms: C11_20  and  N4_22 
ROOT
HETATM    1  N2  UNL     1      35.476  -7.946   9.616  1.00  0.00    -0.307 N 
ATOM      2  H2  UNL     1      34.720  -8.548   9.941  1.00  0.00     0.170 HD
HETATM    3  C7  UNL     1      36.367  -8.445   8.637  1.00  0.00     0.269 C 
HETATM    4  O2  UNL     1      36.290  -8.014   7.463  1.00  0.00    -0.266 OA
ENDROOT
BRANCH   1   5
HETATM    5  C6  UNL     1      35.581  -6.771  10.109  1.00  0.00     0.122 A 
HETATM    6  C5  UNL     1      36.014  -6.616  11.411  1.00  0.00     0.052 A 
HETATM    7  C4  UNL     1      36.148  -5.365  12.004  1.00  0.00     0.040 A 
HETATM    8  C3  UNL     1      35.832  -4.267  11.244  1.00  0.00     0.116 A 
HETATM    9  N6  UNL     1      35.413  -4.459   9.979  1.00  0.00    -0.294 N 
HETATM   10  N5  UNL     1      35.289  -5.652   9.426  1.00  0.00    -0.285 N 
ATOM     11  H6  UNL     1      35.178  -3.639   9.418  1.00  0.00     0.187 HD
ATOM     12  H5  UNL     1      34.965  -5.726   8.462  1.00  0.00     0.188 HD
BRANCH   8  13
HETATM   13  C2  UNL     1      35.957  -2.940  11.824  1.00  0.00     0.269 C 
HETATM   14  N1  UNL     1      36.431  -1.808  11.124  1.00  0.00    -0.360 N 
HETATM   15  C1  UNL     1      36.529  -0.513  11.768  1.00  0.00     0.149 C 
ATOM     16  H1  UNL     1      36.709  -1.904  10.147  1.00  0.00     0.162 HD
HETATM   17  O1  UNL     1      35.616  -2.787  13.048  1.00  0.00    -0.266 OA
ENDBRANCH   8  13
ENDBRANCH   1   5
BRANCH   3  18
HETATM   18  C8  UNL     1      37.346  -9.445   9.033  1.00  0.00     0.076 C 
HETATM   19  C9  UNL     1      38.573  -9.048   9.798  1.00  0.00     0.074 C 
HETATM   20  N3  UNL     1      37.158 -10.662   8.726  1.00  0.00    -0.324 N 
HETATM   21  C10 UNL     1      36.075 -11.211   8.017  1.00  0.00     0.252 C 
ATOM     22  H3  UNL     1      37.877 -11.319   9.029  1.00  0.00     0.169 HD
HETATM   23  O3  UNL     1      36.095 -11.230   6.764  1.00  0.00    -0.271 OA
BRANCH  21  24
HETATM   24  C11 UNL     1      34.922 -11.763   8.752  1.00  0.00     0.271 C 
HETATM   25  C12 UNL     1      35.271 -11.777  10.232  1.00  0.00     0.050 C 
BRANCH  24  26
HETATM   26  N4  UNL     1      33.782 -10.901   8.520  1.00  0.00    -0.067 N 
ATOM     27  H43 UNL     1      33.317 -10.623   9.385  1.00  0.00     0.275 HD
ATOM     28  H42 UNL     1      34.051  -9.970   8.203  1.00  0.00     0.275 HD
ATOM     29  H41 UNL     1      33.154 -11.372   7.870  1.00  0.00     0.275 HD
ENDBRANCH  24  26
ENDBRANCH  21  24
ENDBRANCH   3  18
TORSDOF 5
ENDMDL
MODEL 5
REMARK VINA RESULT: -6.337003803      2.827      6.909
REMARK  5 active torsions:
REMARK  status: ('A' for Active; 'I' for Inactive)
REMARK       I    between atoms: N1_2  and  C2_4 
REMARK    1  A    between atoms: C2_4  and  C3_6 
REMARK    2  A    between atoms: C6_9  and  N2_10 
REMARK       I    between atoms: N2_10  and  C7_12 
REMARK    3  A    between atoms: C7_12  and  C8_14 
REMARK       I    between atoms: N3_16  and  C10_18 
REMARK    4  A    between atoms: C10_18  and  C11_20 
REMARK    5  A    between atoms: C11_20  and  N4_22 
ROOT
HETATM    1  N2  UNL     1      36.830  -1.960  11.558  1.00  0.00    -0.307 N 
ATOM      2  H2  UNL     1      36.858  -1.696  10.574  1.00  0.00     0.170 HD
HETATM    3  C7  UNL     1      37.508  -1.150  12.497  1.00  0.00     0.269 C 
HETATM    4  O2  UNL     1      36.842  -0.418  13.267  1.00  0.00    -0.266 OA
ENDROOT
BRANCH   1   5
HETATM    5  C6  UNL     1      36.184  -3.013  11.893  1.00  0.00     0.122 A 
HETATM    6  C5  UNL     1      35.978  -4.010  10.962  1.00  0.00     0.052 A 
HETATM    7  C4  UNL     1      35.284  -5.176  11.264  1.00  0.00     0.040 A 
HETATM    8  C3  UNL     1      34.800  -5.311  12.542  1.00  0.00     0.116 A 
HETATM    9  N6  UNL     1      35.021  -4.316  13.422  1.00  0.00    -0.294 N 
HETATM   10  N5  UNL     1      35.682  -3.212  13.122  1.00  0.00    -0.285 N 
ATOM     11  H6  UNL     1      34.658  -4.421  14.370  1.00  0.00     0.187 HD
ATOM     12  H5  UNL     1      35.813  -2.498  13.838  1.00  0.00     0.188 HD
BRANCH   8  13
HETATM   13  C2  UNL     1      34.068  -6.514  12.902  1.00  0.00     0.269 C 
HETATM   14  N1  UNL     1      34.642  -7.627  13.557  1.00  0.00    -0.360 N 
HETATM   15  C1  UNL     1      33.849  -8.795  13.887  1.00  0.00     0.149 C 
ATOM     16  H1  UNL     1      35.632  -7.608  13.803  1.00  0.00     0.162 HD
HETATM   17  O1  UNL     1      32.825  -6.569  12.608  1.00  0.00    -0.266 OA
ENDBRANCH   8  13
ENDBRANCH   1   5
BRANCH   3  18
HETATM   18  C8  UNL     1      38.961  -1.195  12.536  1.00  0.00     0.076 C 
HETATM   19  C9  UNL     1      39.775  -0.366  11.588  1.00  0.00     0.074 C 
HETATM   20  N3  UNL     1      39.542  -1.943  13.381  1.00  0.00    -0.324 N 
HETATM   21  C10 UNL     1      38.945  -2.783  14.339  1.00  0.00     0.252 C 
ATOM     22  H3  UNL     1      40.562  -1.935  13.364  1.00  0.00     0.169 HD
HETATM   23  O3  UNL     1      38.603  -3.946  14.022  1.00  0.00    -0.271 OA
BRANCH  21  24
HETATM   24  C11 UNL     1      38.726  -2.289  15.711  1.00  0.00     0.271 C 
HETATM   25  C12 UNL     1      39.518  -1.002  15.880  1.00  0.00     0.050 C 
BRANCH  24  26
HETATM   26  N4  UNL     1      37.312  -2.027  15.878  1.00  0.00    -0.067 N 
ATOM     27  H43 UNL     1      36.733  -2.570  15.238  1.00  0.00     0.275 HD
ATOM     28  H42 UNL     1      36.943  -2.403  16.751  1.00  0.00     0.275 HD
ATOM     29  H41 UNL     1      37.161  -1.022  15.789  1.00  0.00     0.275 HD
ENDBRANCH  24  26
ENDBRANCH  21  24
ENDBRANCH   3  18
TORSDOF 5
ENDMDL
