MODEL 1
REMARK VINA RESULT: -9.629141264      0.000      0.000
REMARK  21 active torsions:
REMARK  status: ('A' for Active; 'I' for Inactive)
REMARK    1  A    between atoms: C2_2  and  C3_3 
REMARK    2  A    between atoms: C3_3  and  C4_4 
REMARK    3  A    between atoms: C4_4  and  N1_5 
REMARK    4  A    between atoms: N1_5  and  C5_7 
REMARK    5  A    between atoms: C6_10  and  O1_11 
REMARK    6  A    between atoms: C7_13  and  C8_14 
REMARK    7  A    between atoms: C8_14  and  C9_15 
REMARK    8  A    between atoms: C9_15  and  C10_16 
REMARK    9  A    between atoms: C10_16  and  C11_17 
REMARK   10  A    between atoms: C11_17  and  C12_18 
REMARK   11  A    between atoms: C14_23  and  C15_24 
REMARK   12  A    between atoms: C15_24  and  C16_25 
REMARK   13  A    between atoms: C17_28  and  C18_29 
REMARK   14  A    between atoms: C18_29  and  C19_30 
REMARK   15  A    between atoms: C19_30  and  C20_31 
REMARK       I    between atoms: C20_31  and  N5_33 
REMARK   16  A    between atoms: N5_33  and  C21_34 
REMARK   17  A    between atoms: N5_33  and  C24_37 
REMARK   18  A    between atoms: N6_41  and  C28_42 
REMARK   19  A    between atoms: C28_42  and  C29_43 
REMARK   20  A    between atoms: C29_43  and  C30_44 
REMARK   21  A    between atoms: C33_47  and  O4_48 
ROOT
HETATM    1  C12 UNL     1      -5.265   6.869  -2.943  1.00  0.00     0.085 A 
HETATM    2  N3  UNL     1      -4.843   5.590  -2.972  1.00  0.00    -0.312 N 
ATOM      3  H3  UNL     1      -4.138   5.266  -2.309  1.00  0.00     0.170 HD
HETATM    4  C13 UNL     1      -5.358   4.745  -3.878  1.00  0.00     0.261 A 
HETATM    5  O2  UNL     1      -4.919   3.558  -3.852  1.00  0.00    -0.267 OA
HETATM    6  C14 UNL     1      -6.308   5.104  -4.799  1.00  0.00     0.086 A 
HETATM    7  C33 UNL     1      -6.739   6.441  -4.759  1.00  0.00     0.157 A 
HETATM    8  N7  UNL     1      -6.191   7.244  -3.833  1.00  0.00    -0.326 N 
ATOM      9  H7  UNL     1      -6.506   8.214  -3.805  1.00  0.00     0.169 HD
ENDROOT
BRANCH   6  10
HETATM   10  C15 UNL     1      -6.899   4.187  -5.730  1.00  0.00     0.070 C 
BRANCH  10  11
HETATM   11  C16 UNL     1      -6.496   3.715  -6.873  1.00  0.00     0.108 A 
HETATM   12  N4  UNL     1      -5.173   3.795  -7.233  1.00  0.00    -0.341 N 
HETATM   13  C17 UNL     1      -4.970   3.232  -8.424  1.00  0.00     0.046 A 
ATOM     14  H4  UNL     1      -4.444   4.228  -6.665  1.00  0.00     0.167 HD
HETATM   15  C27 UNL     1      -6.171   2.773  -8.859  1.00  0.00     0.121 A 
HETATM   16  N6  UNL     1      -7.096   3.088  -7.879  1.00  0.00    -0.341 N 
BRANCH  13  17
HETATM   17  C18 UNL     1      -3.815   3.130  -9.071  1.00  0.00     0.013 C 
BRANCH  17  18
HETATM   18  C19 UNL     1      -2.538   3.571  -8.450  1.00  0.00     0.132 C 
BRANCH  18  19
HETATM   19  C20 UNL     1      -1.437   3.597  -9.440  1.00  0.00     0.224 C 
HETATM   20  O3  UNL     1      -1.707   3.887 -10.660  1.00  0.00    -0.273 OA
HETATM   21  N5  UNL     1      -0.076   3.322  -9.152  1.00  0.00    -0.344 N 
BRANCH  21  22
HETATM   22  C21 UNL     1       0.422   2.974  -7.834  1.00  0.00     0.079 C 
HETATM   23  C22 UNL     1       0.091   1.571  -7.439  1.00  0.00     0.032 C 
HETATM   24  C23 UNL     1      -0.187   3.904  -6.826  1.00  0.00     0.032 C 
ENDBRANCH  21  22
BRANCH  21  25
HETATM   25  C24 UNL     1       0.921   3.383 -10.224  1.00  0.00     0.079 C 
HETATM   26  C25 UNL     1       1.410   2.024 -10.609  1.00  0.00     0.032 C 
HETATM   27  C26 UNL     1       2.130   4.200  -9.752  1.00  0.00     0.032 C 
ENDBRANCH  21  25
ENDBRANCH  18  19
ENDBRANCH  17  18
ENDBRANCH  13  17
BRANCH  16  28
HETATM   28  C28 UNL     1      -8.453   2.723  -8.044  1.00  0.00     0.130 C 
BRANCH  28  29
HETATM   29  C29 UNL     1      -9.549   3.626  -7.631  1.00  0.00     0.024 C 
BRANCH  29  30
HETATM   30  C30 UNL     1     -10.256   3.364  -6.348  1.00  0.00    -0.021 C 
HETATM   31  C31 UNL     1     -10.588   4.787  -5.788  1.00  0.00     0.009 C 
HETATM   32  C32 UNL     1     -11.652   2.773  -6.548  1.00  0.00     0.009 C 
ENDBRANCH  29  30
ENDBRANCH  28  29
ENDBRANCH  16  28
ENDBRANCH  10  11
ENDBRANCH   6  10
BRANCH   7  33
HETATM   33  O4  UNL     1      -7.700   6.853  -5.670  1.00  0.00    -0.345 OA
ATOM     34  H4  UNL     1      -7.518   6.748  -6.597  1.00  0.00     0.219 HD
ENDBRANCH   7  33
BRANCH   1  35
HETATM   35  C11 UNL     1      -4.712   7.847  -1.934  1.00  0.00     0.076 C 
BRANCH  35  36
HETATM   36  C10 UNL     1      -3.725   7.040  -1.116  1.00  0.00     0.008 C 
BRANCH  36  37
HETATM   37  C9  UNL     1      -2.296   7.378  -1.367  1.00  0.00     0.006 C 
BRANCH  37  38
HETATM   38  C8  UNL     1      -1.584   6.198  -1.993  1.00  0.00     0.051 C 
BRANCH  38  39
HETATM   39  C7  UNL     1      -1.085   6.707  -3.324  1.00  0.00     0.037 A 
HETATM   40  C6  UNL     1       0.116   6.441  -3.925  1.00  0.00     0.155 A 
HETATM   41  N2  UNL     1       0.346   6.993  -5.085  1.00  0.00    -0.317 N 
HETATM   42  C5  UNL     1      -0.591   7.778  -5.616  1.00  0.00     0.146 A 
ATOM     43  H2  UNL     1       1.225   6.828  -5.575  1.00  0.00     0.170 HD
HETATM   44  S1  UNL     1      -1.834   7.742  -4.452  1.00  0.00    -0.054 SA
BRANCH  40  45
HETATM   45  O1  UNL     1       1.055   5.586  -3.276  1.00  0.00    -0.345 OA
ATOM     46  H1  UNL     1       1.283   5.673  -2.359  1.00  0.00     0.219 HD
ENDBRANCH  40  45
BRANCH  42  47
HETATM   47  N1  UNL     1      -0.548   8.421  -6.764  1.00  0.00    -0.370 N 
ATOM     48  H1  UNL     1       0.293   8.340  -7.335  1.00  0.00     0.161 HD
BRANCH  47  49
HETATM   49  C4  UNL     1      -1.629   9.231  -7.249  1.00  0.00     0.121 C 
BRANCH  49  50
HETATM   50  C3  UNL     1      -1.330  10.676  -6.966  1.00  0.00     0.019 C 
BRANCH  50  51
HETATM   51  C2  UNL     1      -2.022  11.607  -7.941  1.00  0.00    -0.003 C 
HETATM   52  C1  UNL     1      -2.039  11.023  -9.339  1.00  0.00     0.005 C 
ENDBRANCH  50  51
ENDBRANCH  49  50
ENDBRANCH  47  49
ENDBRANCH  42  47
ENDBRANCH  38  39
ENDBRANCH  37  38
ENDBRANCH  36  37
ENDBRANCH  35  36
ENDBRANCH   1  35
TORSDOF 21
ENDMDL
MODEL 2
REMARK VINA RESULT: -9.576248346      1.590      2.909
REMARK  21 active torsions:
REMARK  status: ('A' for Active; 'I' for Inactive)
REMARK    1  A    between atoms: C2_2  and  C3_3 
REMARK    2  A    between atoms: C3_3  and  C4_4 
REMARK    3  A    between atoms: C4_4  and  N1_5 
REMARK    4  A    between atoms: N1_5  and  C5_7 
REMARK    5  A    between atoms: C6_10  and  O1_11 
REMARK    6  A    between atoms: C7_13  and  C8_14 
REMARK    7  A    between atoms: C8_14  and  C9_15 
REMARK    8  A    between atoms: C9_15  and  C10_16 
REMARK    9  A    between atoms: C10_16  and  C11_17 
REMARK   10  A    between atoms: C11_17  and  C12_18 
REMARK   11  A    between atoms: C14_23  and  C15_24 
REMARK   12  A    between atoms: C15_24  and  C16_25 
REMARK   13  A    between atoms: C17_28  and  C18_29 
REMARK   14  A    between atoms: C18_29  and  C19_30 
REMARK   15  A    between atoms: C19_30  and  C20_31 
REMARK       I    between atoms: C20_31  and  N5_33 
REMARK   16  A    between atoms: N5_33  and  C21_34 
REMARK   17  A    between atoms: N5_33  and  C24_37 
REMARK   18  A    between atoms: N6_41  and  C28_42 
REMARK   19  A    between atoms: C28_42  and  C29_43 
REMARK   20  A    between atoms: C29_43  and  C30_44 
REMARK   21  A    between atoms: C33_47  and  O4_48 
ROOT
HETATM    1  C12 UNL     1      -5.192   7.012  -2.822  1.00  0.00     0.085 A 
HETATM    2  N3  UNL     1      -4.763   5.736  -2.835  1.00  0.00    -0.312 N 
ATOM      3  H3  UNL     1      -4.065   5.420  -2.161  1.00  0.00     0.170 HD
HETATM    4  C13 UNL     1      -5.261   4.881  -3.743  1.00  0.00     0.261 A 
HETATM    5  O2  UNL     1      -4.816   3.697  -3.702  1.00  0.00    -0.267 OA
HETATM    6  C14 UNL     1      -6.200   5.229  -4.679  1.00  0.00     0.086 A 
HETATM    7  C33 UNL     1      -6.638   6.563  -4.654  1.00  0.00     0.157 A 
HETATM    8  N7  UNL     1      -6.107   7.376  -3.727  1.00  0.00    -0.326 N 
ATOM      9  H7  UNL     1      -6.427   8.344  -3.711  1.00  0.00     0.169 HD
ENDROOT
BRANCH   6  10
HETATM   10  C15 UNL     1      -6.774   4.302  -5.611  1.00  0.00     0.070 C 
BRANCH  10  11
HETATM   11  C16 UNL     1      -6.354   3.827  -6.747  1.00  0.00     0.108 A 
HETATM   12  N4  UNL     1      -5.018   3.582  -6.950  1.00  0.00    -0.341 N 
HETATM   13  C17 UNL     1      -4.807   3.075  -8.165  1.00  0.00     0.046 A 
ATOM     14  H4  UNL     1      -4.286   3.763  -6.263  1.00  0.00     0.167 HD
HETATM   15  C27 UNL     1      -6.016   2.984  -8.775  1.00  0.00     0.121 A 
HETATM   16  N6  UNL     1      -6.953   3.458  -7.874  1.00  0.00    -0.341 N 
BRANCH  13  17
HETATM   17  C18 UNL     1      -3.640   2.721  -8.689  1.00  0.00     0.013 C 
BRANCH  17  18
HETATM   18  C19 UNL     1      -2.364   3.322  -8.217  1.00  0.00     0.132 C 
BRANCH  18  19
HETATM   19  C20 UNL     1      -1.361   3.382  -9.305  1.00  0.00     0.224 C 
HETATM   20  O3  UNL     1      -1.712   3.844 -10.448  1.00  0.00    -0.273 OA
HETATM   21  N5  UNL     1      -0.012   2.960  -9.192  1.00  0.00    -0.344 N 
BRANCH  21  22
HETATM   22  C21 UNL     1       0.569   2.408  -7.981  1.00  0.00     0.079 C 
HETATM   23  C22 UNL     1       0.085   1.027  -7.680  1.00  0.00     0.032 C 
HETATM   24  C23 UNL     1       0.210   3.296  -6.824  1.00  0.00     0.032 C 
ENDBRANCH  21  22
BRANCH  21  25
HETATM   25  C24 UNL     1       0.885   3.072 -10.344  1.00  0.00     0.079 C 
HETATM   26  C25 UNL     1       1.527   1.765 -10.681  1.00  0.00     0.032 C 
HETATM   27  C26 UNL     1       2.001   4.076 -10.030  1.00  0.00     0.032 C 
ENDBRANCH  21  25
ENDBRANCH  18  19
ENDBRANCH  17  18
ENDBRANCH  13  17
BRANCH  16  28
HETATM   28  C28 UNL     1      -8.324   3.477  -8.224  1.00  0.00     0.130 C 
BRANCH  28  29
HETATM   29  C29 UNL     1      -9.350   2.863  -7.353  1.00  0.00     0.024 C 
BRANCH  29  30
HETATM   30  C30 UNL     1     -10.483   3.700  -6.872  1.00  0.00    -0.021 C 
HETATM   31  C31 UNL     1     -11.571   2.666  -6.431  1.00  0.00     0.009 C 
HETATM   32  C32 UNL     1     -10.178   4.414  -5.554  1.00  0.00     0.009 C 
ENDBRANCH  29  30
ENDBRANCH  28  29
ENDBRANCH  16  28
ENDBRANCH  10  11
ENDBRANCH   6  10
BRANCH   7  33
HETATM   33  O4  UNL     1      -7.588   6.964  -5.582  1.00  0.00    -0.345 OA
ATOM     34  H4  UNL     1      -8.154   6.303  -5.964  1.00  0.00     0.219 HD
ENDBRANCH   7  33
BRANCH   1  35
HETATM   35  C11 UNL     1      -4.657   8.001  -1.813  1.00  0.00     0.076 C 
BRANCH  35  36
HETATM   36  C10 UNL     1      -4.030   9.099  -2.645  1.00  0.00     0.008 C 
BRANCH  36  37
HETATM   37  C9  UNL     1      -2.695   8.756  -3.213  1.00  0.00     0.006 C 
BRANCH  37  38
HETATM   38  C8  UNL     1      -2.646   9.117  -4.682  1.00  0.00     0.051 C 
BRANCH  38  39
HETATM   39  C7  UNL     1      -1.350   8.527  -5.184  1.00  0.00     0.037 A 
HETATM   40  C6  UNL     1      -0.513   9.037  -6.141  1.00  0.00     0.155 A 
HETATM   41  N2  UNL     1       0.563   8.356  -6.426  1.00  0.00    -0.317 N 
HETATM   42  C5  UNL     1       0.787   7.214  -5.778  1.00  0.00     0.146 A 
ATOM     43  H2  UNL     1       1.219   8.691  -7.132  1.00  0.00     0.170 HD
HETATM   44  S1  UNL     1      -0.554   7.089  -4.735  1.00  0.00    -0.054 SA
BRANCH  40  45
HETATM   45  O1  UNL     1      -0.840  10.269  -6.779  1.00  0.00    -0.345 OA
ATOM     46  H1  UNL     1      -1.318  10.964  -6.342  1.00  0.00     0.219 HD
ENDBRANCH  40  45
BRANCH  42  47
HETATM   47  N1  UNL     1       1.805   6.390  -5.923  1.00  0.00    -0.370 N 
ATOM     48  H1  UNL     1       1.825   5.783  -6.742  1.00  0.00     0.161 HD
BRANCH  47  49
HETATM   49  C4  UNL     1       2.886   6.307  -4.983  1.00  0.00     0.121 C 
BRANCH  49  50
HETATM   50  C3  UNL     1       2.462   5.467  -3.813  1.00  0.00     0.019 C 
BRANCH  50  51
HETATM   51  C2  UNL     1       2.466   6.247  -2.514  1.00  0.00    -0.003 C 
HETATM   52  C1  UNL     1       1.260   5.904  -1.664  1.00  0.00     0.005 C 
ENDBRANCH  50  51
ENDBRANCH  49  50
ENDBRANCH  47  49
ENDBRANCH  42  47
ENDBRANCH  38  39
ENDBRANCH  37  38
ENDBRANCH  36  37
ENDBRANCH  35  36
ENDBRANCH   1  35
TORSDOF 21
ENDMDL
MODEL 3
REMARK VINA RESULT: -9.374219118      3.876      8.315
REMARK  21 active torsions:
REMARK  status: ('A' for Active; 'I' for Inactive)
REMARK    1  A    between atoms: C2_2  and  C3_3 
REMARK    2  A    between atoms: C3_3  and  C4_4 
REMARK    3  A    between atoms: C4_4  and  N1_5 
REMARK    4  A    between atoms: N1_5  and  C5_7 
REMARK    5  A    between atoms: C6_10  and  O1_11 
REMARK    6  A    between atoms: C7_13  and  C8_14 
REMARK    7  A    between atoms: C8_14  and  C9_15 
REMARK    8  A    between atoms: C9_15  and  C10_16 
REMARK    9  A    between atoms: C10_16  and  C11_17 
REMARK   10  A    between atoms: C11_17  and  C12_18 
REMARK   11  A    between atoms: C14_23  and  C15_24 
REMARK   12  A    between atoms: C15_24  and  C16_25 
REMARK   13  A    between atoms: C17_28  and  C18_29 
REMARK   14  A    between atoms: C18_29  and  C19_30 
REMARK   15  A    between atoms: C19_30  and  C20_31 
REMARK       I    between atoms: C20_31  and  N5_33 
REMARK   16  A    between atoms: N5_33  and  C21_34 
REMARK   17  A    between atoms: N5_33  and  C24_37 
REMARK   18  A    between atoms: N6_41  and  C28_42 
REMARK   19  A    between atoms: C28_42  and  C29_43 
REMARK   20  A    between atoms: C29_43  and  C30_44 
REMARK   21  A    between atoms: C33_47  and  O4_48 
ROOT
HETATM    1  C12 UNL     1      -8.571   5.291  -4.519  1.00  0.00     0.085 A 
HETATM    2  N3  UNL     1      -7.791   4.200  -4.635  1.00  0.00    -0.312 N 
ATOM      3  H3  UNL     1      -8.192   3.308  -4.926  1.00  0.00     0.170 HD
HETATM    4  C13 UNL     1      -6.479   4.295  -4.365  1.00  0.00     0.261 A 
HETATM    5  O2  UNL     1      -5.801   3.234  -4.493  1.00  0.00    -0.267 OA
HETATM    6  C14 UNL     1      -5.866   5.457  -3.970  1.00  0.00     0.086 A 
HETATM    7  C33 UNL     1      -6.693   6.586  -3.852  1.00  0.00     0.157 A 
HETATM    8  N7  UNL     1      -7.997   6.436  -4.134  1.00  0.00    -0.326 N 
ATOM      9  H7  UNL     1      -8.595   7.258  -4.048  1.00  0.00     0.169 HD
ENDROOT
BRANCH   6  10
HETATM   10  C15 UNL     1      -4.456   5.571  -3.737  1.00  0.00     0.070 C 
BRANCH  10  11
HETATM   11  C16 UNL     1      -3.441   5.698  -4.542  1.00  0.00     0.108 A 
HETATM   12  N4  UNL     1      -3.433   5.063  -5.760  1.00  0.00    -0.341 N 
HETATM   13  C17 UNL     1      -2.319   5.345  -6.435  1.00  0.00     0.046 A 
ATOM     14  H4  UNL     1      -4.180   4.457  -6.101  1.00  0.00     0.167 HD
HETATM   15  C27 UNL     1      -1.580   6.176  -5.657  1.00  0.00     0.121 A 
HETATM   16  N6  UNL     1      -2.299   6.375  -4.492  1.00  0.00    -0.341 N 
BRANCH  13  17
HETATM   17  C18 UNL     1      -1.986   4.905  -7.642  1.00  0.00     0.013 C 
BRANCH  17  18
HETATM   18  C19 UNL     1      -1.610   3.485  -7.873  1.00  0.00     0.132 C 
BRANCH  18  19
HETATM   19  C20 UNL     1      -0.766   3.339  -9.080  1.00  0.00     0.224 C 
HETATM   20  O3  UNL     1      -1.299   3.507 -10.235  1.00  0.00    -0.273 OA
HETATM   21  N5  UNL     1       0.616   3.020  -9.074  1.00  0.00    -0.344 N 
BRANCH  21  22
HETATM   22  C21 UNL     1       1.392   2.792  -7.869  1.00  0.00     0.079 C 
HETATM   23  C22 UNL     1       0.805   1.737  -6.989  1.00  0.00     0.032 C 
HETATM   24  C23 UNL     1       1.460   4.072  -7.087  1.00  0.00     0.032 C 
ENDBRANCH  21  22
BRANCH  21  25
HETATM   25  C24 UNL     1       1.342   2.906 -10.341  1.00  0.00     0.079 C 
HETATM   26  C25 UNL     1       1.923   1.542 -10.530  1.00  0.00     0.032 C 
HETATM   27  C26 UNL     1       2.499   3.914 -10.361  1.00  0.00     0.032 C 
ENDBRANCH  21  25
ENDBRANCH  18  19
ENDBRANCH  17  18
ENDBRANCH  13  17
BRANCH  16  28
HETATM   28  C28 UNL     1      -1.784   7.216  -3.477  1.00  0.00     0.130 C 
BRANCH  28  29
HETATM   29  C29 UNL     1      -1.903   6.859  -2.047  1.00  0.00     0.024 C 
BRANCH  29  30
HETATM   30  C30 UNL     1      -2.595   7.798  -1.123  1.00  0.00    -0.021 C 
HETATM   31  C31 UNL     1      -3.099   8.955  -2.050  1.00  0.00     0.009 C 
HETATM   32  C32 UNL     1      -3.910   7.238  -0.580  1.00  0.00     0.009 C 
ENDBRANCH  29  30
ENDBRANCH  28  29
ENDBRANCH  16  28
ENDBRANCH  10  11
ENDBRANCH   6  10
BRANCH   7  33
HETATM   33  O4  UNL     1      -6.120   7.786  -3.456  1.00  0.00    -0.345 OA
ATOM     34  H4  UNL     1      -5.562   7.788  -2.687  1.00  0.00     0.219 HD
ENDBRANCH   7  33
BRANCH   1  35
HETATM   35  C11 UNL     1     -10.051   5.223  -4.818  1.00  0.00     0.076 C 
BRANCH  35  36
HETATM   36  C10 UNL     1     -10.234   3.912  -5.554  1.00  0.00     0.008 C 
BRANCH  36  37
HETATM   37  C9  UNL     1     -11.654   3.482  -5.700  1.00  0.00     0.006 C 
BRANCH  37  38
HETATM   38  C8  UNL     1     -11.867   2.147  -5.020  1.00  0.00     0.051 C 
BRANCH  38  39
HETATM   39  C7  UNL     1     -12.079   2.482  -3.563  1.00  0.00     0.037 A 
HETATM   40  C6  UNL     1     -11.364   2.028  -2.487  1.00  0.00     0.155 A 
HETATM   41  N2  UNL     1     -11.724   2.446  -1.304  1.00  0.00    -0.317 N 
HETATM   42  C5  UNL     1     -12.755   3.284  -1.209  1.00  0.00     0.146 A 
ATOM     43  H2  UNL     1     -11.225   2.137  -0.469  1.00  0.00     0.170 HD
HETATM   44  S1  UNL     1     -13.239   3.492  -2.829  1.00  0.00    -0.054 SA
BRANCH  40  45
HETATM   45  O1  UNL     1     -10.274   1.132  -2.692  1.00  0.00    -0.345 OA
ATOM     46  H1  UNL     1     -10.294   0.224  -2.415  1.00  0.00     0.219 HD
ENDBRANCH  40  45
BRANCH  42  47
HETATM   47  N1  UNL     1     -13.267   3.811  -0.116  1.00  0.00    -0.370 N 
ATOM     48  H1  UNL     1     -14.256   4.060  -0.114  1.00  0.00     0.161 HD
BRANCH  47  49
HETATM   49  C4  UNL     1     -12.498   4.052   1.072  1.00  0.00     0.121 C 
BRANCH  49  50
HETATM   50  C3  UNL     1     -11.627   5.258   0.861  1.00  0.00     0.019 C 
BRANCH  50  51
HETATM   51  C2  UNL     1     -10.762   5.559   2.068  1.00  0.00    -0.003 C 
HETATM   52  C1  UNL     1     -10.854   7.020   2.458  1.00  0.00     0.005 C 
ENDBRANCH  50  51
ENDBRANCH  49  50
ENDBRANCH  47  49
ENDBRANCH  42  47
ENDBRANCH  38  39
ENDBRANCH  37  38
ENDBRANCH  36  37
ENDBRANCH  35  36
ENDBRANCH   1  35
TORSDOF 21
ENDMDL
MODEL 4
REMARK VINA RESULT: -9.269308042      3.911      8.476
REMARK  21 active torsions:
REMARK  status: ('A' for Active; 'I' for Inactive)
REMARK    1  A    between atoms: C2_2  and  C3_3 
REMARK    2  A    between atoms: C3_3  and  C4_4 
REMARK    3  A    between atoms: C4_4  and  N1_5 
REMARK    4  A    between atoms: N1_5  and  C5_7 
REMARK    5  A    between atoms: C6_10  and  O1_11 
REMARK    6  A    between atoms: C7_13  and  C8_14 
REMARK    7  A    between atoms: C8_14  and  C9_15 
REMARK    8  A    between atoms: C9_15  and  C10_16 
REMARK    9  A    between atoms: C10_16  and  C11_17 
REMARK   10  A    between atoms: C11_17  and  C12_18 
REMARK   11  A    between atoms: C14_23  and  C15_24 
REMARK   12  A    between atoms: C15_24  and  C16_25 
REMARK   13  A    between atoms: C17_28  and  C18_29 
REMARK   14  A    between atoms: C18_29  and  C19_30 
REMARK   15  A    between atoms: C19_30  and  C20_31 
REMARK       I    between atoms: C20_31  and  N5_33 
REMARK   16  A    between atoms: N5_33  and  C21_34 
REMARK   17  A    between atoms: N5_33  and  C24_37 
REMARK   18  A    between atoms: N6_41  and  C28_42 
REMARK   19  A    between atoms: C28_42  and  C29_43 
REMARK   20  A    between atoms: C29_43  and  C30_44 
REMARK   21  A    between atoms: C33_47  and  O4_48 
ROOT
HETATM    1  C12 UNL     1      -8.239   5.328  -4.153  1.00  0.00     0.085 A 
HETATM    2  N3  UNL     1      -7.451   4.238  -4.223  1.00  0.00    -0.312 N 
ATOM      3  H3  UNL     1      -7.865   3.309  -4.313  1.00  0.00     0.170 HD
HETATM    4  C13 UNL     1      -6.118   4.382  -4.174  1.00  0.00     0.261 A 
HETATM    5  O2  UNL     1      -5.435   3.319  -4.244  1.00  0.00    -0.267 OA
HETATM    6  C14 UNL     1      -5.488   5.595  -4.055  1.00  0.00     0.086 A 
HETATM    7  C33 UNL     1      -6.322   6.723  -3.982  1.00  0.00     0.157 A 
HETATM    8  N7  UNL     1      -7.648   6.522  -4.036  1.00  0.00    -0.326 N 
ATOM      9  H7  UNL     1      -8.252   7.343  -3.983  1.00  0.00     0.169 HD
ENDROOT
BRANCH   6  10
HETATM   10  C15 UNL     1      -4.063   5.754  -4.060  1.00  0.00     0.070 C 
BRANCH  10  11
HETATM   11  C16 UNL     1      -3.175   5.676  -5.008  1.00  0.00     0.108 A 
HETATM   12  N4  UNL     1      -3.447   4.984  -6.163  1.00  0.00    -0.341 N 
HETATM   13  C17 UNL     1      -2.418   5.050  -7.009  1.00  0.00     0.046 A 
ATOM     14  H4  UNL     1      -4.318   4.487  -6.349  1.00  0.00     0.167 HD
HETATM   15  C27 UNL     1      -1.454   5.793  -6.409  1.00  0.00     0.121 A 
HETATM   16  N6  UNL     1      -1.951   6.164  -5.172  1.00  0.00    -0.341 N 
BRANCH  13  17
HETATM   17  C18 UNL     1      -2.342   4.500  -8.215  1.00  0.00     0.013 C 
BRANCH  17  18
HETATM   18  C19 UNL     1      -1.743   3.154  -8.416  1.00  0.00     0.132 C 
BRANCH  18  19
HETATM   19  C20 UNL     1      -0.719   3.173  -9.485  1.00  0.00     0.224 C 
HETATM   20  O3  UNL     1      -1.050   3.582 -10.654  1.00  0.00    -0.273 OA
HETATM   21  N5  UNL     1       0.631   2.766  -9.327  1.00  0.00    -0.344 N 
BRANCH  21  22
HETATM   22  C21 UNL     1       1.190   2.271  -8.083  1.00  0.00     0.079 C 
HETATM   23  C22 UNL     1       0.480   1.063  -7.564  1.00  0.00     0.032 C 
HETATM   24  C23 UNL     1       1.098   3.354  -7.047  1.00  0.00     0.032 C 
ENDBRANCH  21  22
BRANCH  21  25
HETATM   25  C24 UNL     1       1.549   2.834 -10.466  1.00  0.00     0.079 C 
HETATM   26  C25 UNL     1       2.382   1.600 -10.586  1.00  0.00     0.032 C 
HETATM   27  C26 UNL     1       2.499   4.025 -10.288  1.00  0.00     0.032 C 
ENDBRANCH  21  25
ENDBRANCH  18  19
ENDBRANCH  17  18
ENDBRANCH  13  17
BRANCH  16  28
HETATM   28  C28 UNL     1      -1.168   6.966  -4.307  1.00  0.00     0.130 C 
BRANCH  28  29
HETATM   29  C29 UNL     1       0.102   6.467  -3.735  1.00  0.00     0.024 C 
BRANCH  29  30
HETATM   30  C30 UNL     1       0.053   5.497  -2.606  1.00  0.00    -0.021 C 
HETATM   31  C31 UNL     1       1.224   5.935  -1.665  1.00  0.00     0.009 C 
HETATM   32  C32 UNL     1      -1.165   5.695  -1.704  1.00  0.00     0.009 C 
ENDBRANCH  29  30
ENDBRANCH  28  29
ENDBRANCH  16  28
ENDBRANCH  10  11
ENDBRANCH   6  10
BRANCH   7  33
HETATM   33  O4  UNL     1      -5.732   7.973  -3.862  1.00  0.00    -0.345 OA
ATOM     34  H4  UNL     1      -6.272   8.702  -3.579  1.00  0.00     0.219 HD
ENDBRANCH   7  33
BRANCH   1  35
HETATM   35  C11 UNL     1      -9.743   5.204  -4.209  1.00  0.00     0.076 C 
BRANCH  35  36
HETATM   36  C10 UNL     1     -10.008   4.247  -5.353  1.00  0.00     0.008 C 
BRANCH  36  37
HETATM   37  C9  UNL     1     -11.448   3.925  -5.565  1.00  0.00     0.006 C 
BRANCH  37  38
HETATM   38  C8  UNL     1     -11.745   2.522  -5.081  1.00  0.00     0.051 C 
BRANCH  38  39
HETATM   39  C7  UNL     1     -12.054   2.676  -3.612  1.00  0.00     0.037 A 
HETATM   40  C6  UNL     1     -11.370   2.144  -2.552  1.00  0.00     0.155 A 
HETATM   41  N2  UNL     1     -11.817   2.401  -1.354  1.00  0.00    -0.317 N 
HETATM   42  C5  UNL     1     -12.905   3.161  -1.227  1.00  0.00     0.146 A 
ATOM     43  H2  UNL     1     -11.345   2.029  -0.530  1.00  0.00     0.170 HD
HETATM   44  S1  UNL     1     -13.315   3.524  -2.840  1.00  0.00    -0.054 SA
BRANCH  40  45
HETATM   45  O1  UNL     1     -10.214   1.343  -2.790  1.00  0.00    -0.345 OA
ATOM     46  H1  UNL     1     -10.185   0.665  -3.455  1.00  0.00     0.219 HD
ENDBRANCH  40  45
BRANCH  42  47
HETATM   47  N1  UNL     1     -13.507   3.529  -0.115  1.00  0.00    -0.370 N 
ATOM     48  H1  UNL     1     -14.522   3.626  -0.121  1.00  0.00     0.161 HD
BRANCH  47  49
HETATM   49  C4  UNL     1     -12.801   3.801   1.105  1.00  0.00     0.121 C 
BRANCH  49  50
HETATM   50  C3  UNL     1     -12.273   5.206   1.068  1.00  0.00     0.019 C 
BRANCH  50  51
HETATM   51  C2  UNL     1     -11.044   5.381   1.938  1.00  0.00    -0.003 C 
HETATM   52  C1  UNL     1     -10.836   6.835   2.308  1.00  0.00     0.005 C 
ENDBRANCH  50  51
ENDBRANCH  49  50
ENDBRANCH  47  49
ENDBRANCH  42  47
ENDBRANCH  38  39
ENDBRANCH  37  38
ENDBRANCH  36  37
ENDBRANCH  35  36
ENDBRANCH   1  35
TORSDOF 21
ENDMDL
MODEL 5
REMARK VINA RESULT: -9.192110387      3.004      7.756
REMARK  21 active torsions:
REMARK  status: ('A' for Active; 'I' for Inactive)
REMARK    1  A    between atoms: C2_2  and  C3_3 
REMARK    2  A    between atoms: C3_3  and  C4_4 
REMARK    3  A    between atoms: C4_4  and  N1_5 
REMARK    4  A    between atoms: N1_5  and  C5_7 
REMARK    5  A    between atoms: C6_10  and  O1_11 
REMARK    6  A    between atoms: C7_13  and  C8_14 
REMARK    7  A    between atoms: C8_14  and  C9_15 
REMARK    8  A    between atoms: C9_15  and  C10_16 
REMARK    9  A    between atoms: C10_16  and  C11_17 
REMARK   10  A    between atoms: C11_17  and  C12_18 
REMARK   11  A    between atoms: C14_23  and  C15_24 
REMARK   12  A    between atoms: C15_24  and  C16_25 
REMARK   13  A    between atoms: C17_28  and  C18_29 
REMARK   14  A    between atoms: C18_29  and  C19_30 
REMARK   15  A    between atoms: C19_30  and  C20_31 
REMARK       I    between atoms: C20_31  and  N5_33 
REMARK   16  A    between atoms: N5_33  and  C21_34 
REMARK   17  A    between atoms: N5_33  and  C24_37 
REMARK   18  A    between atoms: N6_41  and  C28_42 
REMARK   19  A    between atoms: C28_42  and  C29_43 
REMARK   20  A    between atoms: C29_43  and  C30_44 
REMARK   21  A    between atoms: C33_47  and  O4_48 
ROOT
HETATM    1  C12 UNL     1      -4.787   5.485  -3.178  1.00  0.00     0.085 A 
HETATM    2  N3  UNL     1      -4.588   4.290  -3.765  1.00  0.00    -0.312 N 
ATOM      3  H3  UNL     1      -3.910   3.633  -3.377  1.00  0.00     0.170 HD
HETATM    4  C13 UNL     1      -5.288   3.970  -4.864  1.00  0.00     0.261 A 
HETATM    5  O2  UNL     1      -5.054   2.833  -5.367  1.00  0.00    -0.267 OA
HETATM    6  C14 UNL     1      -6.216   4.798  -5.443  1.00  0.00     0.086 A 
HETATM    7  C33 UNL     1      -6.412   6.042  -4.820  1.00  0.00     0.157 A 
HETATM    8  N7  UNL     1      -5.686   6.311  -3.724  1.00  0.00    -0.326 N 
ATOM      9  H7  UNL     1      -5.831   7.215  -3.273  1.00  0.00     0.169 HD
ENDROOT
BRANCH   6  10
HETATM   10  C15 UNL     1      -7.004   4.433  -6.583  1.00  0.00     0.070 C 
BRANCH  10  11
HETATM   11  C16 UNL     1      -8.225   3.998  -6.703  1.00  0.00     0.108 A 
HETATM   12  N4  UNL     1      -9.209   4.441  -5.854  1.00  0.00    -0.341 N 
HETATM   13  C17 UNL     1     -10.385   3.894  -6.165  1.00  0.00     0.046 A 
ATOM     14  H4  UNL     1      -9.060   5.098  -5.088  1.00  0.00     0.167 HD
HETATM   15  C27 UNL     1     -10.179   3.081  -7.231  1.00  0.00     0.121 A 
HETATM   16  N6  UNL     1      -8.832   3.165  -7.541  1.00  0.00    -0.341 N 
BRANCH  13  17
HETATM   17  C18 UNL     1     -11.546   4.102  -5.555  1.00  0.00     0.013 C 
BRANCH  17  18
HETATM   18  C19 UNL     1     -12.312   2.983  -4.945  1.00  0.00     0.132 C 
BRANCH  18  19
HETATM   19  C20 UNL     1     -13.132   3.450  -3.803  1.00  0.00     0.224 C 
HETATM   20  O3  UNL     1     -14.305   3.914  -4.031  1.00  0.00    -0.273 OA
HETATM   21  N5  UNL     1     -12.723   3.430  -2.445  1.00  0.00    -0.344 N 
BRANCH  21  22
HETATM   22  C21 UNL     1     -11.433   2.944  -1.992  1.00  0.00     0.079 C 
HETATM   23  C22 UNL     1     -10.305   3.848  -2.368  1.00  0.00     0.032 C 
HETATM   24  C23 UNL     1     -11.181   1.596  -2.605  1.00  0.00     0.032 C 
ENDBRANCH  21  22
BRANCH  21  25
HETATM   25  C24 UNL     1     -13.630   3.920  -1.405  1.00  0.00     0.079 C 
HETATM   26  C25 UNL     1     -13.239   5.277  -0.918  1.00  0.00     0.032 C 
HETATM   27  C26 UNL     1     -13.599   2.964  -0.206  1.00  0.00     0.032 C 
ENDBRANCH  21  25
ENDBRANCH  18  19
ENDBRANCH  17  18
ENDBRANCH  13  17
BRANCH  16  28
HETATM   28  C28 UNL     1      -8.310   2.428  -8.630  1.00  0.00     0.130 C 
BRANCH  28  29
HETATM   29  C29 UNL     1      -7.356   3.035  -9.583  1.00  0.00     0.024 C 
BRANCH  29  30
HETATM   30  C30 UNL     1      -6.091   2.314  -9.896  1.00  0.00    -0.021 C 
HETATM   31  C31 UNL     1      -5.429   3.165 -11.031  1.00  0.00     0.009 C 
HETATM   32  C32 UNL     1      -5.054   2.421  -8.779  1.00  0.00     0.009 C 
ENDBRANCH  29  30
ENDBRANCH  28  29
ENDBRANCH  16  28
ENDBRANCH  10  11
ENDBRANCH   6  10
BRANCH   7  33
HETATM   33  O4  UNL     1      -7.340   6.915  -5.368  1.00  0.00    -0.345 OA
ATOM     34  H4  UNL     1      -7.263   7.840  -5.169  1.00  0.00     0.219 HD
ENDBRANCH   7  33
BRANCH   1  35
HETATM   35  C11 UNL     1      -4.020   5.878  -1.937  1.00  0.00     0.076 C 
BRANCH  35  36
HETATM   36  C10 UNL     1      -4.160   7.384  -1.859  1.00  0.00     0.008 C 
BRANCH  36  37
HETATM   37  C9  UNL     1      -2.924   8.136  -2.216  1.00  0.00     0.006 C 
BRANCH  37  38
HETATM   38  C8  UNL     1      -3.114   8.857  -3.533  1.00  0.00     0.051 C 
BRANCH  38  39
HETATM   39  C7  UNL     1      -2.077   8.263  -4.455  1.00  0.00     0.037 A 
HETATM   40  C6  UNL     1      -1.679   8.729  -5.680  1.00  0.00     0.155 A 
HETATM   41  N2  UNL     1      -0.762   8.053  -6.314  1.00  0.00    -0.317 N 
HETATM   42  C5  UNL     1      -0.266   6.956  -5.742  1.00  0.00     0.146 A 
ATOM     43  H2  UNL     1      -0.431   8.357  -7.230  1.00  0.00     0.170 HD
HETATM   44  S1  UNL     1      -1.114   6.869  -4.268  1.00  0.00    -0.054 SA
BRANCH  40  45
HETATM   45  O1  UNL     1      -2.270   9.915  -6.207  1.00  0.00    -0.345 OA
ATOM     46  H1  UNL     1      -2.770   9.926  -7.015  1.00  0.00     0.219 HD
ENDBRANCH  40  45
BRANCH  42  47
HETATM   47  N1  UNL     1       0.656   6.145  -6.219  1.00  0.00    -0.370 N 
ATOM     48  H1  UNL     1       0.564   5.817  -7.180  1.00  0.00     0.161 HD
BRANCH  47  49
HETATM   49  C4  UNL     1       1.782   5.700  -5.448  1.00  0.00     0.121 C 
BRANCH  49  50
HETATM   50  C3  UNL     1       2.446   6.888  -4.813  1.00  0.00     0.019 C 
BRANCH  50  51
HETATM   51  C2  UNL     1       3.103   6.540  -3.492  1.00  0.00    -0.003 C 
HETATM   52  C1  UNL     1       2.071   6.165  -2.449  1.00  0.00     0.005 C 
ENDBRANCH  50  51
ENDBRANCH  49  50
ENDBRANCH  47  49
ENDBRANCH  42  47
ENDBRANCH  38  39
ENDBRANCH  37  38
ENDBRANCH  36  37
ENDBRANCH  35  36
ENDBRANCH   1  35
TORSDOF 21
ENDMDL
