MODEL 1
REMARK VINA RESULT: -7.161921332      0.000      0.000
REMARK  9 active torsions:
REMARK  status: ('A' for Active; 'I' for Inactive)
REMARK    1  A    between atoms: C3_3  and  C4_4 
REMARK    2  A    between atoms: C4_4  and  C5_5 
REMARK    3  A    between atoms: C5_5  and  N1_6 
REMARK    4  A    between atoms: N1_6  and  C6_7 
REMARK    5  A    between atoms: C6_7  and  C7_8 
REMARK    6  A    between atoms: C12_15  and  C13_16 
REMARK    7  A    between atoms: C13_16  and  C14_17 
REMARK    8  A    between atoms: C14_17  and  N3_18 
REMARK    9  A    between atoms: C19_26  and  N4_28 
ROOT
HETATM    1  C1  UNL     1      13.828 -14.978  19.335  1.00  0.00     0.112 C 
HETATM    2  C2  UNL     1      14.867 -15.178  20.344  1.00  0.00    -0.111 C 
HETATM    3  C3  UNL     1      15.733 -15.321  21.177  1.00  0.00    -0.105 C 
ENDROOT
BRANCH   3   4
HETATM    4  C4  UNL     1      16.809 -15.472  22.195  1.00  0.00     0.123 C 
BRANCH   4   5
HETATM    5  C5  UNL     1      17.992 -14.735  21.610  1.00  0.00     0.265 C 
BRANCH   5   6
HETATM    6  N1  UNL     1      18.526 -13.846  22.631  1.00  0.00     0.022 N 
HETATM    7  C17 UNL     1      17.888 -14.004  23.863  1.00  0.00     0.212 C 
HETATM    8  C18 UNL     1      18.774 -14.186  24.821  1.00  0.00     0.050 C 
HETATM    9  C19 UNL     1      20.133 -14.164  24.291  1.00  0.00     0.262 C 
HETATM   10  C20 UNL     1      20.832 -15.436  24.703  1.00  0.00     0.065 C 
HETATM   11  C23 UNL     1      19.887 -14.178  22.827  1.00  0.00     0.365 C 
HETATM   12  O1  UNL     1      20.747 -14.436  22.005  1.00  0.00    -0.261 OA
BRANCH   6  13
HETATM   13  C6  UNL     1      18.520 -12.464  22.156  1.00  0.00     0.291 C 
BRANCH  13  14
HETATM   14  C7  UNL     1      17.469 -12.166  21.176  1.00  0.00    -0.030 A 
HETATM   15  C8  UNL     1      17.741 -12.167  19.833  1.00  0.00     0.011 A 
HETATM   16  C9  UNL     1      16.745 -11.877  18.939  1.00  0.00     0.031 A 
HETATM   17  C10 UNL     1      15.477 -11.583  19.375  1.00  0.00     0.043 A 
HETATM   18  N2  UNL     1      14.340 -11.268  18.707  1.00  0.00    -0.365 N 
HETATM   19  C15 UNL     1      15.158 -11.570  20.721  1.00  0.00    -0.001 A 
HETATM   20  C11 UNL     1      13.338 -11.061  19.594  1.00  0.00     0.096 A 
ATOM     21  H2  UNL     1      14.253 -11.196  17.693  1.00  0.00     0.165 HD
HETATM   22  C12 UNL     1      13.828 -11.244  20.867  1.00  0.00    -0.029 A 
HETATM   23  C16 UNL     1      16.193 -11.868  21.589  1.00  0.00     0.023 A 
BRANCH  22  24
HETATM   24  C13 UNL     1      13.075 -11.103  22.146  1.00  0.00     0.068 C 
BRANCH  24  25
HETATM   25  C14 UNL     1      11.872 -12.029  22.166  1.00  0.00     0.234 C 
BRANCH  25  26
HETATM   26  N3  UNL     1      10.968 -11.688  23.251  1.00  0.00    -0.079 N 
ATOM     27  H33 UNL     1      11.111 -12.289  24.063  1.00  0.00     0.274 HD
ATOM     28  H32 UNL     1      11.211 -10.793  23.676  1.00  0.00     0.274 HD
ATOM     29  H31 UNL     1       9.997 -11.704  22.939  1.00  0.00     0.274 HD
ENDBRANCH  25  26
ENDBRANCH  24  25
ENDBRANCH  22  24
ENDBRANCH  13  14
ENDBRANCH   6  13
BRANCH   9  30
HETATM   30  N4  UNL     1      20.892 -12.986  24.667  1.00  0.00     0.102 N 
HETATM   31  C21 UNL     1      20.520 -12.483  25.963  1.00  0.00     0.311 C 
HETATM   32  C22 UNL     1      22.305 -13.240  24.622  1.00  0.00     0.311 C 
ENDBRANCH   9  30
ENDBRANCH   5   6
ENDBRANCH   4   5
ENDBRANCH   3   4
TORSDOF 9
ENDMDL
MODEL 2
REMARK VINA RESULT: -6.912594755      2.091      6.376
REMARK  9 active torsions:
REMARK  status: ('A' for Active; 'I' for Inactive)
REMARK    1  A    between atoms: C3_3  and  C4_4 
REMARK    2  A    between atoms: C4_4  and  C5_5 
REMARK    3  A    between atoms: C5_5  and  N1_6 
REMARK    4  A    between atoms: N1_6  and  C6_7 
REMARK    5  A    between atoms: C6_7  and  C7_8 
REMARK    6  A    between atoms: C12_15  and  C13_16 
REMARK    7  A    between atoms: C13_16  and  C14_17 
REMARK    8  A    between atoms: C14_17  and  N3_18 
REMARK    9  A    between atoms: C19_26  and  N4_28 
ROOT
HETATM    1  C1  UNL     1      12.565 -16.976  20.947  1.00  0.00     0.112 C 
HETATM    2  C2  UNL     1      13.481 -16.065  20.264  1.00  0.00    -0.111 C 
HETATM    3  C3  UNL     1      14.258 -15.321  19.709  1.00  0.00    -0.105 C 
ENDROOT
BRANCH   3   4
HETATM    4  C4  UNL     1      15.234 -14.415  19.044  1.00  0.00     0.123 C 
BRANCH   4   5
HETATM    5  C5  UNL     1      15.906 -13.677  20.179  1.00  0.00     0.265 C 
BRANCH   5   6
HETATM    6  N1  UNL     1      15.325 -12.346  20.266  1.00  0.00     0.022 N 
HETATM    7  C17 UNL     1      14.633 -11.989  19.106  1.00  0.00     0.212 C 
HETATM    8  C18 UNL     1      13.421 -11.569  19.404  1.00  0.00     0.050 C 
HETATM    9  C19 UNL     1      13.188 -11.610  20.843  1.00  0.00     0.262 C 
HETATM   10  C20 UNL     1      11.946 -12.423  21.108  1.00  0.00     0.065 C 
HETATM   11  C23 UNL     1      14.384 -12.351  21.321  1.00  0.00     0.365 C 
HETATM   12  O1  UNL     1      14.467 -12.844  22.431  1.00  0.00    -0.261 OA
BRANCH   6  13
HETATM   13  C6  UNL     1      16.344 -11.370  20.648  1.00  0.00     0.291 C 
BRANCH  13  14
HETATM   14  C7  UNL     1      17.630 -11.959  21.037  1.00  0.00    -0.030 A 
HETATM   15  C8  UNL     1      18.673 -12.019  20.149  1.00  0.00     0.011 A 
HETATM   16  C9  UNL     1      19.861 -12.581  20.534  1.00  0.00     0.031 A 
HETATM   17  C10 UNL     1      20.017 -13.087  21.802  1.00  0.00     0.043 A 
HETATM   18  N2  UNL     1      21.069 -13.683  22.414  1.00  0.00    -0.365 N 
HETATM   19  C15 UNL     1      18.992 -13.048  22.729  1.00  0.00    -0.001 A 
HETATM   20  C11 UNL     1      20.726 -14.011  23.683  1.00  0.00     0.096 A 
ATOM     21  H2  UNL     1      21.979 -13.858  21.986  1.00  0.00     0.165 HD
HETATM   22  C12 UNL     1      19.424 -13.623  23.904  1.00  0.00    -0.029 A 
HETATM   23  C16 UNL     1      17.810 -12.472  22.299  1.00  0.00     0.023 A 
BRANCH  22  24
HETATM   24  C13 UNL     1      18.636 -13.802  25.157  1.00  0.00     0.068 C 
BRANCH  24  25
HETATM   25  C14 UNL     1      18.345 -15.271  25.404  1.00  0.00     0.234 C 
BRANCH  25  26
HETATM   26  N3  UNL     1      17.495 -15.447  26.569  1.00  0.00    -0.079 N 
ATOM     27  H33 UNL     1      18.038 -15.693  27.397  1.00  0.00     0.274 HD
ATOM     28  H32 UNL     1      17.112 -14.559  26.892  1.00  0.00     0.274 HD
ATOM     29  H31 UNL     1      16.759 -16.130  26.387  1.00  0.00     0.274 HD
ENDBRANCH  25  26
ENDBRANCH  24  25
ENDBRANCH  22  24
ENDBRANCH  13  14
ENDBRANCH   6  13
BRANCH   9  30
HETATM   30  N4  UNL     1      13.120 -10.302  21.465  1.00  0.00     0.102 N 
HETATM   31  C21 UNL     1      12.681  -9.281  20.551  1.00  0.00     0.311 C 
HETATM   32  C22 UNL     1      12.276 -10.321  22.627  1.00  0.00     0.311 C 
ENDBRANCH   9  30
ENDBRANCH   5   6
ENDBRANCH   4   5
ENDBRANCH   3   4
TORSDOF 9
ENDMDL
MODEL 3
REMARK VINA RESULT: -6.795751077      2.224      6.669
REMARK  9 active torsions:
REMARK  status: ('A' for Active; 'I' for Inactive)
REMARK    1  A    between atoms: C3_3  and  C4_4 
REMARK    2  A    between atoms: C4_4  and  C5_5 
REMARK    3  A    between atoms: C5_5  and  N1_6 
REMARK    4  A    between atoms: N1_6  and  C6_7 
REMARK    5  A    between atoms: C6_7  and  C7_8 
REMARK    6  A    between atoms: C12_15  and  C13_16 
REMARK    7  A    between atoms: C13_16  and  C14_17 
REMARK    8  A    between atoms: C14_17  and  N3_18 
REMARK    9  A    between atoms: C19_26  and  N4_28 
ROOT
HETATM    1  C1  UNL     1      20.042 -16.982  22.273  1.00  0.00     0.112 C 
HETATM    2  C2  UNL     1      18.772 -16.487  21.745  1.00  0.00    -0.111 C 
HETATM    3  C3  UNL     1      17.728 -16.056  21.310  1.00  0.00    -0.105 C 
ENDROOT
BRANCH   3   4
HETATM    4  C4  UNL     1      16.452 -15.499  20.783  1.00  0.00     0.123 C 
BRANCH   4   5
HETATM    5  C5  UNL     1      16.061 -14.433  21.780  1.00  0.00     0.265 C 
BRANCH   5   6
HETATM    6  N1  UNL     1      15.682 -13.236  21.045  1.00  0.00     0.022 N 
HETATM    7  C17 UNL     1      15.623 -13.453  19.666  1.00  0.00     0.212 C 
HETATM    8  C18 UNL     1      14.470 -13.038  19.183  1.00  0.00     0.050 C 
HETATM    9  C19 UNL     1      13.626 -12.486  20.237  1.00  0.00     0.262 C 
HETATM   10  C20 UNL     1      12.298 -13.202  20.215  1.00  0.00     0.065 C 
HETATM   11  C23 UNL     1      14.381 -12.866  21.458  1.00  0.00     0.365 C 
HETATM   12  O1  UNL     1      13.903 -12.838  22.577  1.00  0.00    -0.261 OA
BRANCH   6  13
HETATM   13  C6  UNL     1      16.548 -12.118  21.411  1.00  0.00     0.291 C 
BRANCH  13  14
HETATM   14  C7  UNL     1      17.920 -12.503  21.759  1.00  0.00    -0.030 A 
HETATM   15  C8  UNL     1      18.915 -12.482  20.816  1.00  0.00     0.011 A 
HETATM   16  C9  UNL     1      20.187 -12.855  21.164  1.00  0.00     0.031 A 
HETATM   17  C10 UNL     1      20.473 -13.251  22.448  1.00  0.00     0.043 A 
HETATM   18  N2  UNL     1      21.626 -13.660  23.032  1.00  0.00    -0.365 N 
HETATM   19  C15 UNL     1      19.500 -13.287  23.430  1.00  0.00    -0.001 A 
HETATM   20  C11 UNL     1      21.394 -13.946  24.335  1.00  0.00     0.096 A 
ATOM     21  H2  UNL     1      22.529 -13.740  22.563  1.00  0.00     0.165 HD
HETATM   22  C12 UNL     1      20.065 -13.721  24.609  1.00  0.00    -0.029 A 
HETATM   23  C16 UNL     1      18.231 -12.903  23.036  1.00  0.00     0.023 A 
BRANCH  22  24
HETATM   24  C13 UNL     1      19.372 -13.920  25.914  1.00  0.00     0.068 C 
BRANCH  24  25
HETATM   25  C14 UNL     1      18.717 -15.289  25.972  1.00  0.00     0.234 C 
BRANCH  25  26
HETATM   26  N3  UNL     1      17.415 -15.219  26.613  1.00  0.00    -0.079 N 
ATOM     27  H33 UNL     1      17.358 -14.435  27.263  1.00  0.00     0.274 HD
ATOM     28  H32 UNL     1      16.689 -14.930  25.958  1.00  0.00     0.274 HD
ATOM     29  H31 UNL     1      17.182 -16.101  27.068  1.00  0.00     0.274 HD
ENDBRANCH  25  26
ENDBRANCH  24  25
ENDBRANCH  22  24
ENDBRANCH  13  14
ENDBRANCH   6  13
BRANCH   9  30
HETATM   30  N4  UNL     1      13.464 -11.047  20.167  1.00  0.00     0.102 N 
HETATM   31  C21 UNL     1      13.434 -10.562  18.813  1.00  0.00     0.311 C 
HETATM   32  C22 UNL     1      12.288 -10.620  20.872  1.00  0.00     0.311 C 
ENDBRANCH   9  30
ENDBRANCH   5   6
ENDBRANCH   4   5
ENDBRANCH   3   4
TORSDOF 9
ENDMDL
MODEL 4
REMARK VINA RESULT: -6.733558819      2.163      7.005
REMARK  9 active torsions:
REMARK  status: ('A' for Active; 'I' for Inactive)
REMARK    1  A    between atoms: C3_3  and  C4_4 
REMARK    2  A    between atoms: C4_4  and  C5_5 
REMARK    3  A    between atoms: C5_5  and  N1_6 
REMARK    4  A    between atoms: N1_6  and  C6_7 
REMARK    5  A    between atoms: C6_7  and  C7_8 
REMARK    6  A    between atoms: C12_15  and  C13_16 
REMARK    7  A    between atoms: C13_16  and  C14_17 
REMARK    8  A    between atoms: C14_17  and  N3_18 
REMARK    9  A    between atoms: C19_26  and  N4_28 
ROOT
HETATM    1  C1  UNL     1      20.438 -12.195  20.315  1.00  0.00     0.112 C 
HETATM    2  C2  UNL     1      19.053 -12.060  19.865  1.00  0.00    -0.111 C 
HETATM    3  C3  UNL     1      17.913 -11.930  19.480  1.00  0.00    -0.105 C 
ENDROOT
BRANCH   3   4
HETATM    4  C4  UNL     1      16.519 -11.745  18.993  1.00  0.00     0.123 C 
BRANCH   4   5
HETATM    5  C5  UNL     1      15.740 -12.873  19.629  1.00  0.00     0.265 C 
BRANCH   5   6
HETATM    6  N1  UNL     1      15.131 -12.374  20.853  1.00  0.00     0.022 N 
HETATM    7  C17 UNL     1      15.620 -11.118  21.219  1.00  0.00     0.212 C 
HETATM    8  C18 UNL     1      14.625 -10.282  21.437  1.00  0.00     0.050 C 
HETATM    9  C19 UNL     1      13.336 -10.932  21.228  1.00  0.00     0.262 C 
HETATM   10  C20 UNL     1      12.545 -10.125  20.229  1.00  0.00     0.065 C 
HETATM   11  C23 UNL     1      13.745 -12.224  20.618  1.00  0.00     0.365 C 
HETATM   12  O1  UNL     1      12.973 -12.965  20.039  1.00  0.00    -0.261 OA
BRANCH   6  13
HETATM   13  C6  UNL     1      15.247 -13.366  21.920  1.00  0.00     0.291 C 
BRANCH  13  14
HETATM   14  C7  UNL     1      16.564 -14.007  22.011  1.00  0.00    -0.030 A 
HETATM   15  C8  UNL     1      16.852 -15.126  21.273  1.00  0.00     0.011 A 
HETATM   16  C9  UNL     1      18.086 -15.710  21.382  1.00  0.00     0.031 A 
HETATM   17  C10 UNL     1      19.037 -15.186  22.224  1.00  0.00     0.043 A 
HETATM   18  N2  UNL     1      20.306 -15.570  22.507  1.00  0.00    -0.365 N 
HETATM   19  C15 UNL     1      18.788 -14.059  22.986  1.00  0.00    -0.001 A 
HETATM   20  C11 UNL     1      20.843 -14.721  23.414  1.00  0.00     0.096 A 
ATOM     21  H2  UNL     1      20.782 -16.375  22.099  1.00  0.00     0.165 HD
HETATM   22  C12 UNL     1      19.908 -13.763  23.732  1.00  0.00    -0.029 A 
HETATM   23  C16 UNL     1      17.530 -13.501  22.846  1.00  0.00     0.023 A 
BRANCH  22  24
HETATM   24  C13 UNL     1      20.068 -12.639  24.699  1.00  0.00     0.068 C 
BRANCH  24  25
HETATM   25  C14 UNL     1      20.188 -13.165  26.119  1.00  0.00     0.234 C 
BRANCH  25  26
HETATM   26  N3  UNL     1      20.834 -12.192  26.983  1.00  0.00    -0.079 N 
ATOM     27  H33 UNL     1      20.791 -11.252  26.590  1.00  0.00     0.274 HD
ATOM     28  H32 UNL     1      20.296 -12.030  27.834  1.00  0.00     0.274 HD
ATOM     29  H31 UNL     1      21.794 -12.467  27.193  1.00  0.00     0.274 HD
ENDBRANCH  25  26
ENDBRANCH  24  25
ENDBRANCH  22  24
ENDBRANCH  13  14
ENDBRANCH   6  13
BRANCH   9  30
HETATM   30  N4  UNL     1      12.589 -11.162  22.449  1.00  0.00     0.102 N 
HETATM   31  C21 UNL     1      12.170  -9.936  23.076  1.00  0.00     0.311 C 
HETATM   32  C22 UNL     1      11.453 -12.009  22.214  1.00  0.00     0.311 C 
ENDBRANCH   9  30
ENDBRANCH   5   6
ENDBRANCH   4   5
ENDBRANCH   3   4
TORSDOF 9
ENDMDL
MODEL 5
REMARK VINA RESULT: -6.674442544      2.167      4.317
REMARK  9 active torsions:
REMARK  status: ('A' for Active; 'I' for Inactive)
REMARK    1  A    between atoms: C3_3  and  C4_4 
REMARK    2  A    between atoms: C4_4  and  C5_5 
REMARK    3  A    between atoms: C5_5  and  N1_6 
REMARK    4  A    between atoms: N1_6  and  C6_7 
REMARK    5  A    between atoms: C6_7  and  C7_8 
REMARK    6  A    between atoms: C12_15  and  C13_16 
REMARK    7  A    between atoms: C13_16  and  C14_17 
REMARK    8  A    between atoms: C14_17  and  N3_18 
REMARK    9  A    between atoms: C19_26  and  N4_28 
ROOT
HETATM    1  C1  UNL     1      20.845 -12.434  26.896  1.00  0.00     0.112 C 
HETATM    2  C2  UNL     1      20.453 -12.762  25.527  1.00  0.00    -0.111 C 
HETATM    3  C3  UNL     1      20.150 -13.033  24.386  1.00  0.00    -0.105 C 
ENDROOT
BRANCH   3   4
HETATM    4  C4  UNL     1      19.804 -13.359  22.976  1.00  0.00     0.123 C 
BRANCH   4   5
HETATM    5  C5  UNL     1      18.410 -13.937  23.048  1.00  0.00     0.265 C 
BRANCH   5   6
HETATM    6  N1  UNL     1      18.345 -15.089  22.162  1.00  0.00     0.022 N 
HETATM    7  C17 UNL     1      19.548 -15.312  21.488  1.00  0.00     0.212 C 
HETATM    8  C18 UNL     1      19.932 -16.563  21.633  1.00  0.00     0.050 C 
HETATM    9  C19 UNL     1      18.983 -17.314  22.447  1.00  0.00     0.262 C 
HETATM   10  C20 UNL     1      19.727 -17.947  23.596  1.00  0.00     0.065 C 
HETATM   11  C23 UNL     1      18.100 -16.233  22.955  1.00  0.00     0.365 C 
HETATM   12  O1  UNL     1      17.331 -16.379  23.887  1.00  0.00    -0.261 OA
BRANCH   6  13
HETATM   13  C6  UNL     1      17.199 -14.976  21.263  1.00  0.00     0.291 C 
BRANCH  13  14
HETATM   14  C7  UNL     1      16.680 -13.612  21.112  1.00  0.00    -0.030 A 
HETATM   15  C8  UNL     1      17.447 -12.627  20.545  1.00  0.00     0.011 A 
HETATM   16  C9  UNL     1      16.943 -11.360  20.423  1.00  0.00     0.031 A 
HETATM   17  C10 UNL     1      15.676 -11.065  20.865  1.00  0.00     0.043 A 
HETATM   18  N2  UNL     1      14.961  -9.913  20.860  1.00  0.00    -0.365 N 
HETATM   19  C15 UNL     1      14.868 -12.028  21.443  1.00  0.00    -0.001 A 
HETATM   20  C11 UNL     1      13.746 -10.135  21.415  1.00  0.00     0.096 A 
ATOM     21  H2  UNL     1      15.289  -9.018  20.496  1.00  0.00     0.165 HD
HETATM   22  C12 UNL     1      13.663 -11.456  21.790  1.00  0.00    -0.029 A 
HETATM   23  C16 UNL     1      15.416 -13.293  21.546  1.00  0.00     0.023 A 
BRANCH  22  24
HETATM   24  C13 UNL     1      12.510 -12.130  22.452  1.00  0.00     0.068 C 
BRANCH  24  25
HETATM   25  C14 UNL     1      11.614 -11.114  23.137  1.00  0.00     0.234 C 
BRANCH  25  26
HETATM   26  N3  UNL     1      10.598 -11.771  23.940  1.00  0.00    -0.079 N 
ATOM     27  H33 UNL     1       9.661 -11.445  23.701  1.00  0.00     0.274 HD
ATOM     28  H32 UNL     1      10.491 -12.752  23.682  1.00  0.00     0.274 HD
ATOM     29  H31 UNL     1      10.790 -11.663  24.936  1.00  0.00     0.274 HD
ENDBRANCH  25  26
ENDBRANCH  24  25
ENDBRANCH  22  24
ENDBRANCH  13  14
ENDBRANCH   6  13
BRANCH   9  30
HETATM   30  N4  UNL     1      18.212 -18.290  21.701  1.00  0.00     0.102 N 
HETATM   31  C21 UNL     1      18.813 -18.613  20.433  1.00  0.00     0.311 C 
HETATM   32  C22 UNL     1      18.003 -19.486  22.467  1.00  0.00     0.311 C 
ENDBRANCH   9  30
ENDBRANCH   5   6
ENDBRANCH   4   5
ENDBRANCH   3   4
TORSDOF 9
ENDMDL
