MODEL 1
REMARK VINA RESULT: -7.996947113      0.000      0.000
REMARK  6 active torsions:
REMARK  status: ('A' for Active; 'I' for Inactive)
REMARK    1  A    between atoms: N1_1  and  N2_4 
REMARK       I    between atoms: N2_4  and  C1_6 
REMARK       I    between atoms: N4_8  and  C2_10 
REMARK    2  A    between atoms: C2_10  and  C3_12 
REMARK    3  A    between atoms: C3_12  and  N5_13 
REMARK    4  A    between atoms: N5_13  and  N6_14 
REMARK       I    between atoms: N6_14  and  C4_16 
REMARK    5  A    between atoms: C4_16  and  C5_18 
REMARK    6  A    between atoms: C5_18  and  N7_19 
ROOT
HETATM    1  C3  UNL     1      25.723  64.410  11.663  1.00  0.00     0.238 C 
ENDROOT
BRANCH   1   2
HETATM    2  C2  UNL     1      25.427  63.600  10.493  1.00  0.00     0.240 C 
HETATM    3  N4  UNL     1      26.263  62.573  10.005  1.00  0.00    -0.299 N 
HETATM    4  C1  UNL     1      25.792  61.594   9.290  1.00  0.00     0.209 C 
ATOM      5  H4  UNL     1      27.261  62.598  10.218  1.00  0.00     0.171 HD
HETATM    6  N2  UNL     1      24.416  61.563   8.993  1.00  0.00    -0.280 N 
HETATM    7  N3  UNL     1      26.664  60.589   8.821  1.00  0.00    -0.062 NA
ATOM      8  H2  UNL     1      23.763  61.454   9.770  1.00  0.00     0.189 HD
HETATM    9  O1  UNL     1      24.335  63.853   9.886  1.00  0.00    -0.272 OA
BRANCH   6  10
HETATM   10  N1  UNL     1      23.889  61.671   7.716  1.00  0.00    -0.343 N 
ATOM     11  H12 UNL     1      24.094  60.911   7.069  1.00  0.00     0.176 HD
ATOM     12  H11 UNL     1      23.320  62.454   7.393  1.00  0.00     0.176 HD
ENDBRANCH   6  10
ENDBRANCH   1   2
BRANCH   1  13
HETATM   13  N5  UNL     1      27.085  64.197  12.115  1.00  0.00    -0.130 NA
BRANCH  13  14
HETATM   14  N6  UNL     1      27.870  65.308  11.736  1.00  0.00    -0.272 N 
HETATM   15  C4  UNL     1      28.804  65.164  10.703  1.00  0.00     0.261 C 
HETATM   16  O2  UNL     1      28.879  64.009  10.142  1.00  0.00    -0.270 OA
ATOM     17  H6  UNL     1      27.757  66.204  12.208  1.00  0.00     0.185 HD
BRANCH  15  18
HETATM   18  C5  UNL     1      29.710  66.210  10.207  1.00  0.00     0.375 C 
BRANCH  18  19
HETATM   19  N7  UNL     1      30.394  65.877   8.970  1.00  0.00     0.097 N 
HETATM   20  C6  UNL     1      29.673  66.715   7.965  1.00  0.00     0.273 C 
HETATM   21  C7  UNL     1      30.264  66.331   6.619  1.00  0.00     0.030 C 
HETATM   22  C8  UNL     1      31.629  66.985   6.596  1.00  0.00     0.003 C 
HETATM   23  C9  UNL     1      32.437  66.639   7.791  1.00  0.00     0.030 C 
HETATM   24  C10 UNL     1      31.741  66.423   9.073  1.00  0.00     0.273 C 
ENDBRANCH  18  19
ENDBRANCH  15  18
ENDBRANCH  13  14
ENDBRANCH   1  13
TORSDOF 6
ENDMDL
MODEL 2
REMARK VINA RESULT: -7.679071193      1.436      1.641
REMARK  6 active torsions:
REMARK  status: ('A' for Active; 'I' for Inactive)
REMARK    1  A    between atoms: N1_1  and  N2_4 
REMARK       I    between atoms: N2_4  and  C1_6 
REMARK       I    between atoms: N4_8  and  C2_10 
REMARK    2  A    between atoms: C2_10  and  C3_12 
REMARK    3  A    between atoms: C3_12  and  N5_13 
REMARK    4  A    between atoms: N5_13  and  N6_14 
REMARK       I    between atoms: N6_14  and  C4_16 
REMARK    5  A    between atoms: C4_16  and  C5_18 
REMARK    6  A    between atoms: C5_18  and  N7_19 
ROOT
HETATM    1  C3  UNL     1      27.277  63.667  12.892  1.00  0.00     0.238 C 
ENDROOT
BRANCH   1   2
HETATM    2  C2  UNL     1      26.444  63.919  11.727  1.00  0.00     0.240 C 
HETATM    3  N4  UNL     1      26.185  62.970  10.715  1.00  0.00    -0.299 N 
HETATM    4  C1  UNL     1      25.120  63.040   9.973  1.00  0.00     0.209 C 
ATOM      5  H4  UNL     1      26.851  62.212  10.560  1.00  0.00     0.171 HD
HETATM    6  N2  UNL     1      24.205  64.090  10.185  1.00  0.00    -0.280 N 
HETATM    7  N3  UNL     1      24.901  62.071   8.970  1.00  0.00    -0.062 NA
ATOM      8  H2  UNL     1      23.717  64.123  11.080  1.00  0.00     0.189 HD
HETATM    9  O1  UNL     1      25.924  65.079  11.639  1.00  0.00    -0.272 OA
BRANCH   6  10
HETATM   10  N1  UNL     1      23.925  65.080   9.257  1.00  0.00    -0.343 N 
ATOM     11  H12 UNL     1      24.435  65.958   9.354  1.00  0.00     0.176 HD
ATOM     12  H11 UNL     1      23.251  64.983   8.498  1.00  0.00     0.176 HD
ENDBRANCH   6  10
ENDBRANCH   1   2
BRANCH   1  13
HETATM   13  N5  UNL     1      28.672  63.530  12.516  1.00  0.00    -0.130 NA
BRANCH  13  14
HETATM   14  N6  UNL     1      29.135  64.770  12.026  1.00  0.00    -0.272 N 
HETATM   15  C4  UNL     1      29.350  64.925  10.652  1.00  0.00     0.261 C 
HETATM   16  O2  UNL     1      29.092  63.911   9.904  1.00  0.00    -0.270 OA
ATOM     17  H6  UNL     1      29.311  65.545  12.666  1.00  0.00     0.185 HD
BRANCH  15  18
HETATM   18  C5  UNL     1      29.851  66.137   9.988  1.00  0.00     0.375 C 
BRANCH  18  19
HETATM   19  N7  UNL     1      30.551  65.894   8.739  1.00  0.00     0.097 N 
HETATM   20  C6  UNL     1      29.846  66.806   7.788  1.00  0.00     0.273 C 
HETATM   21  C7  UNL     1      30.454  66.520   6.426  1.00  0.00     0.030 C 
HETATM   22  C8  UNL     1      31.821  67.169   6.469  1.00  0.00     0.003 C 
HETATM   23  C9  UNL     1      32.611  66.734   7.646  1.00  0.00     0.030 C 
HETATM   24  C10 UNL     1      31.898  66.427   8.900  1.00  0.00     0.273 C 
ENDBRANCH  18  19
ENDBRANCH  15  18
ENDBRANCH  13  14
ENDBRANCH   1  13
TORSDOF 6
ENDMDL
MODEL 3
REMARK VINA RESULT: -7.240922644      1.150      1.459
REMARK  6 active torsions:
REMARK  status: ('A' for Active; 'I' for Inactive)
REMARK    1  A    between atoms: N1_1  and  N2_4 
REMARK       I    between atoms: N2_4  and  C1_6 
REMARK       I    between atoms: N4_8  and  C2_10 
REMARK    2  A    between atoms: C2_10  and  C3_12 
REMARK    3  A    between atoms: C3_12  and  N5_13 
REMARK    4  A    between atoms: N5_13  and  N6_14 
REMARK       I    between atoms: N6_14  and  C4_16 
REMARK    5  A    between atoms: C4_16  and  C5_18 
REMARK    6  A    between atoms: C5_18  and  N7_19 
ROOT
HETATM    1  C3  UNL     1      26.382  64.527  12.662  1.00  0.00     0.238 C 
ENDROOT
BRANCH   1   2
HETATM    2  C2  UNL     1      25.720  63.967  11.496  1.00  0.00     0.240 C 
HETATM    3  N4  UNL     1      25.676  64.591  10.230  1.00  0.00    -0.299 N 
HETATM    4  C1  UNL     1      25.509  63.904   9.138  1.00  0.00     0.209 C 
ATOM      5  H4  UNL     1      25.779  65.604  10.171  1.00  0.00     0.171 HD
HETATM    6  N2  UNL     1      25.363  62.507   9.224  1.00  0.00    -0.280 N 
HETATM    7  N3  UNL     1      25.470  64.570   7.894  1.00  0.00    -0.062 NA
ATOM      8  H2  UNL     1      26.155  61.965   9.571  1.00  0.00     0.189 HD
HETATM    9  O1  UNL     1      25.149  62.837  11.651  1.00  0.00    -0.272 OA
BRANCH   6  10
HETATM   10  N1  UNL     1      24.216  61.818   8.866  1.00  0.00    -0.343 N 
ATOM     11  H12 UNL     1      24.335  60.851   8.564  1.00  0.00     0.176 HD
ATOM     12  H11 UNL     1      23.276  62.215   8.887  1.00  0.00     0.176 HD
ENDBRANCH   6  10
ENDBRANCH   1   2
BRANCH   1  13
HETATM   13  N5  UNL     1      27.804  64.243  12.642  1.00  0.00    -0.130 NA
BRANCH  13  14
HETATM   14  N6  UNL     1      28.485  65.368  12.129  1.00  0.00    -0.272 N 
HETATM   15  C4  UNL     1      29.061  65.296  10.855  1.00  0.00     0.261 C 
HETATM   16  O2  UNL     1      28.916  64.191  10.211  1.00  0.00    -0.270 OA
ATOM     17  H6  UNL     1      28.556  66.223  12.679  1.00  0.00     0.185 HD
BRANCH  15  18
HETATM   18  C5  UNL     1      29.820  66.364  10.189  1.00  0.00     0.375 C 
BRANCH  18  19
HETATM   19  N7  UNL     1      30.470  65.961   8.954  1.00  0.00     0.097 N 
HETATM   20  C6  UNL     1      29.696  66.712   7.920  1.00  0.00     0.273 C 
HETATM   21  C7  UNL     1      30.250  66.249   6.583  1.00  0.00     0.030 C 
HETATM   22  C8  UNL     1      31.598  66.928   6.468  1.00  0.00     0.003 C 
HETATM   23  C9  UNL     1      32.453  66.683   7.654  1.00  0.00     0.030 C 
HETATM   24  C10 UNL     1      31.807  66.541   8.972  1.00  0.00     0.273 C 
ENDBRANCH  18  19
ENDBRANCH  15  18
ENDBRANCH  13  14
ENDBRANCH   1  13
TORSDOF 6
ENDMDL
MODEL 4
REMARK VINA RESULT: -7.155075691      1.616      1.668
REMARK  6 active torsions:
REMARK  status: ('A' for Active; 'I' for Inactive)
REMARK    1  A    between atoms: N1_1  and  N2_4 
REMARK       I    between atoms: N2_4  and  C1_6 
REMARK       I    between atoms: N4_8  and  C2_10 
REMARK    2  A    between atoms: C2_10  and  C3_12 
REMARK    3  A    between atoms: C3_12  and  N5_13 
REMARK    4  A    between atoms: N5_13  and  N6_14 
REMARK       I    between atoms: N6_14  and  C4_16 
REMARK    5  A    between atoms: C4_16  and  C5_18 
REMARK    6  A    between atoms: C5_18  and  N7_19 
ROOT
HETATM    1  C3  UNL     1      24.720  65.790  10.124  1.00  0.00     0.238 C 
ENDROOT
BRANCH   1   2
HETATM    2  C2  UNL     1      24.727  64.517   9.422  1.00  0.00     0.240 C 
HETATM    3  N4  UNL     1      25.746  63.549   9.541  1.00  0.00    -0.299 N 
HETATM    4  C1  UNL     1      25.521  62.291   9.299  1.00  0.00     0.209 C 
ATOM      5  H4  UNL     1      26.682  63.842   9.823  1.00  0.00     0.171 HD
HETATM    6  N2  UNL     1      24.231  61.889   8.906  1.00  0.00    -0.280 N 
HETATM    7  N3  UNL     1      26.571  61.356   9.429  1.00  0.00    -0.062 NA
ATOM      8  H2  UNL     1      23.470  62.008   9.574  1.00  0.00     0.189 HD
HETATM    9  O1  UNL     1      23.735  64.284   8.655  1.00  0.00    -0.272 OA
BRANCH   6  10
HETATM   10  N1  UNL     1      23.925  61.342   7.670  1.00  0.00    -0.343 N 
ATOM     11  H12 UNL     1      24.325  61.802   6.852  1.00  0.00     0.176 HD
ATOM     12  H11 UNL     1      23.336  60.521   7.534  1.00  0.00     0.176 HD
ENDBRANCH   6  10
ENDBRANCH   1   2
BRANCH   1  13
HETATM   13  N5  UNL     1      25.411  66.812   9.360  1.00  0.00    -0.130 NA
BRANCH  13  14
HETATM   14  N6  UNL     1      26.710  66.975   9.888  1.00  0.00    -0.272 N 
HETATM   15  C4  UNL     1      27.789  66.348   9.254  1.00  0.00     0.261 C 
HETATM   16  O2  UNL     1      27.525  65.662   8.197  1.00  0.00    -0.270 OA
ATOM     17  H6  UNL     1      26.861  67.542  10.722  1.00  0.00     0.185 HD
BRANCH  15  18
HETATM   18  C5  UNL     1      29.192  66.397   9.688  1.00  0.00     0.375 C 
BRANCH  18  19
HETATM   19  N7  UNL     1      30.153  66.019   8.666  1.00  0.00     0.097 N 
HETATM   20  C6  UNL     1      29.911  67.039   7.600  1.00  0.00     0.273 C 
HETATM   21  C7  UNL     1      30.808  66.635   6.442  1.00  0.00     0.030 C 
HETATM   22  C8  UNL     1      32.204  67.021   6.883  1.00  0.00     0.003 C 
HETATM   23  C9  UNL     1      32.550  66.456   8.210  1.00  0.00     0.030 C 
HETATM   24  C10 UNL     1      31.476  66.295   9.209  1.00  0.00     0.273 C 
ENDBRANCH  18  19
ENDBRANCH  15  18
ENDBRANCH  13  14
ENDBRANCH   1  13
TORSDOF 6
ENDMDL
MODEL 5
REMARK VINA RESULT: -7.140392801      3.352      5.081
REMARK  6 active torsions:
REMARK  status: ('A' for Active; 'I' for Inactive)
REMARK    1  A    between atoms: N1_1  and  N2_4 
REMARK       I    between atoms: N2_4  and  C1_6 
REMARK       I    between atoms: N4_8  and  C2_10 
REMARK    2  A    between atoms: C2_10  and  C3_12 
REMARK    3  A    between atoms: C3_12  and  N5_13 
REMARK    4  A    between atoms: N5_13  and  N6_14 
REMARK       I    between atoms: N6_14  and  C4_16 
REMARK    5  A    between atoms: C4_16  and  C5_18 
REMARK    6  A    between atoms: C5_18  and  N7_19 
ROOT
HETATM    1  C3  UNL     1      27.568  63.823  13.244  1.00  0.00     0.238 C 
ENDROOT
BRANCH   1   2
HETATM    2  C2  UNL     1      27.399  64.638  14.436  1.00  0.00     0.240 C 
HETATM    3  N4  UNL     1      26.247  64.627  15.251  1.00  0.00    -0.299 N 
HETATM    4  C1  UNL     1      26.295  64.977  16.502  1.00  0.00     0.209 C 
ATOM      5  H4  UNL     1      25.355  64.337  14.849  1.00  0.00     0.171 HD
HETATM    6  N2  UNL     1      27.526  65.380  17.054  1.00  0.00    -0.280 N 
HETATM    7  N3  UNL     1      25.117  64.952  17.280  1.00  0.00    -0.062 NA
ATOM      8  H2  UNL     1      28.274  64.689  17.106  1.00  0.00     0.189 HD
HETATM    9  O1  UNL     1      28.371  65.403  14.745  1.00  0.00    -0.272 OA
BRANCH   6  10
HETATM   10  N1  UNL     1      27.788  66.655  17.531  1.00  0.00    -0.343 N 
ATOM     11  H12 UNL     1      28.657  66.782  18.048  1.00  0.00     0.176 HD
ATOM     12  H11 UNL     1      27.172  67.457  17.396  1.00  0.00     0.176 HD
ENDBRANCH   6  10
ENDBRANCH   1   2
BRANCH   1  13
HETATM   13  N5  UNL     1      28.945  63.843  12.788  1.00  0.00    -0.130 NA
BRANCH  13  14
HETATM   14  N6  UNL     1      29.161  65.025  12.047  1.00  0.00    -0.272 N 
HETATM   15  C4  UNL     1      29.068  64.983  10.651  1.00  0.00     0.261 C 
HETATM   16  O2  UNL     1      28.768  63.849  10.121  1.00  0.00    -0.270 OA
ATOM     17  H6  UNL     1      29.383  65.899  12.523  1.00  0.00     0.185 HD
BRANCH  15  18
HETATM   18  C5  UNL     1      29.287  66.112   9.737  1.00  0.00     0.375 C 
BRANCH  18  19
HETATM   19  N7  UNL     1      30.247  65.852   8.678  1.00  0.00     0.097 N 
HETATM   20  C6  UNL     1      29.815  66.802   7.608  1.00  0.00     0.273 C 
HETATM   21  C7  UNL     1      30.710  66.504   6.417  1.00  0.00     0.030 C 
HETATM   22  C8  UNL     1      32.054  67.096   6.786  1.00  0.00     0.003 C 
HETATM   23  C9  UNL     1      32.534  66.617   8.105  1.00  0.00     0.030 C 
HETATM   24  C10 UNL     1      31.540  66.328   9.155  1.00  0.00     0.273 C 
ENDBRANCH  18  19
ENDBRANCH  15  18
ENDBRANCH  13  14
ENDBRANCH   1  13
TORSDOF 6
ENDMDL
