MODEL 1
REMARK VINA RESULT: -6.683968387      0.000      0.000
REMARK  7 active torsions:
REMARK  status: ('A' for Active; 'I' for Inactive)
REMARK    1  A    between atoms: C2_2  and  N1_3 
REMARK    2  A    between atoms: C3_5  and  C4_6 
REMARK    3  A    between atoms: C3_5  and  N4_12 
REMARK    4  A    between atoms: C4_6  and  N2_7 
REMARK       I    between atoms: N2_7  and  C5_9 
REMARK    5  A    between atoms: N4_12  and  N5_14 
REMARK       I    between atoms: N5_14  and  C6_16 
REMARK    6  A    between atoms: C6_16  and  C7_18 
REMARK    7  A    between atoms: C7_18  and  N6_19 
REMARK       I    between atoms: N6_19  and  C8_21 
ROOT
HETATM    1  N4  UNL     1      29.551  64.708  12.294  1.00  0.00    -0.285 N 
ATOM      2  H4  UNL     1      30.488  64.408  12.558  1.00  0.00     0.188 HD
ENDROOT
BRANCH   1   3
HETATM    3  C3  UNL     1      28.416  64.118  12.955  1.00  0.00     0.110 C 
HETATM    4  N1  UNL     1      28.098  64.633  14.062  1.00  0.00    -0.378 N 
ATOM      5  H1  UNL     1      28.704  65.393  14.371  1.00  0.00     0.160 HD
BRANCH   4   6
HETATM    6  C2  UNL     1      27.033  64.325  14.948  1.00  0.00     0.116 C 
HETATM    7  C1  UNL     1      26.815  65.408  15.999  1.00  0.00     0.026 C 
ENDBRANCH   4   6
BRANCH   3   8
HETATM    8  C4  UNL     1      27.647  63.005  12.367  1.00  0.00     0.201 C 
BRANCH   8   9
HETATM    9  N2  UNL     1      26.681  63.460  11.372  1.00  0.00    -0.338 N 
HETATM   10  C5  UNL     1      26.576  62.677  10.201  1.00  0.00     0.329 C 
HETATM   11  N3  UNL     1      25.651  63.026   9.147  1.00  0.00    -0.040 NA
HETATM   12  O1  UNL     1      27.248  61.644   9.978  1.00  0.00    -0.251 OA
ATOM     13  H2  UNL     1      26.114  64.297  11.514  1.00  0.00     0.164 HD
ENDBRANCH   8   9
ENDBRANCH   3   8
ENDBRANCH   1   3
BRANCH   1  14
HETATM   14  N5  UNL     1      29.405  65.678  11.303  1.00  0.00    -0.267 N 
HETATM   15  C6  UNL     1      29.338  65.369   9.927  1.00  0.00     0.253 C 
HETATM   16  O2  UNL     1      29.413  64.157   9.596  1.00  0.00    -0.270 OA
ATOM     17  H5  UNL     1      29.344  66.656  11.586  1.00  0.00     0.190 HD
BRANCH  15  18
HETATM   18  C7  UNL     1      29.183  66.480   8.958  1.00  0.00     0.227 C 
BRANCH  18  19
HETATM   19  N6  UNL     1      30.404  66.859   8.312  1.00  0.00    -0.353 N 
HETATM   20  C8  UNL     1      30.633  66.458   6.978  1.00  0.00     0.213 C 
HETATM   21  C9  UNL     1      31.856  66.789   6.228  1.00  0.00     0.117 C 
HETATM   22  O3  UNL     1      29.722  65.773   6.408  1.00  0.00    -0.274 OA
ATOM     23  H6  UNL     1      31.101  67.412   8.811  1.00  0.00     0.162 HD
ENDBRANCH  18  19
ENDBRANCH  15  18
ENDBRANCH   1  14
TORSDOF 7
ENDMDL
MODEL 2
REMARK VINA RESULT: -6.604585396      2.417      5.852
REMARK  7 active torsions:
REMARK  status: ('A' for Active; 'I' for Inactive)
REMARK    1  A    between atoms: C2_2  and  N1_3 
REMARK    2  A    between atoms: C3_5  and  C4_6 
REMARK    3  A    between atoms: C3_5  and  N4_12 
REMARK    4  A    between atoms: C4_6  and  N2_7 
REMARK       I    between atoms: N2_7  and  C5_9 
REMARK    5  A    between atoms: N4_12  and  N5_14 
REMARK       I    between atoms: N5_14  and  C6_16 
REMARK    6  A    between atoms: C6_16  and  C7_18 
REMARK    7  A    between atoms: C7_18  and  N6_19 
REMARK       I    between atoms: N6_19  and  C8_21 
ROOT
HETATM    1  N4  UNL     1      28.078  67.144   9.297  1.00  0.00    -0.285 N 
ATOM      2  H4  UNL     1      28.228  67.984   9.856  1.00  0.00     0.188 HD
ENDROOT
BRANCH   1   3
HETATM    3  C3  UNL     1      29.217  66.469   8.731  1.00  0.00     0.110 C 
HETATM    4  N1  UNL     1      29.480  66.750   7.529  1.00  0.00    -0.378 N 
ATOM      5  H1  UNL     1      28.833  67.406   7.092  1.00  0.00     0.160 HD
BRANCH   4   6
HETATM    6  C2  UNL     1      30.530  66.301   6.688  1.00  0.00     0.116 C 
HETATM    7  C1  UNL     1      31.802  67.124   6.849  1.00  0.00     0.026 C 
ENDBRANCH   4   6
BRANCH   3   8
HETATM    8  C4  UNL     1      30.048  65.531   9.509  1.00  0.00     0.201 C 
BRANCH   8   9
HETATM    9  N2  UNL     1      29.586  65.389  10.887  1.00  0.00    -0.338 N 
HETATM   10  C5  UNL     1      28.723  64.301  11.145  1.00  0.00     0.329 C 
HETATM   11  N3  UNL     1      28.203  64.057  12.472  1.00  0.00    -0.040 NA
HETATM   12  O1  UNL     1      28.345  63.477  10.281  1.00  0.00    -0.251 OA
ATOM     13  H2  UNL     1      29.870  66.039  11.620  1.00  0.00     0.164 HD
ENDBRANCH   8   9
ENDBRANCH   3   8
ENDBRANCH   1   3
BRANCH   1  14
HETATM   14  N5  UNL     1      26.777  66.685   9.102  1.00  0.00    -0.267 N 
HETATM   15  C6  UNL     1      25.863  66.487  10.161  1.00  0.00     0.253 C 
HETATM   16  O2  UNL     1      26.257  66.743  11.328  1.00  0.00    -0.270 OA
ATOM     17  H5  UNL     1      26.470  66.483   8.150  1.00  0.00     0.190 HD
BRANCH  15  18
HETATM   18  C7  UNL     1      24.502  65.994   9.840  1.00  0.00     0.227 C 
BRANCH  18  19
HETATM   19  N6  UNL     1      24.323  64.593  10.081  1.00  0.00    -0.353 N 
HETATM   20  C8  UNL     1      24.822  63.663   9.144  1.00  0.00     0.213 C 
HETATM   21  C9  UNL     1      24.685  62.204   9.295  1.00  0.00     0.117 C 
HETATM   22  O3  UNL     1      25.420  64.127   8.119  1.00  0.00    -0.274 OA
ATOM     23  H6  UNL     1      23.841  64.273  10.920  1.00  0.00     0.162 HD
ENDBRANCH  18  19
ENDBRANCH  15  18
ENDBRANCH   1  14
TORSDOF 7
ENDMDL
MODEL 3
REMARK VINA RESULT: -6.531395663      1.285      1.416
REMARK  7 active torsions:
REMARK  status: ('A' for Active; 'I' for Inactive)
REMARK    1  A    between atoms: C2_2  and  N1_3 
REMARK    2  A    between atoms: C3_5  and  C4_6 
REMARK    3  A    between atoms: C3_5  and  N4_12 
REMARK    4  A    between atoms: C4_6  and  N2_7 
REMARK       I    between atoms: N2_7  and  C5_9 
REMARK    5  A    between atoms: N4_12  and  N5_14 
REMARK       I    between atoms: N5_14  and  C6_16 
REMARK    6  A    between atoms: C6_16  and  C7_18 
REMARK    7  A    between atoms: C7_18  and  N6_19 
REMARK       I    between atoms: N6_19  and  C8_21 
ROOT
HETATM    1  N4  UNL     1      29.157  64.112  12.672  1.00  0.00    -0.285 N 
ATOM      2  H4  UNL     1      29.739  63.282  12.782  1.00  0.00     0.188 HD
ENDROOT
BRANCH   1   3
HETATM    3  C3  UNL     1      27.889  64.172  13.353  1.00  0.00     0.110 C 
HETATM    4  N1  UNL     1      27.933  64.522  14.564  1.00  0.00    -0.378 N 
ATOM      5  H1  UNL     1      28.871  64.696  14.925  1.00  0.00     0.160 HD
BRANCH   4   6
HETATM    6  C2  UNL     1      26.888  64.713  15.505  1.00  0.00     0.116 C 
HETATM    7  C1  UNL     1      27.172  65.859  16.469  1.00  0.00     0.026 C 
ENDBRANCH   4   6
BRANCH   3   8
HETATM    8  C4  UNL     1      26.612  63.876  12.676  1.00  0.00     0.201 C 
BRANCH   8   9
HETATM    9  N2  UNL     1      26.798  63.094  11.456  1.00  0.00    -0.338 N 
HETATM   10  C5  UNL     1      25.756  63.168  10.505  1.00  0.00     0.329 C 
HETATM   11  N3  UNL     1      25.828  62.440   9.258  1.00  0.00    -0.040 NA
HETATM   12  O1  UNL     1      24.713  63.846  10.648  1.00  0.00    -0.251 OA
ATOM     13  H2  UNL     1      27.632  62.527  11.301  1.00  0.00     0.164 HD
ENDBRANCH   8   9
ENDBRANCH   3   8
ENDBRANCH   1   3
BRANCH   1  14
HETATM   14  N5  UNL     1      29.611  65.155  11.868  1.00  0.00    -0.267 N 
HETATM   15  C6  UNL     1      29.549  65.124  10.457  1.00  0.00     0.253 C 
HETATM   16  O2  UNL     1      29.056  64.100   9.917  1.00  0.00    -0.270 OA
ATOM     17  H5  UNL     1      30.008  65.980  12.319  1.00  0.00     0.190 HD
BRANCH  15  18
HETATM   18  C7  UNL     1      30.064  66.290   9.699  1.00  0.00     0.227 C 
BRANCH  18  19
HETATM   19  N6  UNL     1      29.155  66.781   8.707  1.00  0.00    -0.353 N 
HETATM   20  C8  UNL     1      29.340  66.411   7.358  1.00  0.00     0.213 C 
HETATM   21  C9  UNL     1      28.466  66.866   6.262  1.00  0.00     0.117 C 
HETATM   22  O3  UNL     1      30.319  65.641   7.090  1.00  0.00    -0.274 OA
ATOM     23  H6  UNL     1      28.383  67.392   8.973  1.00  0.00     0.162 HD
ENDBRANCH  18  19
ENDBRANCH  15  18
ENDBRANCH   1  14
TORSDOF 7
ENDMDL
MODEL 4
REMARK VINA RESULT: -6.479369395      2.229      5.758
REMARK  7 active torsions:
REMARK  status: ('A' for Active; 'I' for Inactive)
REMARK    1  A    between atoms: C2_2  and  N1_3 
REMARK    2  A    between atoms: C3_5  and  C4_6 
REMARK    3  A    between atoms: C3_5  and  N4_12 
REMARK    4  A    between atoms: C4_6  and  N2_7 
REMARK       I    between atoms: N2_7  and  C5_9 
REMARK    5  A    between atoms: N4_12  and  N5_14 
REMARK       I    between atoms: N5_14  and  C6_16 
REMARK    6  A    between atoms: C6_16  and  C7_18 
REMARK    7  A    between atoms: C7_18  and  N6_19 
REMARK       I    between atoms: N6_19  and  C8_21 
ROOT
HETATM    1  N4  UNL     1      29.977  65.122  10.410  1.00  0.00    -0.285 N 
ATOM      2  H4  UNL     1      30.797  65.227  11.007  1.00  0.00     0.188 HD
ENDROOT
BRANCH   1   3
HETATM    3  C3  UNL     1      29.877  65.921   9.216  1.00  0.00     0.110 C 
HETATM    4  N1  UNL     1      30.731  65.678   8.319  1.00  0.00    -0.378 N 
ATOM      5  H1  UNL     1      31.411  64.958   8.561  1.00  0.00     0.160 HD
BRANCH   4   6
HETATM    6  C2  UNL     1      30.897  66.245   7.029  1.00  0.00     0.116 C 
HETATM    7  C1  UNL     1      32.184  67.052   6.907  1.00  0.00     0.026 C 
ENDBRANCH   4   6
BRANCH   3   8
HETATM    8  C4  UNL     1      28.825  66.939   9.031  1.00  0.00     0.201 C 
BRANCH   8   9
HETATM    9  N2  UNL     1      27.816  66.526   8.060  1.00  0.00    -0.338 N 
HETATM   10  C5  UNL     1      26.581  66.091   8.591  1.00  0.00     0.329 C 
HETATM   11  N3  UNL     1      25.505  65.661   7.728  1.00  0.00    -0.040 NA
HETATM   12  O1  UNL     1      26.315  66.041   9.814  1.00  0.00    -0.251 OA
ATOM     13  H2  UNL     1      27.993  66.550   7.055  1.00  0.00     0.164 HD
ENDBRANCH   8   9
ENDBRANCH   3   8
ENDBRANCH   1   3
BRANCH   1  14
HETATM   14  N5  UNL     1      28.988  64.210  10.772  1.00  0.00    -0.267 N 
HETATM   15  C6  UNL     1      28.175  64.369  11.916  1.00  0.00     0.253 C 
HETATM   16  O2  UNL     1      28.365  65.387  12.630  1.00  0.00    -0.270 OA
ATOM     17  H5  UNL     1      28.844  63.389  10.183  1.00  0.00     0.190 HD
BRANCH  15  18
HETATM   18  C7  UNL     1      27.152  63.336  12.208  1.00  0.00     0.227 C 
BRANCH  18  19
HETATM   19  N6  UNL     1      25.997  63.411  11.364  1.00  0.00    -0.353 N 
HETATM   20  C8  UNL     1      25.951  62.634  10.187  1.00  0.00     0.213 C 
HETATM   21  C9  UNL     1      24.814  62.644   9.250  1.00  0.00     0.117 C 
HETATM   22  O3  UNL     1      26.954  61.890   9.936  1.00  0.00    -0.274 OA
ATOM     23  H6  UNL     1      25.217  64.020  11.612  1.00  0.00     0.162 HD
ENDBRANCH  18  19
ENDBRANCH  15  18
ENDBRANCH   1  14
TORSDOF 7
ENDMDL
MODEL 5
REMARK VINA RESULT: -6.383989538      1.791      1.948
REMARK  7 active torsions:
REMARK  status: ('A' for Active; 'I' for Inactive)
REMARK    1  A    between atoms: C2_2  and  N1_3 
REMARK    2  A    between atoms: C3_5  and  C4_6 
REMARK    3  A    between atoms: C3_5  and  N4_12 
REMARK    4  A    between atoms: C4_6  and  N2_7 
REMARK       I    between atoms: N2_7  and  C5_9 
REMARK    5  A    between atoms: N4_12  and  N5_14 
REMARK       I    between atoms: N5_14  and  C6_16 
REMARK    6  A    between atoms: C6_16  and  C7_18 
REMARK    7  A    between atoms: C7_18  and  N6_19 
REMARK       I    between atoms: N6_19  and  C8_21 
ROOT
HETATM    1  N4  UNL     1      29.537  64.597  12.487  1.00  0.00    -0.285 N 
ATOM      2  H4  UNL     1      30.121  63.762  12.445  1.00  0.00     0.188 HD
ENDROOT
BRANCH   1   3
HETATM    3  C3  UNL     1      28.831  64.894  13.707  1.00  0.00     0.110 C 
HETATM    4  N1  UNL     1      29.410  65.692  14.495  1.00  0.00    -0.378 N 
ATOM      5  H1  UNL     1      30.327  66.011  14.183  1.00  0.00     0.160 HD
BRANCH   4   6
HETATM    6  C2  UNL     1      28.992  66.216  15.745  1.00  0.00     0.116 C 
HETATM    7  C1  UNL     1      30.153  66.423  16.710  1.00  0.00     0.026 C 
ENDBRANCH   4   6
BRANCH   3   8
HETATM    8  C4  UNL     1      27.501  64.332  14.010  1.00  0.00     0.201 C 
BRANCH   8   9
HETATM    9  N2  UNL     1      27.005  63.470  12.941  1.00  0.00    -0.338 N 
HETATM   10  C5  UNL     1      25.816  63.889  12.304  1.00  0.00     0.329 C 
HETATM   11  N3  UNL     1      25.231  63.120  11.230  1.00  0.00    -0.040 NA
HETATM   12  O1  UNL     1      25.183  64.929  12.600  1.00  0.00    -0.251 OA
ATOM     13  H2  UNL     1      27.490  62.614  12.670  1.00  0.00     0.164 HD
ENDBRANCH   8   9
ENDBRANCH   3   8
ENDBRANCH   1   3
BRANCH   1  14
HETATM   14  N5  UNL     1      29.444  65.415  11.364  1.00  0.00    -0.267 N 
HETATM   15  C6  UNL     1      28.899  64.979  10.136  1.00  0.00     0.253 C 
HETATM   16  O2  UNL     1      28.481  63.794  10.070  1.00  0.00    -0.270 OA
ATOM     17  H5  UNL     1      29.785  66.375  11.431  1.00  0.00     0.190 HD
BRANCH  15  18
HETATM   18  C7  UNL     1      28.850  65.935   9.003  1.00  0.00     0.227 C 
BRANCH  18  19
HETATM   19  N6  UNL     1      30.119  66.517   8.682  1.00  0.00    -0.353 N 
HETATM   20  C8  UNL     1      30.632  66.375   7.375  1.00  0.00     0.213 C 
HETATM   21  C9  UNL     1      31.928  66.930   6.946  1.00  0.00     0.117 C 
HETATM   22  O3  UNL     1      29.924  65.731   6.534  1.00  0.00    -0.274 OA
ATOM     23  H6  UNL     1      30.645  67.028   9.391  1.00  0.00     0.162 HD
ENDBRANCH  18  19
ENDBRANCH  15  18
ENDBRANCH   1  14
TORSDOF 7
ENDMDL
