MODEL 1
REMARK VINA RESULT: -6.776950924      0.000      0.000
REMARK  7 active torsions:
REMARK  status: ('A' for Active; 'I' for Inactive)
REMARK    1  A    between atoms: C2_2  and  C3_3 
REMARK    2  A    between atoms: C7_7  and  C8_8 
REMARK       I    between atoms: C8_8  and  N1_10 
REMARK    3  A    between atoms: N1_10  and  N2_12 
REMARK       I    between atoms: N2_12  and  C9_14 
REMARK    4  A    between atoms: C9_14  and  C10_16 
REMARK    5  A    between atoms: C10_16  and  N3_17 
REMARK    6  A    between atoms: N3_17  and  S1_19 
REMARK    7  A    between atoms: S1_19  and  N4_20 
ROOT
HETATM    1  N2  UNL     1      29.462  65.089  11.784  1.00  0.00    -0.266 N 
ATOM      2  H2  UNL     1      30.275  64.998  12.393  1.00  0.00     0.190 HD
HETATM    3  C9  UNL     1      28.331  64.261  11.958  1.00  0.00     0.254 C 
HETATM    4  O2  UNL     1      27.311  64.350  11.224  1.00  0.00    -0.270 OA
ENDROOT
BRANCH   1   5
HETATM    5  N1  UNL     1      29.442  66.040  10.753  1.00  0.00    -0.267 N 
HETATM    6  C8  UNL     1      29.746  65.701   9.406  1.00  0.00     0.240 C 
HETATM    7  O1  UNL     1      30.036  64.496   9.193  1.00  0.00    -0.271 OA
ATOM      8  H1  UNL     1      29.202  67.005  10.977  1.00  0.00     0.190 HD
BRANCH   6   9
HETATM    9  C7  UNL     1      29.699  66.752   8.395  1.00  0.00     0.087 C 
HETATM   10  C3  UNL     1      30.967  67.076   7.683  1.00  0.00     0.020 C 
HETATM   11  C4  UNL     1      30.728  66.765   6.230  1.00  0.00     0.009 C 
HETATM   12  C5  UNL     1      29.664  65.659   6.333  1.00  0.00     0.002 C 
HETATM   13  C6  UNL     1      28.695  66.367   7.294  1.00  0.00     0.015 C 
BRANCH  10  14
HETATM   14  C2  UNL     1      32.179  66.530   8.260  1.00  0.00    -0.031 C 
HETATM   15  C1  UNL     1      33.366  66.814   7.801  1.00  0.00     0.007 C 
ENDBRANCH  10  14
ENDBRANCH   6   9
ENDBRANCH   1   5
BRANCH   3  16
HETATM   16  C10 UNL     1      28.348  63.250  13.045  1.00  0.00     0.238 C 
BRANCH  16  17
HETATM   17  N3  UNL     1      27.063  63.267  13.766  1.00  0.00    -0.294 N 
ATOM     18  H3  UNL     1      26.318  62.577  13.668  1.00  0.00     0.174 HD
BRANCH  17  19
HETATM   19  S1  UNL     1      27.023  64.662  14.812  1.00  0.00     0.313 S 
HETATM   20  O3  UNL     1      28.354  65.337  14.854  1.00  0.00    -0.183 OA
HETATM   21  O4  UNL     1      25.978  65.621  14.285  1.00  0.00    -0.183 OA
BRANCH  19  22
HETATM   22  N4  UNL     1      26.583  64.237  16.415  1.00  0.00    -0.312 N 
ATOM     23  H42 UNL     1      25.752  64.601  16.884  1.00  0.00     0.170 HD
ATOM     24  H41 UNL     1      27.250  63.585  16.827  1.00  0.00     0.170 HD
ENDBRANCH  19  22
ENDBRANCH  17  19
ENDBRANCH  16  17
ENDBRANCH   3  16
TORSDOF 7
ENDMDL
MODEL 2
REMARK VINA RESULT: -6.622320999      4.082      6.806
REMARK  7 active torsions:
REMARK  status: ('A' for Active; 'I' for Inactive)
REMARK    1  A    between atoms: C2_2  and  C3_3 
REMARK    2  A    between atoms: C7_7  and  C8_8 
REMARK       I    between atoms: C8_8  and  N1_10 
REMARK    3  A    between atoms: N1_10  and  N2_12 
REMARK       I    between atoms: N2_12  and  C9_14 
REMARK    4  A    between atoms: C9_14  and  C10_16 
REMARK    5  A    between atoms: C10_16  and  N3_17 
REMARK    6  A    between atoms: N3_17  and  S1_19 
REMARK    7  A    between atoms: S1_19  and  N4_20 
ROOT
HETATM    1  N2  UNL     1      28.551  66.426   9.350  1.00  0.00    -0.266 N 
ATOM      2  H2  UNL     1      28.981  67.191   8.829  1.00  0.00     0.190 HD
HETATM    3  C9  UNL     1      29.322  65.327   9.789  1.00  0.00     0.254 C 
HETATM    4  O2  UNL     1      28.822  64.368  10.436  1.00  0.00    -0.270 OA
ENDROOT
BRANCH   1   5
HETATM    5  N1  UNL     1      27.181  66.442   9.647  1.00  0.00    -0.267 N 
HETATM    6  C8  UNL     1      26.202  65.981   8.725  1.00  0.00     0.240 C 
HETATM    7  O1  UNL     1      26.638  65.559   7.623  1.00  0.00    -0.271 OA
ATOM      8  H1  UNL     1      26.877  66.796  10.554  1.00  0.00     0.190 HD
BRANCH   6   9
HETATM    9  C7  UNL     1      24.797  66.031   9.115  1.00  0.00     0.087 C 
HETATM   10  C3  UNL     1      24.252  64.866   9.867  1.00  0.00     0.020 C 
HETATM   11  C4  UNL     1      23.824  65.391  11.210  1.00  0.00     0.009 C 
HETATM   12  C5  UNL     1      24.780  66.584  11.382  1.00  0.00     0.002 C 
HETATM   13  C6  UNL     1      24.553  67.254  10.018  1.00  0.00     0.015 C 
BRANCH  10  14
HETATM   14  C2  UNL     1      25.078  63.675   9.883  1.00  0.00    -0.031 C 
HETATM   15  C1  UNL     1      24.666  62.527   9.424  1.00  0.00     0.007 C 
ENDBRANCH  10  14
ENDBRANCH   6   9
ENDBRANCH   1   5
BRANCH   3  16
HETATM   16  C10 UNL     1      30.773  65.302   9.474  1.00  0.00     0.238 C 
BRANCH  16  17
HETATM   17  N3  UNL     1      31.178  66.588   8.880  1.00  0.00    -0.294 N 
ATOM     18  H3  UNL     1      31.563  67.383   9.391  1.00  0.00     0.174 HD
BRANCH  17  19
HETATM   19  S1  UNL     1      30.892  66.529   7.160  1.00  0.00     0.313 S 
HETATM   20  O3  UNL     1      30.213  65.256   6.775  1.00  0.00    -0.183 OA
HETATM   21  O4  UNL     1      30.024  67.708   6.782  1.00  0.00    -0.183 OA
BRANCH  19  22
HETATM   22  N4  UNL     1      32.355  66.650   6.272  1.00  0.00    -0.312 N 
ATOM     23  H42 UNL     1      33.194  67.106   6.631  1.00  0.00     0.170 HD
ATOM     24  H41 UNL     1      32.274  66.212   5.353  1.00  0.00     0.170 HD
ENDBRANCH  19  22
ENDBRANCH  17  19
ENDBRANCH  16  17
ENDBRANCH   3  16
TORSDOF 7
ENDMDL
MODEL 3
REMARK VINA RESULT: -6.551191821      2.624      2.820
REMARK  7 active torsions:
REMARK  status: ('A' for Active; 'I' for Inactive)
REMARK    1  A    between atoms: C2_2  and  C3_3 
REMARK    2  A    between atoms: C7_7  and  C8_8 
REMARK       I    between atoms: C8_8  and  N1_10 
REMARK    3  A    between atoms: N1_10  and  N2_12 
REMARK       I    between atoms: N2_12  and  C9_14 
REMARK    4  A    between atoms: C9_14  and  C10_16 
REMARK    5  A    between atoms: C10_16  and  N3_17 
REMARK    6  A    between atoms: N3_17  and  S1_19 
REMARK    7  A    between atoms: S1_19  and  N4_20 
ROOT
HETATM    1  N2  UNL     1      26.345  65.309   9.824  1.00  0.00    -0.266 N 
ATOM      2  H2  UNL     1      26.396  65.351  10.842  1.00  0.00     0.190 HD
HETATM    3  C9  UNL     1      25.496  64.382   9.179  1.00  0.00     0.254 C 
HETATM    4  O2  UNL     1      25.408  64.307   7.925  1.00  0.00    -0.270 OA
ENDROOT
BRANCH   1   5
HETATM    5  N1  UNL     1      27.117  66.171   9.032  1.00  0.00    -0.267 N 
HETATM    6  C8  UNL     1      28.518  65.991   8.863  1.00  0.00     0.240 C 
HETATM    7  O1  UNL     1      29.025  65.012   9.468  1.00  0.00    -0.271 OA
ATOM      8  H1  UNL     1      26.660  66.952   8.562  1.00  0.00     0.190 HD
BRANCH   6   9
HETATM    9  C7  UNL     1      29.245  66.933   8.020  1.00  0.00     0.087 C 
HETATM   10  C3  UNL     1      30.733  66.864   8.038  1.00  0.00     0.020 C 
HETATM   11  C4  UNL     1      31.157  66.506   6.639  1.00  0.00     0.009 C 
HETATM   12  C5  UNL     1      29.930  65.722   6.146  1.00  0.00     0.002 C 
HETATM   13  C6  UNL     1      28.841  66.730   6.548  1.00  0.00     0.015 C 
BRANCH  10  14
HETATM   14  C2  UNL     1      31.321  66.075   9.102  1.00  0.00    -0.031 C 
HETATM   15  C1  UNL     1      32.605  66.046   9.329  1.00  0.00     0.007 C 
ENDBRANCH  10  14
ENDBRANCH   6   9
ENDBRANCH   1   5
BRANCH   3  16
HETATM   16  C10 UNL     1      24.679  63.464  10.013  1.00  0.00     0.238 C 
BRANCH  16  17
HETATM   17  N3  UNL     1      23.951  64.233  11.038  1.00  0.00    -0.294 N 
ATOM     18  H3  UNL     1      23.162  64.856  10.864  1.00  0.00     0.174 HD
BRANCH  17  19
HETATM   19  S1  UNL     1      24.659  63.902  12.598  1.00  0.00     0.313 S 
HETATM   20  O3  UNL     1      25.997  63.255  12.451  1.00  0.00    -0.183 OA
HETATM   21  O4  UNL     1      24.801  65.211  13.342  1.00  0.00    -0.183 OA
BRANCH  19  22
HETATM   22  N4  UNL     1      23.661  62.871  13.539  1.00  0.00    -0.312 N 
ATOM     23  H42 UNL     1      23.000  63.213  14.237  1.00  0.00     0.170 HD
ATOM     24  H41 UNL     1      23.815  61.889  13.309  1.00  0.00     0.170 HD
ENDBRANCH  19  22
ENDBRANCH  17  19
ENDBRANCH  16  17
ENDBRANCH   3  16
TORSDOF 7
ENDMDL
MODEL 4
REMARK VINA RESULT: -6.485356778      3.965      6.919
REMARK  7 active torsions:
REMARK  status: ('A' for Active; 'I' for Inactive)
REMARK    1  A    between atoms: C2_2  and  C3_3 
REMARK    2  A    between atoms: C7_7  and  C8_8 
REMARK       I    between atoms: C8_8  and  N1_10 
REMARK    3  A    between atoms: N1_10  and  N2_12 
REMARK       I    between atoms: N2_12  and  C9_14 
REMARK    4  A    between atoms: C9_14  and  C10_16 
REMARK    5  A    between atoms: C10_16  and  N3_17 
REMARK    6  A    between atoms: N3_17  and  S1_19 
REMARK    7  A    between atoms: S1_19  and  N4_20 
ROOT
HETATM    1  N2  UNL     1      28.106  66.558   9.874  1.00  0.00    -0.266 N 
ATOM      2  H2  UNL     1      28.244  67.517   9.556  1.00  0.00     0.190 HD
HETATM    3  C9  UNL     1      29.189  65.651   9.928  1.00  0.00     0.254 C 
HETATM    4  O2  UNL     1      29.053  64.461  10.319  1.00  0.00    -0.270 OA
ENDROOT
BRANCH   1   5
HETATM    5  N1  UNL     1      26.838  66.108  10.268  1.00  0.00    -0.267 N 
HETATM    6  C8  UNL     1      25.909  65.559   9.342  1.00  0.00     0.240 C 
HETATM    7  O1  UNL     1      26.292  65.502   8.146  1.00  0.00    -0.271 OA
ATOM      8  H1  UNL     1      26.574  66.177  11.251  1.00  0.00     0.190 HD
BRANCH   6   9
HETATM    9  C7  UNL     1      24.612  65.113   9.837  1.00  0.00     0.087 C 
HETATM   10  C3  UNL     1      24.528  63.736  10.400  1.00  0.00     0.020 C 
HETATM   11  C4  UNL     1      24.138  63.892  11.845  1.00  0.00     0.009 C 
HETATM   12  C5  UNL     1      24.719  65.281  12.163  1.00  0.00     0.002 C 
HETATM   13  C6  UNL     1      24.137  66.048  10.964  1.00  0.00     0.015 C 
BRANCH  10  14
HETATM   14  C2  UNL     1      25.661  62.871  10.137  1.00  0.00    -0.031 C 
HETATM   15  C1  UNL     1      25.565  61.785   9.421  1.00  0.00     0.007 C 
ENDBRANCH  10  14
ENDBRANCH   6   9
ENDBRANCH   1   5
BRANCH   3  16
HETATM   16  C10 UNL     1      30.534  66.121   9.509  1.00  0.00     0.238 C 
BRANCH  16  17
HETATM   17  N3  UNL     1      30.938  65.437   8.268  1.00  0.00    -0.294 N 
ATOM     18  H3  UNL     1      31.455  64.559   8.216  1.00  0.00     0.174 HD
BRANCH  17  19
HETATM   19  S1  UNL     1      30.392  66.376   6.903  1.00  0.00     0.313 S 
HETATM   20  O3  UNL     1      29.582  65.539   5.968  1.00  0.00    -0.183 OA
HETATM   21  O4  UNL     1      29.553  67.523   7.421  1.00  0.00    -0.183 OA
BRANCH  19  22
HETATM   22  N4  UNL     1      31.708  67.044   6.027  1.00  0.00    -0.312 N 
ATOM     23  H42 UNL     1      32.303  66.497   5.406  1.00  0.00     0.170 HD
ATOM     24  H41 UNL     1      31.811  68.042   6.209  1.00  0.00     0.170 HD
ENDBRANCH  19  22
ENDBRANCH  17  19
ENDBRANCH  16  17
ENDBRANCH   3  16
TORSDOF 7
ENDMDL
MODEL 5
REMARK VINA RESULT: -6.419524998      1.750      1.904
REMARK  7 active torsions:
REMARK  status: ('A' for Active; 'I' for Inactive)
REMARK    1  A    between atoms: C2_2  and  C3_3 
REMARK    2  A    between atoms: C7_7  and  C8_8 
REMARK       I    between atoms: C8_8  and  N1_10 
REMARK    3  A    between atoms: N1_10  and  N2_12 
REMARK       I    between atoms: N2_12  and  C9_14 
REMARK    4  A    between atoms: C9_14  and  C10_16 
REMARK    5  A    between atoms: C10_16  and  N3_17 
REMARK    6  A    between atoms: N3_17  and  S1_19 
REMARK    7  A    between atoms: S1_19  and  N4_20 
ROOT
HETATM    1  N2  UNL     1      27.134  65.551  10.547  1.00  0.00    -0.266 N 
ATOM      2  H2  UNL     1      27.314  65.808  11.517  1.00  0.00     0.190 HD
HETATM    3  C9  UNL     1      26.391  64.391  10.232  1.00  0.00     0.254 C 
HETATM    4  O2  UNL     1      26.148  64.047   9.044  1.00  0.00    -0.270 OA
ENDROOT
BRANCH   1   5
HETATM    5  N1  UNL     1      27.616  66.342   9.494  1.00  0.00    -0.267 N 
HETATM    6  C8  UNL     1      28.903  66.137   8.923  1.00  0.00     0.240 C 
HETATM    7  O1  UNL     1      29.584  65.204   9.420  1.00  0.00    -0.271 OA
ATOM      8  H1  UNL     1      27.026  67.087   9.126  1.00  0.00     0.190 HD
BRANCH   6   9
HETATM    9  C7  UNL     1      29.326  67.003   7.829  1.00  0.00     0.087 C 
HETATM   10  C3  UNL     1      30.785  67.079   7.537  1.00  0.00     0.020 C 
HETATM   11  C4  UNL     1      30.965  66.553   6.138  1.00  0.00     0.009 C 
HETATM   12  C5  UNL     1      29.771  65.591   6.025  1.00  0.00     0.002 C 
HETATM   13  C6  UNL     1      28.667  66.540   6.517  1.00  0.00     0.015 C 
BRANCH  10  14
HETATM   14  C2  UNL     1      31.665  66.521   8.544  1.00  0.00    -0.031 C 
HETATM   15  C1  UNL     1      32.964  66.595   8.462  1.00  0.00     0.007 C 
ENDBRANCH  10  14
ENDBRANCH   6   9
ENDBRANCH   1   5
BRANCH   3  16
HETATM   16  C10 UNL     1      25.881  63.548  11.343  1.00  0.00     0.238 C 
BRANCH  16  17
HETATM   17  N3  UNL     1      26.002  64.274  12.619  1.00  0.00    -0.294 N 
ATOM     18  H3  UNL     1      25.326  64.942  12.989  1.00  0.00     0.174 HD
BRANCH  17  19
HETATM   19  S1  UNL     1      27.493  63.805  13.394  1.00  0.00     0.313 S 
HETATM   20  O3  UNL     1      27.862  62.402  13.038  1.00  0.00    -0.183 OA
HETATM   21  O4  UNL     1      28.582  64.752  12.942  1.00  0.00    -0.183 OA
BRANCH  19  22
HETATM   22  N4  UNL     1      27.379  63.915  15.102  1.00  0.00    -0.312 N 
ATOM     23  H42 UNL     1      27.190  64.787  15.597  1.00  0.00     0.170 HD
ATOM     24  H41 UNL     1      27.523  63.008  15.547  1.00  0.00     0.170 HD
ENDBRANCH  19  22
ENDBRANCH  17  19
ENDBRANCH  16  17
ENDBRANCH   3  16
TORSDOF 7
ENDMDL
