MODEL 1
REMARK VINA RESULT: -7.994240244      0.000      0.000
REMARK  10 active torsions:
REMARK  status: ('A' for Active; 'I' for Inactive)
REMARK    1  A    between atoms: C2_2  and  N1_3 
REMARK       I    between atoms: N1_3  and  C3_5 
REMARK       I    between atoms: C3_5  and  N2_7 
REMARK    2  A    between atoms: N2_7  and  C4_9 
REMARK    3  A    between atoms: C5_12  and  N4_13 
REMARK    4  A    between atoms: C8_16  and  C9_17 
REMARK    5  A    between atoms: C8_16  and  C11_19 
REMARK    6  A    between atoms: C11_19  and  C12_20 
REMARK    7  A    between atoms: C12_20  and  C13_21 
REMARK    8  A    between atoms: C13_21  and  C14_22 
REMARK    9  A    between atoms: C14_22  and  N5_23 
REMARK   10  A    between atoms: C17_30  and  N6_31 
ROOT
HETATM    1  C4  UNL     1     -41.643  16.604 -21.444  1.00  0.00     0.689 A 
HETATM    2  N3  UNL     1     -42.938  16.273 -21.600  1.00  0.00    -0.173 N 
ATOM      3  H3  UNL     1     -43.504  16.804 -22.262  1.00  0.00     0.186 HD
HETATM    4  C5  UNL     1     -43.512  15.270 -20.918  1.00  0.00     0.162 A 
HETATM    5  C16 UNL     1     -42.714  14.587 -20.039  1.00  0.00     0.204 A 
HETATM    6  F1  UNL     1     -43.181  13.569 -19.308  1.00  0.00    -0.198 F 
HETATM    7  C17 UNL     1     -41.370  14.921 -19.866  1.00  0.00     0.162 A 
HETATM    8  N7  UNL     1     -40.858  15.931 -20.577  1.00  0.00    -0.173 N 
ATOM      9  H7  UNL     1     -39.878  16.192 -20.466  1.00  0.00     0.186 HD
ENDROOT
BRANCH   4  10
HETATM   10  N4  UNL     1     -44.890  14.896 -21.059  1.00  0.00    -0.363 N 
HETATM   11  C6  UNL     1     -45.283  13.919 -22.073  1.00  0.00     0.125 C 
HETATM   12  C7  UNL     1     -46.619  13.456 -21.604  1.00  0.00     0.031 C 
HETATM   13  C8  UNL     1     -47.260  14.674 -20.970  1.00  0.00    -0.023 C 
HETATM   14  C15 UNL     1     -46.008  15.361 -20.321  1.00  0.00     0.134 C 
BRANCH  13  15
HETATM   15  C9  UNL     1     -48.161  14.350 -19.839  1.00  0.00     0.007 C 
HETATM   16  C10 UNL     1     -47.379  14.035 -18.578  1.00  0.00     0.006 C 
ENDBRANCH  13  15
BRANCH  13  17
HETATM   17  C11 UNL     1     -47.728  15.649 -21.969  1.00  0.00     0.011 C 
BRANCH  17  18
HETATM   18  C12 UNL     1     -49.094  16.174 -21.960  1.00  0.00     0.002 C 
BRANCH  18  19
HETATM   19  C13 UNL     1     -50.065  15.584 -22.935  1.00  0.00     0.027 C 
BRANCH  19  20
HETATM   20  C14 UNL     1     -51.040  14.701 -22.141  1.00  0.00     0.229 C 
BRANCH  20  21
HETATM   21  N5  UNL     1     -50.706  13.307 -22.284  1.00  0.00    -0.079 N 
ATOM     22  H53 UNL     1     -50.218  13.126 -23.161  1.00  0.00     0.274 HD
ATOM     23  H52 UNL     1     -49.968  13.029 -21.637  1.00  0.00     0.274 HD
ATOM     24  H51 UNL     1     -51.535  12.721 -22.186  1.00  0.00     0.274 HD
ENDBRANCH  20  21
ENDBRANCH  19  20
ENDBRANCH  18  19
ENDBRANCH  17  18
ENDBRANCH  13  17
ENDBRANCH   4  10
BRANCH   1  25
HETATM   25  N2  UNL     1     -41.088  17.568 -22.098  1.00  0.00    -0.141 N 
HETATM   26  C3  UNL     1     -41.790  18.670 -22.626  1.00  0.00     0.334 C 
HETATM   27  N1  UNL     1     -42.401  18.633 -23.892  1.00  0.00    -0.343 N 
HETATM   28  O1  UNL     1     -41.870  19.717 -21.939  1.00  0.00    -0.247 OA
ATOM     29  H1  UNL     1     -42.332  17.778 -24.445  1.00  0.00     0.164 HD
ATOM     30  H2  UNL     1     -40.079  17.529 -22.244  1.00  0.00     0.189 HD
BRANCH  27  31
HETATM   31  C2  UNL     1     -43.128  19.765 -24.446  1.00  0.00     0.120 C 
HETATM   32  C1  UNL     1     -43.222  19.686 -25.941  1.00  0.00     0.026 C 
ENDBRANCH  27  31
ENDBRANCH   1  25
BRANCH   7  33
HETATM   33  N6  UNL     1     -40.522  14.229 -18.965  1.00  0.00    -0.360 N 
HETATM   34  C18 UNL     1     -39.765  15.029 -18.025  1.00  0.00     0.151 C 
HETATM   35  C19 UNL     1     -39.116  14.207 -16.954  1.00  0.00     0.187 C 
HETATM   36  O2  UNL     1     -38.827  12.917 -17.386  1.00  0.00    -0.388 OA
HETATM   37  C20 UNL     1     -40.017  12.258 -17.709  1.00  0.00     0.187 C 
HETATM   38  C21 UNL     1     -40.469  12.798 -19.042  1.00  0.00     0.151 C 
ENDBRANCH   7  33
TORSDOF 10
ENDMDL
MODEL 2
REMARK VINA RESULT: -7.836005540      1.787      5.051
REMARK  10 active torsions:
REMARK  status: ('A' for Active; 'I' for Inactive)
REMARK    1  A    between atoms: C2_2  and  N1_3 
REMARK       I    between atoms: N1_3  and  C3_5 
REMARK       I    between atoms: C3_5  and  N2_7 
REMARK    2  A    between atoms: N2_7  and  C4_9 
REMARK    3  A    between atoms: C5_12  and  N4_13 
REMARK    4  A    between atoms: C8_16  and  C9_17 
REMARK    5  A    between atoms: C8_16  and  C11_19 
REMARK    6  A    between atoms: C11_19  and  C12_20 
REMARK    7  A    between atoms: C12_20  and  C13_21 
REMARK    8  A    between atoms: C13_21  and  C14_22 
REMARK    9  A    between atoms: C14_22  and  N5_23 
REMARK   10  A    between atoms: C17_30  and  N6_31 
ROOT
HETATM    1  C4  UNL     1     -41.047  14.099 -19.395  1.00  0.00     0.689 A 
HETATM    2  N3  UNL     1     -42.378  13.940 -19.507  1.00  0.00    -0.173 N 
ATOM      3  H3  UNL     1     -42.840  13.243 -18.923  1.00  0.00     0.186 HD
HETATM    4  C5  UNL     1     -43.120  14.665 -20.358  1.00  0.00     0.162 A 
HETATM    5  C16 UNL     1     -42.457  15.587 -21.122  1.00  0.00     0.204 A 
HETATM    6  F1  UNL     1     -43.098  16.364 -22.002  1.00  0.00    -0.198 F 
HETATM    7  C17 UNL     1     -41.076  15.761 -21.018  1.00  0.00     0.162 A 
HETATM    8  N7  UNL     1     -40.394  15.007 -20.149  1.00  0.00    -0.173 N 
ATOM      9  H7  UNL     1     -39.384  15.118 -20.057  1.00  0.00     0.186 HD
ENDROOT
BRANCH   4  10
HETATM   10  N4  UNL     1     -44.540  14.515 -20.503  1.00  0.00    -0.363 N 
HETATM   11  C6  UNL     1     -45.084  13.747 -21.622  1.00  0.00     0.125 C 
HETATM   12  C7  UNL     1     -46.468  13.423 -21.176  1.00  0.00     0.031 C 
HETATM   13  C8  UNL     1     -46.916  14.626 -20.370  1.00  0.00    -0.023 C 
HETATM   14  C15 UNL     1     -45.569  15.034 -19.677  1.00  0.00     0.134 C 
BRANCH  13  15
HETATM   15  C9  UNL     1     -47.841  14.287 -19.263  1.00  0.00     0.007 C 
HETATM   16  C10 UNL     1     -47.087  13.951 -17.991  1.00  0.00     0.006 C 
ENDBRANCH  13  15
BRANCH  13  17
HETATM   17  C11 UNL     1     -47.248  15.781 -21.220  1.00  0.00     0.011 C 
BRANCH  17  18
HETATM   18  C12 UNL     1     -48.068  15.648 -22.424  1.00  0.00     0.002 C 
BRANCH  18  19
HETATM   19  C13 UNL     1     -49.499  16.085 -22.335  1.00  0.00     0.027 C 
BRANCH  19  20
HETATM   20  C14 UNL     1     -50.364  14.958 -22.920  1.00  0.00     0.229 C 
BRANCH  20  21
HETATM   21  N5  UNL     1     -49.984  13.681 -22.375  1.00  0.00    -0.079 N 
ATOM     22  H53 UNL     1     -49.325  13.782 -21.605  1.00  0.00     0.274 HD
ATOM     23  H52 UNL     1     -50.753  13.246 -21.864  1.00  0.00     0.274 HD
ATOM     24  H51 UNL     1     -49.622  13.066 -23.105  1.00  0.00     0.274 HD
ENDBRANCH  20  21
ENDBRANCH  19  20
ENDBRANCH  18  19
ENDBRANCH  17  18
ENDBRANCH  13  17
ENDBRANCH   4  10
BRANCH   1  25
HETATM   25  N2  UNL     1     -40.330  13.403 -18.578  1.00  0.00    -0.141 N 
HETATM   26  C3  UNL     1     -39.809  13.901 -17.367  1.00  0.00     0.334 C 
HETATM   27  N1  UNL     1     -38.583  14.586 -17.303  1.00  0.00    -0.343 N 
HETATM   28  O1  UNL     1     -40.465  13.724 -16.311  1.00  0.00    -0.247 OA
ATOM     29  H1  UNL     1     -38.054  14.726 -18.165  1.00  0.00     0.164 HD
ATOM     30  H2  UNL     1     -40.127  12.434 -18.824  1.00  0.00     0.189 HD
BRANCH  27  31
HETATM   31  C2  UNL     1     -38.036  15.104 -16.058  1.00  0.00     0.120 C 
HETATM   32  C1  UNL     1     -37.790  16.581 -16.133  1.00  0.00     0.026 C 
ENDBRANCH  27  31
ENDBRANCH   1  25
BRANCH   7  33
HETATM   33  N6  UNL     1     -40.366  16.710 -21.796  1.00  0.00    -0.360 N 
HETATM   34  C18 UNL     1     -39.130  16.268 -22.408  1.00  0.00     0.151 C 
HETATM   35  C19 UNL     1     -38.600  17.243 -23.413  1.00  0.00     0.187 C 
HETATM   36  O2  UNL     1     -38.977  18.551 -23.126  1.00  0.00    -0.388 OA
HETATM   37  C20 UNL     1     -40.370  18.655 -23.185  1.00  0.00     0.187 C 
HETATM   38  C21 UNL     1     -40.911  18.030 -21.925  1.00  0.00     0.151 C 
ENDBRANCH   7  33
TORSDOF 10
ENDMDL
MODEL 3
REMARK VINA RESULT: -7.834276115      1.113      1.204
REMARK  10 active torsions:
REMARK  status: ('A' for Active; 'I' for Inactive)
REMARK    1  A    between atoms: C2_2  and  N1_3 
REMARK       I    between atoms: N1_3  and  C3_5 
REMARK       I    between atoms: C3_5  and  N2_7 
REMARK    2  A    between atoms: N2_7  and  C4_9 
REMARK    3  A    between atoms: C5_12  and  N4_13 
REMARK    4  A    between atoms: C8_16  and  C9_17 
REMARK    5  A    between atoms: C8_16  and  C11_19 
REMARK    6  A    between atoms: C11_19  and  C12_20 
REMARK    7  A    between atoms: C12_20  and  C13_21 
REMARK    8  A    between atoms: C13_21  and  C14_22 
REMARK    9  A    between atoms: C14_22  and  N5_23 
REMARK   10  A    between atoms: C17_30  and  N6_31 
ROOT
HETATM    1  C4  UNL     1     -41.955  17.294 -22.212  1.00  0.00     0.689 A 
HETATM    2  N3  UNL     1     -43.196  16.779 -22.275  1.00  0.00    -0.173 N 
ATOM      3  H3  UNL     1     -43.850  17.156 -22.961  1.00  0.00     0.186 HD
HETATM    4  C5  UNL     1     -43.606  15.787 -21.469  1.00  0.00     0.162 A 
HETATM    5  C16 UNL     1     -42.695  15.314 -20.563  1.00  0.00     0.204 A 
HETATM    6  F1  UNL     1     -42.995  14.327 -19.713  1.00  0.00    -0.198 F 
HETATM    7  C17 UNL     1     -41.404  15.839 -20.486  1.00  0.00     0.162 A 
HETATM    8  N7  UNL     1     -41.058  16.827 -21.319  1.00  0.00    -0.173 N 
ATOM      9  H7  UNL     1     -40.120  17.226 -21.280  1.00  0.00     0.186 HD
ENDROOT
BRANCH   4  10
HETATM   10  N4  UNL     1     -44.924  15.221 -21.509  1.00  0.00    -0.363 N 
HETATM   11  C6  UNL     1     -45.222  14.125 -22.429  1.00  0.00     0.125 C 
HETATM   12  C7  UNL     1     -46.459  13.523 -21.857  1.00  0.00     0.031 C 
HETATM   13  C8  UNL     1     -47.234  14.688 -21.275  1.00  0.00    -0.023 C 
HETATM   14  C15 UNL     1     -46.061  15.585 -20.745  1.00  0.00     0.134 C 
BRANCH  13  15
HETATM   15  C9  UNL     1     -48.030  14.332 -20.076  1.00  0.00     0.007 C 
HETATM   16  C10 UNL     1     -47.142  14.100 -18.869  1.00  0.00     0.006 C 
ENDBRANCH  13  15
BRANCH  13  17
HETATM   17  C11 UNL     1     -47.876  15.511 -22.312  1.00  0.00     0.011 C 
BRANCH  17  18
HETATM   18  C12 UNL     1     -49.171  16.159 -22.097  1.00  0.00     0.002 C 
BRANCH  18  19
HETATM   19  C13 UNL     1     -50.324  15.686 -22.929  1.00  0.00     0.027 C 
BRANCH  19  20
HETATM   20  C14 UNL     1     -51.179  14.760 -22.050  1.00  0.00     0.229 C 
BRANCH  20  21
HETATM   21  N5  UNL     1     -50.881  13.377 -22.318  1.00  0.00    -0.079 N 
ATOM     22  H53 UNL     1     -50.086  13.050 -21.770  1.00  0.00     0.274 HD
ATOM     23  H52 UNL     1     -51.595  12.756 -21.937  1.00  0.00     0.274 HD
ATOM     24  H51 UNL     1     -50.740  13.221 -23.317  1.00  0.00     0.274 HD
ENDBRANCH  20  21
ENDBRANCH  19  20
ENDBRANCH  18  19
ENDBRANCH  17  18
ENDBRANCH  13  17
ENDBRANCH   4  10
BRANCH   1  25
HETATM   25  N2  UNL     1     -41.558  18.247 -22.986  1.00  0.00    -0.141 N 
HETATM   26  C3  UNL     1     -42.307  18.746 -24.070  1.00  0.00     0.334 C 
HETATM   27  N1  UNL     1     -42.254  18.163 -25.349  1.00  0.00    -0.343 N 
HETATM   28  O1  UNL     1     -43.044  19.745 -23.884  1.00  0.00    -0.247 OA
ATOM     29  H1  UNL     1     -41.652  17.352 -25.494  1.00  0.00     0.164 HD
ATOM     30  H2  UNL     1     -40.646  18.665 -22.802  1.00  0.00     0.189 HD
BRANCH  27  31
HETATM   31  C2  UNL     1     -43.023  18.671 -26.476  1.00  0.00     0.120 C 
HETATM   32  C1  UNL     1     -43.751  17.571 -27.189  1.00  0.00     0.026 C 
ENDBRANCH  27  31
ENDBRANCH   1  25
BRANCH   7  33
HETATM   33  N6  UNL     1     -40.442  15.366 -19.559  1.00  0.00    -0.360 N 
HETATM   34  C18 UNL     1     -40.180  16.193 -18.400  1.00  0.00     0.151 C 
HETATM   35  C19 UNL     1     -39.362  15.492 -17.360  1.00  0.00     0.187 C 
HETATM   36  O2  UNL     1     -38.524  14.528 -17.914  1.00  0.00    -0.388 OA
HETATM   37  C20 UNL     1     -39.298  13.538 -18.526  1.00  0.00     0.187 C 
HETATM   38  C21 UNL     1     -39.797  14.114 -19.827  1.00  0.00     0.151 C 
ENDBRANCH   7  33
TORSDOF 10
ENDMDL
MODEL 4
REMARK VINA RESULT: -7.702350929      1.688      1.719
REMARK  10 active torsions:
REMARK  status: ('A' for Active; 'I' for Inactive)
REMARK    1  A    between atoms: C2_2  and  N1_3 
REMARK       I    between atoms: N1_3  and  C3_5 
REMARK       I    between atoms: C3_5  and  N2_7 
REMARK    2  A    between atoms: N2_7  and  C4_9 
REMARK    3  A    between atoms: C5_12  and  N4_13 
REMARK    4  A    between atoms: C8_16  and  C9_17 
REMARK    5  A    between atoms: C8_16  and  C11_19 
REMARK    6  A    between atoms: C11_19  and  C12_20 
REMARK    7  A    between atoms: C12_20  and  C13_21 
REMARK    8  A    between atoms: C13_21  and  C14_22 
REMARK    9  A    between atoms: C14_22  and  N5_23 
REMARK   10  A    between atoms: C17_30  and  N6_31 
ROOT
HETATM    1  C4  UNL     1     -41.525  17.050 -21.988  1.00  0.00     0.689 A 
HETATM    2  N3  UNL     1     -42.789  16.601 -22.088  1.00  0.00    -0.173 N 
ATOM      3  H3  UNL     1     -43.389  16.981 -22.819  1.00  0.00     0.186 HD
HETATM    4  C5  UNL     1     -43.290  15.670 -21.261  1.00  0.00     0.162 A 
HETATM    5  C16 UNL     1     -42.449  15.189 -20.293  1.00  0.00     0.204 A 
HETATM    6  F1  UNL     1     -42.842  14.259 -19.416  1.00  0.00    -0.198 F 
HETATM    7  C17 UNL     1     -41.135  15.647 -20.177  1.00  0.00     0.162 A 
HETATM    8  N7  UNL     1     -40.697  16.576 -21.034  1.00  0.00    -0.173 N 
ATOM      9  H7  UNL     1     -39.741  16.924 -20.967  1.00  0.00     0.186 HD
ENDROOT
BRANCH   4  10
HETATM   10  N4  UNL     1     -44.634  15.175 -21.338  1.00  0.00    -0.363 N 
HETATM   11  C6  UNL     1     -44.991  14.181 -22.350  1.00  0.00     0.125 C 
HETATM   12  C7  UNL     1     -46.254  13.592 -21.823  1.00  0.00     0.031 C 
HETATM   13  C8  UNL     1     -46.967  14.737 -21.133  1.00  0.00    -0.023 C 
HETATM   14  C15 UNL     1     -45.749  15.526 -20.536  1.00  0.00     0.134 C 
BRANCH  13  15
HETATM   15  C9  UNL     1     -47.775  14.316 -19.964  1.00  0.00     0.007 C 
HETATM   16  C10 UNL     1     -46.900  14.031 -18.758  1.00  0.00     0.006 C 
ENDBRANCH  13  15
BRANCH  13  17
HETATM   17  C11 UNL     1     -47.572  15.680 -22.087  1.00  0.00     0.011 C 
BRANCH  17  18
HETATM   18  C12 UNL     1     -48.910  16.239 -21.884  1.00  0.00     0.002 C 
BRANCH  18  19
HETATM   19  C13 UNL     1     -49.987  15.808 -22.832  1.00  0.00     0.027 C 
BRANCH  19  20
HETATM   20  C14 UNL     1     -50.884  14.806 -22.088  1.00  0.00     0.229 C 
BRANCH  20  21
HETATM   21  N5  UNL     1     -50.435  13.454 -22.304  1.00  0.00    -0.079 N 
ATOM     22  H53 UNL     1     -51.188  12.857 -22.644  1.00  0.00     0.274 HD
ATOM     23  H52 UNL     1     -49.812  13.389 -23.109  1.00  0.00     0.274 HD
ATOM     24  H51 UNL     1     -50.003  13.074 -21.462  1.00  0.00     0.274 HD
ENDBRANCH  20  21
ENDBRANCH  19  20
ENDBRANCH  18  19
ENDBRANCH  17  18
ENDBRANCH  13  17
ENDBRANCH   4  10
BRANCH   1  25
HETATM   25  N2  UNL     1     -41.040  17.944 -22.782  1.00  0.00    -0.141 N 
HETATM   26  C3  UNL     1     -41.012  17.821 -24.185  1.00  0.00     0.334 C 
HETATM   27  N1  UNL     1     -39.966  17.164 -24.858  1.00  0.00    -0.343 N 
HETATM   28  O1  UNL     1     -41.953  18.314 -24.853  1.00  0.00    -0.247 OA
ATOM     29  H1  UNL     1     -39.204  16.766 -24.310  1.00  0.00     0.164 HD
ATOM     30  H2  UNL     1     -40.654  18.793 -22.368  1.00  0.00     0.189 HD
BRANCH  27  31
HETATM   31  C2  UNL     1     -39.927  17.031 -26.307  1.00  0.00     0.120 C 
HETATM   32  C1  UNL     1     -38.639  16.418 -26.772  1.00  0.00     0.026 C 
ENDBRANCH  27  31
ENDBRANCH   1  25
BRANCH   7  33
HETATM   33  N6  UNL     1     -40.244  15.164 -19.186  1.00  0.00    -0.360 N 
HETATM   34  C18 UNL     1     -39.930  16.057 -18.090  1.00  0.00     0.151 C 
HETATM   35  C19 UNL     1     -39.206  15.372 -16.973  1.00  0.00     0.187 C 
HETATM   36  O2  UNL     1     -38.453  14.291 -17.421  1.00  0.00    -0.388 OA
HETATM   37  C20 UNL     1     -39.305  13.330 -17.974  1.00  0.00     0.187 C 
HETATM   38  C21 UNL     1     -39.716  13.839 -19.332  1.00  0.00     0.151 C 
ENDBRANCH   7  33
TORSDOF 10
ENDMDL
MODEL 5
REMARK VINA RESULT: -7.669760687      1.428      1.550
REMARK  10 active torsions:
REMARK  status: ('A' for Active; 'I' for Inactive)
REMARK    1  A    between atoms: C2_2  and  N1_3 
REMARK       I    between atoms: N1_3  and  C3_5 
REMARK       I    between atoms: C3_5  and  N2_7 
REMARK    2  A    between atoms: N2_7  and  C4_9 
REMARK    3  A    between atoms: C5_12  and  N4_13 
REMARK    4  A    between atoms: C8_16  and  C9_17 
REMARK    5  A    between atoms: C8_16  and  C11_19 
REMARK    6  A    between atoms: C11_19  and  C12_20 
REMARK    7  A    between atoms: C12_20  and  C13_21 
REMARK    8  A    between atoms: C13_21  and  C14_22 
REMARK    9  A    between atoms: C14_22  and  N5_23 
REMARK   10  A    between atoms: C17_30  and  N6_31 
ROOT
HETATM    1  C4  UNL     1     -41.495  15.919 -23.116  1.00  0.00     0.689 A 
HETATM    2  N3  UNL     1     -42.799  15.604 -23.013  1.00  0.00    -0.173 N 
ATOM      3  H3  UNL     1     -43.384  15.656 -23.846  1.00  0.00     0.186 HD
HETATM    4  C5  UNL     1     -43.357  15.223 -21.853  1.00  0.00     0.162 A 
HETATM    5  C16 UNL     1     -42.533  15.170 -20.761  1.00  0.00     0.204 A 
HETATM    6  F1  UNL     1     -42.984  14.803 -19.557  1.00  0.00    -0.198 F 
HETATM    7  C17 UNL     1     -41.180  15.495 -20.854  1.00  0.00     0.162 A 
HETATM    8  N7  UNL     1     -40.684  15.866 -22.039  1.00  0.00    -0.173 N 
ATOM      9  H7  UNL     1     -39.697  16.109 -22.130  1.00  0.00     0.186 HD
ENDROOT
BRANCH   4  10
HETATM   10  N4  UNL     1     -44.744  14.886 -21.710  1.00  0.00    -0.363 N 
HETATM   11  C6  UNL     1     -45.333  13.840 -22.545  1.00  0.00     0.125 C 
HETATM   12  C7  UNL     1     -46.570  13.465 -21.804  1.00  0.00     0.031 C 
HETATM   13  C8  UNL     1     -47.062  14.753 -21.176  1.00  0.00    -0.023 C 
HETATM   14  C15 UNL     1     -45.701  15.450 -20.828  1.00  0.00     0.134 C 
BRANCH  13  15
HETATM   15  C9  UNL     1     -47.748  14.556 -19.877  1.00  0.00     0.007 C 
HETATM   16  C10 UNL     1     -46.790  14.054 -18.814  1.00  0.00     0.006 C 
ENDBRANCH  13  15
BRANCH  13  17
HETATM   17  C11 UNL     1     -47.687  15.654 -22.158  1.00  0.00     0.011 C 
BRANCH  17  18
HETATM   18  C12 UNL     1     -49.023  16.217 -21.955  1.00  0.00     0.002 C 
BRANCH  18  19
HETATM   19  C13 UNL     1     -50.106  15.774 -22.891  1.00  0.00     0.027 C 
BRANCH  19  20
HETATM   20  C14 UNL     1     -50.448  14.316 -22.545  1.00  0.00     0.229 C 
BRANCH  20  21
HETATM   21  N5  UNL     1     -51.134  14.234 -21.281  1.00  0.00    -0.079 N 
ATOM     22  H53 UNL     1     -51.611  13.340 -21.169  1.00  0.00     0.274 HD
ATOM     23  H52 UNL     1     -50.479  14.158 -20.503  1.00  0.00     0.274 HD
ATOM     24  H51 UNL     1     -51.772  15.021 -21.161  1.00  0.00     0.274 HD
ENDBRANCH  20  21
ENDBRANCH  19  20
ENDBRANCH  18  19
ENDBRANCH  17  18
ENDBRANCH  13  17
ENDBRANCH   4  10
BRANCH   1  25
HETATM   25  N2  UNL     1     -40.954  16.285 -24.230  1.00  0.00    -0.141 N 
HETATM   26  C3  UNL     1     -41.108  17.565 -24.797  1.00  0.00     0.334 C 
HETATM   27  N1  UNL     1     -42.196  17.891 -25.627  1.00  0.00    -0.343 N 
HETATM   28  O1  UNL     1     -40.243  18.441 -24.553  1.00  0.00    -0.247 OA
ATOM     29  H1  UNL     1     -42.896  17.175 -25.822  1.00  0.00     0.164 HD
ATOM     30  H2  UNL     1     -40.381  15.605 -24.730  1.00  0.00     0.189 HD
BRANCH  27  31
HETATM   31  C2  UNL     1     -42.365  19.210 -26.218  1.00  0.00     0.120 C 
HETATM   32  C1  UNL     1     -43.281  20.071 -25.400  1.00  0.00     0.026 C 
ENDBRANCH  27  31
ENDBRANCH   1  25
BRANCH   7  33
HETATM   33  N6  UNL     1     -40.305  15.446 -19.739  1.00  0.00    -0.360 N 
HETATM   34  C18 UNL     1     -40.418  16.511 -18.764  1.00  0.00     0.151 C 
HETATM   35  C19 UNL     1     -39.653  16.232 -17.508  1.00  0.00     0.187 C 
HETATM   36  O2  UNL     1     -38.551  15.412 -17.736  1.00  0.00    -0.388 OA
HETATM   37  C20 UNL     1     -38.987  14.170 -18.206  1.00  0.00     0.187 C 
HETATM   38  C21 UNL     1     -39.375  14.359 -19.650  1.00  0.00     0.151 C 
ENDBRANCH   7  33
TORSDOF 10
ENDMDL
