MODEL 1
REMARK VINA RESULT: -6.902227264      0.000      0.000
REMARK  4 active torsions:
REMARK  status: ('A' for Active; 'I' for Inactive)
REMARK    1  A    between atoms: C5_6  and  O2_7 
REMARK    2  A    between atoms: C8_11  and  C10_13 
REMARK    3  A    between atoms: C10_13  and  O3_14 
REMARK    4  A    between atoms: C11_16  and  O4_18 
ROOT
HETATM    1  C1  UNL     1     -12.041  -4.099  31.295  1.00  0.00     0.016 C 
HETATM    2  C2  UNL     1     -13.538  -4.074  31.230  1.00  0.00    -0.034 C 
HETATM    3  C3  UNL     1     -14.085  -2.992  32.134  1.00  0.00     0.042 C 
HETATM    4  C4  UNL     1     -15.360  -2.517  31.475  1.00  0.00     0.134 C 
HETATM    5  O1  UNL     1     -15.404  -1.169  31.159  1.00  0.00    -0.355 OA
HETATM    6  C5  UNL     1     -14.900  -1.426  29.908  1.00  0.00     0.264 C 
HETATM    7  C6  UNL     1     -15.242  -2.895  30.026  1.00  0.00     0.075 C 
HETATM    8  C7  UNL     1     -14.066  -3.765  29.843  1.00  0.00     0.018 C 
HETATM    9  C8  UNL     1     -14.323  -5.084  29.199  1.00  0.00     0.013 C 
HETATM   10  C9  UNL     1     -13.215  -5.313  28.162  1.00  0.00     0.021 C 
HETATM   11  C11 UNL     1     -14.321  -6.135  30.264  1.00  0.00     0.065 C 
HETATM   12  C12 UNL     1     -13.298  -7.203  29.965  1.00  0.00     0.047 C 
HETATM   13  C13 UNL     1     -14.090  -5.438  31.558  1.00  0.00     0.048 C 
ENDROOT
BRANCH   9  14
HETATM   14  C10 UNL     1     -15.625  -5.154  28.445  1.00  0.00     0.176 C 
BRANCH  14  15
HETATM   15  O3  UNL     1     -15.666  -6.201  27.532  1.00  0.00    -0.400 OA
ATOM     16  H3  UNL     1     -16.512  -6.633  27.504  1.00  0.00     0.209 HD
ENDBRANCH  14  15
ENDBRANCH   9  14
BRANCH  11  17
HETATM   17  O4  UNL     1     -15.565  -6.797  30.350  1.00  0.00    -0.389 OA
ATOM     18  H4  UNL     1     -15.802  -6.987  31.250  1.00  0.00     0.210 HD
ENDBRANCH  11  17
BRANCH   6  19
HETATM   19  O2  UNL     1     -15.529  -0.787  28.842  1.00  0.00    -0.371 OA
ATOM     20  H2  UNL     1     -15.102  -0.855  27.996  1.00  0.00     0.212 HD
ENDBRANCH   6  19
TORSDOF 4
ENDMDL
MODEL 2
REMARK VINA RESULT: -6.471990340      1.727      2.075
REMARK  4 active torsions:
REMARK  status: ('A' for Active; 'I' for Inactive)
REMARK    1  A    between atoms: C5_6  and  O2_7 
REMARK    2  A    between atoms: C8_11  and  C10_13 
REMARK    3  A    between atoms: C10_13  and  O3_14 
REMARK    4  A    between atoms: C11_16  and  O4_18 
ROOT
HETATM    1  C1  UNL     1     -13.684  -2.542  30.347  1.00  0.00     0.016 C 
HETATM    2  C2  UNL     1     -14.895  -3.414  30.485  1.00  0.00    -0.034 C 
HETATM    3  C3  UNL     1     -16.101  -2.584  30.864  1.00  0.00     0.042 C 
HETATM    4  C4  UNL     1     -17.288  -3.283  30.245  1.00  0.00     0.134 C 
HETATM    5  O1  UNL     1     -18.037  -2.523  29.360  1.00  0.00    -0.355 OA
HETATM    6  C5  UNL     1     -17.275  -2.966  28.306  1.00  0.00     0.264 C 
HETATM    7  C6  UNL     1     -16.738  -4.119  29.125  1.00  0.00     0.075 C 
HETATM    8  C7  UNL     1     -15.266  -4.122  29.197  1.00  0.00     0.018 C 
HETATM    9  C8  UNL     1     -14.617  -5.462  29.265  1.00  0.00     0.013 C 
HETATM   10  C9  UNL     1     -13.421  -5.444  28.303  1.00  0.00     0.021 C 
HETATM   11  C11 UNL     1     -14.196  -5.709  30.678  1.00  0.00     0.065 C 
HETATM   12  C12 UNL     1     -12.716  -5.988  30.759  1.00  0.00     0.047 C 
HETATM   13  C13 UNL     1     -14.621  -4.523  31.469  1.00  0.00     0.048 C 
ENDROOT
BRANCH   9  14
HETATM   14  C10 UNL     1     -15.502  -6.594  28.812  1.00  0.00     0.176 C 
BRANCH  14  15
HETATM   15  O3  UNL     1     -15.449  -6.807  27.440  1.00  0.00    -0.400 OA
ATOM     16  H3  UNL     1     -15.514  -6.003  26.939  1.00  0.00     0.209 HD
ENDBRANCH  14  15
ENDBRANCH   9  14
BRANCH  11  17
HETATM   17  O4  UNL     1     -14.839  -6.841  31.226  1.00  0.00    -0.389 OA
ATOM     18  H4  UNL     1     -15.775  -6.826  31.068  1.00  0.00     0.210 HD
ENDBRANCH  11  17
BRANCH   6  19
HETATM   19  O2  UNL     1     -17.968  -3.363  27.165  1.00  0.00    -0.371 OA
ATOM     20  H2  UNL     1     -17.582  -3.122  26.331  1.00  0.00     0.212 HD
ENDBRANCH   6  19
TORSDOF 4
ENDMDL
MODEL 3
REMARK VINA RESULT: -6.248346339      1.932      3.457
REMARK  4 active torsions:
REMARK  status: ('A' for Active; 'I' for Inactive)
REMARK    1  A    between atoms: C5_6  and  O2_7 
REMARK    2  A    between atoms: C8_11  and  C10_13 
REMARK    3  A    between atoms: C10_13  and  O3_14 
REMARK    4  A    between atoms: C11_16  and  O4_18 
ROOT
HETATM    1  C1  UNL     1     -14.698  -0.990  29.786  1.00  0.00     0.016 C 
HETATM    2  C2  UNL     1     -15.316  -2.194  30.428  1.00  0.00    -0.034 C 
HETATM    3  C3  UNL     1     -16.825  -2.097  30.384  1.00  0.00     0.042 C 
HETATM    4  C4  UNL     1     -17.322  -3.520  30.291  1.00  0.00     0.134 C 
HETATM    5  O1  UNL     1     -18.103  -3.810  29.183  1.00  0.00    -0.355 OA
HETATM    6  C5  UNL     1     -16.990  -4.193  28.475  1.00  0.00     0.264 C 
HETATM    7  C6  UNL     1     -16.177  -4.323  29.744  1.00  0.00     0.075 C 
HETATM    8  C7  UNL     1     -14.962  -3.489  29.723  1.00  0.00     0.018 C 
HETATM    9  C8  UNL     1     -13.779  -4.037  30.445  1.00  0.00     0.013 C 
HETATM   10  C9  UNL     1     -12.551  -3.819  29.549  1.00  0.00     0.021 C 
HETATM   11  C11 UNL     1     -13.654  -3.323  31.752  1.00  0.00     0.065 C 
HETATM   12  C12 UNL     1     -12.299  -2.671  31.883  1.00  0.00     0.047 C 
HETATM   13  C13 UNL     1     -14.785  -2.360  31.829  1.00  0.00     0.048 C 
ENDROOT
BRANCH   9  14
HETATM   14  C10 UNL     1     -13.853  -5.520  30.702  1.00  0.00     0.176 C 
BRANCH  14  15
HETATM   15  O3  UNL     1     -12.602  -6.106  30.853  1.00  0.00    -0.400 OA
ATOM     16  H3  UNL     1     -12.549  -6.673  31.613  1.00  0.00     0.209 HD
ENDBRANCH  14  15
ENDBRANCH   9  14
BRANCH  11  17
HETATM   17  O4  UNL     1     -13.770  -4.208  32.847  1.00  0.00    -0.389 OA
ATOM     18  H4  UNL     1     -13.982  -3.748  33.650  1.00  0.00     0.210 HD
ENDBRANCH  11  17
BRANCH   6  19
HETATM   19  O2  UNL     1     -17.095  -5.379  27.752  1.00  0.00    -0.371 OA
ATOM     20  H2  UNL     1     -16.326  -5.643  27.260  1.00  0.00     0.212 HD
ENDBRANCH   6  19
TORSDOF 4
ENDMDL
MODEL 4
REMARK VINA RESULT: -6.169541064      1.947      3.586
REMARK  4 active torsions:
REMARK  status: ('A' for Active; 'I' for Inactive)
REMARK    1  A    between atoms: C5_6  and  O2_7 
REMARK    2  A    between atoms: C8_11  and  C10_13 
REMARK    3  A    between atoms: C10_13  and  O3_14 
REMARK    4  A    between atoms: C11_16  and  O4_18 
ROOT
HETATM    1  C1  UNL     1     -13.902  -1.698  30.126  1.00  0.00     0.016 C 
HETATM    2  C2  UNL     1     -14.928  -2.650  30.662  1.00  0.00    -0.034 C 
HETATM    3  C3  UNL     1     -16.292  -2.327  30.093  1.00  0.00     0.042 C 
HETATM    4  C4  UNL     1     -17.022  -3.648  30.013  1.00  0.00     0.134 C 
HETATM    5  O1  UNL     1     -17.461  -4.014  28.751  1.00  0.00    -0.355 OA
HETATM    6  C5  UNL     1     -16.289  -4.692  28.520  1.00  0.00     0.264 C 
HETATM    7  C6  UNL     1     -15.958  -4.708  29.995  1.00  0.00     0.075 C 
HETATM    8  C7  UNL     1     -14.652  -4.092  30.287  1.00  0.00     0.018 C 
HETATM    9  C8  UNL     1     -13.895  -4.675  31.432  1.00  0.00     0.013 C 
HETATM   10  C9  UNL     1     -12.432  -4.822  30.991  1.00  0.00     0.021 C 
HETATM   11  C11 UNL     1     -14.037  -3.757  32.604  1.00  0.00     0.065 C 
HETATM   12  C12 UNL     1     -12.686  -3.312  33.108  1.00  0.00     0.047 C 
HETATM   13  C13 UNL     1     -14.908  -2.631  32.169  1.00  0.00     0.048 C 
ENDROOT
BRANCH   9  14
HETATM   14  C10 UNL     1     -14.355  -6.053  31.832  1.00  0.00     0.176 C 
BRANCH  14  15
HETATM   15  O3  UNL     1     -13.437  -6.716  32.638  1.00  0.00    -0.400 OA
ATOM     16  H3  UNL     1     -13.521  -7.661  32.592  1.00  0.00     0.209 HD
ENDBRANCH  14  15
ENDBRANCH   9  14
BRANCH  11  17
HETATM   17  O4  UNL     1     -14.672  -4.392  33.694  1.00  0.00    -0.389 OA
ATOM     18  H4  UNL     1     -15.331  -3.836  34.091  1.00  0.00     0.210 HD
ENDBRANCH  11  17
BRANCH   6  19
HETATM   19  O2  UNL     1     -16.408  -5.961  27.957  1.00  0.00    -0.371 OA
ATOM     20  H2  UNL     1     -15.778  -6.185  27.282  1.00  0.00     0.212 HD
ENDBRANCH   6  19
TORSDOF 4
ENDMDL
MODEL 5
REMARK VINA RESULT: -6.165013562      1.458      4.151
REMARK  4 active torsions:
REMARK  status: ('A' for Active; 'I' for Inactive)
REMARK    1  A    between atoms: C5_6  and  O2_7 
REMARK    2  A    between atoms: C8_11  and  C10_13 
REMARK    3  A    between atoms: C10_13  and  O3_14 
REMARK    4  A    between atoms: C11_16  and  O4_18 
ROOT
HETATM    1  C1  UNL     1     -14.130  -6.646  31.940  1.00  0.00     0.016 C 
HETATM    2  C2  UNL     1     -13.644  -5.960  30.700  1.00  0.00    -0.034 C 
HETATM    3  C3  UNL     1     -13.579  -6.938  29.548  1.00  0.00     0.042 C 
HETATM    4  C4  UNL     1     -13.859  -6.124  28.306  1.00  0.00     0.134 C 
HETATM    5  O1  UNL     1     -14.948  -6.534  27.554  1.00  0.00    -0.355 OA
HETATM    6  C5  UNL     1     -15.773  -5.684  28.250  1.00  0.00     0.264 C 
HETATM    7  C6  UNL     1     -14.591  -4.898  28.772  1.00  0.00     0.075 C 
HETATM    8  C7  UNL     1     -14.558  -4.840  30.244  1.00  0.00     0.018 C 
HETATM    9  C8  UNL     1     -14.003  -3.590  30.838  1.00  0.00     0.013 C 
HETATM   10  C9  UNL     1     -14.928  -3.177  31.991  1.00  0.00     0.021 C 
HETATM   11  C11 UNL     1     -12.611  -3.872  31.307  1.00  0.00     0.065 C 
HETATM   12  C12 UNL     1     -12.466  -3.562  32.777  1.00  0.00     0.047 C 
HETATM   13  C13 UNL     1     -12.320  -5.291  30.968  1.00  0.00     0.048 C 
ENDROOT
BRANCH   9  14
HETATM   14  C10 UNL     1     -13.971  -2.423  29.886  1.00  0.00     0.176 C 
BRANCH  14  15
HETATM   15  O3  UNL     1     -14.317  -1.221  30.492  1.00  0.00    -0.400 OA
ATOM     16  H3  UNL     1     -14.052  -0.462  29.986  1.00  0.00     0.209 HD
ENDBRANCH  14  15
ENDBRANCH   9  14
BRANCH  11  17
HETATM   17  O4  UNL     1     -11.660  -3.068  30.641  1.00  0.00    -0.389 OA
ATOM     18  H4  UNL     1     -11.634  -2.187  30.995  1.00  0.00     0.210 HD
ENDBRANCH  11  17
BRANCH   6  19
HETATM   19  O2  UNL     1     -16.662  -4.926  27.492  1.00  0.00    -0.371 OA
ATOM     20  H2  UNL     1     -17.078  -4.195  27.934  1.00  0.00     0.212 HD
ENDBRANCH   6  19
TORSDOF 4
ENDMDL
