MODEL 1
REMARK VINA RESULT: -6.733990233      0.000      0.000
REMARK  7 active torsions:
REMARK  status: ('A' for Active; 'I' for Inactive)
REMARK    1  A    between atoms: C2_2  and  C3_3 
REMARK       I    between atoms: C3_3  and  N1_5 
REMARK    2  A    between atoms: N1_5  and  O2_7 
REMARK    3  A    between atoms: N4_14  and  C6_15 
REMARK    4  A    between atoms: C7_18  and  N6_19 
REMARK    5  A    between atoms: N6_19  and  C8_21 
REMARK    6  A    between atoms: C8_21  and  C9_22 
REMARK    7  A    between atoms: C9_22  and  N7_23 
ROOT
HETATM    1  C6  UNL     1      31.560  38.885   8.685  1.00  0.00     0.691 A 
HETATM    2  N5  UNL     1      31.659  40.168   8.294  1.00  0.00    -0.174 N 
ATOM      3  H5  UNL     1      32.078  40.836   8.941  1.00  0.00     0.186 HD
HETATM    4  C7  UNL     1      31.238  40.622   7.101  1.00  0.00     0.144 A 
HETATM    5  C10 UNL     1      30.665  39.749   6.195  1.00  0.00     0.132 A 
HETATM    6  N8  UNL     1      30.220  40.227   4.932  1.00  0.00    -0.095 NA
HETATM    7  C11 UNL     1      30.554  38.427   6.575  1.00  0.00     0.159 A 
HETATM    8  N9  UNL     1      29.964  37.530   5.644  1.00  0.00    -0.080 NA
HETATM    9  N10 UNL     1      30.993  38.035   7.782  1.00  0.00    -0.176 N 
ATOM     10  H10 UNL     1      30.898  37.052   8.036  1.00  0.00     0.185 HD
ENDROOT
BRANCH   1  11
HETATM   11  N4  UNL     1      32.013  38.436   9.950  1.00  0.00    -0.135 N 
HETATM   12  C2  UNL     1      31.722  38.915  11.283  1.00  0.00     0.152 C 
HETATM   13  C1  UNL     1      30.386  39.617  11.350  1.00  0.00     0.052 C 
HETATM   14  C4  UNL     1      31.702  37.600  12.035  1.00  0.00     0.164 C 
HETATM   15  N2  UNL     1      32.737  36.864  11.351  1.00  0.00    -0.361 N 
HETATM   16  C5  UNL     1      32.905  37.341  10.168  1.00  0.00     0.206 C 
ATOM     17  H2  UNL     1      33.257  36.081  11.746  1.00  0.00     0.162 HD
HETATM   18  N3  UNL     1      33.864  36.826   9.234  1.00  0.00    -0.063 NA
BRANCH  12  19
HETATM   19  C3  UNL     1      32.796  39.736  11.867  1.00  0.00     0.272 C 
HETATM   20  O1  UNL     1      33.517  39.249  12.801  1.00  0.00    -0.268 OA
HETATM   21  N1  UNL     1      33.110  41.059  11.471  1.00  0.00    -0.235 N 
ATOM     22  H1  UNL     1      32.559  41.487  10.728  1.00  0.00     0.197 HD
BRANCH  21  23
HETATM   23  O2  UNL     1      34.103  41.778  12.031  1.00  0.00    -0.287 OA
ATOM     24  H2  UNL     1      34.151  42.724  11.975  1.00  0.00     0.244 HD
ENDBRANCH  21  23
ENDBRANCH  12  19
ENDBRANCH   1  11
BRANCH   4  25
HETATM   25  N6  UNL     1      31.349  41.876   6.754  1.00  0.00    -0.373 N 
ATOM     26  H6  UNL     1      31.364  42.157   5.773  1.00  0.00     0.161 HD
BRANCH  25  27
HETATM   27  C8  UNL     1      31.451  42.849   7.814  1.00  0.00     0.148 C 
BRANCH  27  28
HETATM   28  C9  UNL     1      32.556  43.854   7.586  1.00  0.00     0.249 C 
BRANCH  28  29
HETATM   29  N7  UNL     1      33.796  43.249   7.224  1.00  0.00    -0.078 N 
ATOM     30  H73 UNL     1      34.579  43.731   7.666  1.00  0.00     0.274 HD
ATOM     31  H72 UNL     1      33.896  42.334   7.662  1.00  0.00     0.274 HD
ATOM     32  H71 UNL     1      33.931  43.186   6.215  1.00  0.00     0.274 HD
ENDBRANCH  28  29
ENDBRANCH  27  28
ENDBRANCH  25  27
ENDBRANCH   4  25
TORSDOF 7
ENDMDL
MODEL 2
REMARK VINA RESULT: -6.581876742      3.934      6.406
REMARK  7 active torsions:
REMARK  status: ('A' for Active; 'I' for Inactive)
REMARK    1  A    between atoms: C2_2  and  C3_3 
REMARK       I    between atoms: C3_3  and  N1_5 
REMARK    2  A    between atoms: N1_5  and  O2_7 
REMARK    3  A    between atoms: N4_14  and  C6_15 
REMARK    4  A    between atoms: C7_18  and  N6_19 
REMARK    5  A    between atoms: N6_19  and  C8_21 
REMARK    6  A    between atoms: C8_21  and  C9_22 
REMARK    7  A    between atoms: C9_22  and  N7_23 
ROOT
HETATM    1  C6  UNL     1      29.611  40.909   4.215  1.00  0.00     0.691 A 
HETATM    2  N5  UNL     1      29.581  40.028   3.198  1.00  0.00    -0.174 N 
ATOM      3  H5  UNL     1      29.660  39.036   3.420  1.00  0.00     0.186 HD
HETATM    4  C7  UNL     1      29.453  40.379   1.907  1.00  0.00     0.144 A 
HETATM    5  C10 UNL     1      29.343  41.714   1.563  1.00  0.00     0.132 A 
HETATM    6  N8  UNL     1      29.208  42.087   0.199  1.00  0.00    -0.095 NA
HETATM    7  C11 UNL     1      29.371  42.635   2.590  1.00  0.00     0.159 A 
HETATM    8  N9  UNL     1      29.259  44.006   2.238  1.00  0.00    -0.080 NA
HETATM    9  N10 UNL     1      29.502  42.221   3.862  1.00  0.00    -0.176 N 
ATOM     10  H10 UNL     1      29.519  42.924   4.600  1.00  0.00     0.185 HD
ENDROOT
BRANCH   1  11
HETATM   11  N4  UNL     1      29.746  40.508   5.567  1.00  0.00    -0.135 N 
HETATM   12  C2  UNL     1      29.899  41.290   6.774  1.00  0.00     0.152 C 
HETATM   13  C1  UNL     1      29.318  42.676   6.624  1.00  0.00     0.052 C 
HETATM   14  C4  UNL     1      29.092  40.444   7.737  1.00  0.00     0.164 C 
HETATM   15  N2  UNL     1      29.386  39.113   7.264  1.00  0.00    -0.361 N 
HETATM   16  C5  UNL     1      29.752  39.157   6.032  1.00  0.00     0.206 C 
ATOM     17  H2  UNL     1      29.313  38.263   7.824  1.00  0.00     0.162 HD
HETATM   18  N3  UNL     1      30.114  37.997   5.271  1.00  0.00    -0.063 NA
BRANCH  12  19
HETATM   19  C3  UNL     1      31.281  41.333   7.282  1.00  0.00     0.272 C 
HETATM   20  O1  UNL     1      31.646  40.492   8.171  1.00  0.00    -0.268 OA
HETATM   21  N1  UNL     1      32.271  42.253   6.859  1.00  0.00    -0.235 N 
ATOM     22  H1  UNL     1      32.022  42.943   6.151  1.00  0.00     0.197 HD
BRANCH  21  23
HETATM   23  O2  UNL     1      33.526  42.259   7.349  1.00  0.00    -0.287 OA
ATOM     24  H2  UNL     1      34.288  42.051   6.823  1.00  0.00     0.244 HD
ENDBRANCH  21  23
ENDBRANCH  12  19
ENDBRANCH   1  11
BRANCH   4  25
HETATM   25  N6  UNL     1      29.429  39.497   0.945  1.00  0.00    -0.373 N 
ATOM     26  H6  UNL     1      30.231  39.362   0.328  1.00  0.00     0.161 HD
BRANCH  25  27
HETATM   27  C8  UNL     1      28.224  38.720   0.788  1.00  0.00     0.148 C 
BRANCH  27  28
HETATM   28  C9  UNL     1      27.682  38.751  -0.621  1.00  0.00     0.249 C 
BRANCH  28  29
HETATM   29  N7  UNL     1      27.009  39.970  -0.936  1.00  0.00    -0.078 N 
ATOM     30  H73 UNL     1      26.103  39.785  -1.364  1.00  0.00     0.274 HD
ATOM     31  H72 UNL     1      26.700  40.443  -0.087  1.00  0.00     0.274 HD
ATOM     32  H71 UNL     1      27.566  40.595  -1.519  1.00  0.00     0.274 HD
ENDBRANCH  28  29
ENDBRANCH  27  28
ENDBRANCH  25  27
ENDBRANCH   4  25
TORSDOF 7
ENDMDL
MODEL 3
REMARK VINA RESULT: -6.520696352      3.982      5.723
REMARK  7 active torsions:
REMARK  status: ('A' for Active; 'I' for Inactive)
REMARK    1  A    between atoms: C2_2  and  C3_3 
REMARK       I    between atoms: C3_3  and  N1_5 
REMARK    2  A    between atoms: N1_5  and  O2_7 
REMARK    3  A    between atoms: N4_14  and  C6_15 
REMARK    4  A    between atoms: C7_18  and  N6_19 
REMARK    5  A    between atoms: N6_19  and  C8_21 
REMARK    6  A    between atoms: C8_21  and  C9_22 
REMARK    7  A    between atoms: C9_22  and  N7_23 
ROOT
HETATM    1  C6  UNL     1      29.637  40.941   4.295  1.00  0.00     0.691 A 
HETATM    2  N5  UNL     1      29.405  42.209   3.911  1.00  0.00    -0.174 N 
ATOM      3  H5  UNL     1      29.320  42.922   4.634  1.00  0.00     0.186 HD
HETATM    4  C7  UNL     1      29.278  42.591   2.628  1.00  0.00     0.144 A 
HETATM    5  C10 UNL     1      29.385  41.656   1.616  1.00  0.00     0.132 A 
HETATM    6  N8  UNL     1      29.252  42.058   0.259  1.00  0.00    -0.095 NA
HETATM    7  C11 UNL     1      29.624  40.348   1.988  1.00  0.00     0.159 A 
HETATM    8  N9  UNL     1      29.735  39.386   0.948  1.00  0.00    -0.080 NA
HETATM    9  N10 UNL     1      29.741  40.029   3.287  1.00  0.00    -0.176 N 
ATOM     10  H10 UNL     1      29.918  39.055   3.532  1.00  0.00     0.185 HD
ENDROOT
BRANCH   1  11
HETATM   11  N4  UNL     1      29.767  40.569   5.655  1.00  0.00    -0.135 N 
HETATM   12  C2  UNL     1      29.937  41.374   6.844  1.00  0.00     0.152 C 
HETATM   13  C1  UNL     1      29.381  42.768   6.664  1.00  0.00     0.052 C 
HETATM   14  C4  UNL     1      29.116  40.566   7.827  1.00  0.00     0.164 C 
HETATM   15  N2  UNL     1      29.383  39.220   7.385  1.00  0.00    -0.361 N 
HETATM   16  C5  UNL     1      29.748  39.229   6.152  1.00  0.00     0.206 C 
ATOM     17  H2  UNL     1      29.295  38.384   7.963  1.00  0.00     0.162 HD
HETATM   18  N3  UNL     1      30.086  38.045   5.416  1.00  0.00    -0.063 NA
BRANCH  12  19
HETATM   19  C3  UNL     1      31.320  41.403   7.349  1.00  0.00     0.272 C 
HETATM   20  O1  UNL     1      31.672  40.574   8.255  1.00  0.00    -0.268 OA
HETATM   21  N1  UNL     1      32.326  42.296   6.906  1.00  0.00    -0.235 N 
ATOM     22  H1  UNL     1      32.088  42.975   6.184  1.00  0.00     0.197 HD
BRANCH  21  23
HETATM   23  O2  UNL     1      33.581  42.289   7.394  1.00  0.00    -0.287 OA
ATOM     24  H2  UNL     1      34.183  43.017   7.286  1.00  0.00     0.244 HD
ENDBRANCH  21  23
ENDBRANCH  12  19
ENDBRANCH   1  11
BRANCH   4  25
HETATM   25  N6  UNL     1      29.051  43.832   2.291  1.00  0.00    -0.373 N 
ATOM     26  H6  UNL     1      29.723  44.363   1.735  1.00  0.00     0.161 HD
BRANCH  25  27
HETATM   27  C8  UNL     1      27.813  44.424   2.735  1.00  0.00     0.148 C 
BRANCH  27  28
HETATM   28  C9  UNL     1      27.079  45.152   1.633  1.00  0.00     0.249 C 
BRANCH  28  29
HETATM   29  N7  UNL     1      27.298  44.580   0.344  1.00  0.00    -0.078 N 
ATOM     30  H73 UNL     1      28.256  44.739   0.033  1.00  0.00     0.274 HD
ATOM     31  H72 UNL     1      27.305  43.562   0.394  1.00  0.00     0.274 HD
ATOM     32  H71 UNL     1      26.630  44.905  -0.356  1.00  0.00     0.274 HD
ENDBRANCH  28  29
ENDBRANCH  27  28
ENDBRANCH  25  27
ENDBRANCH   4  25
TORSDOF 7
ENDMDL
MODEL 4
REMARK VINA RESULT: -6.509019283      2.749      6.021
REMARK  7 active torsions:
REMARK  status: ('A' for Active; 'I' for Inactive)
REMARK    1  A    between atoms: C2_2  and  C3_3 
REMARK       I    between atoms: C3_3  and  N1_5 
REMARK    2  A    between atoms: N1_5  and  O2_7 
REMARK    3  A    between atoms: N4_14  and  C6_15 
REMARK    4  A    between atoms: C7_18  and  N6_19 
REMARK    5  A    between atoms: N6_19  and  C8_21 
REMARK    6  A    between atoms: C8_21  and  C9_22 
REMARK    7  A    between atoms: C9_22  and  N7_23 
ROOT
HETATM    1  C6  UNL     1      31.473  38.900   9.291  1.00  0.00     0.691 A 
HETATM    2  N5  UNL     1      31.206  39.035  10.602  1.00  0.00    -0.174 N 
ATOM      3  H5  UNL     1      30.483  39.699  10.879  1.00  0.00     0.186 HD
HETATM    4  C7  UNL     1      31.836  38.347  11.570  1.00  0.00     0.144 A 
HETATM    5  C10 UNL     1      32.823  37.438  11.238  1.00  0.00     0.132 A 
HETATM    6  N8  UNL     1      33.491  36.709  12.259  1.00  0.00    -0.095 NA
HETATM    7  C11 UNL     1      33.114  37.282   9.898  1.00  0.00     0.159 A 
HETATM    8  N9  UNL     1      34.128  36.348   9.556  1.00  0.00    -0.080 NA
HETATM    9  N10 UNL     1      32.448  38.000   8.977  1.00  0.00    -0.176 N 
ATOM     10  H10 UNL     1      32.684  37.864   7.994  1.00  0.00     0.185 HD
ENDROOT
BRANCH   1  11
HETATM   11  N4  UNL     1      30.791  39.639   8.294  1.00  0.00    -0.135 N 
HETATM   12  C2  UNL     1      30.412  41.034   8.244  1.00  0.00     0.152 C 
HETATM   13  C1  UNL     1      31.308  41.892   9.106  1.00  0.00     0.052 C 
HETATM   14  C4  UNL     1      30.621  41.309   6.769  1.00  0.00     0.164 C 
HETATM   15  N2  UNL     1      30.215  40.055   6.184  1.00  0.00    -0.361 N 
HETATM   16  C5  UNL     1      30.317  39.113   7.053  1.00  0.00     0.206 C 
ATOM     17  H2  UNL     1      29.894  39.934   5.223  1.00  0.00     0.162 HD
HETATM   18  N3  UNL     1      29.989  37.743   6.780  1.00  0.00    -0.063 NA
BRANCH  12  19
HETATM   19  C3  UNL     1      28.988  41.272   8.536  1.00  0.00     0.272 C 
HETATM   20  O1  UNL     1      28.347  42.140   7.853  1.00  0.00    -0.268 OA
HETATM   21  N1  UNL     1      28.244  40.604   9.538  1.00  0.00    -0.235 N 
ATOM     22  H1  UNL     1      28.717  39.903  10.108  1.00  0.00     0.197 HD
BRANCH  21  23
HETATM   23  O2  UNL     1      26.941  40.851   9.774  1.00  0.00    -0.287 OA
ATOM     24  H2  UNL     1      26.407  40.313  10.346  1.00  0.00     0.244 HD
ENDBRANCH  21  23
ENDBRANCH  12  19
ENDBRANCH   1  11
BRANCH   4  25
HETATM   25  N6  UNL     1      31.552  38.504  12.835  1.00  0.00    -0.373 N 
ATOM     26  H6  UNL     1      32.267  38.776  13.510  1.00  0.00     0.161 HD
BRANCH  25  27
HETATM   27  C8  UNL     1      30.186  38.278  13.239  1.00  0.00     0.148 C 
BRANCH  27  28
HETATM   28  C9  UNL     1      30.026  37.060  14.117  1.00  0.00     0.249 C 
BRANCH  28  29
HETATM   29  N7  UNL     1      31.271  36.462  14.476  1.00  0.00    -0.078 N 
ATOM     30  H73 UNL     1      31.254  36.138  15.443  1.00  0.00     0.274 HD
ATOM     31  H72 UNL     1      31.395  35.568  14.003  1.00  0.00     0.274 HD
ATOM     32  H71 UNL     1      32.070  37.074  14.313  1.00  0.00     0.274 HD
ENDBRANCH  28  29
ENDBRANCH  27  28
ENDBRANCH  25  27
ENDBRANCH   4  25
TORSDOF 7
ENDMDL
MODEL 5
REMARK VINA RESULT: -6.394294808      0.831      1.307
REMARK  7 active torsions:
REMARK  status: ('A' for Active; 'I' for Inactive)
REMARK    1  A    between atoms: C2_2  and  C3_3 
REMARK       I    between atoms: C3_3  and  N1_5 
REMARK    2  A    between atoms: N1_5  and  O2_7 
REMARK    3  A    between atoms: N4_14  and  C6_15 
REMARK    4  A    between atoms: C7_18  and  N6_19 
REMARK    5  A    between atoms: N6_19  and  C8_21 
REMARK    6  A    between atoms: C8_21  and  C9_22 
REMARK    7  A    between atoms: C9_22  and  N7_23 
ROOT
HETATM    1  C6  UNL     1      31.563  38.907   8.683  1.00  0.00     0.691 A 
HETATM    2  N5  UNL     1      31.682  40.186   8.283  1.00  0.00    -0.174 N 
ATOM      3  H5  UNL     1      32.113  40.851   8.924  1.00  0.00     0.186 HD
HETATM    4  C7  UNL     1      31.267  40.638   7.087  1.00  0.00     0.144 A 
HETATM    5  C10 UNL     1      30.678  39.769   6.188  1.00  0.00     0.132 A 
HETATM    6  N8  UNL     1      30.239  40.244   4.923  1.00  0.00    -0.095 NA
HETATM    7  C11 UNL     1      30.547  38.451   6.577  1.00  0.00     0.159 A 
HETATM    8  N9  UNL     1      29.941  37.557   5.654  1.00  0.00    -0.080 NA
HETATM    9  N10 UNL     1      30.982  38.060   7.787  1.00  0.00    -0.176 N 
ATOM     10  H10 UNL     1      30.871  37.080   8.047  1.00  0.00     0.185 HD
ENDROOT
BRANCH   1  11
HETATM   11  N4  UNL     1      32.011  38.460   9.950  1.00  0.00    -0.135 N 
HETATM   12  C2  UNL     1      31.723  38.946  11.281  1.00  0.00     0.152 C 
HETATM   13  C1  UNL     1      30.392  39.660  11.343  1.00  0.00     0.052 C 
HETATM   14  C4  UNL     1      31.691  37.635  12.038  1.00  0.00     0.164 C 
HETATM   15  N2  UNL     1      32.721  36.887  11.358  1.00  0.00    -0.361 N 
HETATM   16  C5  UNL     1      32.894  37.359  10.174  1.00  0.00     0.206 C 
ATOM     17  H2  UNL     1      33.235  36.102  11.757  1.00  0.00     0.162 HD
HETATM   18  N3  UNL     1      33.850  36.832   9.243  1.00  0.00    -0.063 NA
BRANCH  12  19
HETATM   19  C3  UNL     1      32.803  39.761  11.862  1.00  0.00     0.272 C 
HETATM   20  O1  UNL     1      33.528  39.267  12.790  1.00  0.00    -0.268 OA
HETATM   21  N1  UNL     1      33.119  41.085  11.472  1.00  0.00    -0.235 N 
ATOM     22  H1  UNL     1      32.564  41.519  10.734  1.00  0.00     0.197 HD
BRANCH  21  23
HETATM   23  O2  UNL     1      34.117  41.798  12.029  1.00  0.00    -0.287 OA
ATOM     24  H2  UNL     1      34.996  41.828  11.669  1.00  0.00     0.244 HD
ENDBRANCH  21  23
ENDBRANCH  12  19
ENDBRANCH   1  11
BRANCH   4  25
HETATM   25  N6  UNL     1      31.397  41.888   6.732  1.00  0.00    -0.373 N 
ATOM     26  H6  UNL     1      32.077  42.171   6.025  1.00  0.00     0.161 HD
BRANCH  25  27
HETATM   27  C8  UNL     1      30.543  42.853   7.379  1.00  0.00     0.148 C 
BRANCH  27  28
HETATM   28  C9  UNL     1      29.700  43.641   6.403  1.00  0.00     0.249 C 
BRANCH  28  29
HETATM   29  N7  UNL     1      28.643  42.873   5.830  1.00  0.00    -0.078 N 
ATOM     30  H73 UNL     1      28.598  41.945   6.250  1.00  0.00     0.274 HD
ATOM     31  H72 UNL     1      27.734  43.232   6.120  1.00  0.00     0.274 HD
ATOM     32  H71 UNL     1      28.701  42.808   4.814  1.00  0.00     0.274 HD
ENDBRANCH  28  29
ENDBRANCH  27  28
ENDBRANCH  25  27
ENDBRANCH   4  25
TORSDOF 7
ENDMDL
