MODEL 1
REMARK VINA RESULT: -6.413638518      0.000      0.000
REMARK  12 active torsions:
REMARK  status: ('A' for Active; 'I' for Inactive)
REMARK    1  A    between atoms: N2_3  and  C2_5 
REMARK    2  A    between atoms: C2_5  and  N3_6 
REMARK    3  A    between atoms: C3_7  and  C4_8 
REMARK    4  A    between atoms: C4_8  and  N6_14 
REMARK    5  A    between atoms: N4_9  and  N5_11 
REMARK    6  A    between atoms: N6_14  and  N7_16 
REMARK    7  A    between atoms: C6_22  and  N9_23 
REMARK    8  A    between atoms: N9_23  and  C7_25 
REMARK    9  A    between atoms: C7_25  and  C8_26 
REMARK   10  A    between atoms: C8_26  and  O1_27 
REMARK   11  A    between atoms: C8_26  and  C9_29 
REMARK   12  A    between atoms: C9_29  and  O2_30 
ROOT
HETATM    1  N1  UNL     1      32.451  36.876   9.676  1.00  0.00    -0.172 NA
HETATM    2  C1  UNL     1      32.296  38.017   9.814  1.00  0.00     0.182 C 
HETATM    3  N2  UNL     1      32.109  39.399   9.978  1.00  0.00    -0.289 N 
ATOM      4  H2  UNL     1      32.810  39.930  10.496  1.00  0.00     0.178 HD
ENDROOT
BRANCH   3   5
HETATM    5  C2  UNL     1      31.089  40.023   9.501  1.00  0.00     0.202 C 
BRANCH   5   6
HETATM    6  N3  UNL     1      31.058  40.518   8.168  1.00  0.00    -0.273 N 
HETATM    7  C3  UNL     1      31.490  41.723   7.756  1.00  0.00     0.163 A 
HETATM    8  N8  UNL     1      31.260  41.747   6.419  1.00  0.00    -0.333 N 
HETATM    9  C5  UNL     1      30.702  40.589   6.032  1.00  0.00     0.123 A 
ATOM     10  H8  UNL     1      31.477  42.529   5.801  1.00  0.00     0.168 HD
HETATM   11  C6  UNL     1      30.263  40.065   4.814  1.00  0.00     0.133 A 
HETATM   12  C11 UNL     1      30.568  39.794   7.136  1.00  0.00     0.146 A 
HETATM   13  N10 UNL     1      29.734  38.842   4.735  1.00  0.00    -0.337 N 
HETATM   14  C10 UNL     1      29.606  38.058   5.850  1.00  0.00     0.183 A 
ATOM     15  H10 UNL     1      29.421  38.487   3.832  1.00  0.00     0.168 HD
HETATM   16  N11 UNL     1      30.030  38.568   7.015  1.00  0.00    -0.336 N 
ATOM     17  H11 UNL     1      29.939  37.996   7.853  1.00  0.00     0.168 HD
BRANCH   7  18
HETATM   18  C4  UNL     1      32.083  42.792   8.551  1.00  0.00     0.179 C 
HETATM   19  N4  UNL     1      31.358  43.489   9.361  1.00  0.00    -0.288 N 
ATOM     20  H4  UNL     1      30.364  43.273   9.430  1.00  0.00     0.188 HD
BRANCH  19  21
HETATM   21  N5  UNL     1      31.866  44.519  10.143  1.00  0.00    -0.343 N 
ATOM     22  H52 UNL     1      31.624  45.473   9.875  1.00  0.00     0.176 HD
ATOM     23  H51 UNL     1      32.459  44.362  10.958  1.00  0.00     0.176 HD
ENDBRANCH  19  21
BRANCH  18  24
HETATM   24  N6  UNL     1      33.469  43.090   8.452  1.00  0.00    -0.288 N 
ATOM     25  H6  UNL     1      34.072  42.933   9.260  1.00  0.00     0.188 HD
BRANCH  24  26
HETATM   26  N7  UNL     1      34.023  43.592   7.275  1.00  0.00    -0.343 N 
ATOM     27  H72 UNL     1      33.526  43.428   6.399  1.00  0.00     0.176 HD
ATOM     28  H71 UNL     1      34.901  44.111   7.279  1.00  0.00     0.176 HD
ENDBRANCH  24  26
ENDBRANCH  18  24
ENDBRANCH   7  18
BRANCH  11  29
HETATM   29  N9  UNL     1      30.380  40.789   3.777  1.00  0.00    -0.372 N 
ATOM     30  H9  UNL     1      31.164  40.582   3.157  1.00  0.00     0.161 HD
BRANCH  29  31
HETATM   31  C7  UNL     1      29.526  41.860   3.395  1.00  0.00     0.155 C 
BRANCH  31  32
HETATM   32  C8  UNL     1      29.232  41.726   1.914  1.00  0.00     0.159 C 
BRANCH  32  33
HETATM   33  O1  UNL     1      30.156  42.383   1.139  1.00  0.00    -0.392 OA
ATOM     34  H1  UNL     1      30.637  41.791   0.573  1.00  0.00     0.210 HD
ENDBRANCH  32  33
BRANCH  32  35
HETATM   35  C9  UNL     1      29.084  40.312   1.460  1.00  0.00     0.197 C 
BRANCH  35  36
HETATM   36  O2  UNL     1      28.036  39.738   2.194  1.00  0.00    -0.398 OA
ATOM     37  H2  UNL     1      28.293  38.851   2.417  1.00  0.00     0.209 HD
ENDBRANCH  35  36
ENDBRANCH  32  35
ENDBRANCH  31  32
ENDBRANCH  29  31
ENDBRANCH  11  29
ENDBRANCH   5   6
ENDBRANCH   3   5
TORSDOF 12
ENDMDL
MODEL 2
REMARK VINA RESULT: -6.346878414      0.829      1.039
REMARK  12 active torsions:
REMARK  status: ('A' for Active; 'I' for Inactive)
REMARK    1  A    between atoms: N2_3  and  C2_5 
REMARK    2  A    between atoms: C2_5  and  N3_6 
REMARK    3  A    between atoms: C3_7  and  C4_8 
REMARK    4  A    between atoms: C4_8  and  N6_14 
REMARK    5  A    between atoms: N4_9  and  N5_11 
REMARK    6  A    between atoms: N6_14  and  N7_16 
REMARK    7  A    between atoms: C6_22  and  N9_23 
REMARK    8  A    between atoms: N9_23  and  C7_25 
REMARK    9  A    between atoms: C7_25  and  C8_26 
REMARK   10  A    between atoms: C8_26  and  O1_27 
REMARK   11  A    between atoms: C8_26  and  C9_29 
REMARK   12  A    between atoms: C9_29  and  O2_30 
ROOT
HETATM    1  N1  UNL     1      32.490  36.892   9.985  1.00  0.00    -0.172 NA
HETATM    2  C1  UNL     1      32.340  38.039  10.055  1.00  0.00     0.182 C 
HETATM    3  N2  UNL     1      32.157  39.429  10.138  1.00  0.00    -0.289 N 
ATOM      4  H2  UNL     1      32.872  39.990  10.602  1.00  0.00     0.178 HD
ENDROOT
BRANCH   3   5
HETATM    5  C2  UNL     1      31.125  40.024   9.651  1.00  0.00     0.202 C 
BRANCH   5   6
HETATM    6  N3  UNL     1      31.050  40.418   8.286  1.00  0.00    -0.273 N 
HETATM    7  C3  UNL     1      31.405  41.614   7.783  1.00  0.00     0.163 A 
HETATM    8  N8  UNL     1      31.159  41.527   6.451  1.00  0.00    -0.333 N 
HETATM    9  C5  UNL     1      30.668  40.313   6.156  1.00  0.00     0.123 A 
ATOM     10  H8  UNL     1      31.323  42.273   5.775  1.00  0.00     0.168 HD
HETATM   11  C6  UNL     1      30.248  39.677   4.985  1.00  0.00     0.133 A 
HETATM   12  C11 UNL     1      30.593  39.594   7.316  1.00  0.00     0.146 A 
HETATM   13  N10 UNL     1      29.792  38.423   5.002  1.00  0.00    -0.337 N 
HETATM   14  C10 UNL     1      29.723  37.715   6.172  1.00  0.00     0.183 A 
ATOM     15  H10 UNL     1      29.491  37.985   4.131  1.00  0.00     0.168 HD
HETATM   16  N11 UNL     1      30.128  38.333   7.291  1.00  0.00    -0.336 N 
ATOM     17  H11 UNL     1      30.081  37.818   8.170  1.00  0.00     0.168 HD
BRANCH   7  18
HETATM   18  C4  UNL     1      31.942  42.770   8.490  1.00  0.00     0.179 C 
HETATM   19  N4  UNL     1      31.167  43.533   9.186  1.00  0.00    -0.288 N 
ATOM     20  H4  UNL     1      30.174  43.306   9.228  1.00  0.00     0.188 HD
BRANCH  19  21
HETATM   21  N5  UNL     1      31.619  44.648   9.880  1.00  0.00    -0.343 N 
ATOM     22  H52 UNL     1      32.259  45.275   9.393  1.00  0.00     0.176 HD
ATOM     23  H51 UNL     1      31.343  44.860  10.839  1.00  0.00     0.176 HD
ENDBRANCH  19  21
BRANCH  18  24
HETATM   24  N6  UNL     1      33.327  43.083   8.429  1.00  0.00    -0.288 N 
ATOM     25  H6  UNL     1      33.881  43.063   9.284  1.00  0.00     0.188 HD
BRANCH  24  26
HETATM   26  N7  UNL     1      33.944  43.417   7.223  1.00  0.00    -0.343 N 
ATOM     27  H72 UNL     1      33.364  43.493   6.388  1.00  0.00     0.176 HD
ATOM     28  H71 UNL     1      34.949  43.584   7.169  1.00  0.00     0.176 HD
ENDBRANCH  24  26
ENDBRANCH  18  24
ENDBRANCH   7  18
BRANCH  11  29
HETATM   29  N9  UNL     1      30.311  40.330   3.897  1.00  0.00    -0.372 N 
ATOM     30  H9  UNL     1      31.227  40.401   3.455  1.00  0.00     0.161 HD
BRANCH  29  31
HETATM   31  C7  UNL     1      29.228  40.972   3.235  1.00  0.00     0.155 C 
BRANCH  31  32
HETATM   32  C8  UNL     1      29.623  42.411   2.969  1.00  0.00     0.159 C 
BRANCH  32  33
HETATM   33  O1  UNL     1      30.714  42.797   3.708  1.00  0.00    -0.392 OA
ATOM     34  H1  UNL     1      30.995  43.680   3.500  1.00  0.00     0.210 HD
ENDBRANCH  32  33
BRANCH  32  35
HETATM   35  C9  UNL     1      29.842  42.712   1.523  1.00  0.00     0.197 C 
BRANCH  35  36
HETATM   36  O2  UNL     1      29.786  41.498   0.823  1.00  0.00    -0.398 OA
ATOM     37  H2  UNL     1      30.287  41.604   0.023  1.00  0.00     0.209 HD
ENDBRANCH  35  36
ENDBRANCH  32  35
ENDBRANCH  31  32
ENDBRANCH  29  31
ENDBRANCH  11  29
ENDBRANCH   5   6
ENDBRANCH   3   5
TORSDOF 12
ENDMDL
MODEL 3
REMARK VINA RESULT: -6.331799287      2.997      6.714
REMARK  12 active torsions:
REMARK  status: ('A' for Active; 'I' for Inactive)
REMARK    1  A    between atoms: N2_3  and  C2_5 
REMARK    2  A    between atoms: C2_5  and  N3_6 
REMARK    3  A    between atoms: C3_7  and  C4_8 
REMARK    4  A    between atoms: C4_8  and  N6_14 
REMARK    5  A    between atoms: N4_9  and  N5_11 
REMARK    6  A    between atoms: N6_14  and  N7_16 
REMARK    7  A    between atoms: C6_22  and  N9_23 
REMARK    8  A    between atoms: N9_23  and  C7_25 
REMARK    9  A    between atoms: C7_25  and  C8_26 
REMARK   10  A    between atoms: C8_26  and  O1_27 
REMARK   11  A    between atoms: C8_26  and  C9_29 
REMARK   12  A    between atoms: C9_29  and  O2_30 
ROOT
HETATM    1  N1  UNL     1      27.265  39.080  -0.964  1.00  0.00    -0.172 NA
HETATM    2  C1  UNL     1      27.950  39.248  -0.045  1.00  0.00     0.182 C 
HETATM    3  N2  UNL     1      28.781  39.454   1.069  1.00  0.00    -0.289 N 
ATOM      4  H2  UNL     1      29.758  39.163   1.011  1.00  0.00     0.178 HD
ENDROOT
BRANCH   3   5
HETATM    5  C2  UNL     1      28.361  39.996   2.158  1.00  0.00     0.202 C 
BRANCH   5   6
HETATM    6  N3  UNL     1      29.247  40.571   3.111  1.00  0.00    -0.273 N 
HETATM    7  C3  UNL     1      29.750  41.818   3.077  1.00  0.00     0.163 A 
HETATM    8  N8  UNL     1      30.536  41.915   4.179  1.00  0.00    -0.333 N 
HETATM    9  C5  UNL     1      30.511  40.759   4.860  1.00  0.00     0.123 A 
ATOM     10  H8  UNL     1      31.066  42.743   4.450  1.00  0.00     0.168 HD
HETATM   11  C6  UNL     1      31.108  40.292   6.033  1.00  0.00     0.133 A 
HETATM   12  C11 UNL     1      29.692  39.891   4.191  1.00  0.00     0.146 A 
HETATM   13  N10 UNL     1      30.889  39.053   6.479  1.00  0.00    -0.337 N 
HETATM   14  C10 UNL     1      30.067  38.196   5.798  1.00  0.00     0.183 A 
ATOM     15  H10 UNL     1      31.340  38.740   7.338  1.00  0.00     0.168 HD
HETATM   16  N11 UNL     1      29.498  38.652   4.673  1.00  0.00    -0.336 N 
ATOM     17  H11 UNL     1      28.884  38.023   4.154  1.00  0.00     0.168 HD
BRANCH   7  18
HETATM   18  C4  UNL     1      29.517  42.862   2.086  1.00  0.00     0.179 C 
HETATM   19  N4  UNL     1      30.187  42.882   0.982  1.00  0.00    -0.288 N 
ATOM     20  H4  UNL     1      30.880  42.151   0.823  1.00  0.00     0.188 HD
BRANCH  19  21
HETATM   21  N5  UNL     1      30.010  43.850   0.002  1.00  0.00    -0.343 N 
ATOM     22  H52 UNL     1      29.090  43.910  -0.436  1.00  0.00     0.176 HD
ATOM     23  H51 UNL     1      30.748  44.490  -0.292  1.00  0.00     0.176 HD
ENDBRANCH  19  21
BRANCH  18  24
HETATM   24  N6  UNL     1      28.550  43.879   2.312  1.00  0.00    -0.288 N 
ATOM     25  H6  UNL     1      28.423  44.611   1.614  1.00  0.00     0.188 HD
BRANCH  24  26
HETATM   26  N7  UNL     1      27.771  43.897   3.469  1.00  0.00    -0.343 N 
ATOM     27  H72 UNL     1      27.622  43.019   3.966  1.00  0.00     0.176 HD
ATOM     28  H71 UNL     1      27.358  44.762   3.819  1.00  0.00     0.176 HD
ENDBRANCH  24  26
ENDBRANCH  18  24
ENDBRANCH   7  18
BRANCH  11  29
HETATM   29  N9  UNL     1      31.872  41.084   6.669  1.00  0.00    -0.372 N 
ATOM     30  H9  UNL     1      32.804  41.236   6.282  1.00  0.00     0.161 HD
BRANCH  29  31
HETATM   31  C7  UNL     1      31.554  41.781   7.867  1.00  0.00     0.155 C 
BRANCH  31  32
HETATM   32  C8  UNL     1      32.509  42.951   8.001  1.00  0.00     0.159 C 
BRANCH  32  33
HETATM   33  O1  UNL     1      33.732  42.692   7.433  1.00  0.00    -0.392 OA
ATOM     34  H1  UNL     1      34.374  43.360   7.642  1.00  0.00     0.210 HD
ENDBRANCH  32  33
BRANCH  32  35
HETATM   35  C9  UNL     1      31.955  44.236   7.480  1.00  0.00     0.197 C 
BRANCH  35  36
HETATM   36  O2  UNL     1      31.232  43.945   6.315  1.00  0.00    -0.398 OA
ATOM     37  H2  UNL     1      30.623  44.659   6.169  1.00  0.00     0.209 HD
ENDBRANCH  35  36
ENDBRANCH  32  35
ENDBRANCH  31  32
ENDBRANCH  29  31
ENDBRANCH  11  29
ENDBRANCH   5   6
ENDBRANCH   3   5
TORSDOF 12
ENDMDL
MODEL 4
REMARK VINA RESULT: -6.154996952      1.360      2.416
REMARK  12 active torsions:
REMARK  status: ('A' for Active; 'I' for Inactive)
REMARK    1  A    between atoms: N2_3  and  C2_5 
REMARK    2  A    between atoms: C2_5  and  N3_6 
REMARK    3  A    between atoms: C3_7  and  C4_8 
REMARK    4  A    between atoms: C4_8  and  N6_14 
REMARK    5  A    between atoms: N4_9  and  N5_11 
REMARK    6  A    between atoms: N6_14  and  N7_16 
REMARK    7  A    between atoms: C6_22  and  N9_23 
REMARK    8  A    between atoms: N9_23  and  C7_25 
REMARK    9  A    between atoms: C7_25  and  C8_26 
REMARK   10  A    between atoms: C8_26  and  O1_27 
REMARK   11  A    between atoms: C8_26  and  C9_29 
REMARK   12  A    between atoms: C9_29  and  O2_30 
ROOT
HETATM    1  N1  UNL     1      29.281  42.634  10.564  1.00  0.00    -0.172 NA
HETATM    2  C1  UNL     1      29.883  41.652  10.436  1.00  0.00     0.182 C 
HETATM    3  N2  UNL     1      30.611  40.460  10.280  1.00  0.00    -0.289 N 
ATOM      4  H2  UNL     1      30.376  39.662  10.871  1.00  0.00     0.178 HD
ENDROOT
BRANCH   3   5
HETATM    5  C2  UNL     1      31.561  40.335   9.421  1.00  0.00     0.202 C 
BRANCH   5   6
HETATM    6  N3  UNL     1      31.351  40.518   8.025  1.00  0.00    -0.273 N 
HETATM    7  C3  UNL     1      31.705  41.595   7.302  1.00  0.00     0.163 A 
HETATM    8  N8  UNL     1      31.307  41.320   6.034  1.00  0.00    -0.333 N 
HETATM    9  C5  UNL     1      30.727  40.110   5.991  1.00  0.00     0.123 A 
ATOM     10  H8  UNL     1      31.430  41.940   5.234  1.00  0.00     0.168 HD
HETATM   11  C6  UNL     1      30.147  39.330   4.988  1.00  0.00     0.133 A 
HETATM   12  C11 UNL     1      30.749  39.585   7.254  1.00  0.00     0.146 A 
HETATM   13  N10 UNL     1      29.636  38.126   5.254  1.00  0.00    -0.337 N 
HETATM   14  C10 UNL     1      29.665  37.614   6.523  1.00  0.00     0.183 A 
ATOM     15  H10 UNL     1      29.218  37.579   4.501  1.00  0.00     0.168 HD
HETATM   16  N11 UNL     1      30.223  38.369   7.480  1.00  0.00    -0.336 N 
ATOM     17  H11 UNL     1      30.250  38.001   8.430  1.00  0.00     0.168 HD
BRANCH   7  18
HETATM   18  C4  UNL     1      32.374  42.809   7.755  1.00  0.00     0.179 C 
HETATM   19  N4  UNL     1      33.630  42.995   7.520  1.00  0.00    -0.288 N 
ATOM     20  H4  UNL     1      34.139  42.273   7.010  1.00  0.00     0.188 HD
BRANCH  19  21
HETATM   21  N5  UNL     1      34.321  44.129   7.926  1.00  0.00    -0.343 N 
ATOM     22  H52 UNL     1      33.859  44.743   8.597  1.00  0.00     0.176 HD
ATOM     23  H51 UNL     1      35.253  44.368   7.588  1.00  0.00     0.176 HD
ENDBRANCH  19  21
BRANCH  18  24
HETATM   24  N6  UNL     1      31.660  43.812   8.465  1.00  0.00    -0.288 N 
ATOM     25  H6  UNL     1      32.063  44.205   9.315  1.00  0.00     0.188 HD
BRANCH  24  26
HETATM   26  N7  UNL     1      30.419  44.272   8.023  1.00  0.00    -0.343 N 
ATOM     27  H72 UNL     1      30.271  45.280   7.961  1.00  0.00     0.176 HD
ATOM     28  H71 UNL     1      29.673  43.626   7.766  1.00  0.00     0.176 HD
ENDBRANCH  24  26
ENDBRANCH  18  24
ENDBRANCH   7  18
BRANCH  11  29
HETATM   29  N9  UNL     1      30.119  39.801   3.809  1.00  0.00    -0.372 N 
ATOM     30  H9  UNL     1      30.955  39.667   3.239  1.00  0.00     0.161 HD
BRANCH  29  31
HETATM   31  C7  UNL     1      29.036  40.496   3.204  1.00  0.00     0.155 C 
BRANCH  31  32
HETATM   32  C8  UNL     1      29.560  41.215   1.977  1.00  0.00     0.159 C 
BRANCH  32  33
HETATM   33  O1  UNL     1      28.710  41.101   0.905  1.00  0.00    -0.392 OA
ATOM     34  H1  UNL     1      28.032  41.766   0.911  1.00  0.00     0.210 HD
ENDBRANCH  32  33
BRANCH  32  35
HETATM   35  C9  UNL     1      29.897  42.648   2.223  1.00  0.00     0.197 C 
BRANCH  35  36
HETATM   36  O2  UNL     1      30.639  42.712   3.411  1.00  0.00    -0.398 OA
ATOM     37  H2  UNL     1      30.401  43.517   3.856  1.00  0.00     0.209 HD
ENDBRANCH  35  36
ENDBRANCH  32  35
ENDBRANCH  31  32
ENDBRANCH  29  31
ENDBRANCH  11  29
ENDBRANCH   5   6
ENDBRANCH   3   5
TORSDOF 12
ENDMDL
MODEL 5
REMARK VINA RESULT: -6.119027986      1.111      1.396
REMARK  12 active torsions:
REMARK  status: ('A' for Active; 'I' for Inactive)
REMARK    1  A    between atoms: N2_3  and  C2_5 
REMARK    2  A    between atoms: C2_5  and  N3_6 
REMARK    3  A    between atoms: C3_7  and  C4_8 
REMARK    4  A    between atoms: C4_8  and  N6_14 
REMARK    5  A    between atoms: N4_9  and  N5_11 
REMARK    6  A    between atoms: N6_14  and  N7_16 
REMARK    7  A    between atoms: C6_22  and  N9_23 
REMARK    8  A    between atoms: N9_23  and  C7_25 
REMARK    9  A    between atoms: C7_25  and  C8_26 
REMARK   10  A    between atoms: C8_26  and  O1_27 
REMARK   11  A    between atoms: C8_26  and  C9_29 
REMARK   12  A    between atoms: C9_29  and  O2_30 
ROOT
HETATM    1  N1  UNL     1      32.015  37.675  10.882  1.00  0.00    -0.172 NA
HETATM    2  C1  UNL     1      32.017  38.757  10.465  1.00  0.00     0.182 C 
HETATM    3  N2  UNL     1      32.020  40.066   9.957  1.00  0.00    -0.289 N 
ATOM      4  H2  UNL     1      32.879  40.614  10.019  1.00  0.00     0.178 HD
ENDROOT
BRANCH   3   5
HETATM    5  C2  UNL     1      30.983  40.603   9.416  1.00  0.00     0.202 C 
BRANCH   5   6
HETATM    6  N3  UNL     1      30.858  40.762   8.008  1.00  0.00    -0.273 N 
HETATM    7  C3  UNL     1      31.085  41.889   7.311  1.00  0.00     0.163 A 
HETATM    8  N8  UNL     1      30.840  41.564   6.017  1.00  0.00    -0.333 N 
HETATM    9  C5  UNL     1      30.473  40.276   5.932  1.00  0.00     0.123 A 
ATOM     10  H8  UNL     1      30.922  42.204   5.226  1.00  0.00     0.168 HD
HETATM   11  C6  UNL     1      30.111  39.420   4.889  1.00  0.00     0.133 A 
HETATM   12  C11 UNL     1      30.480  39.750   7.194  1.00  0.00     0.146 A 
HETATM   13  N10 UNL     1      29.785  38.146   5.117  1.00  0.00    -0.337 N 
HETATM   14  C10 UNL     1      29.798  37.634   6.387  1.00  0.00     0.183 A 
ATOM     15  H10 UNL     1      29.524  37.545   4.336  1.00  0.00     0.168 HD
HETATM   16  N11 UNL     1      30.146  38.462   7.382  1.00  0.00    -0.336 N 
ATOM     17  H11 UNL     1      30.157  38.094   8.333  1.00  0.00     0.168 HD
BRANCH   7  18
HETATM   18  C4  UNL     1      31.507  43.192   7.811  1.00  0.00     0.179 C 
HETATM   19  N4  UNL     1      30.654  44.152   7.947  1.00  0.00    -0.288 N 
ATOM     20  H4  UNL     1      29.681  43.975   7.697  1.00  0.00     0.188 HD
BRANCH  19  21
HETATM   21  N5  UNL     1      30.995  45.414   8.417  1.00  0.00    -0.343 N 
ATOM     22  H52 UNL     1      30.919  46.193   7.763  1.00  0.00     0.176 HD
ATOM     23  H51 UNL     1      31.313  45.589   9.371  1.00  0.00     0.176 HD
ENDBRANCH  19  21
BRANCH  18  24
HETATM   24  N6  UNL     1      32.863  43.435   8.158  1.00  0.00    -0.288 N 
ATOM     25  H6  UNL     1      33.095  43.690   9.118  1.00  0.00     0.188 HD
BRANCH  24  26
HETATM   26  N7  UNL     1      33.885  43.332   7.215  1.00  0.00    -0.343 N 
ATOM     27  H72 UNL     1      34.835  43.168   7.547  1.00  0.00     0.176 HD
ATOM     28  H71 UNL     1      33.697  43.417   6.215  1.00  0.00     0.176 HD
ENDBRANCH  24  26
ENDBRANCH  18  24
ENDBRANCH   7  18
BRANCH  11  29
HETATM   29  N9  UNL     1      30.099  39.891   3.709  1.00  0.00    -0.372 N 
ATOM     30  H9  UNL     1      30.962  39.810   3.172  1.00  0.00     0.161 HD
BRANCH  29  31
HETATM   31  C7  UNL     1      28.999  40.521   3.064  1.00  0.00     0.155 C 
BRANCH  31  32
HETATM   32  C8  UNL     1      29.520  41.241   1.836  1.00  0.00     0.159 C 
BRANCH  32  33
HETATM   33  O1  UNL     1      28.646  41.166   0.779  1.00  0.00    -0.392 OA
ATOM     34  H1  UNL     1      28.146  41.966   0.669  1.00  0.00     0.210 HD
ENDBRANCH  32  33
BRANCH  32  35
HETATM   35  C9  UNL     1      29.903  42.661   2.094  1.00  0.00     0.197 C 
BRANCH  35  36
HETATM   36  O2  UNL     1      30.674  42.687   3.265  1.00  0.00    -0.398 OA
ATOM     37  H2  UNL     1      30.858  43.596   3.468  1.00  0.00     0.209 HD
ENDBRANCH  35  36
ENDBRANCH  32  35
ENDBRANCH  31  32
ENDBRANCH  29  31
ENDBRANCH  11  29
ENDBRANCH   5   6
ENDBRANCH   3   5
TORSDOF 12
ENDMDL
