MODEL 1
REMARK VINA RESULT: -7.556182534      0.000      0.000
REMARK  11 active torsions:
REMARK  status: ('A' for Active; 'I' for Inactive)
REMARK    1  A    between atoms: N1_1  and  C1_4 
REMARK    2  A    between atoms: C4_10  and  C5_11 
REMARK    3  A    between atoms: C5_11  and  C6_12 
REMARK    4  A    between atoms: C6_12  and  N3_13 
REMARK    5  A    between atoms: C6_12  and  C7_17 
REMARK    6  A    between atoms: C7_17  and  O2_18 
REMARK    7  A    between atoms: C7_17  and  C8_20 
REMARK    8  A    between atoms: N5_22  and  N6_24 
REMARK    9  A    between atoms: N7_28  and  C10_29 
REMARK   10  A    between atoms: C12_33  and  N9_34 
REMARK   11  A    between atoms: N10_37  and  O5_38 
ROOT
HETATM    1  C1  UNL     1      31.192  38.774   8.239  1.00  0.00     0.680 A 
HETATM    2  N2  UNL     1      30.577  37.987   7.312  1.00  0.00    -0.155 N 
ATOM      3  H2  UNL     1      30.489  36.981   7.455  1.00  0.00     0.187 HD
HETATM    4  C2  UNL     1      30.089  38.570   6.202  1.00  0.00     0.274 A 
HETATM    5  O1  UNL     1      29.521  37.851   5.343  1.00  0.00    -0.267 OA
HETATM    6  C3  UNL     1      30.209  39.941   6.006  1.00  0.00     0.086 A 
HETATM    7  C4  UNL     1      29.815  40.803   4.993  1.00  0.00    -0.020 A 
HETATM    8  C9  UNL     1      30.223  42.029   5.393  1.00  0.00     0.125 A 
HETATM    9  N7  UNL     1      30.851  41.995   6.597  1.00  0.00    -0.139 N 
HETATM   10  C13 UNL     1      30.836  40.705   6.964  1.00  0.00     0.160 A 
HETATM   11  N11 UNL     1      31.323  40.099   8.078  1.00  0.00    -0.175 N 
ATOM     12  H11 UNL     1      31.789  40.654   8.795  1.00  0.00     0.186 HD
ENDROOT
BRANCH   7  13
HETATM   13  C5  UNL     1      29.106  40.295   3.805  1.00  0.00     0.077 C 
BRANCH  13  14
HETATM   14  C6  UNL     1      29.582  40.861   2.501  1.00  0.00     0.223 C 
BRANCH  14  15
HETATM   15  N3  UNL     1      29.225  39.951   1.399  1.00  0.00    -0.072 N 
ATOM     16  H33 UNL     1      29.983  39.850   0.725  1.00  0.00     0.274 HD
ATOM     17  H32 UNL     1      29.170  38.979   1.706  1.00  0.00     0.274 HD
ATOM     18  H31 UNL     1      28.359  40.262   0.958  1.00  0.00     0.274 HD
ENDBRANCH  14  15
BRANCH  14  19
HETATM   19  C7  UNL     1      29.123  42.249   2.224  1.00  0.00     0.214 C 
BRANCH  19  20
HETATM   20  O2  UNL     1      27.738  42.298   2.615  1.00  0.00    -0.386 OA
ATOM     21  H2  UNL     1      27.274  42.704   1.893  1.00  0.00     0.210 HD
ENDBRANCH  19  20
BRANCH  19  22
HETATM   22  C8  UNL     1      29.027  42.598   0.771  1.00  0.00     0.138 C 
HETATM   23  N4  UNL     1      27.944  41.918   0.068  1.00  0.00    -0.083 NA
HETATM   24  N5  UNL     1      29.734  43.329   0.083  1.00  0.00    -0.296 N 
ATOM     25  H5  UNL     1      29.380  43.339  -0.873  1.00  0.00     0.187 HD
BRANCH  24  26
HETATM   26  N6  UNL     1      30.813  44.117   0.166  1.00  0.00    -0.344 N 
ATOM     27  H62 UNL     1      31.578  43.559   0.546  1.00  0.00     0.176 HD
ATOM     28  H61 UNL     1      31.117  45.073  -0.021  1.00  0.00     0.176 HD
ENDBRANCH  24  26
ENDBRANCH  19  22
ENDBRANCH  14  19
ENDBRANCH  13  14
ENDBRANCH   7  13
BRANCH   9  29
HETATM   29  C10 UNL     1      31.403  43.119   7.290  1.00  0.00     0.718 A 
HETATM   30  N8  UNL     1      30.786  44.236   7.703  1.00  0.00    -0.195 N 
HETATM   31  C11 UNL     1      31.669  45.050   8.322  1.00  0.00     0.164 A 
ATOM     32  H8  UNL     1      29.796  44.442   7.569  1.00  0.00     0.183 HD
HETATM   33  C12 UNL     1      32.882  44.400   8.285  1.00  0.00     0.234 A 
HETATM   34  N10 UNL     1      32.676  43.228   7.649  1.00  0.00    -0.027 N 
BRANCH  33  35
HETATM   35  N9  UNL     1      34.100  44.880   8.816  1.00  0.00    -0.093 N 
HETATM   36  O3  UNL     1      34.278  46.098   8.982  1.00  0.00    -0.530 OA
HETATM   37  O4  UNL     1      35.115  44.022   9.158  1.00  0.00    -0.530 OA
ENDBRANCH  33  35
BRANCH  34  38
HETATM   38  O5  UNL     1      33.656  42.304   7.421  1.00  0.00    -0.268 OA
ATOM     39  H5  UNL     1      34.330  42.360   6.753  1.00  0.00     0.246 HD
ENDBRANCH  34  38
ENDBRANCH   9  29
BRANCH   1  40
HETATM   40  N1  UNL     1      31.651  38.200   9.292  1.00  0.00    -0.234 N 
ATOM     41  H12 UNL     1      31.054  38.072  10.110  1.00  0.00     0.174 HD
ATOM     42  H11 UNL     1      32.621  37.885   9.272  1.00  0.00     0.174 HD
ENDBRANCH   1  40
TORSDOF 11
ENDMDL
MODEL 2
REMARK VINA RESULT: -7.518163801      2.953      5.259
REMARK  11 active torsions:
REMARK  status: ('A' for Active; 'I' for Inactive)
REMARK    1  A    between atoms: N1_1  and  C1_4 
REMARK    2  A    between atoms: C4_10  and  C5_11 
REMARK    3  A    between atoms: C5_11  and  C6_12 
REMARK    4  A    between atoms: C6_12  and  N3_13 
REMARK    5  A    between atoms: C6_12  and  C7_17 
REMARK    6  A    between atoms: C7_17  and  O2_18 
REMARK    7  A    between atoms: C7_17  and  C8_20 
REMARK    8  A    between atoms: N5_22  and  N6_24 
REMARK    9  A    between atoms: N7_28  and  C10_29 
REMARK   10  A    between atoms: C12_33  and  N9_34 
REMARK   11  A    between atoms: N10_37  and  O5_38 
ROOT
HETATM    1  C1  UNL     1      32.555  43.283   9.094  1.00  0.00     0.680 A 
HETATM    2  N2  UNL     1      31.909  43.790   8.007  1.00  0.00    -0.155 N 
ATOM      3  H2  UNL     1      32.043  44.762   7.726  1.00  0.00     0.187 HD
HETATM    4  C2  UNL     1      31.091  42.979   7.313  1.00  0.00     0.274 A 
HETATM    5  O1  UNL     1      30.493  43.440   6.309  1.00  0.00    -0.267 OA
HETATM    6  C3  UNL     1      30.909  41.655   7.696  1.00  0.00     0.086 A 
HETATM    7  C4  UNL     1      30.153  40.607   7.191  1.00  0.00    -0.020 A 
HETATM    8  C9  UNL     1      30.406  39.561   8.012  1.00  0.00     0.125 A 
HETATM    9  N7  UNL     1      31.276  39.885   9.005  1.00  0.00    -0.139 N 
HETATM   10  C13 UNL     1      31.578  41.176   8.799  1.00  0.00     0.160 A 
HETATM   11  N11 UNL     1      32.400  42.010   9.487  1.00  0.00    -0.175 N 
ATOM     12  H11 UNL     1      32.901  41.667  10.306  1.00  0.00     0.186 HD
ENDROOT
BRANCH   7  13
HETATM   13  C5  UNL     1      29.313  40.790   5.995  1.00  0.00     0.077 C 
BRANCH  13  14
HETATM   14  C6  UNL     1      29.641  39.879   4.851  1.00  0.00     0.223 C 
BRANCH  14  15
HETATM   15  N3  UNL     1      28.560  38.895   4.665  1.00  0.00    -0.072 N 
ATOM     16  H33 UNL     1      27.698  39.184   5.126  1.00  0.00     0.274 HD
ATOM     17  H32 UNL     1      28.217  38.880   3.705  1.00  0.00     0.274 HD
ATOM     18  H31 UNL     1      28.871  37.975   4.976  1.00  0.00     0.274 HD
ENDBRANCH  14  15
BRANCH  14  19
HETATM   19  C7  UNL     1      29.959  40.577   3.576  1.00  0.00     0.214 C 
BRANCH  19  20
HETATM   20  O2  UNL     1      30.174  41.959   3.919  1.00  0.00    -0.386 OA
ATOM     21  H2  UNL     1      29.955  42.461   3.143  1.00  0.00     0.210 HD
ENDBRANCH  19  20
BRANCH  19  22
HETATM   22  C8  UNL     1      28.811  40.690   2.621  1.00  0.00     0.138 C 
HETATM   23  N4  UNL     1      27.808  41.674   3.013  1.00  0.00    -0.083 NA
HETATM   24  N5  UNL     1      28.570  40.062   1.594  1.00  0.00    -0.296 N 
ATOM     25  H5  UNL     1      27.697  40.399   1.189  1.00  0.00     0.187 HD
BRANCH  24  26
HETATM   26  N6  UNL     1      29.068  39.083   0.827  1.00  0.00    -0.344 N 
ATOM     27  H62 UNL     1      29.980  39.388   0.487  1.00  0.00     0.176 HD
ATOM     28  H61 UNL     1      28.840  38.152   0.477  1.00  0.00     0.176 HD
ENDBRANCH  24  26
ENDBRANCH  19  22
ENDBRANCH  14  19
ENDBRANCH  13  14
ENDBRANCH   7  13
BRANCH   9  29
HETATM   29  C10 UNL     1      31.740  39.008  10.035  1.00  0.00     0.718 A 
HETATM   30  N8  UNL     1      31.410  38.992  11.336  1.00  0.00    -0.195 N 
HETATM   31  C11 UNL     1      32.072  37.999  11.968  1.00  0.00     0.164 A 
ATOM     32  H8  UNL     1      30.755  39.634  11.782  1.00  0.00     0.183 HD
HETATM   33  C12 UNL     1      32.843  37.380  11.010  1.00  0.00     0.234 A 
HETATM   34  N10 UNL     1      32.611  38.025   9.848  1.00  0.00    -0.027 N 
BRANCH  33  35
HETATM   35  N9  UNL     1      33.707  36.282  11.218  1.00  0.00    -0.093 N 
HETATM   36  O3  UNL     1      34.153  35.640  10.253  1.00  0.00    -0.530 OA
HETATM   37  O4  UNL     1      34.073  35.894  12.483  1.00  0.00    -0.530 OA
ENDBRANCH  33  35
BRANCH  34  38
HETATM   38  O5  UNL     1      33.201  37.691   8.662  1.00  0.00    -0.268 OA
ATOM     39  H5  UNL     1      33.734  36.921   8.502  1.00  0.00     0.246 HD
ENDBRANCH  34  38
ENDBRANCH   9  29
BRANCH   1  40
HETATM   40  N1  UNL     1      33.332  44.072   9.743  1.00  0.00    -0.234 N 
ATOM     41  H12 UNL     1      34.339  44.055   9.577  1.00  0.00     0.174 HD
ATOM     42  H11 UNL     1      32.903  44.704  10.419  1.00  0.00     0.174 HD
ENDBRANCH   1  40
TORSDOF 11
ENDMDL
MODEL 3
REMARK VINA RESULT: -7.481798202      4.237      9.096
REMARK  11 active torsions:
REMARK  status: ('A' for Active; 'I' for Inactive)
REMARK    1  A    between atoms: N1_1  and  C1_4 
REMARK    2  A    between atoms: C4_10  and  C5_11 
REMARK    3  A    between atoms: C5_11  and  C6_12 
REMARK    4  A    between atoms: C6_12  and  N3_13 
REMARK    5  A    between atoms: C6_12  and  C7_17 
REMARK    6  A    between atoms: C7_17  and  O2_18 
REMARK    7  A    between atoms: C7_17  and  C8_20 
REMARK    8  A    between atoms: N5_22  and  N6_24 
REMARK    9  A    between atoms: N7_28  and  C10_29 
REMARK   10  A    between atoms: C12_33  and  N9_34 
REMARK   11  A    between atoms: N10_37  and  O5_38 
ROOT
HETATM    1  C1  UNL     1      28.726  41.209  11.640  1.00  0.00     0.680 A 
HETATM    2  N2  UNL     1      29.503  41.151  12.757  1.00  0.00    -0.155 N 
ATOM      3  H2  UNL     1      29.216  41.615  13.619  1.00  0.00     0.187 HD
HETATM    4  C2  UNL     1      30.659  40.466  12.696  1.00  0.00     0.274 A 
HETATM    5  O1  UNL     1      31.381  40.408  13.723  1.00  0.00    -0.267 OA
HETATM    6  C3  UNL     1      31.051  39.833  11.522  1.00  0.00     0.086 A 
HETATM    7  C4  UNL     1      32.156  39.073  11.166  1.00  0.00    -0.020 A 
HETATM    8  C9  UNL     1      31.951  38.739   9.870  1.00  0.00     0.125 A 
HETATM    9  N7  UNL     1      30.786  39.243   9.386  1.00  0.00    -0.139 N 
HETATM   10  C13 UNL     1      30.241  39.914  10.413  1.00  0.00     0.160 A 
HETATM   11  N11 UNL     1      29.077  40.609  10.493  1.00  0.00    -0.175 N 
ATOM     12  H11 UNL     1      28.469  40.676   9.678  1.00  0.00     0.186 HD
ENDROOT
BRANCH   7  13
HETATM   13  C5  UNL     1      33.225  38.794  12.140  1.00  0.00     0.077 C 
BRANCH  13  14
HETATM   14  C6  UNL     1      33.392  37.345  12.490  1.00  0.00     0.223 C 
BRANCH  14  15
HETATM   15  N3  UNL     1      32.084  36.668  12.465  1.00  0.00    -0.072 N 
ATOM     16  H33 UNL     1      31.316  37.313  12.652  1.00  0.00     0.274 HD
ATOM     17  H32 UNL     1      31.816  36.388  11.521  1.00  0.00     0.274 HD
ATOM     18  H31 UNL     1      32.088  35.880  13.112  1.00  0.00     0.274 HD
ENDBRANCH  14  15
BRANCH  14  19
HETATM   19  C7  UNL     1      34.391  36.620  11.659  1.00  0.00     0.214 C 
BRANCH  19  20
HETATM   20  O2  UNL     1      33.639  35.921  10.649  1.00  0.00    -0.386 OA
ATOM     21  H2  UNL     1      34.125  35.127  10.460  1.00  0.00     0.210 HD
ENDBRANCH  19  20
BRANCH  19  22
HETATM   22  C8  UNL     1      35.074  35.481  12.353  1.00  0.00     0.138 C 
HETATM   23  N4  UNL     1      35.554  35.806  13.692  1.00  0.00    -0.083 NA
HETATM   24  N5  UNL     1      35.321  34.347  11.957  1.00  0.00    -0.296 N 
ATOM     25  H5  UNL     1      35.801  33.829  12.693  1.00  0.00     0.187 HD
BRANCH  24  26
HETATM   26  N6  UNL     1      35.173  33.559  10.884  1.00  0.00    -0.344 N 
ATOM     27  H62 UNL     1      35.931  33.771  10.236  1.00  0.00     0.176 HD
ATOM     28  H61 UNL     1      34.565  32.831  10.509  1.00  0.00     0.176 HD
ENDBRANCH  24  26
ENDBRANCH  19  22
ENDBRANCH  14  19
ENDBRANCH  13  14
ENDBRANCH   7  13
BRANCH   9  29
HETATM   29  C10 UNL     1      30.285  39.075   8.057  1.00  0.00     0.718 A 
HETATM   30  N8  UNL     1      29.447  38.137   7.587  1.00  0.00    -0.195 N 
HETATM   31  C11 UNL     1      29.223  38.337   6.270  1.00  0.00     0.164 A 
ATOM     32  H8  UNL     1      29.040  37.385   8.142  1.00  0.00     0.183 HD
HETATM   33  C12 UNL     1      29.957  39.447   5.918  1.00  0.00     0.234 A 
HETATM   34  N10 UNL     1      30.588  39.865   7.035  1.00  0.00    -0.027 N 
BRANCH  33  35
HETATM   35  N9  UNL     1      30.027  40.025   4.632  1.00  0.00    -0.093 N 
HETATM   36  O3  UNL     1      30.833  40.941   4.395  1.00  0.00    -0.530 OA
HETATM   37  O4  UNL     1      29.213  39.597   3.613  1.00  0.00    -0.530 OA
ENDBRANCH  33  35
BRANCH  34  38
HETATM   38  O5  UNL     1      31.416  40.952   7.079  1.00  0.00    -0.268 OA
ATOM     39  H5  UNL     1      31.539  41.587   6.384  1.00  0.00     0.246 HD
ENDBRANCH  34  38
ENDBRANCH   9  29
BRANCH   1  40
HETATM   40  N1  UNL     1      27.626  41.867  11.717  1.00  0.00    -0.234 N 
ATOM     41  H12 UNL     1      27.524  42.760  11.235  1.00  0.00     0.174 HD
ATOM     42  H11 UNL     1      26.873  41.460  12.272  1.00  0.00     0.174 HD
ENDBRANCH   1  40
TORSDOF 11
ENDMDL
MODEL 4
REMARK VINA RESULT: -7.400748329      1.471      2.124
REMARK  11 active torsions:
REMARK  status: ('A' for Active; 'I' for Inactive)
REMARK    1  A    between atoms: N1_1  and  C1_4 
REMARK    2  A    between atoms: C4_10  and  C5_11 
REMARK    3  A    between atoms: C5_11  and  C6_12 
REMARK    4  A    between atoms: C6_12  and  N3_13 
REMARK    5  A    between atoms: C6_12  and  C7_17 
REMARK    6  A    between atoms: C7_17  and  O2_18 
REMARK    7  A    between atoms: C7_17  and  C8_20 
REMARK    8  A    between atoms: N5_22  and  N6_24 
REMARK    9  A    between atoms: N7_28  and  C10_29 
REMARK   10  A    between atoms: C12_33  and  N9_34 
REMARK   11  A    between atoms: N10_37  and  O5_38 
ROOT
HETATM    1  C1  UNL     1      31.719  38.610   9.186  1.00  0.00     0.680 A 
HETATM    2  N2  UNL     1      30.843  38.053   8.304  1.00  0.00    -0.155 N 
ATOM      3  H2  UNL     1      30.653  37.051   8.318  1.00  0.00     0.187 HD
HETATM    4  C2  UNL     1      30.234  38.857   7.413  1.00  0.00     0.274 A 
HETATM    5  O1  UNL     1      29.425  38.350   6.598  1.00  0.00    -0.267 OA
HETATM    6  C3  UNL     1      30.493  40.223   7.394  1.00  0.00     0.086 A 
HETATM    7  C4  UNL     1      30.030  41.275   6.617  1.00  0.00    -0.020 A 
HETATM    8  C9  UNL     1      30.663  42.371   7.094  1.00  0.00     0.125 A 
HETATM    9  N7  UNL     1      31.498  42.076   8.124  1.00  0.00    -0.139 N 
HETATM   10  C13 UNL     1      31.384  40.751   8.299  1.00  0.00     0.160 A 
HETATM   11  N11 UNL     1      31.989  39.924   9.191  1.00  0.00    -0.175 N 
ATOM     12  H11 UNL     1      32.651  40.304   9.867  1.00  0.00     0.186 HD
ENDROOT
BRANCH   7  13
HETATM   13  C5  UNL     1      29.049  41.044   5.542  1.00  0.00     0.077 C 
BRANCH  13  14
HETATM   14  C6  UNL     1      29.465  41.550   4.193  1.00  0.00     0.223 C 
BRANCH  14  15
HETATM   15  N3  UNL     1      30.829  41.088   3.883  1.00  0.00    -0.072 N 
ATOM     16  H33 UNL     1      31.239  40.561   4.653  1.00  0.00     0.274 HD
ATOM     17  H32 UNL     1      30.832  40.349   3.179  1.00  0.00     0.274 HD
ATOM     18  H31 UNL     1      31.410  41.880   3.608  1.00  0.00     0.274 HD
ENDBRANCH  14  15
BRANCH  14  19
HETATM   19  C7  UNL     1      28.520  41.221   3.092  1.00  0.00     0.214 C 
BRANCH  19  20
HETATM   20  O2  UNL     1      28.194  39.827   3.246  1.00  0.00    -0.386 OA
ATOM     21  H2  UNL     1      27.635  39.770   4.012  1.00  0.00     0.210 HD
ENDBRANCH  19  20
BRANCH  19  22
HETATM   22  C8  UNL     1      29.129  41.226   1.723  1.00  0.00     0.138 C 
HETATM   23  N4  UNL     1      29.641  42.528   1.307  1.00  0.00    -0.083 NA
HETATM   24  N5  UNL     1      29.226  40.326   0.895  1.00  0.00    -0.296 N 
ATOM     25  H5  UNL     1      29.699  40.679   0.064  1.00  0.00     0.187 HD
BRANCH  24  26
HETATM   26  N6  UNL     1      28.920  39.034   0.717  1.00  0.00    -0.344 N 
ATOM     27  H62 UNL     1      28.552  38.929  -0.229  1.00  0.00     0.176 HD
ATOM     28  H61 UNL     1      28.932  38.138   1.205  1.00  0.00     0.176 HD
ENDBRANCH  24  26
ENDBRANCH  19  22
ENDBRANCH  14  19
ENDBRANCH  13  14
ENDBRANCH   7  13
BRANCH   9  29
HETATM   29  C10 UNL     1      32.313  43.009   8.840  1.00  0.00     0.718 A 
HETATM   30  N8  UNL     1      32.142  43.495  10.079  1.00  0.00    -0.195 N 
HETATM   31  C11 UNL     1      33.142  44.353  10.380  1.00  0.00     0.164 A 
ATOM     32  H8  UNL     1      31.372  43.253  10.702  1.00  0.00     0.183 HD
HETATM   33  C12 UNL     1      33.961  44.394   9.274  1.00  0.00     0.234 A 
HETATM   34  N10 UNL     1      33.420  43.561   8.360  1.00  0.00    -0.027 N 
BRANCH  33  35
HETATM   35  N9  UNL     1      35.136  45.164   9.137  1.00  0.00    -0.093 N 
HETATM   36  O3  UNL     1      36.208  44.625   8.814  1.00  0.00    -0.530 OA
HETATM   37  O4  UNL     1      35.130  46.519   9.356  1.00  0.00    -0.530 OA
ENDBRANCH  33  35
BRANCH  34  38
HETATM   38  O5  UNL     1      33.958  43.337   7.124  1.00  0.00    -0.268 OA
ATOM     39  H5  UNL     1      33.703  42.647   6.522  1.00  0.00     0.246 HD
ENDBRANCH  34  38
ENDBRANCH   9  29
BRANCH   1  40
HETATM   40  N1  UNL     1      32.290  37.828  10.029  1.00  0.00    -0.234 N 
ATOM     41  H12 UNL     1      31.948  36.876  10.161  1.00  0.00     0.174 HD
ATOM     42  H11 UNL     1      33.086  38.197  10.549  1.00  0.00     0.174 HD
ENDBRANCH   1  40
TORSDOF 11
ENDMDL
MODEL 5
REMARK VINA RESULT: -7.388258091      3.121      5.272
REMARK  11 active torsions:
REMARK  status: ('A' for Active; 'I' for Inactive)
REMARK    1  A    between atoms: N1_1  and  C1_4 
REMARK    2  A    between atoms: C4_10  and  C5_11 
REMARK    3  A    between atoms: C5_11  and  C6_12 
REMARK    4  A    between atoms: C6_12  and  N3_13 
REMARK    5  A    between atoms: C6_12  and  C7_17 
REMARK    6  A    between atoms: C7_17  and  O2_18 
REMARK    7  A    between atoms: C7_17  and  C8_20 
REMARK    8  A    between atoms: N5_22  and  N6_24 
REMARK    9  A    between atoms: N7_28  and  C10_29 
REMARK   10  A    between atoms: C12_33  and  N9_34 
REMARK   11  A    between atoms: N10_37  and  O5_38 
ROOT
HETATM    1  C1  UNL     1      32.585  43.236   9.093  1.00  0.00     0.680 A 
HETATM    2  N2  UNL     1      31.889  43.716   8.024  1.00  0.00    -0.155 N 
ATOM      3  H2  UNL     1      32.004  44.682   7.718  1.00  0.00     0.187 HD
HETATM    4  C2  UNL     1      31.049  42.884   7.382  1.00  0.00     0.274 A 
HETATM    5  O1  UNL     1      30.406  43.320   6.396  1.00  0.00    -0.267 OA
HETATM    6  C3  UNL     1      30.894  41.567   7.800  1.00  0.00     0.086 A 
HETATM    7  C4  UNL     1      30.125  40.504   7.350  1.00  0.00    -0.020 A 
HETATM    8  C9  UNL     1      30.420  39.478   8.181  1.00  0.00     0.125 A 
HETATM    9  N7  UNL     1      31.328  39.829   9.130  1.00  0.00    -0.139 N 
HETATM   10  C13 UNL     1      31.612  41.117   8.884  1.00  0.00     0.160 A 
HETATM   11  N11 UNL     1      32.455  41.970   9.519  1.00  0.00    -0.175 N 
ATOM     12  H11 UNL     1      32.993  41.648  10.323  1.00  0.00     0.186 HD
ENDROOT
BRANCH   7  13
HETATM   13  C5  UNL     1      29.234  40.656   6.187  1.00  0.00     0.077 C 
BRANCH  13  14
HETATM   14  C6  UNL     1      29.556  39.762   5.027  1.00  0.00     0.223 C 
BRANCH  14  15
HETATM   15  N3  UNL     1      28.512  38.734   4.880  1.00  0.00    -0.072 N 
ATOM     16  H33 UNL     1      28.638  37.964   5.536  1.00  0.00     0.274 HD
ATOM     17  H32 UNL     1      27.603  39.062   5.209  1.00  0.00     0.274 HD
ATOM     18  H31 UNL     1      28.475  38.412   3.913  1.00  0.00     0.274 HD
ENDBRANCH  14  15
BRANCH  14  19
HETATM   19  C7  UNL     1      29.795  40.476   3.744  1.00  0.00     0.214 C 
BRANCH  19  20
HETATM   20  O2  UNL     1      30.614  41.616   4.065  1.00  0.00    -0.386 OA
ATOM     21  H2  UNL     1      30.185  42.368   3.677  1.00  0.00     0.210 HD
ENDBRANCH  19  20
BRANCH  19  22
HETATM   22  C8  UNL     1      28.585  41.143   3.164  1.00  0.00     0.138 C 
HETATM   23  N4  UNL     1      27.827  40.301   2.244  1.00  0.00    -0.083 NA
HETATM   24  N5  UNL     1      28.161  42.285   3.314  1.00  0.00    -0.296 N 
ATOM     25  H5  UNL     1      27.309  42.404   2.768  1.00  0.00     0.187 HD
BRANCH  24  26
HETATM   26  N6  UNL     1      28.443  43.428   3.953  1.00  0.00    -0.344 N 
ATOM     27  H62 UNL     1      29.207  43.242   4.602  1.00  0.00     0.176 HD
ATOM     28  H61 UNL     1      28.151  44.405   4.003  1.00  0.00     0.176 HD
ENDBRANCH  24  26
ENDBRANCH  19  22
ENDBRANCH  14  19
ENDBRANCH  13  14
ENDBRANCH   7  13
BRANCH   9  29
HETATM   29  C10 UNL     1      31.842  38.977  10.157  1.00  0.00     0.718 A 
HETATM   30  N8  UNL     1      31.579  38.995  11.473  1.00  0.00    -0.195 N 
HETATM   31  C11 UNL     1      32.270  38.016  12.097  1.00  0.00     0.164 A 
ATOM     32  H8  UNL     1      30.950  39.652  11.935  1.00  0.00     0.183 HD
HETATM   33  C12 UNL     1      32.990  37.369  11.117  1.00  0.00     0.234 A 
HETATM   34  N10 UNL     1      32.699  37.985   9.952  1.00  0.00    -0.027 N 
BRANCH  33  35
HETATM   35  N9  UNL     1      33.859  36.274  11.309  1.00  0.00    -0.093 N 
HETATM   36  O3  UNL     1      34.203  35.935  12.455  1.00  0.00    -0.530 OA
HETATM   37  O4  UNL     1      34.348  35.557  10.246  1.00  0.00    -0.530 OA
ENDBRANCH  33  35
BRANCH  34  38
HETATM   38  O5  UNL     1      33.228  37.618   8.746  1.00  0.00    -0.268 OA
ATOM     39  H5  UNL     1      34.056  37.914   8.387  1.00  0.00     0.246 HD
ENDBRANCH  34  38
ENDBRANCH   9  29
BRANCH   1  40
HETATM   40  N1  UNL     1      33.382  44.043   9.693  1.00  0.00    -0.234 N 
ATOM     41  H12 UNL     1      33.177  44.362  10.639  1.00  0.00     0.174 HD
ATOM     42  H11 UNL     1      34.215  44.345   9.186  1.00  0.00     0.174 HD
ENDBRANCH   1  40
TORSDOF 11
ENDMDL
