MODEL 1
REMARK VINA RESULT: -9.180645332      0.000      0.000
REMARK  14 active torsions:
REMARK  status: ('A' for Active; 'I' for Inactive)
REMARK    1  A    between atoms: C2_2  and  C4_4 
REMARK    2  A    between atoms: C6_6  and  C7_7 
REMARK    3  A    between atoms: C7_7  and  N1_8 
REMARK       I    between atoms: N1_8  and  C8_10 
REMARK    4  A    between atoms: C8_10  and  C9_12 
REMARK    5  A    between atoms: C9_12  and  C10_13 
REMARK    6  A    between atoms: C10_13  and  N2_14 
REMARK    7  A    between atoms: N3_17  and  C13_18 
REMARK    8  A    between atoms: C13_18  and  C14_19 
REMARK    9  A    between atoms: N4_21  and  C16_22 
REMARK   10  A    between atoms: C16_22  and  C17_23 
REMARK   11  A    between atoms: C17_23  and  C18_24 
REMARK   12  A    between atoms: C18_24  and  N5_25 
REMARK   13  A    between atoms: C26_38  and  C27_39 
REMARK   14  A    between atoms: C32_44  and  O2_45 
ROOT
HETATM    1  N2  UNL     1      19.642  23.657  20.933  1.00  0.00    -0.386 N 
HETATM    2  C11 UNL     1      19.065  24.873  20.907  1.00  0.00     0.152 C 
HETATM    3  C12 UNL     1      19.986  25.878  20.142  1.00  0.00     0.292 C 
HETATM    4  N3  UNL     1      20.735  25.219  19.088  1.00  0.00     0.097 N 
HETATM    5  C24 UNL     1      21.589  24.195  19.612  1.00  0.00     0.292 C 
HETATM    6  C25 UNL     1      21.135  23.811  21.019  1.00  0.00     0.152 C 
ENDROOT
BRANCH   1   7
HETATM    7  C10 UNL     1      19.284  22.369  21.228  1.00  0.00     0.091 C 
BRANCH   7   8
HETATM    8  C9  UNL     1      18.641  21.514  20.230  1.00  0.00     0.091 C 
BRANCH   8   9
HETATM    9  C8  UNL     1      17.806  21.969  19.156  1.00  0.00     0.246 C 
HETATM   10  N1  UNL     1      16.540  22.553  19.363  1.00  0.00    -0.333 N 
ATOM     11  H1  UNL     1      16.232  22.808  20.301  1.00  0.00     0.168 HD
HETATM   12  O1  UNL     1      18.222  21.809  17.954  1.00  0.00    -0.268 OA
BRANCH  10  13
HETATM   13  C7  UNL     1      15.688  22.782  18.218  1.00  0.00     0.103 C 
BRANCH  13  14
HETATM   14  C6  UNL     1      14.976  21.656  17.656  1.00  0.00    -0.013 A 
HETATM   15  C5  UNL     1      14.580  20.607  18.535  1.00  0.00     0.023 A 
HETATM   16  C4  UNL     1      13.696  19.626  18.192  1.00  0.00    -0.021 A 
HETATM   17  C32 UNL     1      13.157  19.640  16.916  1.00  0.00     0.072 A 
HETATM   18  C31 UNL     1      13.525  20.636  16.054  1.00  0.00     0.046 A 
HETATM   19  C26 UNL     1      14.430  21.644  16.412  1.00  0.00    -0.036 A 
BRANCH  16  20
HETATM   20  C2  UNL     1      13.198  18.645  19.134  1.00  0.00     0.013 C 
HETATM   21  C1  UNL     1      13.097  19.130  20.536  1.00  0.00     0.015 C 
HETATM   22  C3  UNL     1      13.844  17.291  19.124  1.00  0.00     0.015 C 
ENDBRANCH  16  20
BRANCH  17  23
HETATM   23  O2  UNL     1      12.260  18.692  16.460  1.00  0.00    -0.360 OA
ATOM     24  H2  UNL     1      11.660  18.224  17.029  1.00  0.00     0.217 HD
ENDBRANCH  17  23
BRANCH  19  25
HETATM   25  C27 UNL     1      14.869  22.596  15.389  1.00  0.00    -0.023 C 
HETATM   26  C28 UNL     1      16.117  23.373  15.554  1.00  0.00     0.019 C 
HETATM   27  C29 UNL     1      14.935  21.826  14.016  1.00  0.00     0.019 C 
HETATM   28  C30 UNL     1      13.738  23.594  15.132  1.00  0.00     0.019 C 
ENDBRANCH  19  25
ENDBRANCH  13  14
ENDBRANCH  10  13
ENDBRANCH   8   9
ENDBRANCH   7   8
ENDBRANCH   1   7
BRANCH   4  29
HETATM   29  C13 UNL     1      19.921  24.830  17.986  1.00  0.00     0.332 C 
BRANCH  29  30
HETATM   30  C14 UNL     1      20.187  25.544  16.739  1.00  0.00     0.072 A 
HETATM   31  C15 UNL     1      20.146  26.861  16.436  1.00  0.00     0.140 A 
HETATM   32  N4  UNL     1      20.508  27.057  15.125  1.00  0.00    -0.287 N 
HETATM   33  N7  UNL     1      20.758  25.887  14.635  1.00  0.00    -0.241 N 
HETATM   34  N8  UNL     1      20.582  24.934  15.566  1.00  0.00    -0.287 N 
ATOM     35  H7  UNL     1      21.049  25.712  13.672  1.00  0.00     0.208 HD
ATOM     36  H8  UNL     1      20.717  23.932  15.429  1.00  0.00     0.188 HD
BRANCH  32  37
HETATM   37  C16 UNL     1      20.615  28.389  14.541  1.00  0.00     0.151 C 
BRANCH  37  38
HETATM   38  C17 UNL     1      22.058  28.722  14.271  1.00  0.00     0.052 C 
BRANCH  38  39
HETATM   39  C18 UNL     1      22.899  28.794  15.514  1.00  0.00     0.274 C 
BRANCH  39  40
HETATM   40  N5  UNL     1      24.123  28.013  15.285  1.00  0.00     0.091 N 
HETATM   41  C19 UNL     1      25.282  28.755  15.777  1.00  0.00     0.302 C 
HETATM   42  C20 UNL     1      25.358  28.697  17.267  1.00  0.00     0.302 C 
HETATM   43  N6  UNL     1      25.373  27.358  17.796  1.00  0.00     0.087 N 
HETATM   44  C21 UNL     1      24.257  27.192  18.694  1.00  0.00     0.310 C 
HETATM   45  C22 UNL     1      25.273  26.401  16.691  1.00  0.00     0.302 C 
HETATM   46  C23 UNL     1      23.967  26.741  15.990  1.00  0.00     0.302 C 
ENDBRANCH  39  40
ENDBRANCH  38  39
ENDBRANCH  37  38
ENDBRANCH  32  37
ENDBRANCH  29  30
ENDBRANCH   4  29
TORSDOF 14
ENDMDL
MODEL 2
REMARK VINA RESULT: -9.135653192      3.112     10.537
REMARK  14 active torsions:
REMARK  status: ('A' for Active; 'I' for Inactive)
REMARK    1  A    between atoms: C2_2  and  C4_4 
REMARK    2  A    between atoms: C6_6  and  C7_7 
REMARK    3  A    between atoms: C7_7  and  N1_8 
REMARK       I    between atoms: N1_8  and  C8_10 
REMARK    4  A    between atoms: C8_10  and  C9_12 
REMARK    5  A    between atoms: C9_12  and  C10_13 
REMARK    6  A    between atoms: C10_13  and  N2_14 
REMARK    7  A    between atoms: N3_17  and  C13_18 
REMARK    8  A    between atoms: C13_18  and  C14_19 
REMARK    9  A    between atoms: N4_21  and  C16_22 
REMARK   10  A    between atoms: C16_22  and  C17_23 
REMARK   11  A    between atoms: C17_23  and  C18_24 
REMARK   12  A    between atoms: C18_24  and  N5_25 
REMARK   13  A    between atoms: C26_38  and  C27_39 
REMARK   14  A    between atoms: C32_44  and  O2_45 
ROOT
HETATM    1  N2  UNL     1      20.069  24.628  19.603  1.00  0.00    -0.386 N 
HETATM    2  C11 UNL     1      19.733  24.907  18.330  1.00  0.00     0.152 C 
HETATM    3  C12 UNL     1      19.010  23.677  17.693  1.00  0.00     0.292 C 
HETATM    4  N3  UNL     1      18.245  22.938  18.680  1.00  0.00     0.097 N 
HETATM    5  C24 UNL     1      19.085  22.427  19.722  1.00  0.00     0.292 C 
HETATM    6  C25 UNL     1      20.419  23.171  19.723  1.00  0.00     0.152 C 
ENDROOT
BRANCH   1   7
HETATM    7  C10 UNL     1      20.493  25.306  20.715  1.00  0.00     0.091 C 
BRANCH   7   8
HETATM    8  C9  UNL     1      21.881  25.745  20.851  1.00  0.00     0.091 C 
BRANCH   8   9
HETATM    9  C8  UNL     1      22.635  26.448  19.852  1.00  0.00     0.246 C 
HETATM   10  N1  UNL     1      23.176  25.818  18.714  1.00  0.00    -0.333 N 
ATOM     11  H1  UNL     1      22.925  24.857  18.483  1.00  0.00     0.168 HD
HETATM   12  O1  UNL     1      22.847  27.701  20.022  1.00  0.00    -0.268 OA
BRANCH  10  13
HETATM   13  C7  UNL     1      24.095  26.562  17.882  1.00  0.00     0.103 C 
BRANCH  13  14
HETATM   14  C6  UNL     1      23.618  27.063  16.612  1.00  0.00    -0.013 A 
HETATM   15  C5  UNL     1      22.467  26.451  16.039  1.00  0.00     0.023 A 
HETATM   16  C4  UNL     1      21.771  26.980  14.992  1.00  0.00    -0.021 A 
HETATM   17  C32 UNL     1      22.208  28.175  14.445  1.00  0.00     0.072 A 
HETATM   18  C31 UNL     1      23.314  28.780  14.978  1.00  0.00     0.046 A 
HETATM   19  C26 UNL     1      24.024  28.235  16.056  1.00  0.00    -0.036 A 
BRANCH  16  20
HETATM   20  C2  UNL     1      20.526  26.421  14.506  1.00  0.00     0.013 C 
HETATM   21  C1  UNL     1      19.305  26.990  15.134  1.00  0.00     0.015 C 
HETATM   22  C3  UNL     1      20.412  24.925  14.469  1.00  0.00     0.015 C 
ENDBRANCH  16  20
BRANCH  17  23
HETATM   23  O2  UNL     1      21.585  28.796  13.379  1.00  0.00    -0.360 OA
ATOM     24  H2  UNL     1      21.577  29.738  13.255  1.00  0.00     0.217 HD
ENDBRANCH  17  23
BRANCH  19  25
HETATM   25  C27 UNL     1      25.269  28.877  16.480  1.00  0.00    -0.023 C 
HETATM   26  C28 UNL     1      25.714  28.826  17.889  1.00  0.00     0.019 C 
HETATM   27  C29 UNL     1      26.428  28.324  15.566  1.00  0.00     0.019 C 
HETATM   28  C30 UNL     1      25.225  30.351  16.067  1.00  0.00     0.019 C 
ENDBRANCH  19  25
ENDBRANCH  13  14
ENDBRANCH  10  13
ENDBRANCH   8   9
ENDBRANCH   7   8
ENDBRANCH   1   7
BRANCH   4  29
HETATM   29  C13 UNL     1      17.083  23.634  19.119  1.00  0.00     0.332 C 
BRANCH  29  30
HETATM   30  C14 UNL     1      15.904  23.467  18.271  1.00  0.00     0.072 A 
HETATM   31  C15 UNL     1      15.542  22.472  17.430  1.00  0.00     0.140 A 
HETATM   32  N4  UNL     1      14.320  22.749  16.868  1.00  0.00    -0.287 N 
HETATM   33  N7  UNL     1      13.944  23.889  17.348  1.00  0.00    -0.241 N 
HETATM   34  N8  UNL     1      14.863  24.369  18.204  1.00  0.00    -0.287 N 
ATOM     35  H7  UNL     1      13.071  24.359  17.110  1.00  0.00     0.208 HD
ATOM     36  H8  UNL     1      14.802  25.250  18.715  1.00  0.00     0.188 HD
BRANCH  32  37
HETATM   37  C16 UNL     1      13.651  21.816  15.967  1.00  0.00     0.151 C 
BRANCH  37  38
HETATM   38  C17 UNL     1      13.587  20.448  16.592  1.00  0.00     0.052 C 
BRANCH  38  39
HETATM   39  C18 UNL     1      12.184  19.963  16.829  1.00  0.00     0.274 C 
BRANCH  39  40
HETATM   40  N5  UNL     1      11.996  19.796  18.277  1.00  0.00     0.091 N 
HETATM   41  C19 UNL     1      11.283  18.547  18.542  1.00  0.00     0.302 C 
HETATM   42  C20 UNL     1      12.190  17.372  18.382  1.00  0.00     0.302 C 
HETATM   43  N6  UNL     1      13.376  17.440  19.196  1.00  0.00     0.087 N 
HETATM   44  C21 UNL     1      14.538  17.377  18.343  1.00  0.00     0.310 C 
HETATM   45  C22 UNL     1      13.375  18.698  19.947  1.00  0.00     0.302 C 
HETATM   46  C23 UNL     1      13.323  19.791  18.890  1.00  0.00     0.302 C 
ENDBRANCH  39  40
ENDBRANCH  38  39
ENDBRANCH  37  38
ENDBRANCH  32  37
ENDBRANCH  29  30
ENDBRANCH   4  29
TORSDOF 14
ENDMDL
MODEL 3
REMARK VINA RESULT: -8.977062877      3.075     10.081
REMARK  14 active torsions:
REMARK  status: ('A' for Active; 'I' for Inactive)
REMARK    1  A    between atoms: C2_2  and  C4_4 
REMARK    2  A    between atoms: C6_6  and  C7_7 
REMARK    3  A    between atoms: C7_7  and  N1_8 
REMARK       I    between atoms: N1_8  and  C8_10 
REMARK    4  A    between atoms: C8_10  and  C9_12 
REMARK    5  A    between atoms: C9_12  and  C10_13 
REMARK    6  A    between atoms: C10_13  and  N2_14 
REMARK    7  A    between atoms: N3_17  and  C13_18 
REMARK    8  A    between atoms: C13_18  and  C14_19 
REMARK    9  A    between atoms: N4_21  and  C16_22 
REMARK   10  A    between atoms: C16_22  and  C17_23 
REMARK   11  A    between atoms: C17_23  and  C18_24 
REMARK   12  A    between atoms: C18_24  and  N5_25 
REMARK   13  A    between atoms: C26_38  and  C27_39 
REMARK   14  A    between atoms: C32_44  and  O2_45 
ROOT
HETATM    1  N2  UNL     1      17.584  24.393  15.458  1.00  0.00    -0.386 N 
HETATM    2  C11 UNL     1      18.065  23.146  15.621  1.00  0.00     0.152 C 
HETATM    3  C12 UNL     1      16.969  22.237  16.264  1.00  0.00     0.292 C 
HETATM    4  N3  UNL     1      15.636  22.637  15.854  1.00  0.00     0.097 N 
HETATM    5  C24 UNL     1      15.343  23.981  16.254  1.00  0.00     0.292 C 
HETATM    6  C25 UNL     1      16.640  24.718  16.582  1.00  0.00     0.152 C 
ENDROOT
BRANCH   1   7
HETATM    7  C10 UNL     1      17.930  25.536  14.789  1.00  0.00     0.091 C 
BRANCH   7   8
HETATM    8  C9  UNL     1      19.286  26.078  14.864  1.00  0.00     0.091 C 
BRANCH   8   9
HETATM    9  C8  UNL     1      19.980  26.423  16.072  1.00  0.00     0.246 C 
HETATM   10  N1  UNL     1      20.505  25.460  16.956  1.00  0.00    -0.333 N 
ATOM     11  H1  UNL     1      20.538  24.475  16.694  1.00  0.00     0.168 HD
HETATM   12  O1  UNL     1      20.101  27.664  16.369  1.00  0.00    -0.268 OA
BRANCH  10  13
HETATM   13  C7  UNL     1      20.996  25.898  18.244  1.00  0.00     0.103 C 
BRANCH  13  14
HETATM   14  C6  UNL     1      20.653  25.116  19.411  1.00  0.00    -0.013 A 
HETATM   15  C5  UNL     1      19.447  24.357  19.379  1.00  0.00     0.023 A 
HETATM   16  C4  UNL     1      19.136  23.393  20.292  1.00  0.00    -0.021 A 
HETATM   17  C32 UNL     1      20.034  23.139  21.316  1.00  0.00     0.072 A 
HETATM   18  C31 UNL     1      21.197  23.857  21.369  1.00  0.00     0.046 A 
HETATM   19  C26 UNL     1      21.514  24.844  20.426  1.00  0.00    -0.036 A 
BRANCH  16  20
HETATM   20  C2  UNL     1      17.974  22.536  20.173  1.00  0.00     0.013 C 
HETATM   21  C1  UNL     1      18.171  21.343  19.309  1.00  0.00     0.015 C 
HETATM   22  C3  UNL     1      16.670  23.191  19.824  1.00  0.00     0.015 C 
ENDBRANCH  16  20
BRANCH  17  23
HETATM   23  O2  UNL     1      19.817  22.192  22.299  1.00  0.00    -0.360 OA
ATOM     24  H2  UNL     1      19.431  22.394  23.143  1.00  0.00     0.217 HD
ENDBRANCH  17  23
BRANCH  19  25
HETATM   25  C27 UNL     1      22.717  25.655  20.629  1.00  0.00    -0.023 C 
HETATM   26  C28 UNL     1      22.668  27.130  20.532  1.00  0.00     0.019 C 
HETATM   27  C29 UNL     1      23.327  25.263  22.028  1.00  0.00     0.019 C 
HETATM   28  C30 UNL     1      23.804  25.168  19.668  1.00  0.00     0.019 C 
ENDBRANCH  19  25
ENDBRANCH  13  14
ENDBRANCH  10  13
ENDBRANCH   8   9
ENDBRANCH   7   8
ENDBRANCH   1   7
BRANCH   4  29
HETATM   29  C13 UNL     1      15.359  22.332  14.491  1.00  0.00     0.332 C 
BRANCH  29  30
HETATM   30  C14 UNL     1      14.300  21.346  14.281  1.00  0.00     0.072 A 
HETATM   31  C15 UNL     1      13.086  21.200  14.858  1.00  0.00     0.140 A 
HETATM   32  N4  UNL     1      12.426  20.129  14.307  1.00  0.00    -0.287 N 
HETATM   33  N7  UNL     1      13.218  19.625  13.419  1.00  0.00    -0.241 N 
HETATM   34  N8  UNL     1      14.367  20.322  13.358  1.00  0.00    -0.287 N 
ATOM     35  H7  UNL     1      13.002  18.811  12.843  1.00  0.00     0.208 HD
ATOM     36  H8  UNL     1      15.152  20.127  12.738  1.00  0.00     0.188 HD
BRANCH  32  37
HETATM   37  C16 UNL     1      11.064  19.775  14.694  1.00  0.00     0.151 C 
BRANCH  37  38
HETATM   38  C17 UNL     1      10.866  20.012  16.168  1.00  0.00     0.052 C 
BRANCH  38  39
HETATM   39  C18 UNL     1      11.223  18.825  17.018  1.00  0.00     0.274 C 
BRANCH  39  40
HETATM   40  N5  UNL     1      11.530  19.308  18.372  1.00  0.00     0.091 N 
HETATM   41  C19 UNL     1      11.281  18.245  19.344  1.00  0.00     0.302 C 
HETATM   42  C20 UNL     1      12.371  17.226  19.309  1.00  0.00     0.302 C 
HETATM   43  N6  UNL     1      13.686  17.776  19.511  1.00  0.00     0.087 N 
HETATM   44  C21 UNL     1      14.512  17.458  18.373  1.00  0.00     0.310 C 
HETATM   45  C22 UNL     1      13.583  19.229  19.665  1.00  0.00     0.302 C 
HETATM   46  C23 UNL     1      12.933  19.718  18.380  1.00  0.00     0.302 C 
ENDBRANCH  39  40
ENDBRANCH  38  39
ENDBRANCH  37  38
ENDBRANCH  32  37
ENDBRANCH  29  30
ENDBRANCH   4  29
TORSDOF 14
ENDMDL
MODEL 4
REMARK VINA RESULT: -8.865947796      2.107      4.733
REMARK  14 active torsions:
REMARK  status: ('A' for Active; 'I' for Inactive)
REMARK    1  A    between atoms: C2_2  and  C4_4 
REMARK    2  A    between atoms: C6_6  and  C7_7 
REMARK    3  A    between atoms: C7_7  and  N1_8 
REMARK       I    between atoms: N1_8  and  C8_10 
REMARK    4  A    between atoms: C8_10  and  C9_12 
REMARK    5  A    between atoms: C9_12  and  C10_13 
REMARK    6  A    between atoms: C10_13  and  N2_14 
REMARK    7  A    between atoms: N3_17  and  C13_18 
REMARK    8  A    between atoms: C13_18  and  C14_19 
REMARK    9  A    between atoms: N4_21  and  C16_22 
REMARK   10  A    between atoms: C16_22  and  C17_23 
REMARK   11  A    between atoms: C17_23  and  C18_24 
REMARK   12  A    between atoms: C18_24  and  N5_25 
REMARK   13  A    between atoms: C26_38  and  C27_39 
REMARK   14  A    between atoms: C32_44  and  O2_45 
ROOT
HETATM    1  N2  UNL     1      17.191  23.676  18.771  1.00  0.00    -0.386 N 
HETATM    2  C11 UNL     1      17.332  22.746  19.733  1.00  0.00     0.152 C 
HETATM    3  C12 UNL     1      18.834  22.333  19.852  1.00  0.00     0.292 C 
HETATM    4  N3  UNL     1      19.718  23.440  19.540  1.00  0.00     0.097 N 
HETATM    5  C24 UNL     1      19.525  23.906  18.200  1.00  0.00     0.292 C 
HETATM    6  C25 UNL     1      18.180  23.414  17.669  1.00  0.00     0.152 C 
ENDROOT
BRANCH   1   7
HETATM    7  C10 UNL     1      16.237  24.562  18.345  1.00  0.00     0.091 C 
BRANCH   7   8
HETATM    8  C9  UNL     1      14.910  24.108  17.934  1.00  0.00     0.091 C 
BRANCH   8   9
HETATM    9  C8  UNL     1      14.611  22.835  17.341  1.00  0.00     0.246 C 
HETATM   10  N1  UNL     1      13.952  21.802  18.035  1.00  0.00    -0.333 N 
ATOM     11  H1  UNL     1      13.529  21.974  18.947  1.00  0.00     0.168 HD
HETATM   12  O1  UNL     1      14.988  22.624  16.134  1.00  0.00    -0.268 OA
BRANCH  10  13
HETATM   13  C7  UNL     1      13.887  20.491  17.428  1.00  0.00     0.103 C 
BRANCH  13  14
HETATM   14  C6  UNL     1      12.592  19.861  17.292  1.00  0.00    -0.013 A 
HETATM   15  C5  UNL     1      11.708  20.356  16.291  1.00  0.00     0.023 A 
HETATM   16  C4  UNL     1      10.580  19.703  15.889  1.00  0.00    -0.021 A 
HETATM   17  C32 UNL     1      10.266  18.496  16.491  1.00  0.00     0.072 A 
HETATM   18  C31 UNL     1      11.099  18.003  17.457  1.00  0.00     0.046 A 
HETATM   19  C26 UNL     1      12.260  18.674  17.864  1.00  0.00    -0.036 A 
BRANCH  16  20
HETATM   20  C2  UNL     1       9.762  20.147  14.779  1.00  0.00     0.013 C 
HETATM   21  C1  UNL     1      10.305  19.809  13.437  1.00  0.00     0.015 C 
HETATM   22  C3  UNL     1       9.313  21.579  14.784  1.00  0.00     0.015 C 
ENDBRANCH  16  20
BRANCH  17  23
HETATM   23  O2  UNL     1       9.144  17.755  16.168  1.00  0.00    -0.360 OA
ATOM     24  H2  UNL     1       8.666  17.229  16.798  1.00  0.00     0.217 HD
ENDBRANCH  17  23
BRANCH  19  25
HETATM   25  C27 UNL     1      13.025  18.143  18.993  1.00  0.00    -0.023 C 
HETATM   26  C28 UNL     1      13.493  19.027  20.083  1.00  0.00     0.019 C 
HETATM   27  C29 UNL     1      12.190  16.966  19.625  1.00  0.00     0.019 C 
HETATM   28  C30 UNL     1      14.248  17.400  18.450  1.00  0.00     0.019 C 
ENDBRANCH  19  25
ENDBRANCH  13  14
ENDBRANCH  10  13
ENDBRANCH   8   9
ENDBRANCH   7   8
ENDBRANCH   1   7
BRANCH   4  29
HETATM   29  C13 UNL     1      19.719  24.451  20.543  1.00  0.00     0.332 C 
BRANCH  29  30
HETATM   30  C14 UNL     1      20.667  25.541  20.320  1.00  0.00     0.072 A 
HETATM   31  C15 UNL     1      21.941  25.541  19.864  1.00  0.00     0.140 A 
HETATM   32  N4  UNL     1      22.420  26.826  19.798  1.00  0.00    -0.287 N 
HETATM   33  N7  UNL     1      21.467  27.595  20.211  1.00  0.00    -0.241 N 
HETATM   34  N8  UNL     1      20.382  26.873  20.539  1.00  0.00    -0.287 N 
ATOM     35  H7  UNL     1      21.530  28.612  20.278  1.00  0.00     0.208 HD
ATOM     36  H8  UNL     1      19.499  27.246  20.889  1.00  0.00     0.188 HD
BRANCH  32  37
HETATM   37  C16 UNL     1      23.749  27.132  19.278  1.00  0.00     0.151 C 
BRANCH  37  38
HETATM   38  C17 UNL     1      23.841  26.737  17.828  1.00  0.00     0.052 C 
BRANCH  38  39
HETATM   39  C18 UNL     1      22.904  27.504  16.938  1.00  0.00     0.274 C 
BRANCH  39  40
HETATM   40  N5  UNL     1      21.840  26.591  16.499  1.00  0.00     0.091 N 
HETATM   41  C19 UNL     1      20.537  27.236  16.663  1.00  0.00     0.302 C 
HETATM   42  C20 UNL     1      20.305  28.246  15.589  1.00  0.00     0.302 C 
HETATM   43  N6  UNL     1      20.424  27.714  14.256  1.00  0.00     0.087 N 
HETATM   44  C21 UNL     1      21.445  28.445  13.545  1.00  0.00     0.310 C 
HETATM   45  C22 UNL     1      20.784  26.296  14.332  1.00  0.00     0.302 C 
HETATM   46  C23 UNL     1      22.098  26.262  15.098  1.00  0.00     0.302 C 
ENDBRANCH  39  40
ENDBRANCH  38  39
ENDBRANCH  37  38
ENDBRANCH  32  37
ENDBRANCH  29  30
ENDBRANCH   4  29
TORSDOF 14
ENDMDL
MODEL 5
REMARK VINA RESULT: -8.828056801      1.716      3.176
REMARK  14 active torsions:
REMARK  status: ('A' for Active; 'I' for Inactive)
REMARK    1  A    between atoms: C2_2  and  C4_4 
REMARK    2  A    between atoms: C6_6  and  C7_7 
REMARK    3  A    between atoms: C7_7  and  N1_8 
REMARK       I    between atoms: N1_8  and  C8_10 
REMARK    4  A    between atoms: C8_10  and  C9_12 
REMARK    5  A    between atoms: C9_12  and  C10_13 
REMARK    6  A    between atoms: C10_13  and  N2_14 
REMARK    7  A    between atoms: N3_17  and  C13_18 
REMARK    8  A    between atoms: C13_18  and  C14_19 
REMARK    9  A    between atoms: N4_21  and  C16_22 
REMARK   10  A    between atoms: C16_22  and  C17_23 
REMARK   11  A    between atoms: C17_23  and  C18_24 
REMARK   12  A    between atoms: C18_24  and  N5_25 
REMARK   13  A    between atoms: C26_38  and  C27_39 
REMARK   14  A    between atoms: C32_44  and  O2_45 
ROOT
HETATM    1  N2  UNL     1      19.457  24.336  20.581  1.00  0.00    -0.386 N 
HETATM    2  C11 UNL     1      20.170  24.793  21.626  1.00  0.00     0.152 C 
HETATM    3  C12 UNL     1      21.667  24.962  21.210  1.00  0.00     0.292 C 
HETATM    4  N3  UNL     1      21.795  25.325  19.811  1.00  0.00     0.097 N 
HETATM    5  C24 UNL     1      21.241  24.320  18.955  1.00  0.00     0.292 C 
HETATM    6  C25 UNL     1      20.310  23.412  19.756  1.00  0.00     0.152 C 
ENDROOT
BRANCH   1   7
HETATM    7  C10 UNL     1      18.140  24.197  20.231  1.00  0.00     0.091 C 
BRANCH   7   8
HETATM    8  C9  UNL     1      17.520  22.878  20.120  1.00  0.00     0.091 C 
BRANCH   8   9
HETATM    9  C8  UNL     1      16.829  22.376  18.966  1.00  0.00     0.246 C 
HETATM   10  N1  UNL     1      16.885  21.026  18.566  1.00  0.00    -0.333 N 
ATOM     11  H1  UNL     1      17.304  20.321  19.171  1.00  0.00     0.168 HD
HETATM   12  O1  UNL     1      16.155  23.203  18.255  1.00  0.00    -0.268 OA
BRANCH  10  13
HETATM   13  C7  UNL     1      16.334  20.662  17.280  1.00  0.00     0.103 C 
BRANCH  13  14
HETATM   14  C6  UNL     1      14.922  20.358  17.199  1.00  0.00    -0.013 A 
HETATM   15  C5  UNL     1      14.345  19.575  18.239  1.00  0.00     0.023 A 
HETATM   16  C4  UNL     1      13.001  19.431  18.420  1.00  0.00    -0.021 A 
HETATM   17  C32 UNL     1      12.144  20.072  17.541  1.00  0.00     0.072 A 
HETATM   18  C31 UNL     1      12.676  20.827  16.532  1.00  0.00     0.046 A 
HETATM   19  C26 UNL     1      14.058  20.976  16.352  1.00  0.00    -0.036 A 
BRANCH  16  20
HETATM   20  C2  UNL     1      12.425  18.745  19.559  1.00  0.00     0.013 C 
HETATM   21  C1  UNL     1      13.100  19.021  20.854  1.00  0.00     0.015 C 
HETATM   22  C3  UNL     1      12.192  17.269  19.427  1.00  0.00     0.015 C 
ENDBRANCH  16  20
BRANCH  17  23
HETATM   23  O2  UNL     1      10.767  19.988  17.625  1.00  0.00    -0.360 OA
ATOM     24  H2  UNL     1      10.189  20.105  16.879  1.00  0.00     0.217 HD
ENDBRANCH  17  23
BRANCH  19  25
HETATM   25  C27 UNL     1      14.544  21.694  15.172  1.00  0.00    -0.023 C 
HETATM   26  C28 UNL     1      15.927  22.215  15.111  1.00  0.00     0.019 C 
HETATM   27  C29 UNL     1      14.299  20.773  13.917  1.00  0.00     0.019 C 
HETATM   28  C30 UNL     1      13.600  22.865  14.888  1.00  0.00     0.019 C 
ENDBRANCH  19  25
ENDBRANCH  13  14
ENDBRANCH  10  13
ENDBRANCH   8   9
ENDBRANCH   7   8
ENDBRANCH   1   7
BRANCH   4  29
HETATM   29  C13 UNL     1      21.371  26.657  19.541  1.00  0.00     0.332 C 
BRANCH  29  30
HETATM   30  C14 UNL     1      22.030  27.297  18.404  1.00  0.00     0.072 A 
HETATM   31  C15 UNL     1      21.530  27.852  17.276  1.00  0.00     0.140 A 
HETATM   32  N4  UNL     1      22.549  28.357  16.506  1.00  0.00    -0.287 N 
HETATM   33  N7  UNL     1      23.647  28.112  17.142  1.00  0.00    -0.241 N 
HETATM   34  N8  UNL     1      23.395  27.474  18.298  1.00  0.00    -0.287 N 
ATOM     35  H7  UNL     1      24.578  28.368  16.812  1.00  0.00     0.208 HD
ATOM     36  H8  UNL     1      24.091  27.172  18.979  1.00  0.00     0.188 HD
BRANCH  32  37
HETATM   37  C16 UNL     1      22.297  29.072  15.259  1.00  0.00     0.151 C 
BRANCH  37  38
HETATM   38  C17 UNL     1      21.603  28.168  14.275  1.00  0.00     0.052 C 
BRANCH  38  39
HETATM   39  C18 UNL     1      20.128  28.027  14.528  1.00  0.00     0.274 C 
BRANCH  39  40
HETATM   40  N5  UNL     1      19.679  26.766  13.923  1.00  0.00     0.091 N 
HETATM   41  C19 UNL     1      20.536  25.669  14.372  1.00  0.00     0.302 C 
HETATM   42  C20 UNL     1      20.206  25.276  15.774  1.00  0.00     0.302 C 
HETATM   43  N6  UNL     1      18.823  24.927  15.968  1.00  0.00     0.087 N 
HETATM   44  C21 UNL     1      18.256  25.787  16.978  1.00  0.00     0.310 C 
HETATM   45  C22 UNL     1      18.100  25.095  14.705  1.00  0.00     0.302 C 
HETATM   46  C23 UNL     1      18.291  26.557  14.331  1.00  0.00     0.302 C 
ENDBRANCH  39  40
ENDBRANCH  38  39
ENDBRANCH  37  38
ENDBRANCH  32  37
ENDBRANCH  29  30
ENDBRANCH   4  29
TORSDOF 14
ENDMDL
