MODEL 1
REMARK VINA RESULT: -9.939272444      0.000      0.000
REMARK  8 active torsions:
REMARK  status: ('A' for Active; 'I' for Inactive)
REMARK    1  A    between atoms: C2_2  and  C3_5 
REMARK    2  A    between atoms: C5_9  and  N2_10 
REMARK    3  A    between atoms: N2_10  and  C6_12 
REMARK    4  A    between atoms: C9_15  and  N3_16 
REMARK    5  A    between atoms: N3_16  and  C10_18 
REMARK    6  A    between atoms: C18_27  and  C19_28 
REMARK    7  A    between atoms: C22_33  and  O2_34 
REMARK    8  A    between atoms: O2_34  and  C23_35 
ROOT
HETATM    1  C3  UNL     1     -12.717 -38.864  21.510  1.00  0.00     0.029 A 
HETATM    2  C4  UNL     1     -12.465 -37.513  21.438  1.00  0.00     0.103 A 
HETATM    3  N1  UNL     1     -11.792 -36.909  22.382  1.00  0.00    -0.351 N 
ATOM      4  H1  UNL     1     -11.634 -35.906  22.281  1.00  0.00     0.166 HD
HETATM    5  C5  UNL     1     -11.280 -37.522  23.500  1.00  0.00     0.115 A 
HETATM    6  C18 UNL     1     -11.509 -38.855  23.618  1.00  0.00     0.052 A 
HETATM    7  C25 UNL     1     -12.233 -39.524  22.608  1.00  0.00     0.033 A 
ENDROOT
BRANCH   5   8
HETATM    8  N2  UNL     1     -10.449 -36.747  24.381  1.00  0.00    -0.371 N 
ATOM      9  H2  UNL     1     -10.481 -36.885  25.391  1.00  0.00     0.161 HD
BRANCH   8  10
HETATM   10  C6  UNL     1      -9.579 -35.782  23.798  1.00  0.00     0.083 C 
HETATM   11  C7  UNL     1      -9.033 -34.753  24.761  1.00  0.00     0.027 C 
HETATM   12  C8  UNL     1      -7.597 -34.350  24.364  1.00  0.00     0.027 C 
HETATM   13  C9  UNL     1      -7.473 -34.210  22.919  1.00  0.00     0.079 C 
HETATM   14  C16 UNL     1      -7.675 -35.663  22.345  1.00  0.00     0.027 C 
HETATM   15  C17 UNL     1      -8.351 -36.550  23.318  1.00  0.00     0.027 C 
BRANCH  13  16
HETATM   16  N3  UNL     1      -6.343 -33.780  22.263  1.00  0.00    -0.393 N 
ATOM     17  H3  UNL     1      -6.505 -33.299  21.379  1.00  0.00     0.156 HD
BRANCH  16  18
HETATM   18  C10 UNL     1      -5.023 -33.909  22.634  1.00  0.00     0.216 C 
HETATM   19  C11 UNL     1      -4.085 -33.503  21.520  1.00  0.00     0.053 C 
HETATM   20  C12 UNL     1      -2.720 -34.093  21.604  1.00  0.00     0.004 C 
HETATM   21  C13 UNL     1      -2.346 -34.717  22.899  1.00  0.00     0.002 C 
HETATM   22  C14 UNL     1      -2.485 -33.783  24.074  1.00  0.00     0.026 C 
HETATM   23  C15 UNL     1      -3.879 -33.675  24.610  1.00  0.00     0.170 C 
HETATM   24  O1  UNL     1      -4.754 -33.055  23.719  1.00  0.00    -0.367 OA
ENDBRANCH  16  18
ENDBRANCH  13  16
ENDBRANCH   8  10
ENDBRANCH   5   8
BRANCH   6  25
HETATM   25  C19 UNL     1     -11.161 -39.615  24.808  1.00  0.00     0.121 A 
HETATM   26  N4  UNL     1     -11.864 -40.743  25.190  1.00  0.00    -0.339 N 
HETATM   27  C20 UNL     1     -11.301 -41.313  26.260  1.00  0.00     0.082 A 
ATOM     28  H4  UNL     1     -12.698 -41.093  24.719  1.00  0.00     0.167 HD
HETATM   29  C21 UNL     1     -11.299 -42.334  27.204  1.00  0.00     0.089 A 
HETATM   30  C24 UNL     1     -10.213 -40.543  26.583  1.00  0.00     0.136 A 
HETATM   31  C22 UNL     1     -10.236 -42.180  28.071  1.00  0.00     0.154 A 
HETATM   32  N5  UNL     1      -9.590 -41.077  27.667  1.00  0.00    -0.321 N 
ATOM     33  H5  UNL     1      -8.753 -40.695  28.109  1.00  0.00     0.169 HD
HETATM   34  N6  UNL     1     -10.165 -39.533  25.688  1.00  0.00    -0.326 N 
ATOM     35  H6  UNL     1      -9.456 -38.800  25.687  1.00  0.00     0.169 HD
BRANCH  31  36
HETATM   36  O2  UNL     1      -9.846 -42.962  29.156  1.00  0.00    -0.239 OA
BRANCH  36  37
HETATM   37  C23 UNL     1      -9.687 -44.364  29.052  1.00  0.00     0.531 C 
HETATM   38  F3  UNL     1     -10.916 -44.951  29.264  1.00  0.00    -0.144 F 
HETATM   39  F4  UNL     1      -9.072 -44.742  27.895  1.00  0.00    -0.144 F 
HETATM   40  F5  UNL     1      -8.903 -44.785  30.139  1.00  0.00    -0.144 F 
ENDBRANCH  36  37
ENDBRANCH  31  36
ENDBRANCH   6  25
BRANCH   1  41
HETATM   41  C2  UNL     1     -13.454 -39.472  20.387  1.00  0.00     0.268 C 
HETATM   42  C1  UNL     1     -14.022 -38.473  19.425  1.00  0.00     0.096 C 
HETATM   43  F1  UNL     1     -14.424 -40.287  20.965  1.00  0.00    -0.201 F 
HETATM   44  F2  UNL     1     -12.615 -40.322  19.686  1.00  0.00    -0.201 F 
ENDBRANCH   1  41
TORSDOF 8
ENDMDL
MODEL 2
REMARK VINA RESULT: -9.749730425      1.445      1.582
REMARK  8 active torsions:
REMARK  status: ('A' for Active; 'I' for Inactive)
REMARK    1  A    between atoms: C2_2  and  C3_5 
REMARK    2  A    between atoms: C5_9  and  N2_10 
REMARK    3  A    between atoms: N2_10  and  C6_12 
REMARK    4  A    between atoms: C9_15  and  N3_16 
REMARK    5  A    between atoms: N3_16  and  C10_18 
REMARK    6  A    between atoms: C18_27  and  C19_28 
REMARK    7  A    between atoms: C22_33  and  O2_34 
REMARK    8  A    between atoms: O2_34  and  C23_35 
ROOT
HETATM    1  C3  UNL     1     -14.273 -37.679  22.677  1.00  0.00     0.029 A 
HETATM    2  C4  UNL     1     -13.465 -36.851  21.930  1.00  0.00     0.103 A 
HETATM    3  N1  UNL     1     -12.169 -36.854  22.101  1.00  0.00    -0.351 N 
ATOM      4  H1  UNL     1     -11.616 -36.220  21.524  1.00  0.00     0.166 HD
HETATM    5  C5  UNL     1     -11.494 -37.645  22.999  1.00  0.00     0.115 A 
HETATM    6  C18 UNL     1     -12.251 -38.474  23.764  1.00  0.00     0.052 A 
HETATM    7  C25 UNL     1     -13.652 -38.486  23.592  1.00  0.00     0.033 A 
ENDROOT
BRANCH   5   8
HETATM    8  N2  UNL     1     -10.057 -37.629  22.976  1.00  0.00    -0.371 N 
ATOM      9  H2  UNL     1      -9.523 -38.490  22.863  1.00  0.00     0.161 HD
BRANCH   8  10
HETATM   10  C6  UNL     1      -9.403 -36.371  23.114  1.00  0.00     0.083 C 
HETATM   11  C7  UNL     1      -9.170 -35.928  24.540  1.00  0.00     0.027 C 
HETATM   12  C8  UNL     1      -7.847 -35.143  24.653  1.00  0.00     0.027 C 
HETATM   13  C9  UNL     1      -7.673 -34.245  23.519  1.00  0.00     0.079 C 
HETATM   14  C16 UNL     1      -7.496 -35.189  22.269  1.00  0.00     0.027 C 
HETATM   15  C17 UNL     1      -8.004 -36.554  22.535  1.00  0.00     0.027 C 
BRANCH  13  16
HETATM   16  N3  UNL     1      -6.637 -33.352  23.372  1.00  0.00    -0.393 N 
ATOM     17  H3  UNL     1      -6.893 -32.440  22.994  1.00  0.00     0.156 HD
BRANCH  16  18
HETATM   18  C10 UNL     1      -5.301 -33.518  23.664  1.00  0.00     0.216 C 
HETATM   19  C11 UNL     1      -4.418 -33.096  22.512  1.00  0.00     0.053 C 
HETATM   20  C12 UNL     1      -3.063 -33.713  22.501  1.00  0.00     0.004 C 
HETATM   21  C13 UNL     1      -2.631 -34.384  23.754  1.00  0.00     0.002 C 
HETATM   22  C14 UNL     1      -2.684 -33.485  24.962  1.00  0.00     0.026 C 
HETATM   23  C15 UNL     1      -4.044 -33.367  25.579  1.00  0.00     0.170 C 
HETATM   24  O1  UNL     1      -4.954 -32.703  24.757  1.00  0.00    -0.367 OA
ENDBRANCH  16  18
ENDBRANCH  13  16
ENDBRANCH   8  10
ENDBRANCH   5   8
BRANCH   6  25
HETATM   25  C19 UNL     1     -11.703 -39.263  24.856  1.00  0.00     0.121 A 
HETATM   26  N4  UNL     1     -12.489 -40.111  25.614  1.00  0.00    -0.339 N 
HETATM   27  C20 UNL     1     -11.743 -40.788  26.493  1.00  0.00     0.082 A 
ATOM     28  H4  UNL     1     -13.499 -40.207  25.516  1.00  0.00     0.167 HD
HETATM   29  C21 UNL     1     -11.665 -41.729  27.514  1.00  0.00     0.089 A 
HETATM   30  C24 UNL     1     -10.449 -40.374  26.306  1.00  0.00     0.136 A 
HETATM   31  C22 UNL     1     -10.356 -41.875  27.929  1.00  0.00     0.154 A 
HETATM   32  N5  UNL     1      -9.636 -41.035  27.172  1.00  0.00    -0.321 N 
ATOM     33  H5  UNL     1      -8.625 -40.910  27.238  1.00  0.00     0.169 HD
HETATM   34  N6  UNL     1     -10.468 -39.457  25.315  1.00  0.00    -0.326 N 
ATOM     35  H6  UNL     1      -9.642 -38.974  24.964  1.00  0.00     0.169 HD
BRANCH  31  36
HETATM   36  O2  UNL     1      -9.816 -42.702  28.911  1.00  0.00    -0.239 OA
BRANCH  36  37
HETATM   37  C23 UNL     1      -9.862 -44.113  28.815  1.00  0.00     0.531 C 
HETATM   38  F3  UNL     1     -11.044 -44.542  29.381  1.00  0.00    -0.144 F 
HETATM   39  F4  UNL     1      -9.649 -44.563  27.545  1.00  0.00    -0.144 F 
HETATM   40  F5  UNL     1      -8.860 -44.630  29.652  1.00  0.00    -0.144 F 
ENDBRANCH  36  37
ENDBRANCH  31  36
ENDBRANCH   6  25
BRANCH   1  41
HETATM   41  C2  UNL     1     -15.720 -37.636  22.397  1.00  0.00     0.268 C 
HETATM   42  C1  UNL     1     -16.157 -36.411  21.655  1.00  0.00     0.096 C 
HETATM   43  F1  UNL     1     -16.351 -37.783  23.630  1.00  0.00    -0.201 F 
HETATM   44  F2  UNL     1     -16.082 -38.748  21.653  1.00  0.00    -0.201 F 
ENDBRANCH   1  41
TORSDOF 8
ENDMDL
MODEL 3
REMARK VINA RESULT: -9.669597993      2.126      2.379
REMARK  8 active torsions:
REMARK  status: ('A' for Active; 'I' for Inactive)
REMARK    1  A    between atoms: C2_2  and  C3_5 
REMARK    2  A    between atoms: C5_9  and  N2_10 
REMARK    3  A    between atoms: N2_10  and  C6_12 
REMARK    4  A    between atoms: C9_15  and  N3_16 
REMARK    5  A    between atoms: N3_16  and  C10_18 
REMARK    6  A    between atoms: C18_27  and  C19_28 
REMARK    7  A    between atoms: C22_33  and  O2_34 
REMARK    8  A    between atoms: O2_34  and  C23_35 
ROOT
HETATM    1  C3  UNL     1     -14.150 -37.435  22.388  1.00  0.00     0.029 A 
HETATM    2  C4  UNL     1     -13.245 -36.943  21.475  1.00  0.00     0.103 A 
HETATM    3  N1  UNL     1     -11.966 -36.935  21.743  1.00  0.00    -0.351 N 
ATOM      4  H1  UNL     1     -11.338 -36.557  21.033  1.00  0.00     0.166 HD
HETATM    5  C5  UNL     1     -11.401 -37.397  22.907  1.00  0.00     0.115 A 
HETATM    6  C18 UNL     1     -12.256 -37.887  23.842  1.00  0.00     0.052 A 
HETATM    7  C25 UNL     1     -13.641 -37.905  23.570  1.00  0.00     0.033 A 
ENDROOT
BRANCH   5   8
HETATM    8  N2  UNL     1      -9.967 -37.443  22.998  1.00  0.00    -0.371 N 
ATOM      9  H2  UNL     1      -9.467 -38.332  22.983  1.00  0.00     0.161 HD
BRANCH   8  10
HETATM   10  C6  UNL     1      -9.267 -36.208  23.108  1.00  0.00     0.083 C 
HETATM   11  C7  UNL     1      -9.030 -35.734  24.523  1.00  0.00     0.027 C 
HETATM   12  C8  UNL     1      -7.678 -34.996  24.626  1.00  0.00     0.027 C 
HETATM   13  C9  UNL     1      -7.461 -34.138  23.469  1.00  0.00     0.079 C 
HETATM   14  C16 UNL     1      -7.309 -35.122  22.248  1.00  0.00     0.027 C 
HETATM   15  C17 UNL     1      -7.871 -36.459  22.546  1.00  0.00     0.027 C 
BRANCH  13  16
HETATM   16  N3  UNL     1      -6.391 -33.289  23.308  1.00  0.00    -0.393 N 
ATOM     17  H3  UNL     1      -6.603 -32.393  22.870  1.00  0.00     0.156 HD
BRANCH  16  18
HETATM   18  C10 UNL     1      -5.072 -33.480  23.655  1.00  0.00     0.216 C 
HETATM   19  C11 UNL     1      -4.139 -33.182  22.504  1.00  0.00     0.053 C 
HETATM   20  C12 UNL     1      -2.809 -33.848  22.585  1.00  0.00     0.004 C 
HETATM   21  C13 UNL     1      -2.442 -34.435  23.899  1.00  0.00     0.002 C 
HETATM   22  C14 UNL     1      -2.496 -33.443  25.032  1.00  0.00     0.026 C 
HETATM   23  C15 UNL     1      -3.867 -33.227  25.593  1.00  0.00     0.170 C 
HETATM   24  O1  UNL     1      -4.726 -32.597  24.694  1.00  0.00    -0.367 OA
ENDBRANCH  16  18
ENDBRANCH  13  16
ENDBRANCH   8  10
ENDBRANCH   5   8
BRANCH   6  25
HETATM   25  C19 UNL     1     -11.830 -38.276  25.176  1.00  0.00     0.121 A 
HETATM   26  N4  UNL     1     -11.398 -39.558  25.464  1.00  0.00    -0.339 N 
HETATM   27  C20 UNL     1     -10.979 -39.643  26.730  1.00  0.00     0.082 A 
ATOM     28  H4  UNL     1     -11.398 -40.332  24.801  1.00  0.00     0.167 HD
HETATM   29  C21 UNL     1     -10.444 -40.410  27.760  1.00  0.00     0.089 A 
HETATM   30  C24 UNL     1     -11.141 -38.397  27.279  1.00  0.00     0.136 A 
HETATM   31  C22 UNL     1     -10.290 -39.643  28.897  1.00  0.00     0.154 A 
HETATM   32  N5  UNL     1     -10.724 -38.417  28.573  1.00  0.00    -0.321 N 
ATOM     33  H5  UNL     1     -10.739 -37.617  29.206  1.00  0.00     0.169 HD
HETATM   34  N6  UNL     1     -11.657 -37.606  26.314  1.00  0.00    -0.326 N 
ATOM     35  H6  UNL     1     -11.884 -36.620  26.440  1.00  0.00     0.169 HD
BRANCH  31  36
HETATM   36  O2  UNL     1      -9.792 -39.991  30.151  1.00  0.00    -0.239 OA
BRANCH  36  37
HETATM   37  C23 UNL     1     -10.411 -40.976  30.957  1.00  0.00     0.531 C 
HETATM   38  F3  UNL     1      -9.837 -40.924  32.210  1.00  0.00    -0.144 F 
HETATM   39  F4  UNL     1     -11.771 -40.883  30.955  1.00  0.00    -0.144 F 
HETATM   40  F5  UNL     1     -10.042 -42.233  30.452  1.00  0.00    -0.144 F 
ENDBRANCH  36  37
ENDBRANCH  31  36
ENDBRANCH   6  25
BRANCH   1  41
HETATM   41  C2  UNL     1     -15.570 -37.438  21.993  1.00  0.00     0.268 C 
HETATM   42  C1  UNL     1     -16.060 -36.115  21.488  1.00  0.00     0.096 C 
HETATM   43  F1  UNL     1     -16.274 -37.894  23.105  1.00  0.00    -0.201 F 
HETATM   44  F2  UNL     1     -15.776 -38.384  21.003  1.00  0.00    -0.201 F 
ENDBRANCH   1  41
TORSDOF 8
ENDMDL
MODEL 4
REMARK VINA RESULT: -9.638550224      3.275      3.976
REMARK  8 active torsions:
REMARK  status: ('A' for Active; 'I' for Inactive)
REMARK    1  A    between atoms: C2_2  and  C3_5 
REMARK    2  A    between atoms: C5_9  and  N2_10 
REMARK    3  A    between atoms: N2_10  and  C6_12 
REMARK    4  A    between atoms: C9_15  and  N3_16 
REMARK    5  A    between atoms: N3_16  and  C10_18 
REMARK    6  A    between atoms: C18_27  and  C19_28 
REMARK    7  A    between atoms: C22_33  and  O2_34 
REMARK    8  A    between atoms: O2_34  and  C23_35 
ROOT
HETATM    1  C3  UNL     1     -14.141 -35.513  27.258  1.00  0.00     0.029 A 
HETATM    2  C4  UNL     1     -13.713 -34.883  26.111  1.00  0.00     0.103 A 
HETATM    3  N1  UNL     1     -12.816 -35.439  25.340  1.00  0.00    -0.351 N 
ATOM      4  H1  UNL     1     -12.532 -34.929  24.503  1.00  0.00     0.166 HD
HETATM    5  C5  UNL     1     -12.225 -36.658  25.571  1.00  0.00     0.115 A 
HETATM    6  C18 UNL     1     -12.611 -37.315  26.695  1.00  0.00     0.052 A 
HETATM    7  C25 UNL     1     -13.580 -36.731  27.539  1.00  0.00     0.033 A 
ENDROOT
BRANCH   5   8
HETATM    8  N2  UNL     1     -11.354 -37.194  24.561  1.00  0.00    -0.371 N 
ATOM      9  H2  UNL     1     -11.446 -38.160  24.245  1.00  0.00     0.161 HD
BRANCH   8  10
HETATM   10  C6  UNL     1     -10.358 -36.335  24.016  1.00  0.00     0.083 C 
HETATM   11  C7  UNL     1      -9.311 -35.868  25.001  1.00  0.00     0.027 C 
HETATM   12  C8  UNL     1      -7.942 -35.722  24.305  1.00  0.00     0.027 C 
HETATM   13  C9  UNL     1      -8.087 -35.130  22.982  1.00  0.00     0.079 C 
HETATM   14  C16 UNL     1      -8.875 -36.201  22.136  1.00  0.00     0.027 C 
HETATM   15  C17 UNL     1      -9.585 -37.170  23.000  1.00  0.00     0.027 C 
BRANCH  13  16
HETATM   16  N3  UNL     1      -7.044 -34.795  22.150  1.00  0.00    -0.393 N 
ATOM     17  H3  UNL     1      -7.159 -35.062  21.172  1.00  0.00     0.156 HD
BRANCH  16  18
HETATM   18  C10 UNL     1      -5.866 -34.150  22.452  1.00  0.00     0.216 C 
HETATM   19  C11 UNL     1      -5.092 -33.779  21.207  1.00  0.00     0.053 C 
HETATM   20  C12 UNL     1      -3.630 -33.587  21.411  1.00  0.00     0.004 C 
HETATM   21  C13 UNL     1      -3.169 -33.454  22.818  1.00  0.00     0.002 C 
HETATM   22  C14 UNL     1      -3.859 -32.345  23.570  1.00  0.00     0.026 C 
HETATM   23  C15 UNL     1      -5.200 -32.719  24.120  1.00  0.00     0.170 C 
HETATM   24  O1  UNL     1      -6.149 -32.946  23.124  1.00  0.00    -0.367 OA
ENDBRANCH  16  18
ENDBRANCH  13  16
ENDBRANCH   8  10
ENDBRANCH   5   8
BRANCH   6  25
HETATM   25  C19 UNL     1     -11.975 -38.540  27.153  1.00  0.00     0.121 A 
HETATM   26  N4  UNL     1     -12.532 -39.785  26.925  1.00  0.00    -0.339 N 
HETATM   27  C20 UNL     1     -11.721 -40.753  27.361  1.00  0.00     0.082 A 
ATOM     28  H4  UNL     1     -13.438 -39.942  26.485  1.00  0.00     0.167 HD
HETATM   29  C21 UNL     1     -11.468 -42.111  27.528  1.00  0.00     0.089 A 
HETATM   30  C24 UNL     1     -10.616 -40.131  27.882  1.00  0.00     0.136 A 
HETATM   31  C22 UNL     1     -10.243 -42.297  28.135  1.00  0.00     0.154 A 
HETATM   32  N5  UNL     1      -9.744 -41.070  28.339  1.00  0.00    -0.321 N 
ATOM     33  H5  UNL     1      -8.843 -40.869  28.774  1.00  0.00     0.169 HD
HETATM   34  N6  UNL     1     -10.809 -38.802  27.739  1.00  0.00    -0.326 N 
ATOM     35  H6  UNL     1     -10.145 -38.090  28.042  1.00  0.00     0.169 HD
BRANCH  31  36
HETATM   36  O2  UNL     1      -9.589 -43.475  28.488  1.00  0.00    -0.239 OA
BRANCH  36  37
HETATM   37  C23 UNL     1      -9.819 -44.120  29.726  1.00  0.00     0.531 C 
HETATM   38  F3  UNL     1      -8.674 -44.807  30.070  1.00  0.00    -0.144 F 
HETATM   39  F4  UNL     1     -10.277 -43.268  30.688  1.00  0.00    -0.144 F 
HETATM   40  F5  UNL     1     -10.781 -45.121  29.513  1.00  0.00    -0.144 F 
ENDBRANCH  36  37
ENDBRANCH  31  36
ENDBRANCH   6  25
BRANCH   1  41
HETATM   41  C2  UNL     1     -15.179 -34.832  28.052  1.00  0.00     0.268 C 
HETATM   42  C1  UNL     1     -14.920 -34.846  29.527  1.00  0.00     0.096 C 
HETATM   43  F1  UNL     1     -16.384 -35.438  27.703  1.00  0.00    -0.201 F 
HETATM   44  F2  UNL     1     -15.288 -33.514  27.642  1.00  0.00    -0.201 F 
ENDBRANCH   1  41
TORSDOF 8
ENDMDL
MODEL 5
REMARK VINA RESULT: -9.567445591      1.562      1.800
REMARK  8 active torsions:
REMARK  status: ('A' for Active; 'I' for Inactive)
REMARK    1  A    between atoms: C2_2  and  C3_5 
REMARK    2  A    between atoms: C5_9  and  N2_10 
REMARK    3  A    between atoms: N2_10  and  C6_12 
REMARK    4  A    between atoms: C9_15  and  N3_16 
REMARK    5  A    between atoms: N3_16  and  C10_18 
REMARK    6  A    between atoms: C18_27  and  C19_28 
REMARK    7  A    between atoms: C22_33  and  O2_34 
REMARK    8  A    between atoms: O2_34  and  C23_35 
ROOT
HETATM    1  C3  UNL     1     -12.614 -38.875  22.017  1.00  0.00     0.029 A 
HETATM    2  C4  UNL     1     -12.351 -37.537  21.827  1.00  0.00     0.103 A 
HETATM    3  N1  UNL     1     -11.685 -36.855  22.721  1.00  0.00    -0.351 N 
ATOM      4  H1  UNL     1     -11.519 -35.866  22.532  1.00  0.00     0.166 HD
HETATM    5  C5  UNL     1     -11.191 -37.367  23.896  1.00  0.00     0.115 A 
HETATM    6  C18 UNL     1     -11.432 -38.683  24.132  1.00  0.00     0.052 A 
HETATM    7  C25 UNL     1     -12.148 -39.436  23.177  1.00  0.00     0.033 A 
ENDROOT
BRANCH   5   8
HETATM    8  N2  UNL     1     -10.365 -36.521  24.714  1.00  0.00    -0.371 N 
ATOM      9  H2  UNL     1     -10.403 -36.575  25.732  1.00  0.00     0.161 HD
BRANCH   8  10
HETATM   10  C6  UNL     1      -9.493 -35.606  24.058  1.00  0.00     0.083 C 
HETATM   11  C7  UNL     1      -8.864 -34.569  24.958  1.00  0.00     0.027 C 
HETATM   12  C8  UNL     1      -7.437 -34.231  24.478  1.00  0.00     0.027 C 
HETATM   13  C9  UNL     1      -7.381 -34.140  23.025  1.00  0.00     0.079 C 
HETATM   14  C16 UNL     1      -7.662 -35.602  22.510  1.00  0.00     0.027 C 
HETATM   15  C17 UNL     1      -8.319 -36.433  23.544  1.00  0.00     0.027 C 
BRANCH  13  16
HETATM   16  N3  UNL     1      -6.271 -33.772  22.300  1.00  0.00    -0.393 N 
ATOM     17  H3  UNL     1      -6.461 -33.318  21.407  1.00  0.00     0.156 HD
BRANCH  16  18
HETATM   18  C10 UNL     1      -4.940 -33.932  22.613  1.00  0.00     0.216 C 
HETATM   19  C11 UNL     1      -4.040 -33.506  21.475  1.00  0.00     0.053 C 
HETATM   20  C12 UNL     1      -2.683 -34.117  21.484  1.00  0.00     0.004 C 
HETATM   21  C13 UNL     1      -2.267 -34.786  22.744  1.00  0.00     0.002 C 
HETATM   22  C14 UNL     1      -2.343 -33.887  23.951  1.00  0.00     0.026 C 
HETATM   23  C15 UNL     1      -3.712 -33.776  24.547  1.00  0.00     0.170 C 
HETATM   24  O1  UNL     1      -4.613 -33.116  23.712  1.00  0.00    -0.367 OA
ENDBRANCH  16  18
ENDBRANCH  13  16
ENDBRANCH   8  10
ENDBRANCH   5   8
BRANCH   6  25
HETATM   25  C19 UNL     1     -11.104 -39.334  25.390  1.00  0.00     0.121 A 
HETATM   26  N4  UNL     1     -12.019 -39.440  26.421  1.00  0.00    -0.339 N 
HETATM   27  C20 UNL     1     -11.513 -40.153  27.431  1.00  0.00     0.082 A 
ATOM     28  H4  UNL     1     -12.952 -39.030  26.412  1.00  0.00     0.167 HD
HETATM   29  C21 UNL     1     -11.674 -40.709  28.696  1.00  0.00     0.089 A 
HETATM   30  C24 UNL     1     -10.246 -40.519  27.054  1.00  0.00     0.136 A 
HETATM   31  C22 UNL     1     -10.532 -41.391  29.068  1.00  0.00     0.154 A 
HETATM   32  N5  UNL     1      -9.677 -41.258  28.044  1.00  0.00    -0.321 N 
ATOM     33  H5  UNL     1      -8.737 -41.653  28.013  1.00  0.00     0.169 HD
HETATM   34  N6  UNL     1     -10.039 -40.006  25.822  1.00  0.00    -0.326 N 
ATOM     35  H6  UNL     1      -9.175 -40.119  25.292  1.00  0.00     0.169 HD
BRANCH  31  36
HETATM   36  O2  UNL     1     -10.251 -42.097  30.235  1.00  0.00    -0.239 OA
BRANCH  36  37
HETATM   37  C23 UNL     1     -10.270 -41.480  31.508  1.00  0.00     0.531 C 
HETATM   38  F3  UNL     1      -9.610 -42.307  32.393  1.00  0.00    -0.144 F 
HETATM   39  F4  UNL     1      -9.806 -40.197  31.481  1.00  0.00    -0.144 F 
HETATM   40  F5  UNL     1     -11.600 -41.470  31.958  1.00  0.00    -0.144 F 
ENDBRANCH  36  37
ENDBRANCH  31  36
ENDBRANCH   6  25
BRANCH   1  41
HETATM   41  C2  UNL     1     -13.341 -39.577  20.944  1.00  0.00     0.268 C 
HETATM   42  C1  UNL     1     -14.575 -40.285  21.413  1.00  0.00     0.096 C 
HETATM   43  F1  UNL     1     -12.413 -40.429  20.349  1.00  0.00    -0.201 F 
HETATM   44  F2  UNL     1     -13.706 -38.672  19.961  1.00  0.00    -0.201 F 
ENDBRANCH   1  41
TORSDOF 8
ENDMDL
