MODEL 1
REMARK VINA RESULT: -7.202916863      0.000      0.000
REMARK  10 active torsions:
REMARK  status: ('A' for Active; 'I' for Inactive)
REMARK    1  A    between atoms: C8_11  and  N2_12 
REMARK    2  A    between atoms: N2_12  and  C9_14 
REMARK    3  A    between atoms: C9_14  and  C10_15 
REMARK    4  A    between atoms: C10_15  and  C11_16 
REMARK    5  A    between atoms: N3_30  and  C20_31 
REMARK    6  A    between atoms: C20_31  and  C21_32 
REMARK    7  A    between atoms: C21_32  and  C22_33 
REMARK    8  A    between atoms: C22_33  and  O2_36 
REMARK    9  A    between atoms: C26_39  and  C27_40 
REMARK   10  A    between atoms: C27_40  and  O3_41 
ROOT
HETATM    1  C1  UNL     1     -14.421 -44.112  27.888  1.00  0.00     0.032 C 
HETATM    2  C2  UNL     1     -13.787 -43.737  26.569  1.00  0.00     0.075 C 
HETATM    3  C3  UNL     1     -12.705 -44.657  26.149  1.00  0.00     0.024 C 
HETATM    4  C4  UNL     1     -11.313 -44.144  26.240  1.00  0.00     0.007 C 
HETATM    5  C5  UNL     1     -11.114 -42.974  27.126  1.00  0.00     0.062 C 
HETATM    6  C6  UNL     1     -12.204 -41.937  27.055  1.00  0.00     0.145 C 
HETATM    7  N1  UNL     1     -13.398 -42.388  26.432  1.00  0.00    -0.387 N 
ATOM      8  H1  UNL     1     -13.970 -41.741  25.889  1.00  0.00     0.156 HD
HETATM    9  O1  UNL     1     -12.616 -41.708  28.426  1.00  0.00    -0.317 OA
HETATM   10  C7  UNL     1     -11.696 -41.246  29.315  1.00  0.00     0.108 A 
HETATM   11  C8  UNL     1     -11.764 -41.518  30.662  1.00  0.00     0.065 A 
HETATM   12  C12 UNL     1     -10.798 -41.016  31.487  1.00  0.00     0.077 A 
HETATM   13  C13 UNL     1      -9.746 -40.233  31.005  1.00  0.00     0.157 A 
HETATM   14  F4  UNL     1      -8.808 -39.753  31.869  1.00  0.00    -0.203 F 
HETATM   15  C14 UNL     1      -9.695 -39.974  29.673  1.00  0.00     0.164 A 
HETATM   16  F5  UNL     1      -8.670 -39.209  29.191  1.00  0.00    -0.202 F 
HETATM   17  C15 UNL     1     -10.678 -40.483  28.822  1.00  0.00     0.020 A 
HETATM   18  C16 UNL     1     -10.540 -40.141  27.415  1.00  0.00     0.060 C 
HETATM   19  C17 UNL     1     -11.705 -40.642  26.521  1.00  0.00     0.026 C 
HETATM   20  C18 UNL     1     -12.771 -39.571  26.658  1.00  0.00     0.060 C 
HETATM   21  C19 UNL     1     -12.306 -38.241  26.184  1.00  0.00     0.064 C 
HETATM   22  N3  UNL     1     -11.334 -38.199  25.175  1.00  0.00    -0.373 N 
HETATM   23  C25 UNL     1     -10.390 -39.213  25.060  1.00  0.00     0.134 C 
HETATM   24  C26 UNL     1     -11.155 -40.570  25.159  1.00  0.00     0.041 C 
ENDROOT
BRANCH  24  25
HETATM   25  C27 UNL     1     -12.004 -40.576  23.961  1.00  0.00     0.171 C 
BRANCH  25  26
HETATM   26  O3  UNL     1     -12.420 -41.821  23.575  1.00  0.00    -0.400 OA
ATOM     27  H3  UNL     1     -13.194 -41.819  23.025  1.00  0.00     0.209 HD
ENDBRANCH  25  26
ENDBRANCH  24  25
BRANCH  22  28
HETATM   28  C20 UNL     1     -11.262 -37.068  24.350  1.00  0.00     0.066 C 
BRANCH  28  29
HETATM   29  C21 UNL     1     -10.515 -35.953  25.039  1.00  0.00     0.081 C 
BRANCH  29  30
HETATM   30  C22 UNL     1      -9.098 -35.832  24.570  1.00  0.00     0.055 C 
HETATM   31  C23 UNL     1      -8.637 -34.393  24.626  1.00  0.00     0.045 C 
HETATM   32  C24 UNL     1      -8.956 -36.304  23.147  1.00  0.00     0.045 C 
BRANCH  30  33
HETATM   33  O2  UNL     1      -8.260 -36.589  25.397  1.00  0.00    -0.390 OA
ATOM     34  H2  UNL     1      -7.980 -37.372  24.939  1.00  0.00     0.210 HD
ENDBRANCH  30  33
ENDBRANCH  29  30
ENDBRANCH  28  29
ENDBRANCH  22  28
BRANCH  11  35
HETATM   35  N2  UNL     1     -12.818 -42.318  31.157  1.00  0.00    -0.387 N 
ATOM     36  H2  UNL     1     -13.277 -42.948  30.500  1.00  0.00     0.159 HD
BRANCH  35  37
HETATM   37  C9  UNL     1     -13.301 -42.313  32.523  1.00  0.00     0.128 C 
BRANCH  37  38
HETATM   38  C10 UNL     1     -12.784 -43.481  33.303  1.00  0.00     0.137 C 
BRANCH  38  39
HETATM   39  C11 UNL     1     -11.872 -43.021  34.441  1.00  0.00     0.389 C 
HETATM   40  F1  UNL     1     -10.586 -43.165  34.016  1.00  0.00    -0.171 F 
HETATM   41  F2  UNL     1     -12.125 -43.737  35.589  1.00  0.00    -0.171 F 
HETATM   42  F3  UNL     1     -12.100 -41.687  34.684  1.00  0.00    -0.171 F 
ENDBRANCH  38  39
ENDBRANCH  37  38
ENDBRANCH  35  37
ENDBRANCH  11  35
TORSDOF 10
ENDMDL
MODEL 2
REMARK VINA RESULT: -6.929562776      1.867      2.360
REMARK  10 active torsions:
REMARK  status: ('A' for Active; 'I' for Inactive)
REMARK    1  A    between atoms: C8_11  and  N2_12 
REMARK    2  A    between atoms: N2_12  and  C9_14 
REMARK    3  A    between atoms: C9_14  and  C10_15 
REMARK    4  A    between atoms: C10_15  and  C11_16 
REMARK    5  A    between atoms: N3_30  and  C20_31 
REMARK    6  A    between atoms: C20_31  and  C21_32 
REMARK    7  A    between atoms: C21_32  and  C22_33 
REMARK    8  A    between atoms: C22_33  and  O2_36 
REMARK    9  A    between atoms: C26_39  and  C27_40 
REMARK   10  A    between atoms: C27_40  and  O3_41 
ROOT
HETATM    1  C1  UNL     1     -14.577 -43.722  27.138  1.00  0.00     0.032 C 
HETATM    2  C2  UNL     1     -13.840 -43.193  25.930  1.00  0.00     0.075 C 
HETATM    3  C3  UNL     1     -12.766 -44.092  25.451  1.00  0.00     0.024 C 
HETATM    4  C4  UNL     1     -11.365 -43.661  25.702  1.00  0.00     0.007 C 
HETATM    5  C5  UNL     1     -11.186 -42.639  26.758  1.00  0.00     0.062 C 
HETATM    6  C6  UNL     1     -12.230 -41.554  26.770  1.00  0.00     0.145 C 
HETATM    7  N1  UNL     1     -13.393 -41.857  26.014  1.00  0.00    -0.387 N 
ATOM      8  H1  UNL     1     -13.903 -41.114  25.536  1.00  0.00     0.156 HD
HETATM    9  O1  UNL     1     -12.727 -41.503  28.131  1.00  0.00    -0.317 OA
HETATM   10  C7  UNL     1     -11.855 -41.215  29.134  1.00  0.00     0.108 A 
HETATM   11  C8  UNL     1     -12.025 -41.672  30.420  1.00  0.00     0.065 A 
HETATM   12  C12 UNL     1     -11.100 -41.336  31.368  1.00  0.00     0.077 A 
HETATM   13  C13 UNL     1      -9.990 -40.542  31.072  1.00  0.00     0.157 A 
HETATM   14  F4  UNL     1      -9.097 -40.233  32.053  1.00  0.00    -0.203 F 
HETATM   15  C14 UNL     1      -9.838 -40.098  29.797  1.00  0.00     0.164 A 
HETATM   16  F5  UNL     1      -8.756 -39.321  29.497  1.00  0.00    -0.202 F 
HETATM   17  C15 UNL     1     -10.778 -40.437  28.821  1.00  0.00     0.020 A 
HETATM   18  C16 UNL     1     -10.531 -39.905  27.490  1.00  0.00     0.060 C 
HETATM   19  C17 UNL     1     -11.649 -40.220  26.461  1.00  0.00     0.026 C 
HETATM   20  C18 UNL     1     -12.683 -39.133  26.685  1.00  0.00     0.060 C 
HETATM   21  C19 UNL     1     -12.138 -37.771  26.438  1.00  0.00     0.064 C 
HETATM   22  N3  UNL     1     -11.099 -37.631  25.509  1.00  0.00    -0.373 N 
HETATM   23  C25 UNL     1     -10.186 -38.660  25.308  1.00  0.00     0.134 C 
HETATM   24  C26 UNL     1     -11.004 -39.981  25.162  1.00  0.00     0.041 C 
ENDROOT
BRANCH  24  25
HETATM   25  C27 UNL     1     -11.768 -39.779  23.924  1.00  0.00     0.171 C 
BRANCH  25  26
HETATM   26  O3  UNL     1     -12.126 -40.937  23.290  1.00  0.00    -0.400 OA
ATOM     27  H3  UNL     1     -12.977 -40.903  22.870  1.00  0.00     0.209 HD
ENDBRANCH  25  26
ENDBRANCH  24  25
BRANCH  22  28
HETATM   28  C20 UNL     1     -10.929 -36.399  24.862  1.00  0.00     0.066 C 
BRANCH  28  29
HETATM   29  C21 UNL     1      -9.773 -36.460  23.894  1.00  0.00     0.081 C 
BRANCH  29  30
HETATM   30  C22 UNL     1      -8.614 -35.616  24.325  1.00  0.00     0.055 C 
HETATM   31  C23 UNL     1      -9.082 -34.248  24.765  1.00  0.00     0.045 C 
HETATM   32  C24 UNL     1      -7.634 -35.425  23.197  1.00  0.00     0.045 C 
BRANCH  30  33
HETATM   33  O2  UNL     1      -7.965 -36.222  25.406  1.00  0.00    -0.390 OA
ATOM     34  H2  UNL     1      -7.157 -35.759  25.596  1.00  0.00     0.210 HD
ENDBRANCH  30  33
ENDBRANCH  29  30
ENDBRANCH  28  29
ENDBRANCH  22  28
BRANCH  11  35
HETATM   35  N2  UNL     1     -13.139 -42.484  30.727  1.00  0.00    -0.387 N 
ATOM     36  H2  UNL     1     -13.102 -43.461  30.434  1.00  0.00     0.159 HD
BRANCH  35  37
HETATM   37  C9  UNL     1     -14.330 -42.042  31.424  1.00  0.00     0.128 C 
BRANCH  37  38
HETATM   38  C10 UNL     1     -15.294 -41.360  30.504  1.00  0.00     0.137 C 
BRANCH  38  39
HETATM   39  C11 UNL     1     -15.249 -39.843  30.689  1.00  0.00     0.389 C 
HETATM   40  F1  UNL     1     -16.533 -39.389  30.648  1.00  0.00    -0.171 F 
HETATM   41  F2  UNL     1     -14.458 -39.257  29.727  1.00  0.00    -0.171 F 
HETATM   42  F3  UNL     1     -14.731 -39.560  31.931  1.00  0.00    -0.171 F 
ENDBRANCH  38  39
ENDBRANCH  37  38
ENDBRANCH  35  37
ENDBRANCH  11  35
TORSDOF 10
ENDMDL
MODEL 3
REMARK VINA RESULT: -6.784585961      1.591      1.781
REMARK  10 active torsions:
REMARK  status: ('A' for Active; 'I' for Inactive)
REMARK    1  A    between atoms: C8_11  and  N2_12 
REMARK    2  A    between atoms: N2_12  and  C9_14 
REMARK    3  A    between atoms: C9_14  and  C10_15 
REMARK    4  A    between atoms: C10_15  and  C11_16 
REMARK    5  A    between atoms: N3_30  and  C20_31 
REMARK    6  A    between atoms: C20_31  and  C21_32 
REMARK    7  A    between atoms: C21_32  and  C22_33 
REMARK    8  A    between atoms: C22_33  and  O2_36 
REMARK    9  A    between atoms: C26_39  and  C27_40 
REMARK   10  A    between atoms: C27_40  and  O3_41 
ROOT
HETATM    1  C1  UNL     1     -13.923 -43.922  28.586  1.00  0.00     0.032 C 
HETATM    2  C2  UNL     1     -13.389 -43.560  27.220  1.00  0.00     0.075 C 
HETATM    3  C3  UNL     1     -12.308 -44.457  26.750  1.00  0.00     0.024 C 
HETATM    4  C4  UNL     1     -10.930 -43.901  26.737  1.00  0.00     0.007 C 
HETATM    5  C5  UNL     1     -10.710 -42.705  27.582  1.00  0.00     0.062 C 
HETATM    6  C6  UNL     1     -11.833 -41.703  27.560  1.00  0.00     0.145 C 
HETATM    7  N1  UNL     1     -13.051 -42.204  27.028  1.00  0.00    -0.387 N 
ATOM      8  H1  UNL     1     -13.677 -41.587  26.510  1.00  0.00     0.156 HD
HETATM    9  O1  UNL     1     -12.162 -41.453  28.950  1.00  0.00    -0.317 OA
HETATM   10  C7  UNL     1     -11.201 -40.943  29.767  1.00  0.00     0.108 A 
HETATM   11  C8  UNL     1     -11.172 -41.184  31.120  1.00  0.00     0.065 A 
HETATM   12  C12 UNL     1     -10.169 -40.634  31.868  1.00  0.00     0.077 A 
HETATM   13  C13 UNL     1      -9.176 -39.832  31.301  1.00  0.00     0.157 A 
HETATM   14  F4  UNL     1      -8.199 -39.304  32.090  1.00  0.00    -0.203 F 
HETATM   15  C14 UNL     1      -9.221 -39.603  29.962  1.00  0.00     0.164 A 
HETATM   16  F5  UNL     1      -8.254 -38.821  29.397  1.00  0.00    -0.202 F 
HETATM   17  C15 UNL     1     -10.241 -40.162  29.190  1.00  0.00     0.020 A 
HETATM   18  C16 UNL     1     -10.206 -39.850  27.770  1.00  0.00     0.060 C 
HETATM   19  C17 UNL     1     -11.411 -40.406  26.966  1.00  0.00     0.026 C 
HETATM   20  C18 UNL     1     -12.499 -39.365  27.150  1.00  0.00     0.060 C 
HETATM   21  C19 UNL     1     -12.107 -38.033  26.617  1.00  0.00     0.064 C 
HETATM   22  N3  UNL     1     -11.205 -37.987  25.545  1.00  0.00    -0.373 N 
HETATM   23  C25 UNL     1     -10.240 -38.975  25.390  1.00  0.00     0.134 C 
HETATM   24  C26 UNL     1     -10.954 -40.352  25.570  1.00  0.00     0.041 C 
ENDROOT
BRANCH  24  25
HETATM   25  C27 UNL     1     -11.878 -40.411  24.430  1.00  0.00     0.171 C 
BRANCH  25  26
HETATM   26  O3  UNL     1     -12.107 -41.676  23.961  1.00  0.00    -0.400 OA
ATOM     27  H3  UNL     1     -12.100 -41.746  23.013  1.00  0.00     0.209 HD
ENDBRANCH  25  26
ENDBRANCH  24  25
BRANCH  22  28
HETATM   28  C20 UNL     1     -11.222 -36.875  24.692  1.00  0.00     0.066 C 
BRANCH  28  29
HETATM   29  C21 UNL     1     -10.036 -36.900  23.759  1.00  0.00     0.081 C 
BRANCH  29  30
HETATM   30  C22 UNL     1      -8.928 -36.000  24.210  1.00  0.00     0.055 C 
HETATM   31  C23 UNL     1      -9.477 -34.678  24.697  1.00  0.00     0.045 C 
HETATM   32  C24 UNL     1      -7.971 -35.712  23.083  1.00  0.00     0.045 C 
BRANCH  30  33
HETATM   33  O2  UNL     1      -8.234 -36.598  25.268  1.00  0.00    -0.390 OA
ATOM     34  H2  UNL     1      -8.091 -35.962  25.958  1.00  0.00     0.210 HD
ENDBRANCH  30  33
ENDBRANCH  29  30
ENDBRANCH  28  29
ENDBRANCH  22  28
BRANCH  11  35
HETATM   35  N2  UNL     1     -12.166 -42.002  31.701  1.00  0.00    -0.387 N 
ATOM     36  H2  UNL     1     -13.090 -41.592  31.838  1.00  0.00     0.159 HD
BRANCH  35  37
HETATM   37  C9  UNL     1     -11.979 -43.377  32.121  1.00  0.00     0.128 C 
BRANCH  37  38
HETATM   38  C10 UNL     1     -10.534 -43.701  32.342  1.00  0.00     0.137 C 
BRANCH  38  39
HETATM   39  C11 UNL     1      -9.928 -44.374  31.110  1.00  0.00     0.389 C 
HETATM   40  F1  UNL     1      -9.448 -43.388  30.302  1.00  0.00    -0.171 F 
HETATM   41  F2  UNL     1     -10.862 -45.161  30.474  1.00  0.00    -0.171 F 
HETATM   42  F3  UNL     1      -8.872 -45.161  31.506  1.00  0.00    -0.171 F 
ENDBRANCH  38  39
ENDBRANCH  37  38
ENDBRANCH  35  37
ENDBRANCH  11  35
TORSDOF 10
ENDMDL
MODEL 4
REMARK VINA RESULT: -6.774191277      4.463      9.528
REMARK  10 active torsions:
REMARK  status: ('A' for Active; 'I' for Inactive)
REMARK    1  A    between atoms: C8_11  and  N2_12 
REMARK    2  A    between atoms: N2_12  and  C9_14 
REMARK    3  A    between atoms: C9_14  and  C10_15 
REMARK    4  A    between atoms: C10_15  and  C11_16 
REMARK    5  A    between atoms: N3_30  and  C20_31 
REMARK    6  A    between atoms: C20_31  and  C21_32 
REMARK    7  A    between atoms: C21_32  and  C22_33 
REMARK    8  A    between atoms: C22_33  and  O2_36 
REMARK    9  A    between atoms: C26_39  and  C27_40 
REMARK   10  A    between atoms: C27_40  and  O3_41 
ROOT
HETATM    1  C1  UNL     1     -14.400 -37.655  22.168  1.00  0.00     0.032 C 
HETATM    2  C2  UNL     1     -14.599 -37.824  23.656  1.00  0.00     0.075 C 
HETATM    3  C3  UNL     1     -15.083 -36.599  24.331  1.00  0.00     0.024 C 
HETATM    4  C4  UNL     1     -14.108 -35.872  25.187  1.00  0.00     0.007 C 
HETATM    5  C5  UNL     1     -12.680 -36.177  24.937  1.00  0.00     0.062 C 
HETATM    6  C6  UNL     1     -12.382 -37.629  24.672  1.00  0.00     0.145 C 
HETATM    7  N1  UNL     1     -13.526 -38.410  24.360  1.00  0.00    -0.387 N 
ATOM      8  H1  UNL     1     -13.571 -39.389  24.644  1.00  0.00     0.156 HD
HETATM    9  O1  UNL     1     -11.622 -37.653  23.438  1.00  0.00    -0.317 OA
HETATM   10  C7  UNL     1     -10.432 -36.997  23.391  1.00  0.00     0.108 A 
HETATM   11  C8  UNL     1      -9.920 -36.471  22.228  1.00  0.00     0.065 A 
HETATM   12  C12 UNL     1      -8.716 -35.825  22.270  1.00  0.00     0.077 A 
HETATM   13  C13 UNL     1      -7.990 -35.685  23.454  1.00  0.00     0.157 A 
HETATM   14  F4  UNL     1      -6.793 -35.034  23.443  1.00  0.00    -0.203 F 
HETATM   15  C14 UNL     1      -8.510 -36.212  24.593  1.00  0.00     0.164 A 
HETATM   16  F5  UNL     1      -7.808 -36.081  25.758  1.00  0.00    -0.202 F 
HETATM   17  C15 UNL     1      -9.740 -36.874  24.561  1.00  0.00     0.020 A 
HETATM   18  C16 UNL     1     -10.206 -37.410  25.830  1.00  0.00     0.060 C 
HETATM   19  C17 UNL     1     -11.524 -38.223  25.732  1.00  0.00     0.026 C 
HETATM   20  C18 UNL     1     -11.078 -39.615  25.327  1.00  0.00     0.060 C 
HETATM   21  C19 UNL     1     -10.174 -40.238  26.331  1.00  0.00     0.064 C 
HETATM   22  N3  UNL     1     -10.316 -39.862  27.674  1.00  0.00    -0.373 N 
HETATM   23  C25 UNL     1     -10.756 -38.586  28.008  1.00  0.00     0.134 C 
HETATM   24  C26 UNL     1     -12.003 -38.280  27.120  1.00  0.00     0.041 C 
ENDROOT
BRANCH  24  25
HETATM   25  C27 UNL     1     -12.999 -39.258  27.576  1.00  0.00     0.171 C 
BRANCH  25  26
HETATM   26  O3  UNL     1     -13.419 -39.071  28.864  1.00  0.00    -0.400 OA
ATOM     27  H3  UNL     1     -14.256 -38.628  28.940  1.00  0.00     0.209 HD
ENDBRANCH  25  26
ENDBRANCH  24  25
BRANCH  22  28
HETATM   28  C20 UNL     1      -9.907 -40.754  28.674  1.00  0.00     0.066 C 
BRANCH  28  29
HETATM   29  C21 UNL     1     -10.334 -40.261  30.035  1.00  0.00     0.081 C 
BRANCH  29  30
HETATM   30  C22 UNL     1     -11.134 -41.277  30.791  1.00  0.00     0.055 C 
HETATM   31  C23 UNL     1     -10.440 -41.652  32.081  1.00  0.00     0.045 C 
HETATM   32  C24 UNL     1     -11.312 -42.536  29.983  1.00  0.00     0.045 C 
BRANCH  30  33
HETATM   33  O2  UNL     1     -12.389 -40.748  31.111  1.00  0.00    -0.390 OA
ATOM     34  H2  UNL     1     -12.499 -40.732  32.054  1.00  0.00     0.210 HD
ENDBRANCH  30  33
ENDBRANCH  29  30
ENDBRANCH  28  29
ENDBRANCH  22  28
BRANCH  11  35
HETATM   35  N2  UNL     1     -10.651 -36.597  21.027  1.00  0.00    -0.387 N 
ATOM     36  H2  UNL     1     -11.579 -37.017  21.085  1.00  0.00     0.159 HD
BRANCH  35  37
HETATM   37  C9  UNL     1     -10.189 -36.180  19.718  1.00  0.00     0.128 C 
BRANCH  37  38
HETATM   38  C10 UNL     1     -11.292 -36.193  18.706  1.00  0.00     0.137 C 
BRANCH  38  39
HETATM   39  C11 UNL     1     -10.966 -37.142  17.552  1.00  0.00     0.389 C 
HETATM   40  F1  UNL     1     -11.646 -36.700  16.457  1.00  0.00    -0.171 F 
HETATM   41  F2  UNL     1     -11.292 -38.439  17.880  1.00  0.00    -0.171 F 
HETATM   42  F3  UNL     1      -9.620 -37.071  17.282  1.00  0.00    -0.171 F 
ENDBRANCH  38  39
ENDBRANCH  37  38
ENDBRANCH  35  37
ENDBRANCH  11  35
TORSDOF 10
ENDMDL
MODEL 5
REMARK VINA RESULT: -6.655031908      3.546      8.117
REMARK  10 active torsions:
REMARK  status: ('A' for Active; 'I' for Inactive)
REMARK    1  A    between atoms: C8_11  and  N2_12 
REMARK    2  A    between atoms: N2_12  and  C9_14 
REMARK    3  A    between atoms: C9_14  and  C10_15 
REMARK    4  A    between atoms: C10_15  and  C11_16 
REMARK    5  A    between atoms: N3_30  and  C20_31 
REMARK    6  A    between atoms: C20_31  and  C21_32 
REMARK    7  A    between atoms: C21_32  and  C22_33 
REMARK    8  A    between atoms: C22_33  and  O2_36 
REMARK    9  A    between atoms: C26_39  and  C27_40 
REMARK   10  A    between atoms: C27_40  and  O3_41 
ROOT
HETATM    1  C1  UNL     1     -13.335 -37.067  25.486  1.00  0.00     0.032 C 
HETATM    2  C2  UNL     1     -12.021 -37.228  26.214  1.00  0.00     0.075 C 
HETATM    3  C3  UNL     1     -10.857 -37.369  25.310  1.00  0.00     0.024 C 
HETATM    4  C4  UNL     1     -10.240 -38.719  25.212  1.00  0.00     0.007 C 
HETATM    5  C5  UNL     1     -11.087 -39.847  25.662  1.00  0.00     0.062 C 
HETATM    6  C6  UNL     1     -11.898 -39.573  26.900  1.00  0.00     0.145 C 
HETATM    7  N1  UNL     1     -11.997 -38.197  27.239  1.00  0.00    -0.387 N 
ATOM      8  H1  UNL     1     -12.050 -37.912  28.217  1.00  0.00     0.156 HD
HETATM    9  O1  UNL     1     -13.263 -39.925  26.561  1.00  0.00    -0.317 OA
HETATM   10  C7  UNL     1     -13.534 -41.206  26.194  1.00  0.00     0.108 A 
HETATM   11  C8  UNL     1     -14.566 -41.533  25.345  1.00  0.00     0.065 A 
HETATM   12  C12 UNL     1     -14.769 -42.846  25.027  1.00  0.00     0.077 A 
HETATM   13  C13 UNL     1     -13.963 -43.866  25.538  1.00  0.00     0.157 A 
HETATM   14  F4  UNL     1     -14.208 -45.161  25.192  1.00  0.00    -0.203 F 
HETATM   15  C14 UNL     1     -12.949 -43.525  26.375  1.00  0.00     0.164 A 
HETATM   16  F5  UNL     1     -12.154 -44.515  26.881  1.00  0.00    -0.202 F 
HETATM   17  C15 UNL     1     -12.733 -42.186  26.706  1.00  0.00     0.020 A 
HETATM   18  C16 UNL     1     -11.630 -41.927  27.617  1.00  0.00     0.060 C 
HETATM   19  C17 UNL     1     -11.488 -40.440  28.037  1.00  0.00     0.026 C 
HETATM   20  C18 UNL     1     -12.456 -40.282  29.194  1.00  0.00     0.060 C 
HETATM   21  C19 UNL     1     -12.120 -41.166  30.342  1.00  0.00     0.064 C 
HETATM   22  N3  UNL     1     -10.777 -41.517  30.537  1.00  0.00    -0.373 N 
HETATM   23  C25 UNL     1      -9.910 -41.624  29.455  1.00  0.00     0.134 C 
HETATM   24  C26 UNL     1     -10.119 -40.356  28.569  1.00  0.00     0.041 C 
ENDROOT
BRANCH  24  25
HETATM   25  C27 UNL     1      -9.669 -39.255  29.429  1.00  0.00     0.171 C 
BRANCH  25  26
HETATM   26  O3  UNL     1      -9.377 -38.101  28.755  1.00  0.00    -0.400 OA
ATOM     27  H3  UNL     1     -10.140 -37.631  28.440  1.00  0.00     0.209 HD
ENDBRANCH  25  26
ENDBRANCH  24  25
BRANCH  22  28
HETATM   28  C20 UNL     1     -10.348 -41.864  31.825  1.00  0.00     0.066 C 
BRANCH  28  29
HETATM   29  C21 UNL     1     -11.214 -42.958  32.399  1.00  0.00     0.081 C 
BRANCH  29  30
HETATM   30  C22 UNL     1     -10.626 -44.322  32.204  1.00  0.00     0.055 C 
HETATM   31  C23 UNL     1     -11.318 -45.045  31.071  1.00  0.00     0.045 C 
HETATM   32  C24 UNL     1     -10.779 -45.161  33.445  1.00  0.00     0.045 C 
BRANCH  30  33
HETATM   33  O2  UNL     1      -9.269 -44.210  31.883  1.00  0.00    -0.390 OA
ATOM     34  H2  UNL     1      -9.104 -44.616  31.040  1.00  0.00     0.210 HD
ENDBRANCH  30  33
ENDBRANCH  29  30
ENDBRANCH  28  29
ENDBRANCH  22  28
BRANCH  11  35
HETATM   35  N2  UNL     1     -15.380 -40.508  24.815  1.00  0.00    -0.387 N 
ATOM     36  H2  UNL     1     -16.337 -40.443  25.162  1.00  0.00     0.159 HD
BRANCH  35  37
HETATM   37  C9  UNL     1     -14.966 -39.542  23.816  1.00  0.00     0.128 C 
BRANCH  37  38
HETATM   38  C10 UNL     1     -14.552 -40.203  22.539  1.00  0.00     0.137 C 
BRANCH  38  39
HETATM   39  C11 UNL     1     -13.040 -40.096  22.332  1.00  0.00     0.389 C 
HETATM   40  F1  UNL     1     -12.460 -41.111  23.031  1.00  0.00    -0.171 F 
HETATM   41  F2  UNL     1     -12.580 -38.860  22.727  1.00  0.00    -0.171 F 
HETATM   42  F3  UNL     1     -12.759 -40.275  20.998  1.00  0.00    -0.171 F 
ENDBRANCH  38  39
ENDBRANCH  37  38
ENDBRANCH  35  37
ENDBRANCH  11  35
TORSDOF 10
ENDMDL
