MODEL 1
REMARK VINA RESULT: -6.976188627      0.000      0.000
REMARK  12 active torsions:
REMARK  status: ('A' for Active; 'I' for Inactive)
REMARK    1  A    between atoms: S1_2  and  C2_3 
REMARK    2  A    between atoms: C5_12  and  O1_13 
REMARK    3  A    between atoms: C7_16  and  N5_17 
REMARK    4  A    between atoms: N5_17  and  N6_19 
REMARK    5  A    between atoms: N6_19  and  C8_21 
REMARK    6  A    between atoms: C8_21  and  C9_22 
REMARK    7  A    between atoms: C10_24  and  O3_25 
REMARK    8  A    between atoms: C10_24  and  C11_27 
REMARK    9  A    between atoms: C12_30  and  O6_31 
REMARK   10  A    between atoms: C14_34  and  C15_36 
REMARK   11  A    between atoms: C15_36  and  S3_37 
REMARK   12  A    between atoms: S3_37  and  C16_38 
ROOT
HETATM    1  C2  UNL     1      -2.507   9.785  56.390  1.00  0.00     0.174 C 
HETATM    2  N1  UNL     1      -3.682  10.227  55.958  1.00  0.00    -0.355 N 
ATOM      3  H1  UNL     1      -4.364  10.748  56.509  1.00  0.00     0.163 HD
HETATM    4  C3  UNL     1      -3.828   9.835  54.550  1.00  0.00     0.241 C 
HETATM    5  N2  UNL     1      -2.434   9.739  54.165  1.00  0.00    -0.163 NA
HETATM    6  N3  UNL     1      -1.882   9.112  55.327  1.00  0.00    -0.189 N 
HETATM    7  N4  UNL     1      -1.004   8.046  55.215  1.00  0.00    -0.278 N 
ATOM      8  H4  UNL     1      -0.066   7.964  55.606  1.00  0.00     0.189 HD
HETATM    9  C4  UNL     1      -1.740   7.052  54.397  1.00  0.00     0.095 A 
HETATM   10  C5  UNL     1      -1.842   5.753  54.764  1.00  0.00     0.096 A 
HETATM   11  C6  UNL     1      -2.606   4.916  53.956  1.00  0.00     0.072 A 
HETATM   12  C7  UNL     1      -3.225   5.398  52.838  1.00  0.00     0.084 A 
HETATM   13  C12 UNL     1      -3.121   6.756  52.452  1.00  0.00     0.105 A 
HETATM   14  C13 UNL     1      -2.366   7.575  53.250  1.00  0.00     0.045 A 
HETATM   15  C14 UNL     1      -2.083   8.992  53.042  1.00  0.00     0.135 C 
HETATM   16  S2  UNL     1      -0.162   8.997  53.182  1.00  0.00    -0.061 SA
ENDROOT
BRANCH  12  17
HETATM   17  N5  UNL     1      -4.016   4.522  52.012  1.00  0.00    -0.297 N 
ATOM     18  H5  UNL     1      -4.746   4.956  51.445  1.00  0.00     0.187 HD
BRANCH  17  19
HETATM   19  N6  UNL     1      -3.883   3.182  51.917  1.00  0.00    -0.295 N 
ATOM     20  H6  UNL     1      -4.738   2.626  51.914  1.00  0.00     0.187 HD
BRANCH  19  21
HETATM   21  C8  UNL     1      -2.740   2.538  51.826  1.00  0.00     0.126 C 
HETATM   22  C10 UNL     1      -1.782   2.895  50.845  1.00  0.00     0.174 C 
BRANCH  21  23
HETATM   23  C9  UNL     1      -2.610   1.481  52.802  1.00  0.00     0.292 C 
HETATM   24  O2  UNL     1      -3.452   1.162  53.654  1.00  0.00    -0.300 OA
ENDBRANCH  21  23
BRANCH  22  25
HETATM   25  O3  UNL     1      -2.152   3.896  50.070  1.00  0.00    -0.353 OA
ATOM     26  H3  UNL     1      -1.909   3.792  49.158  1.00  0.00     0.218 HD
ENDBRANCH  22  25
BRANCH  22  27
HETATM   27  C11 UNL     1      -0.494   2.349  50.565  1.00  0.00     0.236 C 
HETATM   28  O4  UNL     1      -0.185   1.175  50.378  1.00  0.00    -0.642 OA
HETATM   29  O5  UNL     1       0.597   3.253  50.482  1.00  0.00    -0.642 OA
ENDBRANCH  22  27
ENDBRANCH  19  21
ENDBRANCH  17  19
ENDBRANCH  12  17
BRANCH  13  30
HETATM   30  O6  UNL     1      -3.781   7.092  51.333  1.00  0.00    -0.358 OA
ATOM     31  H6  UNL     1      -3.413   7.816  50.841  1.00  0.00     0.217 HD
ENDBRANCH  13  30
BRANCH  10  32
HETATM   32  O1  UNL     1      -1.206   5.276  55.904  1.00  0.00    -0.358 OA
ATOM     33  H1  UNL     1      -1.089   4.345  56.048  1.00  0.00     0.217 HD
ENDBRANCH  10  32
BRANCH  15  34
HETATM   34  C15 UNL     1      -2.278   9.572  51.683  1.00  0.00     0.127 C 
BRANCH  34  35
HETATM   35  S3  UNL     1      -2.573  11.342  51.754  1.00  0.00    -0.090 SA
BRANCH  35  36
HETATM   36  C16 UNL     1      -3.266  12.147  50.393  1.00  0.00     0.182 C 
HETATM   37  C17 UNL     1      -3.409  13.667  50.505  1.00  0.00     0.104 C 
HETATM   38  O7  UNL     1      -3.651  11.636  49.357  1.00  0.00    -0.286 OA
ENDBRANCH  35  36
ENDBRANCH  34  35
ENDBRANCH  15  34
BRANCH   1  39
HETATM   39  S1  UNL     1      -1.940  10.054  58.052  1.00  0.00    -0.096 SA
HETATM   40  C1  UNL     1      -1.696   8.522  58.949  1.00  0.00     0.099 C 
ENDBRANCH   1  39
TORSDOF 12
ENDMDL
MODEL 2
REMARK VINA RESULT: -6.537077966      1.881      1.978
REMARK  12 active torsions:
REMARK  status: ('A' for Active; 'I' for Inactive)
REMARK    1  A    between atoms: S1_2  and  C2_3 
REMARK    2  A    between atoms: C5_12  and  O1_13 
REMARK    3  A    between atoms: C7_16  and  N5_17 
REMARK    4  A    between atoms: N5_17  and  N6_19 
REMARK    5  A    between atoms: N6_19  and  C8_21 
REMARK    6  A    between atoms: C8_21  and  C9_22 
REMARK    7  A    between atoms: C10_24  and  O3_25 
REMARK    8  A    between atoms: C10_24  and  C11_27 
REMARK    9  A    between atoms: C12_30  and  O6_31 
REMARK   10  A    between atoms: C14_34  and  C15_36 
REMARK   11  A    between atoms: C15_36  and  S3_37 
REMARK   12  A    between atoms: S3_37  and  C16_38 
ROOT
HETATM    1  C2  UNL     1      -2.793  10.336  55.744  1.00  0.00     0.174 C 
HETATM    2  N1  UNL     1      -3.799  10.576  54.911  1.00  0.00    -0.355 N 
ATOM      3  H1  UNL     1      -4.521  11.286  55.034  1.00  0.00     0.163 HD
HETATM    4  C3  UNL     1      -3.691   9.641  53.783  1.00  0.00     0.241 C 
HETATM    5  N2  UNL     1      -2.266   9.378  53.803  1.00  0.00    -0.163 NA
HETATM    6  N3  UNL     1      -2.038   9.277  55.213  1.00  0.00    -0.189 N 
HETATM    7  N4  UNL     1      -1.275   8.249  55.742  1.00  0.00    -0.278 N 
ATOM      8  H4  UNL     1      -0.452   8.324  56.340  1.00  0.00     0.189 HD
HETATM    9  C4  UNL     1      -1.927   7.016  55.239  1.00  0.00     0.095 A 
HETATM   10  C5  UNL     1      -2.241   5.984  56.057  1.00  0.00     0.096 A 
HETATM   11  C6  UNL     1      -2.906   4.898  55.494  1.00  0.00     0.072 A 
HETATM   12  C7  UNL     1      -3.224   4.885  54.166  1.00  0.00     0.084 A 
HETATM   13  C12 UNL     1      -2.897   5.963  53.308  1.00  0.00     0.105 A 
HETATM   14  C13 UNL     1      -2.242   7.029  53.867  1.00  0.00     0.045 A 
HETATM   15  C14 UNL     1      -1.772   8.230  53.186  1.00  0.00     0.135 C 
HETATM   16  S2  UNL     1       0.068   8.269  53.756  1.00  0.00    -0.061 SA
ENDROOT
BRANCH  12  17
HETATM   17  N5  UNL     1      -3.916   3.757  53.597  1.00  0.00    -0.297 N 
ATOM     18  H5  UNL     1      -4.664   3.344  54.155  1.00  0.00     0.187 HD
BRANCH  17  19
HETATM   19  N6  UNL     1      -3.668   3.196  52.395  1.00  0.00    -0.295 N 
ATOM     20  H6  UNL     1      -4.357   3.344  51.657  1.00  0.00     0.187 HD
BRANCH  19  21
HETATM   21  C8  UNL     1      -2.609   2.474  52.099  1.00  0.00     0.126 C 
HETATM   22  C10 UNL     1      -1.719   2.879  51.072  1.00  0.00     0.174 C 
BRANCH  21  23
HETATM   23  C9  UNL     1      -2.492   1.286  52.912  1.00  0.00     0.292 C 
HETATM   24  O2  UNL     1      -3.364   0.819  53.658  1.00  0.00    -0.300 OA
ENDBRANCH  21  23
BRANCH  22  25
HETATM   25  O3  UNL     1      -2.061   4.005  50.477  1.00  0.00    -0.353 OA
ATOM     26  H3  UNL     1      -2.901   3.970  50.035  1.00  0.00     0.218 HD
ENDBRANCH  22  25
BRANCH  22  27
HETATM   27  C11 UNL     1      -0.525   2.267  50.586  1.00  0.00     0.236 C 
HETATM   28  O4  UNL     1      -0.338   1.093  50.278  1.00  0.00    -0.642 OA
HETATM   29  O5  UNL     1       0.615   3.096  50.423  1.00  0.00    -0.642 OA
ENDBRANCH  22  27
ENDBRANCH  19  21
ENDBRANCH  17  19
ENDBRANCH  12  17
BRANCH  13  30
HETATM   30  O6  UNL     1      -3.272   5.818  52.028  1.00  0.00    -0.358 OA
ATOM     31  H6  UNL     1      -3.674   6.581  51.630  1.00  0.00     0.217 HD
ENDBRANCH  13  30
BRANCH  10  32
HETATM   32  O1  UNL     1      -1.910   6.010  57.407  1.00  0.00    -0.358 OA
ATOM     33  H1  UNL     1      -2.578   6.108  58.075  1.00  0.00     0.217 HD
ENDBRANCH  10  32
BRANCH  15  34
HETATM   34  C15 UNL     1      -1.618   8.204  51.703  1.00  0.00     0.127 C 
BRANCH  34  35
HETATM   35  S3  UNL     1      -3.139   8.667  50.870  1.00  0.00    -0.090 SA
BRANCH  35  36
HETATM   36  C16 UNL     1      -3.703   7.725  49.538  1.00  0.00     0.182 C 
HETATM   37  C17 UNL     1      -4.373   8.496  48.398  1.00  0.00     0.104 C 
HETATM   38  O7  UNL     1      -3.625   6.517  49.409  1.00  0.00    -0.286 OA
ENDBRANCH  35  36
ENDBRANCH  34  35
ENDBRANCH  15  34
BRANCH   1  39
HETATM   39  S1  UNL     1      -2.558  11.257  57.244  1.00  0.00    -0.096 SA
HETATM   40  C1  UNL     1      -4.022  11.270  58.278  1.00  0.00     0.099 C 
ENDBRANCH   1  39
TORSDOF 12
ENDMDL
MODEL 3
REMARK VINA RESULT: -6.078256107      9.735     13.100
REMARK  12 active torsions:
REMARK  status: ('A' for Active; 'I' for Inactive)
REMARK    1  A    between atoms: S1_2  and  C2_3 
REMARK    2  A    between atoms: C5_12  and  O1_13 
REMARK    3  A    between atoms: C7_16  and  N5_17 
REMARK    4  A    between atoms: N5_17  and  N6_19 
REMARK    5  A    between atoms: N6_19  and  C8_21 
REMARK    6  A    between atoms: C8_21  and  C9_22 
REMARK    7  A    between atoms: C10_24  and  O3_25 
REMARK    8  A    between atoms: C10_24  and  C11_27 
REMARK    9  A    between atoms: C12_30  and  O6_31 
REMARK   10  A    between atoms: C14_34  and  C15_36 
REMARK   11  A    between atoms: C15_36  and  S3_37 
REMARK   12  A    between atoms: S3_37  and  C16_38 
ROOT
HETATM    1  C2  UNL     1      -0.762  17.069  43.282  1.00  0.00     0.174 C 
HETATM    2  N1  UNL     1      -0.673  17.200  44.600  1.00  0.00    -0.355 N 
ATOM      3  H1  UNL     1       0.192  17.268  45.137  1.00  0.00     0.163 HD
HETATM    4  C3  UNL     1      -2.035  17.231  45.150  1.00  0.00     0.241 C 
HETATM    5  N2  UNL     1      -2.764  17.730  44.001  1.00  0.00    -0.163 NA
HETATM    6  N3  UNL     1      -2.125  17.001  42.947  1.00  0.00    -0.189 N 
HETATM    7  N4  UNL     1      -2.867  16.380  41.957  1.00  0.00    -0.278 N 
ATOM      8  H4  UNL     1      -2.790  16.502  40.947  1.00  0.00     0.189 HD
HETATM    9  C4  UNL     1      -3.799  15.497  42.699  1.00  0.00     0.095 A 
HETATM   10  C5  UNL     1      -3.963  14.192  42.376  1.00  0.00     0.096 A 
HETATM   11  C6  UNL     1      -4.817  13.436  43.175  1.00  0.00     0.072 A 
HETATM   12  C7  UNL     1      -5.457  13.999  44.242  1.00  0.00     0.084 A 
HETATM   13  C12 UNL     1      -5.286  15.363  44.583  1.00  0.00     0.105 A 
HETATM   14  C13 UNL     1      -4.446  16.103  43.792  1.00  0.00     0.045 A 
HETATM   15  C14 UNL     1      -4.140  17.523  43.919  1.00  0.00     0.135 C 
HETATM   16  S2  UNL     1      -4.497  18.129  42.126  1.00  0.00    -0.061 SA
ENDROOT
BRANCH  12  17
HETATM   17  N5  UNL     1      -6.335  13.205  45.063  1.00  0.00    -0.297 N 
ATOM     18  H5  UNL     1      -6.986  12.586  44.579  1.00  0.00     0.187 HD
BRANCH  17  19
HETATM   19  N6  UNL     1      -6.377  13.203  46.412  1.00  0.00    -0.295 N 
ATOM     20  H6  UNL     1      -7.229  13.546  46.855  1.00  0.00     0.187 HD
BRANCH  19  21
HETATM   21  C8  UNL     1      -5.406  12.794  47.201  1.00  0.00     0.126 C 
HETATM   22  C10 UNL     1      -4.901  13.635  48.224  1.00  0.00     0.174 C 
BRANCH  21  23
HETATM   23  C9  UNL     1      -4.957  11.457  46.894  1.00  0.00     0.292 C 
HETATM   24  O2  UNL     1      -4.225  11.128  45.949  1.00  0.00    -0.300 OA
ENDBRANCH  21  23
BRANCH  22  25
HETATM   25  O3  UNL     1      -5.484  14.816  48.288  1.00  0.00    -0.353 OA
ATOM     26  H3  UNL     1      -4.879  15.548  48.282  1.00  0.00     0.218 HD
ENDBRANCH  22  25
BRANCH  22  27
HETATM   27  C11 UNL     1      -3.870  13.409  49.185  1.00  0.00     0.236 C 
HETATM   28  O4  UNL     1      -2.904  12.655  49.107  1.00  0.00    -0.642 OA
HETATM   29  O5  UNL     1      -3.939  14.135  50.402  1.00  0.00    -0.642 OA
ENDBRANCH  22  27
ENDBRANCH  19  21
ENDBRANCH  17  19
ENDBRANCH  12  17
BRANCH  13  30
HETATM   30  O6  UNL     1      -5.974  15.782  45.656  1.00  0.00    -0.358 OA
ATOM     31  H6  UNL     1      -6.919  15.714  45.588  1.00  0.00     0.217 HD
ENDBRANCH  13  30
BRANCH  10  32
HETATM   32  O1  UNL     1      -3.306  13.633  41.287  1.00  0.00    -0.358 OA
ATOM     33  H1  UNL     1      -2.369  13.484  41.302  1.00  0.00     0.217 HD
ENDBRANCH  10  32
BRANCH  15  34
HETATM   34  C15 UNL     1      -5.060  18.390  44.710  1.00  0.00     0.127 C 
BRANCH  34  35
HETATM   35  S3  UNL     1      -6.539  18.807  43.781  1.00  0.00    -0.090 SA
BRANCH  35  36
HETATM   36  C16 UNL     1      -8.079  18.258  44.337  1.00  0.00     0.182 C 
HETATM   37  C17 UNL     1      -9.141  19.336  44.565  1.00  0.00     0.104 C 
HETATM   38  O7  UNL     1      -8.408  17.108  44.565  1.00  0.00    -0.286 OA
ENDBRANCH  35  36
ENDBRANCH  34  35
ENDBRANCH  15  34
BRANCH   1  39
HETATM   39  S1  UNL     1       0.668  16.991  42.233  1.00  0.00    -0.096 SA
HETATM   40  C1  UNL     1       2.017  18.006  42.835  1.00  0.00     0.099 C 
ENDBRANCH   1  39
TORSDOF 12
ENDMDL
MODEL 4
REMARK VINA RESULT: -6.006998822      0.637      1.497
REMARK  12 active torsions:
REMARK  status: ('A' for Active; 'I' for Inactive)
REMARK    1  A    between atoms: S1_2  and  C2_3 
REMARK    2  A    between atoms: C5_12  and  O1_13 
REMARK    3  A    between atoms: C7_16  and  N5_17 
REMARK    4  A    between atoms: N5_17  and  N6_19 
REMARK    5  A    between atoms: N6_19  and  C8_21 
REMARK    6  A    between atoms: C8_21  and  C9_22 
REMARK    7  A    between atoms: C10_24  and  O3_25 
REMARK    8  A    between atoms: C10_24  and  C11_27 
REMARK    9  A    between atoms: C12_30  and  O6_31 
REMARK   10  A    between atoms: C14_34  and  C15_36 
REMARK   11  A    between atoms: C15_36  and  S3_37 
REMARK   12  A    between atoms: S3_37  and  C16_38 
ROOT
HETATM    1  C2  UNL     1      -2.404   9.864  56.389  1.00  0.00     0.174 C 
HETATM    2  N1  UNL     1      -3.614  10.258  56.009  1.00  0.00    -0.355 N 
ATOM      3  H1  UNL     1      -4.275  10.789  56.575  1.00  0.00     0.163 HD
HETATM    4  C3  UNL     1      -3.834   9.795  54.632  1.00  0.00     0.241 C 
HETATM    5  N2  UNL     1      -2.463   9.712  54.167  1.00  0.00    -0.163 NA
HETATM    6  N3  UNL     1      -1.827   9.154  55.322  1.00  0.00    -0.189 N 
HETATM    7  N4  UNL     1      -0.931   8.105  55.207  1.00  0.00    -0.278 N 
ATOM      8  H4  UNL     1       0.031   8.063  55.544  1.00  0.00     0.189 HD
HETATM    9  C4  UNL     1      -1.689   7.056  54.483  1.00  0.00     0.095 A 
HETATM   10  C5  UNL     1      -1.735   5.774  54.916  1.00  0.00     0.096 A 
HETATM   11  C6  UNL     1      -2.525   4.882  54.196  1.00  0.00     0.072 A 
HETATM   12  C7  UNL     1      -3.221   5.295  53.096  1.00  0.00     0.084 A 
HETATM   13  C12 UNL     1      -3.174   6.635  52.641  1.00  0.00     0.105 A 
HETATM   14  C13 UNL     1      -2.395   7.509  53.353  1.00  0.00     0.045 A 
HETATM   15  C14 UNL     1      -2.161   8.919  53.062  1.00  0.00     0.135 C 
HETATM   16  S2  UNL     1      -0.236   8.975  53.085  1.00  0.00    -0.061 SA
ENDROOT
BRANCH  12  17
HETATM   17  N5  UNL     1      -4.037   4.363  52.361  1.00  0.00    -0.297 N 
ATOM     18  H5  UNL     1      -4.999   4.644  52.166  1.00  0.00     0.187 HD
BRANCH  17  19
HETATM   19  N6  UNL     1      -3.651   3.152  51.908  1.00  0.00    -0.295 N 
ATOM     20  H6  UNL     1      -4.324   2.389  51.975  1.00  0.00     0.187 HD
BRANCH  19  21
HETATM   21  C8  UNL     1      -2.475   2.878  51.385  1.00  0.00     0.126 C 
HETATM   22  C10 UNL     1      -1.857   1.622  51.610  1.00  0.00     0.174 C 
BRANCH  21  23
HETATM   23  C9  UNL     1      -1.937   3.968  50.605  1.00  0.00     0.292 C 
HETATM   24  O2  UNL     1      -2.581   4.736  49.877  1.00  0.00    -0.300 OA
ENDBRANCH  21  23
BRANCH  22  25
HETATM   25  O3  UNL     1      -2.560   0.804  52.367  1.00  0.00    -0.353 OA
ATOM     26  H3  UNL     1      -3.489   1.005  52.398  1.00  0.00     0.218 HD
ENDBRANCH  22  25
BRANCH  22  27
HETATM   27  C11 UNL     1      -0.606   1.109  51.152  1.00  0.00     0.236 C 
HETATM   28  O4  UNL     1       0.218   1.647  50.417  1.00  0.00    -0.642 OA
HETATM   29  O5  UNL     1      -0.234  -0.190  51.584  1.00  0.00    -0.642 OA
ENDBRANCH  22  27
ENDBRANCH  19  21
ENDBRANCH  17  19
ENDBRANCH  12  17
BRANCH  13  30
HETATM   30  O6  UNL     1      -3.909   6.901  51.550  1.00  0.00    -0.358 OA
ATOM     31  H6  UNL     1      -4.825   7.095  51.711  1.00  0.00     0.217 HD
ENDBRANCH  13  30
BRANCH  10  32
HETATM   32  O1  UNL     1      -1.021   5.368  56.036  1.00  0.00    -0.358 OA
ATOM     33  H1  UNL     1      -1.241   4.566  56.495  1.00  0.00     0.217 HD
ENDBRANCH  10  32
BRANCH  15  34
HETATM   34  C15 UNL     1      -2.451   9.429  51.691  1.00  0.00     0.127 C 
BRANCH  34  35
HETATM   35  S3  UNL     1      -2.446  11.224  51.637  1.00  0.00    -0.090 SA
BRANCH  35  36
HETATM   36  C16 UNL     1      -3.244  12.040  50.341  1.00  0.00     0.182 C 
HETATM   37  C17 UNL     1      -3.453  13.546  50.516  1.00  0.00     0.104 C 
HETATM   38  O7  UNL     1      -3.657  11.547  49.307  1.00  0.00    -0.286 OA
ENDBRANCH  35  36
ENDBRANCH  34  35
ENDBRANCH  15  34
BRANCH   1  39
HETATM   39  S1  UNL     1      -1.746  10.225  57.998  1.00  0.00    -0.096 SA
HETATM   40  C1  UNL     1      -1.433   8.745  58.959  1.00  0.00     0.099 C 
ENDBRANCH   1  39
TORSDOF 12
ENDMDL
MODEL 5
REMARK VINA RESULT: -5.589008769      2.959      5.939
REMARK  12 active torsions:
REMARK  status: ('A' for Active; 'I' for Inactive)
REMARK    1  A    between atoms: S1_2  and  C2_3 
REMARK    2  A    between atoms: C5_12  and  O1_13 
REMARK    3  A    between atoms: C7_16  and  N5_17 
REMARK    4  A    between atoms: N5_17  and  N6_19 
REMARK    5  A    between atoms: N6_19  and  C8_21 
REMARK    6  A    between atoms: C8_21  and  C9_22 
REMARK    7  A    between atoms: C10_24  and  O3_25 
REMARK    8  A    between atoms: C10_24  and  C11_27 
REMARK    9  A    between atoms: C12_30  and  O6_31 
REMARK   10  A    between atoms: C14_34  and  C15_36 
REMARK   11  A    between atoms: C15_36  and  S3_37 
REMARK   12  A    between atoms: S3_37  and  C16_38 
ROOT
HETATM    1  C2  UNL     1      -1.816   6.059  56.256  1.00  0.00     0.174 C 
HETATM    2  N1  UNL     1      -2.949   6.571  56.720  1.00  0.00    -0.355 N 
ATOM      3  H1  UNL     1      -3.459   6.250  57.544  1.00  0.00     0.163 HD
HETATM    4  C3  UNL     1      -3.342   7.682  55.842  1.00  0.00     0.241 C 
HETATM    5  N2  UNL     1      -2.046   8.067  55.321  1.00  0.00    -0.163 NA
HETATM    6  N3  UNL     1      -1.456   6.780  55.106  1.00  0.00    -0.189 N 
HETATM    7  N4  UNL     1      -0.787   6.488  53.929  1.00  0.00    -0.278 N 
ATOM      8  H4  UNL     1       0.168   6.148  53.819  1.00  0.00     0.189 HD
HETATM    9  C4  UNL     1      -1.777   6.782  52.864  1.00  0.00     0.095 A 
HETATM   10  C5  UNL     1      -2.042   5.906  51.867  1.00  0.00     0.096 A 
HETATM   11  C6  UNL     1      -3.032   6.254  50.953  1.00  0.00     0.072 A 
HETATM   12  C7  UNL     1      -3.705   7.437  51.068  1.00  0.00     0.084 A 
HETATM   13  C12 UNL     1      -3.431   8.355  52.111  1.00  0.00     0.105 A 
HETATM   14  C13 UNL     1      -2.454   8.008  53.007  1.00  0.00     0.045 A 
HETATM   15  C14 UNL     1      -1.973   8.797  54.136  1.00  0.00     0.135 C 
HETATM   16  S2  UNL     1      -0.075   8.773  53.805  1.00  0.00    -0.061 SA
ENDROOT
BRANCH  12  17
HETATM   17  N5  UNL     1      -4.731   7.784  50.118  1.00  0.00    -0.297 N 
ATOM     18  H5  UNL     1      -5.369   7.040  49.835  1.00  0.00     0.187 HD
BRANCH  17  19
HETATM   19  N6  UNL     1      -4.927   9.001  49.568  1.00  0.00    -0.295 N 
ATOM     20  H6  UNL     1      -5.279   9.740  50.177  1.00  0.00     0.187 HD
BRANCH  19  21
HETATM   21  C8  UNL     1      -4.700   9.310  48.309  1.00  0.00     0.126 C 
HETATM   22  C10 UNL     1      -4.990  10.607  47.818  1.00  0.00     0.174 C 
BRANCH  21  23
HETATM   23  C9  UNL     1      -4.155   8.210  47.549  1.00  0.00     0.292 C 
HETATM   24  O2  UNL     1      -3.132   7.566  47.821  1.00  0.00    -0.300 OA
ENDBRANCH  21  23
BRANCH  22  25
HETATM   25  O3  UNL     1      -5.490  11.426  48.722  1.00  0.00    -0.353 OA
ATOM     26  H3  UNL     1      -5.646  12.308  48.404  1.00  0.00     0.218 HD
ENDBRANCH  22  25
BRANCH  22  27
HETATM   27  C11 UNL     1      -4.828  11.161  46.513  1.00  0.00     0.236 C 
HETATM   28  O4  UNL     1      -3.865  11.070  45.757  1.00  0.00    -0.642 OA
HETATM   29  O5  UNL     1      -5.905  11.923  45.987  1.00  0.00    -0.642 OA
ENDBRANCH  22  27
ENDBRANCH  19  21
ENDBRANCH  17  19
ENDBRANCH  12  17
BRANCH  13  30
HETATM   30  O6  UNL     1      -4.169   9.475  52.104  1.00  0.00    -0.358 OA
ATOM     31  H6  UNL     1      -3.769  10.227  51.683  1.00  0.00     0.217 HD
ENDBRANCH  13  30
BRANCH  10  32
HETATM   32  O1  UNL     1      -1.348   4.706  51.761  1.00  0.00    -0.358 OA
ATOM     33  H1  UNL     1      -0.533   4.567  52.228  1.00  0.00     0.217 HD
ENDBRANCH  10  32
BRANCH  15  34
HETATM   34  C15 UNL     1      -2.247  10.262  54.159  1.00  0.00     0.127 C 
BRANCH  34  35
HETATM   35  S3  UNL     1      -1.519  11.051  55.598  1.00  0.00    -0.090 SA
BRANCH  35  36
HETATM   36  C16 UNL     1      -2.048  10.599  57.178  1.00  0.00     0.182 C 
HETATM   37  C17 UNL     1      -3.400  11.159  57.626  1.00  0.00     0.104 C 
HETATM   38  O7  UNL     1      -1.462   9.884  57.971  1.00  0.00    -0.286 OA
ENDBRANCH  35  36
ENDBRANCH  34  35
ENDBRANCH  15  34
BRANCH   1  39
HETATM   39  S1  UNL     1      -1.000   4.689  57.038  1.00  0.00    -0.096 SA
HETATM   40  C1  UNL     1      -1.164   4.720  58.823  1.00  0.00     0.099 C 
ENDBRANCH   1  39
TORSDOF 12
ENDMDL
