MODEL 1
REMARK VINA RESULT: -8.635944806      0.000      0.000
REMARK  15 active torsions:
REMARK  status: ('A' for Active; 'I' for Inactive)
REMARK    1  A    between atoms: N1_1  and  C1_5 
REMARK    2  A    between atoms: C1_5  and  C2_6 
REMARK    3  A    between atoms: C2_6  and  C3_7 
REMARK    4  A    between atoms: C3_7  and  C4_8 
REMARK    5  A    between atoms: C4_8  and  C5_9 
REMARK    6  A    between atoms: C5_9  and  C6_10 
REMARK    7  A    between atoms: C6_10  and  C7_11 
REMARK    8  A    between atoms: C7_11  and  C8_12 
REMARK    9  A    between atoms: C12_16  and  C13_17 
REMARK   10  A    between atoms: C13_17  and  C14_18 
REMARK   11  A    between atoms: C14_18  and  C15_19 
REMARK   12  A    between atoms: C15_19  and  C16_20 
REMARK   13  A    between atoms: C16_20  and  N2_21 
REMARK   14  A    between atoms: N2_21  and  C17_23 
REMARK   15  A    between atoms: C21_29  and  C22_30 
ROOT
HETATM    1  C16 UNL     1       9.192  21.222  24.072  1.00  0.00     0.121 C 
ENDROOT
BRANCH   1   2
HETATM    2  C15 UNL     1       7.947  20.563  24.599  1.00  0.00     0.020 C 
BRANCH   2   3
HETATM    3  C14 UNL     1       7.104  20.001  23.508  1.00  0.00     0.006 C 
BRANCH   3   4
HETATM    4  C13 UNL     1       6.316  20.970  22.701  1.00  0.00     0.038 C 
BRANCH   4   5
HETATM    5  C12 UNL     1       6.794  21.208  21.338  1.00  0.00    -0.058 A 
HETATM    6  C11 UNL     1       6.620  20.313  20.323  1.00  0.00     0.007 A 
HETATM    7  C10 UNL     1       7.065  20.539  19.031  1.00  0.00     0.001 A 
HETATM    8  C9  UNL     1       7.714  21.709  18.736  1.00  0.00     0.007 A 
HETATM    9  C8  UNL     1       7.912  22.639  19.731  1.00  0.00    -0.058 A 
HETATM   10  C29 UNL     1       7.452  22.387  21.030  1.00  0.00     0.014 A 
BRANCH   9  11
HETATM   11  C7  UNL     1       8.607  23.908  19.444  1.00  0.00     0.038 C 
BRANCH  11  12
HETATM   12  C6  UNL     1       7.964  25.122  20.040  1.00  0.00     0.005 C 
BRANCH  12  13
HETATM   13  C5  UNL     1       8.510  26.374  19.417  1.00  0.00     0.000 C 
BRANCH  13  14
HETATM   14  C4  UNL     1       7.484  27.235  18.743  1.00  0.00     0.000 C 
BRANCH  14  15
HETATM   15  C3  UNL     1       6.425  26.372  18.106  1.00  0.00     0.002 C 
BRANCH  15  16
HETATM   16  C2  UNL     1       5.139  27.168  17.957  1.00  0.00     0.027 C 
BRANCH  16  17
HETATM   17  C1  UNL     1       5.378  28.660  18.022  1.00  0.00     0.229 C 
BRANCH  17  18
HETATM   18  N1  UNL     1       4.586  29.263  16.950  1.00  0.00    -0.079 N 
ATOM     19  H13 UNL     1       3.696  28.790  16.793  1.00  0.00     0.274 HD
ATOM     20  H12 UNL     1       4.206  30.177  17.197  1.00  0.00     0.274 HD
ATOM     21  H11 UNL     1       5.180  29.285  16.121  1.00  0.00     0.274 HD
ENDBRANCH  17  18
ENDBRANCH  16  17
ENDBRANCH  15  16
ENDBRANCH  14  15
ENDBRANCH  13  14
ENDBRANCH  12  13
ENDBRANCH  11  12
ENDBRANCH   9  11
ENDBRANCH   4   5
ENDBRANCH   3   4
ENDBRANCH   2   3
ENDBRANCH   1   2
BRANCH   1  22
HETATM   22  N2  UNL     1       9.312  22.619  24.450  1.00  0.00    -0.376 N 
ATOM     23  H2  UNL     1       9.725  23.273  23.785  1.00  0.00     0.161 HD
BRANCH  22  24
HETATM   24  C17 UNL     1       8.877  23.110  25.706  1.00  0.00     0.115 A 
HETATM   25  N3  UNL     1       9.465  22.579  26.792  1.00  0.00    -0.352 N 
HETATM   26  C18 UNL     1       9.261  23.031  28.027  1.00  0.00     0.089 A 
ATOM     27  H3  UNL     1      10.098  21.791  26.663  1.00  0.00     0.166 HD
HETATM   28  C19 UNL     1       8.411  24.093  28.229  1.00  0.00     0.018 A 
HETATM   29  C20 UNL     1       7.801  24.646  27.141  1.00  0.00     0.020 A 
HETATM   30  C21 UNL     1       8.025  24.155  25.839  1.00  0.00     0.052 A 
BRANCH  30  31
HETATM   31  C22 UNL     1       7.205  24.743  24.774  1.00  0.00     0.120 A 
HETATM   32  N4  UNL     1       7.281  26.060  24.400  1.00  0.00    -0.340 N 
HETATM   33  C23 UNL     1       6.461  26.294  23.375  1.00  0.00     0.060 A 
ATOM     34  H4  UNL     1       7.878  26.759  24.842  1.00  0.00     0.167 HD
HETATM   35  C24 UNL     1       6.157  27.434  22.624  1.00  0.00     0.032 A 
HETATM   36  C28 UNL     1       5.860  25.092  23.105  1.00  0.00     0.060 A 
HETATM   37  C25 UNL     1       5.241  27.336  21.603  1.00  0.00     0.002 A 
HETATM   38  C26 UNL     1       4.650  26.122  21.349  1.00  0.00     0.002 A 
HETATM   39  C27 UNL     1       4.927  24.992  22.065  1.00  0.00     0.032 A 
HETATM   40  N5  UNL     1       6.338  24.190  23.974  1.00  0.00    -0.340 N 
ATOM     41  H5  UNL     1       6.062  23.209  24.004  1.00  0.00     0.167 HD
ENDBRANCH  30  31
ENDBRANCH  22  24
ENDBRANCH   1  22
TORSDOF 15
ENDMDL
MODEL 2
REMARK VINA RESULT: -8.406920920      2.401      5.175
REMARK  15 active torsions:
REMARK  status: ('A' for Active; 'I' for Inactive)
REMARK    1  A    between atoms: N1_1  and  C1_5 
REMARK    2  A    between atoms: C1_5  and  C2_6 
REMARK    3  A    between atoms: C2_6  and  C3_7 
REMARK    4  A    between atoms: C3_7  and  C4_8 
REMARK    5  A    between atoms: C4_8  and  C5_9 
REMARK    6  A    between atoms: C5_9  and  C6_10 
REMARK    7  A    between atoms: C6_10  and  C7_11 
REMARK    8  A    between atoms: C7_11  and  C8_12 
REMARK    9  A    between atoms: C12_16  and  C13_17 
REMARK   10  A    between atoms: C13_17  and  C14_18 
REMARK   11  A    between atoms: C14_18  and  C15_19 
REMARK   12  A    between atoms: C15_19  and  C16_20 
REMARK   13  A    between atoms: C16_20  and  N2_21 
REMARK   14  A    between atoms: N2_21  and  C17_23 
REMARK   15  A    between atoms: C21_29  and  C22_30 
ROOT
HETATM    1  C16 UNL     1       7.875  19.316  19.741  1.00  0.00     0.121 C 
ENDROOT
BRANCH   1   2
HETATM    2  C15 UNL     1       8.565  20.490  19.103  1.00  0.00     0.020 C 
BRANCH   2   3
HETATM    3  C14 UNL     1       7.735  21.725  19.153  1.00  0.00     0.006 C 
BRANCH   3   4
HETATM    4  C13 UNL     1       8.176  22.793  20.090  1.00  0.00     0.038 C 
BRANCH   4   5
HETATM    5  C12 UNL     1       8.043  24.167  19.605  1.00  0.00    -0.058 A 
HETATM    6  C11 UNL     1       7.627  24.473  18.341  1.00  0.00     0.007 A 
HETATM    7  C10 UNL     1       7.494  25.773  17.883  1.00  0.00     0.001 A 
HETATM    8  C9  UNL     1       7.789  26.817  18.719  1.00  0.00     0.007 A 
HETATM    9  C8  UNL     1       8.212  26.554  20.002  1.00  0.00    -0.058 A 
HETATM   10  C29 UNL     1       8.338  25.230  20.442  1.00  0.00     0.014 A 
BRANCH   9  11
HETATM   11  C7  UNL     1       8.535  27.657  20.926  1.00  0.00     0.038 C 
BRANCH  11  12
HETATM   12  C6  UNL     1       7.522  27.887  22.004  1.00  0.00     0.005 C 
BRANCH  12  13
HETATM   13  C5  UNL     1       6.193  28.263  21.414  1.00  0.00     0.000 C 
BRANCH  13  14
HETATM   14  C4  UNL     1       5.131  27.214  21.551  1.00  0.00     0.000 C 
BRANCH  14  15
HETATM   15  C3  UNL     1       4.445  26.998  20.226  1.00  0.00     0.002 C 
BRANCH  15  16
HETATM   16  C2  UNL     1       4.773  28.148  19.288  1.00  0.00     0.027 C 
BRANCH  16  17
HETATM   17  C1  UNL     1       4.276  27.900  17.882  1.00  0.00     0.229 C 
BRANCH  17  18
HETATM   18  N1  UNL     1       4.471  29.145  17.138  1.00  0.00    -0.079 N 
ATOM     19  H13 UNL     1       4.783  29.918  17.724  1.00  0.00     0.274 HD
ATOM     20  H12 UNL     1       5.278  29.119  16.516  1.00  0.00     0.274 HD
ATOM     21  H11 UNL     1       3.595  29.339  16.652  1.00  0.00     0.274 HD
ENDBRANCH  17  18
ENDBRANCH  16  17
ENDBRANCH  15  16
ENDBRANCH  14  15
ENDBRANCH  13  14
ENDBRANCH  12  13
ENDBRANCH  11  12
ENDBRANCH   9  11
ENDBRANCH   4   5
ENDBRANCH   3   4
ENDBRANCH   2   3
ENDBRANCH   1   2
BRANCH   1  22
HETATM   22  N2  UNL     1       6.437  19.481  19.856  1.00  0.00    -0.376 N 
ATOM     23  H2  UNL     1       5.954  20.063  19.171  1.00  0.00     0.161 HD
BRANCH  22  24
HETATM   24  C17 UNL     1       5.678  18.867  20.882  1.00  0.00     0.115 A 
HETATM   25  N3  UNL     1       5.054  17.720  20.560  1.00  0.00    -0.352 N 
HETATM   26  C18 UNL     1       4.418  16.960  21.449  1.00  0.00     0.089 A 
ATOM     27  H3  UNL     1       5.069  17.417  19.586  1.00  0.00     0.166 HD
HETATM   28  C19 UNL     1       4.382  17.346  22.768  1.00  0.00     0.018 A 
HETATM   29  C20 UNL     1       5.005  18.508  23.117  1.00  0.00     0.020 A 
HETATM   30  C21 UNL     1       5.674  19.304  22.164  1.00  0.00     0.052 A 
BRANCH  30  31
HETATM   31  C22 UNL     1       6.182  20.595  22.640  1.00  0.00     0.120 A 
HETATM   32  N4  UNL     1       7.440  20.770  23.155  1.00  0.00    -0.340 N 
HETATM   33  C23 UNL     1       7.640  22.055  23.451  1.00  0.00     0.060 A 
ATOM     34  H4  UNL     1       8.124  20.025  23.291  1.00  0.00     0.167 HD
HETATM   35  C24 UNL     1       8.720  22.763  23.987  1.00  0.00     0.032 A 
HETATM   36  C28 UNL     1       6.477  22.694  23.113  1.00  0.00     0.060 A 
HETATM   37  C25 UNL     1       8.601  24.121  24.173  1.00  0.00     0.002 A 
HETATM   38  C26 UNL     1       7.426  24.743  23.826  1.00  0.00     0.002 A 
HETATM   39  C27 UNL     1       6.355  24.077  23.300  1.00  0.00     0.032 A 
HETATM   40  N5  UNL     1       5.628  21.775  22.630  1.00  0.00    -0.340 N 
ATOM     41  H5  UNL     1       4.683  21.971  22.301  1.00  0.00     0.167 HD
ENDBRANCH  30  31
ENDBRANCH  22  24
ENDBRANCH   1  22
TORSDOF 15
ENDMDL
MODEL 3
REMARK VINA RESULT: -8.399392223      2.248      5.077
REMARK  15 active torsions:
REMARK  status: ('A' for Active; 'I' for Inactive)
REMARK    1  A    between atoms: N1_1  and  C1_5 
REMARK    2  A    between atoms: C1_5  and  C2_6 
REMARK    3  A    between atoms: C2_6  and  C3_7 
REMARK    4  A    between atoms: C3_7  and  C4_8 
REMARK    5  A    between atoms: C4_8  and  C5_9 
REMARK    6  A    between atoms: C5_9  and  C6_10 
REMARK    7  A    between atoms: C6_10  and  C7_11 
REMARK    8  A    between atoms: C7_11  and  C8_12 
REMARK    9  A    between atoms: C12_16  and  C13_17 
REMARK   10  A    between atoms: C13_17  and  C14_18 
REMARK   11  A    between atoms: C14_18  and  C15_19 
REMARK   12  A    between atoms: C15_19  and  C16_20 
REMARK   13  A    between atoms: C16_20  and  N2_21 
REMARK   14  A    between atoms: N2_21  and  C17_23 
REMARK   15  A    between atoms: C21_29  and  C22_30 
ROOT
HETATM    1  C16 UNL     1       7.248  20.365  20.034  1.00  0.00     0.121 C 
ENDROOT
BRANCH   1   2
HETATM    2  C15 UNL     1       7.574  21.265  18.874  1.00  0.00     0.020 C 
BRANCH   2   3
HETATM    3  C14 UNL     1       7.784  22.676  19.298  1.00  0.00     0.006 C 
BRANCH   3   4
HETATM    4  C13 UNL     1       8.049  22.910  20.743  1.00  0.00     0.038 C 
BRANCH   4   5
HETATM    5  C12 UNL     1       7.262  23.968  21.378  1.00  0.00    -0.058 A 
HETATM    6  C11 UNL     1       5.951  23.811  21.726  1.00  0.00     0.007 A 
HETATM    7  C10 UNL     1       5.206  24.809  22.332  1.00  0.00     0.001 A 
HETATM    8  C9  UNL     1       5.791  26.017  22.604  1.00  0.00     0.007 A 
HETATM    9  C8  UNL     1       7.110  26.218  22.269  1.00  0.00    -0.058 A 
HETATM   10  C29 UNL     1       7.843  25.194  21.656  1.00  0.00     0.014 A 
BRANCH   9  11
HETATM   11  C7  UNL     1       7.767  27.509  22.549  1.00  0.00     0.038 C 
BRANCH  11  12
HETATM   12  C6  UNL     1       8.196  28.269  21.332  1.00  0.00     0.005 C 
BRANCH  12  13
HETATM   13  C5  UNL     1       7.082  28.342  20.329  1.00  0.00     0.000 C 
BRANCH  13  14
HETATM   14  C4  UNL     1       7.354  27.624  19.041  1.00  0.00     0.000 C 
BRANCH  14  15
HETATM   15  C3  UNL     1       6.193  26.725  18.697  1.00  0.00     0.002 C 
BRANCH  15  16
HETATM   16  C2  UNL     1       4.891  27.391  19.110  1.00  0.00     0.027 C 
BRANCH  16  17
HETATM   17  C1  UNL     1       4.038  27.769  17.920  1.00  0.00     0.229 C 
BRANCH  17  18
HETATM   18  N1  UNL     1       4.415  29.131  17.543  1.00  0.00    -0.079 N 
ATOM     19  H13 UNL     1       5.380  29.360  17.780  1.00  0.00     0.274 HD
ATOM     20  H12 UNL     1       4.495  29.261  16.535  1.00  0.00     0.274 HD
ATOM     21  H11 UNL     1       3.736  29.756  17.976  1.00  0.00     0.274 HD
ENDBRANCH  17  18
ENDBRANCH  16  17
ENDBRANCH  15  16
ENDBRANCH  14  15
ENDBRANCH  13  14
ENDBRANCH  12  13
ENDBRANCH  11  12
ENDBRANCH   9  11
ENDBRANCH   4   5
ENDBRANCH   3   4
ENDBRANCH   2   3
ENDBRANCH   1   2
BRANCH   1  22
HETATM   22  N2  UNL     1       8.379  19.579  20.493  1.00  0.00    -0.376 N 
ATOM     23  H2  UNL     1       9.303  19.780  20.110  1.00  0.00     0.161 HD
BRANCH  22  24
HETATM   24  C17 UNL     1       8.251  18.545  21.452  1.00  0.00     0.115 A 
HETATM   25  N3  UNL     1       8.230  17.288  20.978  1.00  0.00    -0.352 N 
HETATM   26  C18 UNL     1       8.250  16.211  21.760  1.00  0.00     0.089 A 
ATOM     27  H3  UNL     1       8.198  17.152  19.967  1.00  0.00     0.166 HD
HETATM   28  C19 UNL     1       8.293  16.365  23.125  1.00  0.00     0.018 A 
HETATM   29  C20 UNL     1       8.312  17.633  23.630  1.00  0.00     0.020 A 
HETATM   30  C21 UNL     1       8.288  18.764  22.789  1.00  0.00     0.052 A 
BRANCH  30  31
HETATM   31  C22 UNL     1       8.170  20.066  23.456  1.00  0.00     0.120 A 
HETATM   32  N4  UNL     1       9.201  20.964  23.547  1.00  0.00    -0.340 N 
HETATM   33  C23 UNL     1       8.787  22.076  24.157  1.00  0.00     0.060 A 
ATOM     34  H4  UNL     1      10.147  20.806  23.200  1.00  0.00     0.167 HD
HETATM   35  C24 UNL     1       9.414  23.278  24.499  1.00  0.00     0.032 A 
HETATM   36  C28 UNL     1       7.466  21.862  24.451  1.00  0.00     0.060 A 
HETATM   37  C25 UNL     1       8.685  24.253  25.139  1.00  0.00     0.002 A 
HETATM   38  C26 UNL     1       7.361  24.019  25.425  1.00  0.00     0.002 A 
HETATM   39  C27 UNL     1       6.722  22.855  25.103  1.00  0.00     0.032 A 
HETATM   40  N5  UNL     1       7.140  20.638  24.011  1.00  0.00    -0.340 N 
ATOM     41  H5  UNL     1       6.216  20.216  24.099  1.00  0.00     0.167 HD
ENDBRANCH  30  31
ENDBRANCH  22  24
ENDBRANCH   1  22
TORSDOF 15
ENDMDL
MODEL 4
REMARK VINA RESULT: -8.345738188      2.617      5.795
REMARK  15 active torsions:
REMARK  status: ('A' for Active; 'I' for Inactive)
REMARK    1  A    between atoms: N1_1  and  C1_5 
REMARK    2  A    between atoms: C1_5  and  C2_6 
REMARK    3  A    between atoms: C2_6  and  C3_7 
REMARK    4  A    between atoms: C3_7  and  C4_8 
REMARK    5  A    between atoms: C4_8  and  C5_9 
REMARK    6  A    between atoms: C5_9  and  C6_10 
REMARK    7  A    between atoms: C6_10  and  C7_11 
REMARK    8  A    between atoms: C7_11  and  C8_12 
REMARK    9  A    between atoms: C12_16  and  C13_17 
REMARK   10  A    between atoms: C13_17  and  C14_18 
REMARK   11  A    between atoms: C14_18  and  C15_19 
REMARK   12  A    between atoms: C15_19  and  C16_20 
REMARK   13  A    between atoms: C16_20  and  N2_21 
REMARK   14  A    between atoms: N2_21  and  C17_23 
REMARK   15  A    between atoms: C21_29  and  C22_30 
ROOT
HETATM    1  C16 UNL     1       8.193  25.812  25.305  1.00  0.00     0.121 C 
ENDROOT
BRANCH   1   2
HETATM    2  C15 UNL     1       8.467  24.825  24.203  1.00  0.00     0.020 C 
BRANCH   2   3
HETATM    3  C14 UNL     1       7.266  24.578  23.359  1.00  0.00     0.006 C 
BRANCH   3   4
HETATM    4  C13 UNL     1       7.449  23.704  22.171  1.00  0.00     0.038 C 
BRANCH   4   5
HETATM    5  C12 UNL     1       7.893  24.369  20.945  1.00  0.00    -0.058 A 
HETATM    6  C11 UNL     1       9.200  24.410  20.554  1.00  0.00     0.007 A 
HETATM    7  C10 UNL     1       9.622  25.034  19.392  1.00  0.00     0.001 A 
HETATM    8  C9  UNL     1       8.702  25.646  18.582  1.00  0.00     0.007 A 
HETATM    9  C8  UNL     1       7.373  25.629  18.940  1.00  0.00    -0.058 A 
HETATM   10  C29 UNL     1       6.971  24.991  20.120  1.00  0.00     0.014 A 
BRANCH   9  11
HETATM   11  C7  UNL     1       6.359  26.279  18.088  1.00  0.00     0.038 C 
BRANCH  11  12
HETATM   12  C6  UNL     1       5.026  26.474  18.741  1.00  0.00     0.005 C 
BRANCH  12  13
HETATM   13  C5  UNL     1       5.027  27.708  19.596  1.00  0.00     0.000 C 
BRANCH  13  14
HETATM   14  C4  UNL     1       4.717  27.465  21.043  1.00  0.00     0.000 C 
BRANCH  14  15
HETATM   15  C3  UNL     1       5.814  28.033  21.908  1.00  0.00     0.002 C 
BRANCH  15  16
HETATM   16  C2  UNL     1       6.902  28.626  21.028  1.00  0.00     0.027 C 
BRANCH  16  17
HETATM   17  C1  UNL     1       8.290  28.303  21.536  1.00  0.00     0.229 C 
BRANCH  17  18
HETATM   18  N1  UNL     1       8.264  28.492  22.987  1.00  0.00    -0.079 N 
ATOM     19  H13 UNL     1       8.730  29.348  23.288  1.00  0.00     0.274 HD
ATOM     20  H12 UNL     1       7.336  28.715  23.346  1.00  0.00     0.274 HD
ATOM     21  H11 UNL     1       8.664  27.650  23.402  1.00  0.00     0.274 HD
ENDBRANCH  17  18
ENDBRANCH  16  17
ENDBRANCH  15  16
ENDBRANCH  14  15
ENDBRANCH  13  14
ENDBRANCH  12  13
ENDBRANCH  11  12
ENDBRANCH   9  11
ENDBRANCH   4   5
ENDBRANCH   3   4
ENDBRANCH   2   3
ENDBRANCH   1   2
BRANCH   1  22
HETATM   22  N2  UNL     1       8.650  25.366  26.609  1.00  0.00    -0.376 N 
ATOM     23  H2  UNL     1       9.367  25.910  27.090  1.00  0.00     0.161 HD
BRANCH  22  24
HETATM   24  C17 UNL     1       8.141  24.204  27.240  1.00  0.00     0.115 A 
HETATM   25  N3  UNL     1       6.803  24.109  27.329  1.00  0.00    -0.352 N 
HETATM   26  C18 UNL     1       6.176  23.021  27.770  1.00  0.00     0.089 A 
ATOM     27  H3  UNL     1       6.241  24.910  27.043  1.00  0.00     0.166 HD
HETATM   28  C19 UNL     1       6.910  21.927  28.162  1.00  0.00     0.018 A 
HETATM   29  C20 UNL     1       8.271  22.002  28.084  1.00  0.00     0.020 A 
HETATM   30  C21 UNL     1       8.921  23.162  27.616  1.00  0.00     0.052 A 
BRANCH  30  31
HETATM   31  C22 UNL     1      10.386  23.168  27.712  1.00  0.00     0.120 A 
HETATM   32  N4  UNL     1      11.194  22.338  26.980  1.00  0.00    -0.340 N 
HETATM   33  C23 UNL     1      12.476  22.606  27.234  1.00  0.00     0.060 A 
ATOM     34  H4  UNL     1      10.864  21.621  26.334  1.00  0.00     0.167 HD
HETATM   35  C24 UNL     1      13.682  22.073  26.771  1.00  0.00     0.032 A 
HETATM   36  C28 UNL     1      12.462  23.627  28.148  1.00  0.00     0.060 A 
HETATM   37  C25 UNL     1      14.866  22.588  27.245  1.00  0.00     0.002 A 
HETATM   38  C26 UNL     1      14.831  23.612  28.161  1.00  0.00     0.002 A 
HETATM   39  C27 UNL     1      13.667  24.153  28.632  1.00  0.00     0.032 A 
HETATM   40  N5  UNL     1      11.182  23.930  28.406  1.00  0.00    -0.340 N 
ATOM     41  H5  UNL     1      10.875  24.655  29.054  1.00  0.00     0.167 HD
ENDBRANCH  30  31
ENDBRANCH  22  24
ENDBRANCH   1  22
TORSDOF 15
ENDMDL
MODEL 5
REMARK VINA RESULT: -8.264943756      2.301      5.988
REMARK  15 active torsions:
REMARK  status: ('A' for Active; 'I' for Inactive)
REMARK    1  A    between atoms: N1_1  and  C1_5 
REMARK    2  A    between atoms: C1_5  and  C2_6 
REMARK    3  A    between atoms: C2_6  and  C3_7 
REMARK    4  A    between atoms: C3_7  and  C4_8 
REMARK    5  A    between atoms: C4_8  and  C5_9 
REMARK    6  A    between atoms: C5_9  and  C6_10 
REMARK    7  A    between atoms: C6_10  and  C7_11 
REMARK    8  A    between atoms: C7_11  and  C8_12 
REMARK    9  A    between atoms: C12_16  and  C13_17 
REMARK   10  A    between atoms: C13_17  and  C14_18 
REMARK   11  A    between atoms: C14_18  and  C15_19 
REMARK   12  A    between atoms: C15_19  and  C16_20 
REMARK   13  A    between atoms: C16_20  and  N2_21 
REMARK   14  A    between atoms: N2_21  and  C17_23 
REMARK   15  A    between atoms: C21_29  and  C22_30 
ROOT
HETATM    1  C16 UNL     1       6.729  23.679  27.364  1.00  0.00     0.121 C 
ENDROOT
BRANCH   1   2
HETATM    2  C15 UNL     1       7.845  24.687  27.397  1.00  0.00     0.020 C 
BRANCH   2   3
HETATM    3  C14 UNL     1       7.794  25.621  26.239  1.00  0.00     0.006 C 
BRANCH   3   4
HETATM    4  C13 UNL     1       8.572  25.237  25.032  1.00  0.00     0.038 C 
BRANCH   4   5
HETATM    5  C12 UNL     1       7.791  24.758  23.890  1.00  0.00    -0.058 A 
HETATM    6  C11 UNL     1       6.429  24.671  23.906  1.00  0.00     0.007 A 
HETATM    7  C10 UNL     1       5.688  24.224  22.825  1.00  0.00     0.001 A 
HETATM    8  C9  UNL     1       6.331  23.846  21.675  1.00  0.00     0.007 A 
HETATM    9  C8  UNL     1       7.704  23.918  21.617  1.00  0.00    -0.058 A 
HETATM   10  C29 UNL     1       8.431  24.374  22.724  1.00  0.00     0.014 A 
BRANCH   9  11
HETATM   11  C7  UNL     1       8.424  23.519  20.393  1.00  0.00     0.038 C 
BRANCH  11  12
HETATM   12  C6  UNL     1       9.063  24.650  19.647  1.00  0.00     0.005 C 
BRANCH  12  13
HETATM   13  C5  UNL     1       8.025  25.484  18.954  1.00  0.00     0.000 C 
BRANCH  13  14
HETATM   14  C4  UNL     1       8.206  26.964  19.113  1.00  0.00     0.000 C 
BRANCH  14  15
HETATM   15  C3  UNL     1       8.213  27.328  20.576  1.00  0.00     0.002 C 
BRANCH  15  16
HETATM   16  C2  UNL     1       6.786  27.530  21.059  1.00  0.00     0.027 C 
BRANCH  16  17
HETATM   17  C1  UNL     1       6.728  28.019  22.488  1.00  0.00     0.229 C 
BRANCH  17  18
HETATM   18  N1  UNL     1       8.091  28.394  22.863  1.00  0.00    -0.079 N 
ATOM     19  H13 UNL     1       8.805  27.926  22.305  1.00  0.00     0.274 HD
ATOM     20  H12 UNL     1       8.330  29.351  22.604  1.00  0.00     0.274 HD
ATOM     21  H11 UNL     1       8.183  28.215  23.863  1.00  0.00     0.274 HD
ENDBRANCH  17  18
ENDBRANCH  16  17
ENDBRANCH  15  16
ENDBRANCH  14  15
ENDBRANCH  13  14
ENDBRANCH  12  13
ENDBRANCH  11  12
ENDBRANCH   9  11
ENDBRANCH   4   5
ENDBRANCH   3   4
ENDBRANCH   2   3
ENDBRANCH   1   2
BRANCH   1  22
HETATM   22  N2  UNL     1       7.192  22.305  27.289  1.00  0.00    -0.376 N 
ATOM     23  H2  UNL     1       7.232  21.754  28.147  1.00  0.00     0.161 HD
BRANCH  22  24
HETATM   24  C17 UNL     1       7.590  21.698  26.073  1.00  0.00     0.115 A 
HETATM   25  N3  UNL     1       6.606  21.357  25.223  1.00  0.00    -0.352 N 
HETATM   26  C18 UNL     1       6.828  20.905  23.991  1.00  0.00     0.089 A 
ATOM     27  H3  UNL     1       5.640  21.450  25.538  1.00  0.00     0.166 HD
HETATM   28  C19 UNL     1       8.120  20.770  23.541  1.00  0.00     0.018 A 
HETATM   29  C20 UNL     1       9.135  21.107  24.388  1.00  0.00     0.020 A 
HETATM   30  C21 UNL     1       8.885  21.582  25.691  1.00  0.00     0.052 A 
BRANCH  30  31
HETATM   31  C22 UNL     1      10.060  21.776  26.548  1.00  0.00     0.120 A 
HETATM   32  N4  UNL     1      10.511  20.836  27.437  1.00  0.00    -0.340 N 
HETATM   33  C23 UNL     1      11.624  21.266  28.034  1.00  0.00     0.060 A 
ATOM     34  H4  UNL     1      10.061  19.938  27.616  1.00  0.00     0.167 HD
HETATM   35  C24 UNL     1      12.474  20.716  28.999  1.00  0.00     0.032 A 
HETATM   36  C28 UNL     1      11.870  22.504  27.502  1.00  0.00     0.060 A 
HETATM   37  C25 UNL     1      13.569  21.438  29.412  1.00  0.00     0.002 A 
HETATM   38  C26 UNL     1      13.799  22.678  28.865  1.00  0.00     0.002 A 
HETATM   39  C27 UNL     1      12.986  23.240  27.922  1.00  0.00     0.032 A 
HETATM   40  N5  UNL     1      10.901  22.769  26.613  1.00  0.00    -0.340 N 
ATOM     41  H5  UNL     1      10.833  23.627  26.066  1.00  0.00     0.167 HD
ENDBRANCH  30  31
ENDBRANCH  22  24
ENDBRANCH   1  22
TORSDOF 15
ENDMDL
