MODEL 1
REMARK VINA RESULT: -5.380145892      0.000      0.000
REMARK  2 active torsions:
REMARK  status: ('A' for Active; 'I' for Inactive)
REMARK    1  A    between atoms: N1_1  and  C1_4 
REMARK    2  A    between atoms: N4_10  and  O1_11 
ROOT
HETATM    1  C1  UNL     1      32.423  66.337   8.536  1.00  0.00     0.717 A 
HETATM    2  N2  UNL     1      32.526  65.508   9.617  1.00  0.00    -0.129 N 
ATOM      3  H2  UNL     1      33.383  65.253  10.108  1.00  0.00     0.205 HD
HETATM    4  N3  UNL     1      31.304  65.101   9.906  1.00  0.00    -0.279 N 
ATOM      5  H3  UNL     1      31.050  64.471  10.667  1.00  0.00     0.188 HD
HETATM    6  C2  UNL     1      30.452  65.659   9.029  1.00  0.00     0.249 A 
HETATM    7  N4  UNL     1      31.132  66.432   8.167  1.00  0.00    -0.046 N 
ENDROOT
BRANCH   1   8
HETATM    8  N1  UNL     1      33.434  66.930   7.969  1.00  0.00    -0.231 N 
ATOM      9  H12 UNL     1      34.296  66.486   7.652  1.00  0.00     0.174 HD
ATOM     10  H11 UNL     1      33.477  67.930   7.773  1.00  0.00     0.174 HD
ENDBRANCH   1   8
BRANCH   7  11
HETATM   11  O1  UNL     1      30.653  67.181   7.115  1.00  0.00    -0.269 OA
ATOM     12  H1  UNL     1      30.472  66.854   6.242  1.00  0.00     0.246 HD
ENDBRANCH   7  11
TORSDOF 2
ENDMDL
MODEL 2
REMARK VINA RESULT: -5.352757631      1.687      2.466
REMARK  2 active torsions:
REMARK  status: ('A' for Active; 'I' for Inactive)
REMARK    1  A    between atoms: N1_1  and  C1_4 
REMARK    2  A    between atoms: N4_10  and  O1_11 
ROOT
HETATM    1  C1  UNL     1      32.106  66.252   8.326  1.00  0.00     0.717 A 
HETATM    2  N2  UNL     1      32.614  67.126   7.408  1.00  0.00    -0.129 N 
ATOM      3  H2  UNL     1      33.483  67.654   7.487  1.00  0.00     0.205 HD
HETATM    4  N3  UNL     1      31.765  67.157   6.398  1.00  0.00    -0.279 N 
ATOM      5  H3  UNL     1      31.865  67.718   5.552  1.00  0.00     0.188 HD
HETATM    6  C2  UNL     1      30.747  66.324   6.672  1.00  0.00     0.249 A 
HETATM    7  N4  UNL     1      30.943  65.750   7.870  1.00  0.00    -0.046 N 
ENDROOT
BRANCH   1   8
HETATM    8  N1  UNL     1      32.678  65.966   9.460  1.00  0.00    -0.231 N 
ATOM      9  H12 UNL     1      32.225  65.568  10.283  1.00  0.00     0.174 HD
ATOM     10  H11 UNL     1      33.668  66.110   9.657  1.00  0.00     0.174 HD
ENDBRANCH   1   8
BRANCH   7  11
HETATM   11  O1  UNL     1      30.149  64.839   8.533  1.00  0.00    -0.269 OA
ATOM     12  H1  UNL     1      30.372  64.402   9.346  1.00  0.00     0.246 HD
ENDBRANCH   7  11
TORSDOF 2
ENDMDL
MODEL 3
REMARK VINA RESULT: -5.267238714      1.298      1.723
REMARK  2 active torsions:
REMARK  status: ('A' for Active; 'I' for Inactive)
REMARK    1  A    between atoms: N1_1  and  C1_4 
REMARK    2  A    between atoms: N4_10  and  O1_11 
ROOT
HETATM    1  C1  UNL     1      31.888  66.823   7.385  1.00  0.00     0.717 A 
HETATM    2  N2  UNL     1      33.100  66.430   7.876  1.00  0.00    -0.129 N 
ATOM      3  H2  UNL     1      33.986  66.419   7.370  1.00  0.00     0.205 HD
HETATM    4  N3  UNL     1      32.907  66.066   9.130  1.00  0.00    -0.279 N 
ATOM      5  H3  UNL     1      33.625  65.723   9.768  1.00  0.00     0.188 HD
HETATM    6  C2  UNL     1      31.605  66.225   9.423  1.00  0.00     0.249 A 
HETATM    7  N4  UNL     1      30.954  66.696   8.348  1.00  0.00    -0.046 N 
ENDROOT
BRANCH   1   8
HETATM    8  N1  UNL     1      31.692  67.250   6.172  1.00  0.00    -0.231 N 
ATOM      9  H12 UNL     1      32.248  67.014   5.350  1.00  0.00     0.174 HD
ATOM     10  H11 UNL     1      30.942  67.885   5.900  1.00  0.00     0.174 HD
ENDBRANCH   1   8
BRANCH   7  11
HETATM   11  O1  UNL     1      29.617  66.999   8.210  1.00  0.00    -0.269 OA
ATOM     12  H1  UNL     1      28.912  66.367   8.144  1.00  0.00     0.246 HD
ENDBRANCH   7  11
TORSDOF 2
ENDMDL
MODEL 4
REMARK VINA RESULT: -5.153349907      1.715      2.420
REMARK  2 active torsions:
REMARK  status: ('A' for Active; 'I' for Inactive)
REMARK    1  A    between atoms: N1_1  and  C1_4 
REMARK    2  A    between atoms: N4_10  and  O1_11 
ROOT
HETATM    1  C1  UNL     1      32.167  66.806   7.731  1.00  0.00     0.717 A 
HETATM    2  N2  UNL     1      31.572  67.104   6.539  1.00  0.00    -0.129 N 
ATOM      3  H2  UNL     1      32.045  67.340   5.666  1.00  0.00     0.205 HD
HETATM    4  N3  UNL     1      30.269  67.027   6.730  1.00  0.00    -0.279 N 
ATOM      5  H3  UNL     1      29.551  67.194   6.025  1.00  0.00     0.188 HD
HETATM    6  C2  UNL     1      30.047  66.690   8.012  1.00  0.00     0.249 A 
HETATM    7  N4  UNL     1      31.219  66.547   8.652  1.00  0.00    -0.046 N 
ENDROOT
BRANCH   1   8
HETATM    8  N1  UNL     1      33.454  66.782   7.922  1.00  0.00    -0.231 N 
ATOM      9  H12 UNL     1      34.144  66.309   7.339  1.00  0.00     0.174 HD
ATOM     10  H11 UNL     1      33.929  67.247   8.696  1.00  0.00     0.174 HD
ENDBRANCH   1   8
BRANCH   7  11
HETATM   11  O1  UNL     1      31.451  66.211   9.968  1.00  0.00    -0.269 OA
ATOM     12  H1  UNL     1      31.084  65.460  10.418  1.00  0.00     0.246 HD
ENDBRANCH   7  11
TORSDOF 2
ENDMDL
MODEL 5
REMARK VINA RESULT: -5.040422783      1.362      2.197
REMARK  2 active torsions:
REMARK  status: ('A' for Active; 'I' for Inactive)
REMARK    1  A    between atoms: N1_1  and  C1_4 
REMARK    2  A    between atoms: N4_10  and  O1_11 
ROOT
HETATM    1  C1  UNL     1      32.321  66.388   8.743  1.00  0.00     0.717 A 
HETATM    2  N2  UNL     1      33.238  66.245   7.741  1.00  0.00    -0.129 N 
ATOM      3  H2  UNL     1      34.243  66.111   7.852  1.00  0.00     0.205 HD
HETATM    4  N3  UNL     1      32.575  66.312   6.602  1.00  0.00    -0.279 N 
ATOM      5  H3  UNL     1      32.982  66.238   5.670  1.00  0.00     0.188 HD
HETATM    6  C2  UNL     1      31.273  66.495   6.878  1.00  0.00     0.249 A 
HETATM    7  N4  UNL     1      31.095  66.544   8.208  1.00  0.00    -0.046 N 
ENDROOT
BRANCH   1   8
HETATM    8  N1  UNL     1      32.613  66.373  10.012  1.00  0.00    -0.231 N 
ATOM      9  H12 UNL     1      33.322  66.940  10.476  1.00  0.00     0.174 HD
ATOM     10  H11 UNL     1      32.153  65.777  10.700  1.00  0.00     0.174 HD
ENDBRANCH   1   8
BRANCH   7  11
HETATM   11  O1  UNL     1      29.927  66.717   8.919  1.00  0.00    -0.269 OA
ATOM     12  H1  UNL     1      29.117  66.244   8.772  1.00  0.00     0.246 HD
ENDBRANCH   7  11
TORSDOF 2
ENDMDL
