MODEL 1
REMARK VINA RESULT: -5.884680808      0.000      0.000
REMARK  1 active torsions:
REMARK  status: ('A' for Active; 'I' for Inactive)
REMARK    1  A    between atoms: O1_1  and  N1_3 
ROOT
HETATM    1  N1  UNL     1      32.486  66.550   8.254  1.00  0.00     0.004 NA
HETATM    2  N2  UNL     1      31.480  67.111   7.474  1.00  0.00    -0.228 N 
ATOM      3  H2  UNL     1      31.740  67.856   6.829  1.00  0.00     0.190 HD
HETATM    4  C1  UNL     1      30.125  66.721   7.513  1.00  0.00     0.341 C 
HETATM    5  O2  UNL     1      29.315  67.185   6.649  1.00  0.00    -0.245 OA
HETATM    6  N3  UNL     1      29.698  65.812   8.520  1.00  0.00    -0.259 N 
ATOM      7  H3  UNL     1      28.727  65.505   8.582  1.00  0.00     0.175 HD
HETATM    8  C2  UNL     1      30.687  65.348   9.442  1.00  0.00     0.341 C 
HETATM    9  O3  UNL     1      30.337  64.549  10.337  1.00  0.00    -0.245 OA
HETATM   10  N4  UNL     1      32.026  65.808   9.310  1.00  0.00    -0.228 N 
ATOM     11  H4  UNL     1      32.687  65.570  10.049  1.00  0.00     0.190 HD
ENDROOT
BRANCH   1  12
HETATM   12  O1  UNL     1      33.394  65.914   7.487  1.00  0.00    -0.276 OA
ATOM     13  H1  UNL     1      34.094  65.552   8.017  1.00  0.00     0.241 HD
ENDBRANCH   1  12
TORSDOF 1
ENDMDL
MODEL 2
REMARK VINA RESULT: -5.769045839      1.532      1.612
REMARK  1 active torsions:
REMARK  status: ('A' for Active; 'I' for Inactive)
REMARK    1  A    between atoms: O1_1  and  N1_3 
ROOT
HETATM    1  N1  UNL     1      32.324  66.351   9.451  1.00  0.00     0.004 NA
HETATM    2  N2  UNL     1      32.328  66.750   8.119  1.00  0.00    -0.228 N 
ATOM      3  H2  UNL     1      33.221  67.022   7.708  1.00  0.00     0.190 HD
HETATM    4  C1  UNL     1      31.185  66.805   7.295  1.00  0.00     0.341 C 
HETATM    5  O2  UNL     1      31.320  67.031   6.051  1.00  0.00    -0.245 OA
HETATM    6  N3  UNL     1      29.904  66.603   7.880  1.00  0.00    -0.259 N 
ATOM      7  H3  UNL     1      29.053  66.635   7.319  1.00  0.00     0.175 HD
HETATM    8  C2  UNL     1      29.861  66.355   9.287  1.00  0.00     0.341 C 
HETATM    9  O3  UNL     1      28.748  66.175   9.825  1.00  0.00    -0.245 OA
HETATM   10  N4  UNL     1      31.078  66.321  10.021  1.00  0.00    -0.228 N 
ATOM     11  H4  UNL     1      31.020  66.272  11.038  1.00  0.00     0.190 HD
ENDROOT
BRANCH   1  12
HETATM   12  O1  UNL     1      33.034  65.217   9.618  1.00  0.00    -0.276 OA
ATOM     13  H1  UNL     1      32.923  64.872  10.496  1.00  0.00     0.241 HD
ENDBRANCH   1  12
TORSDOF 1
ENDMDL
MODEL 3
REMARK VINA RESULT: -5.639980156      1.420      2.826
REMARK  1 active torsions:
REMARK  status: ('A' for Active; 'I' for Inactive)
REMARK    1  A    between atoms: O1_1  and  N1_3 
ROOT
HETATM    1  N1  UNL     1      32.531  65.707   9.317  1.00  0.00     0.004 NA
HETATM    2  N2  UNL     1      31.380  65.025   9.698  1.00  0.00    -0.228 N 
ATOM      3  H2  UNL     1      31.452  64.371  10.478  1.00  0.00     0.190 HD
HETATM    4  C1  UNL     1      30.121  65.173   9.081  1.00  0.00     0.341 C 
HETATM    5  O2  UNL     1      29.100  64.624   9.604  1.00  0.00    -0.245 OA
HETATM    6  N3  UNL     1      30.024  65.938   7.886  1.00  0.00    -0.259 N 
ATOM      7  H3  UNL     1      29.131  66.069   7.410  1.00  0.00     0.175 HD
HETATM    8  C2  UNL     1      31.231  66.514   7.381  1.00  0.00     0.341 C 
HETATM    9  O3  UNL     1      31.173  67.190   6.332  1.00  0.00    -0.245 OA
HETATM   10  N4  UNL     1      32.447  66.299   8.085  1.00  0.00    -0.228 N 
ATOM     11  H4  UNL     1      33.314  66.606   7.644  1.00  0.00     0.190 HD
ENDROOT
BRANCH   1  12
HETATM   12  O1  UNL     1      32.951  66.530  10.298  1.00  0.00    -0.276 OA
ATOM     13  H1  UNL     1      32.354  66.512  11.037  1.00  0.00     0.241 HD
ENDBRANCH   1  12
TORSDOF 1
ENDMDL
MODEL 4
REMARK VINA RESULT: -5.608848118      1.109      3.217
REMARK  1 active torsions:
REMARK  status: ('A' for Active; 'I' for Inactive)
REMARK    1  A    between atoms: O1_1  and  N1_3 
ROOT
HETATM    1  N1  UNL     1      30.237  65.417   9.382  1.00  0.00     0.004 NA
HETATM    2  N2  UNL     1      31.526  65.902   9.191  1.00  0.00    -0.228 N 
ATOM      3  H2  UNL     1      32.212  65.728   9.925  1.00  0.00     0.190 HD
HETATM    4  C1  UNL     1      31.952  66.618   8.053  1.00  0.00     0.341 C 
HETATM    5  O2  UNL     1      33.187  66.880   7.904  1.00  0.00    -0.245 OA
HETATM    6  N3  UNL     1      30.984  67.030   7.095  1.00  0.00    -0.259 N 
ATOM      7  H3  UNL     1      31.251  67.549   6.259  1.00  0.00     0.175 HD
HETATM    8  C2  UNL     1      29.621  66.685   7.356  1.00  0.00     0.341 C 
HETATM    9  O3  UNL     1      28.751  67.035   6.530  1.00  0.00    -0.245 OA
HETATM   10  N4  UNL     1      29.305  65.960   8.538  1.00  0.00    -0.228 N 
ATOM     11  H4  UNL     1      28.320  65.836   8.771  1.00  0.00     0.190 HD
ENDROOT
BRANCH   1  12
HETATM   12  O1  UNL     1      30.229  64.069   9.421  1.00  0.00    -0.276 OA
ATOM     13  H1  UNL     1      29.595  63.750  10.052  1.00  0.00     0.241 HD
ENDBRANCH   1  12
TORSDOF 1
ENDMDL
MODEL 5
REMARK VINA RESULT: -5.270739537      1.381      3.160
REMARK  1 active torsions:
REMARK  status: ('A' for Active; 'I' for Inactive)
REMARK    1  A    between atoms: O1_1  and  N1_3 
ROOT
HETATM    1  N1  UNL     1      29.618  66.901   7.091  1.00  0.00     0.004 NA
HETATM    2  N2  UNL     1      29.072  66.700   8.354  1.00  0.00    -0.228 N 
ATOM      3  H2  UNL     1      28.065  66.818   8.460  1.00  0.00     0.190 HD
HETATM    4  C1  UNL     1      29.813  66.344   9.500  1.00  0.00     0.341 C 
HETATM    5  O2  UNL     1      29.201  66.030  10.569  1.00  0.00    -0.245 OA
HETATM    6  N3  UNL     1      31.234  66.343   9.429  1.00  0.00    -0.259 N 
ATOM      7  H3  UNL     1      31.807  66.091  10.235  1.00  0.00     0.175 HD
HETATM    8  C2  UNL     1      31.825  66.711   8.180  1.00  0.00     0.341 C 
HETATM    9  O3  UNL     1      33.071  66.719   8.091  1.00  0.00    -0.245 OA
HETATM   10  N4  UNL     1      30.980  67.052   7.089  1.00  0.00    -0.228 N 
ATOM     11  H4  UNL     1      31.415  67.434   6.250  1.00  0.00     0.190 HD
ENDROOT
BRANCH   1  12
HETATM   12  O1  UNL     1      29.163  65.981   6.216  1.00  0.00    -0.276 OA
ATOM     13  H1  UNL     1      29.447  65.108   6.462  1.00  0.00     0.241 HD
ENDBRANCH   1  12
TORSDOF 1
ENDMDL
