MODEL 1
REMARK VINA RESULT: -6.686418535      0.000      0.000
REMARK  1 active torsions:
REMARK  status: ('A' for Active; 'I' for Inactive)
REMARK    1  A    between atoms: N3_4  and  C2_6 
ROOT
HETATM    1  C2  UNL     1      26.938  64.601  10.315  1.00  0.00     0.125 C 
HETATM    2  C3  UNL     1      28.078  65.066   9.803  1.00  0.00     0.119 A 
HETATM    3  N4  UNL     1      28.094  65.987   8.717  1.00  0.00    -0.313 N 
ATOM      4  H4  UNL     1      27.215  66.308   8.312  1.00  0.00     0.169 HD
HETATM    5  C4  UNL     1      29.331  66.464   8.192  1.00  0.00     0.314 A 
HETATM    6  O1  UNL     1      29.308  67.282   7.226  1.00  0.00    -0.262 OA
HETATM    7  C5  UNL     1      30.619  66.044   8.730  1.00  0.00     0.316 A 
HETATM    8  O2  UNL     1      31.687  66.498   8.228  1.00  0.00    -0.262 OA
HETATM    9  N5  UNL     1      30.604  65.125   9.815  1.00  0.00    -0.284 N 
ATOM     10  H5  UNL     1      31.483  64.804  10.221  1.00  0.00     0.172 HD
HETATM   11  C6  UNL     1      29.364  64.647  10.340  1.00  0.00     0.276 A 
HETATM   12  O3  UNL     1      29.355  63.835  11.297  1.00  0.00    -0.266 OA
ENDROOT
BRANCH   1  13
HETATM   13  N3  UNL     1      25.670  64.988   9.818  1.00  0.00    -0.341 N 
HETATM   14  C1  UNL     1      24.882  64.165   9.238  1.00  0.00     0.200 C 
HETATM   15  N1  UNL     1      25.295  62.821   9.091  1.00  0.00    -0.067 NA
HETATM   16  N2  UNL     1      23.628  64.553   8.748  1.00  0.00    -0.067 NA
ATOM     17  H3  UNL     1      25.376  65.958   9.925  1.00  0.00     0.167 HD
ENDBRANCH   1  13
TORSDOF 1
ENDMDL
MODEL 2
REMARK VINA RESULT: -6.599704938      2.464      3.226
REMARK  1 active torsions:
REMARK  status: ('A' for Active; 'I' for Inactive)
REMARK    1  A    between atoms: N3_4  and  C2_6 
ROOT
HETATM    1  C2  UNL     1      28.027  64.650  10.017  1.00  0.00     0.125 C 
HETATM    2  C3  UNL     1      28.958  65.293   9.313  1.00  0.00     0.119 A 
HETATM    3  N4  UNL     1      30.292  65.440   9.787  1.00  0.00    -0.313 N 
ATOM      4  H4  UNL     1      30.555  65.046  10.690  1.00  0.00     0.169 HD
HETATM    5  C4  UNL     1      31.265  66.135   9.008  1.00  0.00     0.314 A 
HETATM    6  O1  UNL     1      32.441  66.247   9.462  1.00  0.00    -0.262 OA
HETATM    7  C5  UNL     1      30.950  66.718   7.710  1.00  0.00     0.316 A 
HETATM    8  O2  UNL     1      31.850  67.323   7.059  1.00  0.00    -0.262 OA
HETATM    9  N5  UNL     1      29.618  66.571   7.235  1.00  0.00    -0.284 N 
ATOM     10  H5  UNL     1      29.355  66.964   6.331  1.00  0.00     0.172 HD
HETATM   11  C6  UNL     1      28.644  65.875   8.016  1.00  0.00     0.276 A 
HETATM   12  O3  UNL     1      27.470  65.748   7.593  1.00  0.00    -0.266 OA
ENDROOT
BRANCH   1  13
HETATM   13  N3  UNL     1      28.297  64.071  11.280  1.00  0.00    -0.341 N 
HETATM   14  C1  UNL     1      27.900  62.897  11.594  1.00  0.00     0.200 C 
HETATM   15  N1  UNL     1      27.165  62.154  10.643  1.00  0.00    -0.067 NA
HETATM   16  N2  UNL     1      28.171  62.328  12.846  1.00  0.00    -0.067 NA
ATOM     17  H3  UNL     1      28.828  64.610  11.964  1.00  0.00     0.167 HD
ENDBRANCH   1  13
TORSDOF 1
ENDMDL
MODEL 3
REMARK VINA RESULT: -6.486386729      2.389      5.618
REMARK  1 active torsions:
REMARK  status: ('A' for Active; 'I' for Inactive)
REMARK    1  A    between atoms: N3_4  and  C2_6 
ROOT
HETATM    1  C2  UNL     1      29.488  65.678   8.928  1.00  0.00     0.125 C 
HETATM    2  C3  UNL     1      28.765  64.994   9.814  1.00  0.00     0.119 A 
HETATM    3  N4  UNL     1      29.358  64.366  10.946  1.00  0.00    -0.313 N 
ATOM      4  H4  UNL     1      30.365  64.434  11.093  1.00  0.00     0.169 HD
HETATM    5  C4  UNL     1      28.555  63.641  11.875  1.00  0.00     0.314 A 
HETATM    6  O1  UNL     1      29.116  63.095  12.870  1.00  0.00    -0.262 OA
HETATM    7  C5  UNL     1      27.111  63.510  11.719  1.00  0.00     0.316 A 
HETATM    8  O2  UNL     1      26.445  62.857  12.573  1.00  0.00    -0.262 OA
HETATM    9  N5  UNL     1      26.517  64.138  10.590  1.00  0.00    -0.284 N 
ATOM     10  H5  UNL     1      25.510  64.071  10.443  1.00  0.00     0.172 HD
HETATM   11  C6  UNL     1      27.323  64.863   9.659  1.00  0.00     0.276 A 
HETATM   12  O3  UNL     1      26.795  65.416   8.664  1.00  0.00    -0.266 OA
ENDROOT
BRANCH   1  13
HETATM   13  N3  UNL     1      30.891  65.826   9.048  1.00  0.00    -0.341 N 
HETATM   14  C1  UNL     1      31.597  66.411   8.156  1.00  0.00     0.200 C 
HETATM   15  N1  UNL     1      30.948  66.927   7.011  1.00  0.00    -0.067 NA
HETATM   16  N2  UNL     1      32.985  66.555   8.281  1.00  0.00    -0.067 NA
ATOM     17  H3  UNL     1      31.356  65.453   9.876  1.00  0.00     0.167 HD
ENDBRANCH   1  13
TORSDOF 1
ENDMDL
MODEL 4
REMARK VINA RESULT: -6.194466135      3.492      5.687
REMARK  1 active torsions:
REMARK  status: ('A' for Active; 'I' for Inactive)
REMARK    1  A    between atoms: N3_4  and  C2_6 
ROOT
HETATM    1  C2  UNL     1      26.866  65.457   7.713  1.00  0.00     0.125 C 
HETATM    2  C3  UNL     1      25.856  65.453   8.583  1.00  0.00     0.119 A 
HETATM    3  N4  UNL     1      25.753  66.420   9.622  1.00  0.00    -0.313 N 
ATOM      4  H4  UNL     1      26.467  67.143   9.713  1.00  0.00     0.169 HD
HETATM    5  C4  UNL     1      24.660  66.386  10.537  1.00  0.00     0.314 A 
HETATM    6  O1  UNL     1      24.601  67.263  11.449  1.00  0.00    -0.262 OA
HETATM    7  C5  UNL     1      23.608  65.380  10.456  1.00  0.00     0.316 A 
HETATM    8  O2  UNL     1      22.659  65.395  11.291  1.00  0.00    -0.262 OA
HETATM    9  N5  UNL     1      23.709  64.414   9.417  1.00  0.00    -0.284 N 
ATOM     10  H5  UNL     1      22.995  63.691   9.325  1.00  0.00     0.172 HD
HETATM   11  C6  UNL     1      24.806  64.448   8.502  1.00  0.00     0.276 A 
HETATM   12  O3  UNL     1      24.891  63.593   7.588  1.00  0.00    -0.266 OA
ENDROOT
BRANCH   1  13
HETATM   13  N3  UNL     1      27.904  66.420   7.762  1.00  0.00    -0.341 N 
HETATM   14  C1  UNL     1      29.060  66.206   7.259  1.00  0.00     0.200 C 
HETATM   15  N1  UNL     1      29.307  64.963   6.633  1.00  0.00    -0.067 NA
HETATM   16  N2  UNL     1      30.083  67.162   7.309  1.00  0.00    -0.067 NA
ATOM     17  H3  UNL     1      27.722  67.315   8.214  1.00  0.00     0.167 HD
ENDBRANCH   1  13
TORSDOF 1
ENDMDL
MODEL 5
REMARK VINA RESULT: -6.118200958      2.988      3.811
REMARK  1 active torsions:
REMARK  status: ('A' for Active; 'I' for Inactive)
REMARK    1  A    between atoms: N3_4  and  C2_6 
ROOT
HETATM    1  C2  UNL     1      28.438  65.155  10.708  1.00  0.00     0.125 C 
HETATM    2  C3  UNL     1      29.198  65.589   9.703  1.00  0.00     0.119 A 
HETATM    3  N4  UNL     1      30.587  65.854   9.870  1.00  0.00    -0.313 N 
ATOM      4  H4  UNL     1      31.024  65.710  10.781  1.00  0.00     0.169 HD
HETATM    5  C4  UNL     1      31.372  66.319   8.774  1.00  0.00     0.314 A 
HETATM    6  O1  UNL     1      32.604  66.544   8.959  1.00  0.00    -0.262 OA
HETATM    7  C5  UNL     1      30.805  66.541   7.449  1.00  0.00     0.316 A 
HETATM    8  O2  UNL     1      31.546  66.953   6.511  1.00  0.00    -0.262 OA
HETATM    9  N5  UNL     1      29.418  66.276   7.281  1.00  0.00    -0.284 N 
ATOM     10  H5  UNL     1      28.981  66.418   6.370  1.00  0.00     0.172 HD
HETATM   11  C6  UNL     1      28.633  65.811   8.380  1.00  0.00     0.276 A 
HETATM   12  O3  UNL     1      27.409  65.578   8.227  1.00  0.00    -0.266 OA
ENDROOT
BRANCH   1  13
HETATM   13  N3  UNL     1      28.955  64.928  12.006  1.00  0.00    -0.341 N 
HETATM   14  C1  UNL     1      28.467  65.491  13.046  1.00  0.00     0.200 C 
HETATM   15  N1  UNL     1      27.371  66.371  12.888  1.00  0.00    -0.067 NA
HETATM   16  N2  UNL     1      28.982  65.262  14.328  1.00  0.00    -0.067 NA
ATOM     17  H3  UNL     1      29.745  64.293  12.116  1.00  0.00     0.167 HD
ENDBRANCH   1  13
TORSDOF 1
ENDMDL
