MODEL 1
REMARK VINA RESULT: -7.950048004      0.000      0.000
REMARK  3 active torsions:
REMARK  status: ('A' for Active; 'I' for Inactive)
REMARK    1  A    between atoms: C2_7  and  C3_8 
REMARK    2  A    between atoms: N3_9  and  N4_11 
REMARK    3  A    between atoms: N4_11  and  C4_13 
ROOT
HETATM    1  C3  UNL     1     -13.817 -26.929 -25.720  1.00  0.00     0.143 C 
HETATM    2  N3  UNL     1     -14.893 -27.391 -25.197  1.00  0.00    -0.308 N 
ATOM      3  H3  UNL     1     -14.857 -28.300 -24.736  1.00  0.00     0.186 HD
ENDROOT
BRANCH   1   4
HETATM    4  C2  UNL     1     -12.556 -27.639 -25.685  1.00  0.00     0.133 A 
HETATM    5  N2  UNL     1     -11.467 -27.140 -25.103  1.00  0.00    -0.290 N 
HETATM    6  N1  UNL     1     -10.307 -27.781 -25.064  1.00  0.00    -0.251 N 
ATOM      7  H2  UNL     1     -11.529 -26.221 -24.665  1.00  0.00     0.187 HD
HETATM    8  C1  UNL     1     -10.261 -28.992 -25.650  1.00  0.00     0.341 A 
ATOM      9  H1  UNL     1      -9.488 -27.376 -24.611  1.00  0.00     0.191 HD
HETATM   10  O1  UNL     1      -9.164 -29.627 -25.628  1.00  0.00    -0.245 OA
HETATM   11  N6  UNL     1     -11.336 -29.559 -26.262  1.00  0.00    -0.272 N 
HETATM   12  C9  UNL     1     -12.482 -28.876 -26.275  1.00  0.00     0.279 A 
ATOM     13  H6  UNL     1     -11.268 -30.479 -26.696  1.00  0.00     0.173 HD
HETATM   14  O2  UNL     1     -13.492 -29.360 -26.826  1.00  0.00    -0.265 OA
ENDBRANCH   1   4
BRANCH   2  15
HETATM   15  N4  UNL     1     -16.096 -26.719 -25.228  1.00  0.00    -0.286 N 
ATOM     16  H4  UNL     1     -16.154 -25.778 -24.838  1.00  0.00     0.188 HD
BRANCH  15  17
HETATM   17  C4  UNL     1     -17.253 -27.311 -25.792  1.00  0.00     0.119 A 
HETATM   18  C5  UNL     1     -17.108 -28.126 -26.894  1.00  0.00     0.050 A 
HETATM   19  C6  UNL     1     -18.236 -28.701 -27.441  1.00  0.00     0.005 A 
HETATM   20  C7  UNL     1     -19.477 -28.443 -26.871  1.00  0.00     0.017 A 
HETATM   21  C8  UNL     1     -19.599 -27.623 -25.771  1.00  0.00     0.089 A 
HETATM   22  N5  UNL     1     -18.481 -27.079 -25.260  1.00  0.00    -0.351 N 
ATOM     23  H5  UNL     1     -18.558 -26.471 -24.445  1.00  0.00     0.166 HD
ENDBRANCH  15  17
ENDBRANCH   2  15
TORSDOF 3
ENDMDL
MODEL 2
REMARK VINA RESULT: -7.810073204      1.866      2.141
REMARK  3 active torsions:
REMARK  status: ('A' for Active; 'I' for Inactive)
REMARK    1  A    between atoms: C2_7  and  C3_8 
REMARK    2  A    between atoms: N3_9  and  N4_11 
REMARK    3  A    between atoms: N4_11  and  C4_13 
ROOT
HETATM    1  C3  UNL     1     -14.249 -28.328 -27.290  1.00  0.00     0.143 C 
HETATM    2  N3  UNL     1     -15.218 -28.042 -26.499  1.00  0.00    -0.308 N 
ATOM      3  H3  UNL     1     -15.031 -28.003 -25.497  1.00  0.00     0.186 HD
ENDROOT
BRANCH   1   4
HETATM    4  C2  UNL     1     -12.905 -28.598 -26.823  1.00  0.00     0.133 A 
HETATM    5  N2  UNL     1     -12.637 -29.515 -25.896  1.00  0.00    -0.290 N 
HETATM    6  N1  UNL     1     -11.411 -29.771 -25.461  1.00  0.00    -0.251 N 
ATOM      7  H2  UNL     1     -13.413 -30.047 -25.501  1.00  0.00     0.187 HD
HETATM    8  C1  UNL     1     -10.411 -29.052 -26.003  1.00  0.00     0.341 A 
ATOM      9  H1  UNL     1     -11.234 -30.479 -24.749  1.00  0.00     0.191 HD
HETATM   10  O1  UNL     1      -9.228 -29.276 -25.606  1.00  0.00    -0.245 OA
HETATM   11  N6  UNL     1     -10.615 -28.101 -26.954  1.00  0.00    -0.272 N 
HETATM   12  C9  UNL     1     -11.866 -27.878 -27.360  1.00  0.00     0.279 A 
ATOM     13  H6  UNL     1      -9.835 -27.573 -27.346  1.00  0.00     0.173 HD
HETATM   14  O2  UNL     1     -12.098 -27.015 -28.230  1.00  0.00    -0.265 OA
ENDBRANCH   1   4
BRANCH   2  15
HETATM   15  N4  UNL     1     -16.498 -27.784 -26.938  1.00  0.00    -0.286 N 
ATOM     16  H4  UNL     1     -16.807 -26.818 -27.043  1.00  0.00     0.188 HD
BRANCH  15  17
HETATM   17  C4  UNL     1     -17.394 -28.838 -27.248  1.00  0.00     0.119 A 
HETATM   18  C5  UNL     1     -17.575 -29.184 -28.569  1.00  0.00     0.050 A 
HETATM   19  C6  UNL     1     -18.448 -30.210 -28.867  1.00  0.00     0.005 A 
HETATM   20  C7  UNL     1     -19.114 -30.859 -27.835  1.00  0.00     0.017 A 
HETATM   21  C8  UNL     1     -18.918 -30.496 -26.521  1.00  0.00     0.089 A 
HETATM   22  N5  UNL     1     -18.061 -29.493 -26.263  1.00  0.00    -0.351 N 
ATOM     23  H5  UNL     1     -17.907 -29.215 -25.294  1.00  0.00     0.166 HD
ENDBRANCH  15  17
ENDBRANCH   2  15
TORSDOF 3
ENDMDL
MODEL 3
REMARK VINA RESULT: -7.796662489      1.552      1.983
REMARK  3 active torsions:
REMARK  status: ('A' for Active; 'I' for Inactive)
REMARK    1  A    between atoms: C2_7  and  C3_8 
REMARK    2  A    between atoms: N3_9  and  N4_11 
REMARK    3  A    between atoms: N4_11  and  C4_13 
ROOT
HETATM    1  C3  UNL     1     -13.989 -28.665 -27.538  1.00  0.00     0.143 C 
HETATM    2  N3  UNL     1     -15.029 -28.288 -26.888  1.00  0.00    -0.308 N 
ATOM      3  H3  UNL     1     -14.912 -27.974 -25.925  1.00  0.00     0.186 HD
ENDROOT
BRANCH   1   4
HETATM    4  C2  UNL     1     -12.659 -28.664 -26.965  1.00  0.00     0.133 A 
HETATM    5  N2  UNL     1     -12.298 -29.494 -25.988  1.00  0.00    -0.290 N 
HETATM    6  N1  UNL     1     -11.084 -29.503 -25.456  1.00  0.00    -0.251 N 
ATOM      7  H2  UNL     1     -12.988 -30.155 -25.633  1.00  0.00     0.187 HD
HETATM    8  C1  UNL     1     -10.196 -28.619 -25.949  1.00  0.00     0.341 A 
ATOM      9  H1  UNL     1     -10.833 -30.150 -24.709  1.00  0.00     0.191 HD
HETATM   10  O1  UNL     1      -9.028 -28.605 -25.458  1.00  0.00    -0.245 OA
HETATM   11  N6  UNL     1     -10.501 -27.744 -26.945  1.00  0.00    -0.272 N 
HETATM   12  C9  UNL     1     -11.735 -27.772 -27.450  1.00  0.00     0.279 A 
ATOM     13  H6  UNL     1      -9.805 -27.086 -27.297  1.00  0.00     0.173 HD
HETATM   14  O2  UNL     1     -12.056 -26.987 -28.364  1.00  0.00    -0.265 OA
ENDBRANCH   1   4
BRANCH   2  15
HETATM   15  N4  UNL     1     -16.296 -28.286 -27.430  1.00  0.00    -0.286 N 
ATOM     16  H4  UNL     1     -16.425 -28.556 -28.405  1.00  0.00     0.188 HD
BRANCH  15  17
HETATM   17  C4  UNL     1     -17.424 -27.916 -26.655  1.00  0.00     0.119 A 
HETATM   18  C5  UNL     1     -18.665 -28.383 -27.030  1.00  0.00     0.050 A 
HETATM   19  C6  UNL     1     -19.761 -28.021 -26.275  1.00  0.00     0.005 A 
HETATM   20  C7  UNL     1     -19.584 -27.201 -25.167  1.00  0.00     0.017 A 
HETATM   21  C8  UNL     1     -18.334 -26.745 -24.811  1.00  0.00     0.089 A 
HETATM   22  N5  UNL     1     -17.286 -27.116 -25.566  1.00  0.00    -0.351 N 
ATOM     23  H5  UNL     1     -16.356 -26.785 -25.313  1.00  0.00     0.166 HD
ENDBRANCH  15  17
ENDBRANCH   2  15
TORSDOF 3
ENDMDL
MODEL 4
REMARK VINA RESULT: -7.785105258      1.711      2.109
REMARK  3 active torsions:
REMARK  status: ('A' for Active; 'I' for Inactive)
REMARK    1  A    between atoms: C2_7  and  C3_8 
REMARK    2  A    between atoms: N3_9  and  N4_11 
REMARK    3  A    between atoms: N4_11  and  C4_13 
ROOT
HETATM    1  C3  UNL     1     -13.951 -28.655 -27.649  1.00  0.00     0.143 C 
HETATM    2  N3  UNL     1     -15.024 -28.393 -26.998  1.00  0.00    -0.308 N 
ATOM      3  H3  UNL     1     -14.948 -28.180 -26.003  1.00  0.00     0.186 HD
ENDROOT
BRANCH   1   4
HETATM    4  C2  UNL     1     -12.639 -28.662 -27.037  1.00  0.00     0.133 A 
HETATM    5  N2  UNL     1     -12.318 -29.481 -26.036  1.00  0.00    -0.290 N 
HETATM    6  N1  UNL     1     -11.120 -29.496 -25.468  1.00  0.00    -0.251 N 
ATOM      7  H2  UNL     1     -13.027 -30.127 -25.692  1.00  0.00     0.187 HD
HETATM    8  C1  UNL     1     -10.207 -28.632 -25.947  1.00  0.00     0.341 A 
ATOM      9  H1  UNL     1     -10.901 -30.134 -24.703  1.00  0.00     0.191 HD
HETATM   10  O1  UNL     1      -9.053 -28.625 -25.422  1.00  0.00    -0.245 OA
HETATM   11  N6  UNL     1     -10.470 -27.769 -26.967  1.00  0.00    -0.272 N 
HETATM   12  C9  UNL     1     -11.689 -27.790 -27.508  1.00  0.00     0.279 A 
ATOM     13  H6  UNL     1      -9.755 -27.126 -27.308  1.00  0.00     0.173 HD
HETATM   14  O2  UNL     1     -11.971 -27.016 -28.444  1.00  0.00    -0.265 OA
ENDBRANCH   1   4
BRANCH   2  15
HETATM   15  N4  UNL     1     -16.274 -28.384 -27.577  1.00  0.00    -0.286 N 
ATOM     16  H4  UNL     1     -16.373 -28.633 -28.561  1.00  0.00     0.188 HD
BRANCH  15  17
HETATM   17  C4  UNL     1     -17.427 -28.037 -26.829  1.00  0.00     0.119 A 
HETATM   18  C5  UNL     1     -17.275 -27.244 -25.712  1.00  0.00     0.050 A 
HETATM   19  C6  UNL     1     -18.398 -26.907 -24.985  1.00  0.00     0.005 A 
HETATM   20  C7  UNL     1     -19.641 -27.374 -25.396  1.00  0.00     0.017 A 
HETATM   21  C8  UNL     1     -19.769 -28.167 -26.515  1.00  0.00     0.089 A 
HETATM   22  N5  UNL     1     -18.656 -28.477 -27.202  1.00  0.00    -0.351 N 
ATOM     23  H5  UNL     1     -18.738 -29.062 -28.033  1.00  0.00     0.166 HD
ENDBRANCH  15  17
ENDBRANCH   2  15
TORSDOF 3
ENDMDL
MODEL 5
REMARK VINA RESULT: -7.785032316      0.659      1.162
REMARK  3 active torsions:
REMARK  status: ('A' for Active; 'I' for Inactive)
REMARK    1  A    between atoms: C2_7  and  C3_8 
REMARK    2  A    between atoms: N3_9  and  N4_11 
REMARK    3  A    between atoms: N4_11  and  C4_13 
ROOT
HETATM    1  C3  UNL     1     -13.793 -26.943 -25.747  1.00  0.00     0.143 C 
HETATM    2  N3  UNL     1     -14.849 -27.361 -25.151  1.00  0.00    -0.308 N 
ATOM      3  H3  UNL     1     -14.795 -28.229 -24.619  1.00  0.00     0.186 HD
ENDROOT
BRANCH   1   4
HETATM    4  C2  UNL     1     -12.529 -27.649 -25.698  1.00  0.00     0.133 A 
HETATM    5  N2  UNL     1     -11.446 -27.143 -25.112  1.00  0.00    -0.290 N 
HETATM    6  N1  UNL     1     -10.285 -27.780 -25.061  1.00  0.00    -0.251 N 
ATOM      7  H2  UNL     1     -11.514 -26.221 -24.681  1.00  0.00     0.187 HD
HETATM    8  C1  UNL     1     -10.230 -28.995 -25.638  1.00  0.00     0.341 A 
ATOM      9  H1  UNL     1      -9.470 -27.369 -24.605  1.00  0.00     0.191 HD
HETATM   10  O1  UNL     1      -9.131 -29.626 -25.605  1.00  0.00    -0.245 OA
HETATM   11  N6  UNL     1     -11.299 -29.569 -26.254  1.00  0.00    -0.272 N 
HETATM   12  C9  UNL     1     -12.447 -28.890 -26.280  1.00  0.00     0.279 A 
ATOM     13  H6  UNL     1     -11.225 -30.492 -26.682  1.00  0.00     0.173 HD
HETATM   14  O2  UNL     1     -13.452 -29.381 -26.834  1.00  0.00    -0.265 OA
ENDBRANCH   1   4
BRANCH   2  15
HETATM   15  N4  UNL     1     -16.053 -26.693 -25.195  1.00  0.00    -0.286 N 
ATOM     16  H4  UNL     1     -16.120 -25.755 -24.799  1.00  0.00     0.188 HD
BRANCH  15  17
HETATM   17  C4  UNL     1     -17.200 -27.284 -25.780  1.00  0.00     0.119 A 
HETATM   18  C5  UNL     1     -18.430 -27.050 -25.206  1.00  0.00     0.050 A 
HETATM   19  C6  UNL     1     -19.545 -27.628 -25.777  1.00  0.00     0.005 A 
HETATM   20  C7  UNL     1     -19.396 -28.424 -26.907  1.00  0.00     0.017 A 
HETATM   21  C8  UNL     1     -18.156 -28.646 -27.463  1.00  0.00     0.089 A 
HETATM   22  N5  UNL     1     -17.090 -28.069 -26.884  1.00  0.00    -0.351 N 
ATOM     23  H5  UNL     1     -16.166 -28.225 -27.287  1.00  0.00     0.166 HD
ENDBRANCH  15  17
ENDBRANCH   2  15
TORSDOF 3
ENDMDL
