MODEL 1
REMARK VINA RESULT: -7.460339968      0.000      0.000
REMARK  10 active torsions:
REMARK  status: ('A' for Active; 'I' for Inactive)
REMARK    1  A    between atoms: N1_1  and  N2_4 
REMARK    2  A    between atoms: N3_6  and  N4_8 
REMARK    3  A    between atoms: C1_10  and  N5_11 
REMARK    4  A    between atoms: N5_11  and  C2_13 
REMARK    5  A    between atoms: C2_13  and  C3_14 
REMARK    6  A    between atoms: C3_14  and  C4_15 
REMARK    7  A    between atoms: C4_15  and  N6_16 
REMARK    8  A    between atoms: N6_16  and  C5_18 
REMARK    9  A    between atoms: C6_19  and  O1_20 
REMARK   10  A    between atoms: C9_24  and  N7_25 
ROOT
HETATM    1  C3  UNL     1       7.278  25.357  30.462  1.00  0.00     0.039 C 
ENDROOT
BRANCH   1   2
HETATM    2  C2  UNL     1       6.028  25.723  31.223  1.00  0.00     0.122 C 
BRANCH   2   3
HETATM    3  N5  UNL     1       5.861  24.779  32.321  1.00  0.00    -0.385 N 
ATOM      4  H5  UNL     1       6.632  24.152  32.554  1.00  0.00     0.160 HD
BRANCH   3   5
HETATM    5  C1  UNL     1       4.667  24.704  33.075  1.00  0.00     0.194 C 
HETATM    6  N4  UNL     1       4.251  23.568  33.491  1.00  0.00    -0.281 N 
ATOM      7  H4  UNL     1       4.812  22.750  33.254  1.00  0.00     0.189 HD
BRANCH   6   8
HETATM    8  N3  UNL     1       3.108  23.357  34.231  1.00  0.00    -0.228 N 
HETATM    9  N2  UNL     1       3.008  22.487  35.134  1.00  0.00    -0.235 N 
ATOM     10  H2  UNL     1       2.127  22.391  35.638  1.00  0.00     0.209 HD
ATOM     11  H3  UNL     1       2.295  23.942  34.035  1.00  0.00     0.210 HD
BRANCH   9  12
HETATM   12  N1  UNL     1       4.079  21.650  35.459  1.00  0.00    -0.330 N 
ATOM     13  H12 UNL     1       4.929  21.710  34.898  1.00  0.00     0.178 HD
ATOM     14  H11 UNL     1       4.021  20.992  36.237  1.00  0.00     0.178 HD
ENDBRANCH   9  12
ENDBRANCH   6   8
ENDBRANCH   3   5
ENDBRANCH   2   3
ENDBRANCH   1   2
BRANCH   1  15
HETATM   15  C4  UNL     1       7.213  25.832  29.022  1.00  0.00     0.116 C 
BRANCH  15  16
HETATM   16  N6  UNL     1       8.530  25.715  28.462  1.00  0.00    -0.412 N 
ATOM     17  H6  UNL     1       8.682  25.563  27.465  1.00  0.00     0.153 HD
BRANCH  16  18
HETATM   18  C5  UNL     1       9.610  25.827  29.380  1.00  0.00     0.134 C 
HETATM   19  C6  UNL     1      10.354  27.122  29.296  1.00  0.00     0.142 C 
HETATM   20  C7  UNL     1      11.841  26.765  29.156  1.00  0.00     0.036 C 
HETATM   21  C8  UNL     1      11.886  25.364  29.696  1.00  0.00     0.036 C 
HETATM   22  C9  UNL     1      10.631  24.735  29.126  1.00  0.00     0.180 C 
BRANCH  19  23
HETATM   23  O1  UNL     1      10.012  27.936  28.245  1.00  0.00    -0.393 OA
ATOM     24  H1  UNL     1      10.566  27.867  27.476  1.00  0.00     0.210 HD
ENDBRANCH  19  23
BRANCH  22  25
HETATM   25  N7  UNL     1      10.746  24.326  27.770  1.00  0.00    -0.148 N 
HETATM   26  O2  UNL     1      10.935  23.102  27.518  1.00  0.00    -0.536 OA
HETATM   27  O3  UNL     1      10.673  25.136  26.679  1.00  0.00    -0.536 OA
ENDBRANCH  22  25
ENDBRANCH  16  18
ENDBRANCH  15  16
ENDBRANCH   1  15
TORSDOF 10
ENDMDL
MODEL 2
REMARK VINA RESULT: -7.368023849      0.858      1.026
REMARK  10 active torsions:
REMARK  status: ('A' for Active; 'I' for Inactive)
REMARK    1  A    between atoms: N1_1  and  N2_4 
REMARK    2  A    between atoms: N3_6  and  N4_8 
REMARK    3  A    between atoms: C1_10  and  N5_11 
REMARK    4  A    between atoms: N5_11  and  C2_13 
REMARK    5  A    between atoms: C2_13  and  C3_14 
REMARK    6  A    between atoms: C3_14  and  C4_15 
REMARK    7  A    between atoms: C4_15  and  N6_16 
REMARK    8  A    between atoms: N6_16  and  C5_18 
REMARK    9  A    between atoms: C6_19  and  O1_20 
REMARK   10  A    between atoms: C9_24  and  N7_25 
ROOT
HETATM    1  C3  UNL     1       6.442  25.785  28.998  1.00  0.00     0.039 C 
ENDROOT
BRANCH   1   2
HETATM    2  C2  UNL     1       5.621  24.723  29.685  1.00  0.00     0.122 C 
BRANCH   2   3
HETATM    3  N5  UNL     1       5.904  24.771  31.115  1.00  0.00    -0.385 N 
ATOM      4  H5  UNL     1       6.820  24.468  31.446  1.00  0.00     0.160 HD
BRANCH   3   5
HETATM    5  C1  UNL     1       4.953  25.225  32.057  1.00  0.00     0.194 C 
HETATM    6  N4  UNL     1       4.254  24.376  32.711  1.00  0.00    -0.281 N 
ATOM      7  H4  UNL     1       4.419  23.389  32.518  1.00  0.00     0.189 HD
BRANCH   6   8
HETATM    8  N3  UNL     1       3.297  24.685  33.653  1.00  0.00    -0.228 N 
HETATM    9  N2  UNL     1       2.881  23.875  34.521  1.00  0.00    -0.235 N 
ATOM     10  H2  UNL     1       2.169  24.178  35.186  1.00  0.00     0.209 HD
ATOM     11  H3  UNL     1       2.902  25.625  33.645  1.00  0.00     0.210 HD
BRANCH   9  12
HETATM   12  N1  UNL     1       3.376  22.569  34.594  1.00  0.00    -0.330 N 
ATOM     13  H12 UNL     1       2.782  21.849  35.004  1.00  0.00     0.178 HD
ATOM     14  H11 UNL     1       4.306  22.334  34.248  1.00  0.00     0.178 HD
ENDBRANCH   9  12
ENDBRANCH   6   8
ENDBRANCH   3   5
ENDBRANCH   2   3
ENDBRANCH   1   2
BRANCH   1  15
HETATM   15  C4  UNL     1       7.695  26.118  29.789  1.00  0.00     0.116 C 
BRANCH  15  16
HETATM   16  N6  UNL     1       8.824  25.643  29.040  1.00  0.00    -0.412 N 
ATOM     17  H6  UNL     1       8.718  25.176  28.139  1.00  0.00     0.153 HD
BRANCH  16  18
HETATM   18  C5  UNL     1      10.100  25.863  29.627  1.00  0.00     0.134 C 
HETATM   19  C6  UNL     1      10.733  27.165  29.247  1.00  0.00     0.142 C 
HETATM   20  C7  UNL     1      12.147  26.834  28.748  1.00  0.00     0.036 C 
HETATM   21  C8  UNL     1      12.399  25.488  29.365  1.00  0.00     0.036 C 
HETATM   22  C9  UNL     1      11.070  24.780  29.199  1.00  0.00     0.180 C 
BRANCH  19  23
HETATM   23  O1  UNL     1      10.090  27.872  28.264  1.00  0.00    -0.393 OA
ATOM     24  H1  UNL     1       9.158  28.004  28.395  1.00  0.00     0.210 HD
ENDBRANCH  19  23
BRANCH  22  25
HETATM   25  N7  UNL     1      10.846  24.255  27.897  1.00  0.00    -0.148 N 
HETATM   26  O2  UNL     1      10.967  23.010  27.714  1.00  0.00    -0.536 OA
HETATM   27  O3  UNL     1      10.505  24.971  26.792  1.00  0.00    -0.536 OA
ENDBRANCH  22  25
ENDBRANCH  16  18
ENDBRANCH  15  16
ENDBRANCH   1  15
TORSDOF 10
ENDMDL
MODEL 3
REMARK VINA RESULT: -7.343429433      1.732      2.229
REMARK  10 active torsions:
REMARK  status: ('A' for Active; 'I' for Inactive)
REMARK    1  A    between atoms: N1_1  and  N2_4 
REMARK    2  A    between atoms: N3_6  and  N4_8 
REMARK    3  A    between atoms: C1_10  and  N5_11 
REMARK    4  A    between atoms: N5_11  and  C2_13 
REMARK    5  A    between atoms: C2_13  and  C3_14 
REMARK    6  A    between atoms: C3_14  and  C4_15 
REMARK    7  A    between atoms: C4_15  and  N6_16 
REMARK    8  A    between atoms: N6_16  and  C5_18 
REMARK    9  A    between atoms: C6_19  and  O1_20 
REMARK   10  A    between atoms: C9_24  and  N7_25 
ROOT
HETATM    1  C3  UNL     1       7.126  25.053  30.385  1.00  0.00     0.039 C 
ENDROOT
BRANCH   1   2
HETATM    2  C2  UNL     1       6.248  25.714  31.419  1.00  0.00     0.122 C 
BRANCH   2   3
HETATM    3  N5  UNL     1       5.373  24.702  31.999  1.00  0.00    -0.385 N 
ATOM      4  H5  UNL     1       5.410  23.750  31.633  1.00  0.00     0.160 HD
BRANCH   3   5
HETATM    5  C1  UNL     1       4.475  24.995  33.051  1.00  0.00     0.194 C 
HETATM    6  N4  UNL     1       4.584  26.099  33.687  1.00  0.00    -0.281 N 
ATOM      7  H4  UNL     1       5.329  26.732  33.399  1.00  0.00     0.189 HD
BRANCH   6   8
HETATM    8  N3  UNL     1       3.777  26.505  34.728  1.00  0.00    -0.228 N 
HETATM    9  N2  UNL     1       3.112  27.573  34.725  1.00  0.00    -0.235 N 
ATOM     10  H2  UNL     1       2.538  27.805  35.535  1.00  0.00     0.209 HD
ATOM     11  H3  UNL     1       3.716  25.904  35.550  1.00  0.00     0.210 HD
BRANCH   9  12
HETATM   12  N1  UNL     1       3.145  28.447  33.634  1.00  0.00    -0.330 N 
ATOM     13  H12 UNL     1       3.684  28.175  32.812  1.00  0.00     0.178 HD
ATOM     14  H11 UNL     1       2.645  29.337  33.652  1.00  0.00     0.178 HD
ENDBRANCH   9  12
ENDBRANCH   6   8
ENDBRANCH   3   5
ENDBRANCH   2   3
ENDBRANCH   1   2
BRANCH   1  15
HETATM   15  C4  UNL     1       7.160  25.849  29.093  1.00  0.00     0.116 C 
BRANCH  15  16
HETATM   16  N6  UNL     1       8.464  25.689  28.515  1.00  0.00    -0.412 N 
ATOM     17  H6  UNL     1       8.595  25.480  27.525  1.00  0.00     0.153 HD
BRANCH  16  18
HETATM   18  C5  UNL     1       9.564  25.839  29.404  1.00  0.00     0.134 C 
HETATM   19  C6  UNL     1      10.283  27.145  29.273  1.00  0.00     0.142 C 
HETATM   20  C7  UNL     1      11.772  26.811  29.106  1.00  0.00     0.036 C 
HETATM   21  C8  UNL     1      11.855  25.423  29.675  1.00  0.00     0.036 C 
HETATM   22  C9  UNL     1      10.597  24.760  29.149  1.00  0.00     0.180 C 
BRANCH  19  23
HETATM   23  O1  UNL     1       9.902  27.929  28.214  1.00  0.00    -0.393 OA
ATOM     24  H1  UNL     1       9.678  28.828  28.427  1.00  0.00     0.210 HD
ENDBRANCH  19  23
BRANCH  22  25
HETATM   25  N7  UNL     1      10.688  24.323  27.800  1.00  0.00    -0.148 N 
HETATM   26  O2  UNL     1      10.959  23.110  27.570  1.00  0.00    -0.536 OA
HETATM   27  O3  UNL     1      10.508  25.094  26.693  1.00  0.00    -0.536 OA
ENDBRANCH  22  25
ENDBRANCH  16  18
ENDBRANCH  15  16
ENDBRANCH   1  15
TORSDOF 10
ENDMDL
MODEL 4
REMARK VINA RESULT: -7.228826284      1.114      1.476
REMARK  10 active torsions:
REMARK  status: ('A' for Active; 'I' for Inactive)
REMARK    1  A    between atoms: N1_1  and  N2_4 
REMARK    2  A    between atoms: N3_6  and  N4_8 
REMARK    3  A    between atoms: C1_10  and  N5_11 
REMARK    4  A    between atoms: N5_11  and  C2_13 
REMARK    5  A    between atoms: C2_13  and  C3_14 
REMARK    6  A    between atoms: C3_14  and  C4_15 
REMARK    7  A    between atoms: C4_15  and  N6_16 
REMARK    8  A    between atoms: N6_16  and  C5_18 
REMARK    9  A    between atoms: C6_19  and  O1_20 
REMARK   10  A    between atoms: C9_24  and  N7_25 
ROOT
HETATM    1  C3  UNL     1       7.361  25.714  30.425  1.00  0.00     0.039 C 
ENDROOT
BRANCH   1   2
HETATM    2  C2  UNL     1       6.926  24.334  30.850  1.00  0.00     0.122 C 
BRANCH   2   3
HETATM    3  N5  UNL     1       6.384  24.414  32.201  1.00  0.00    -0.385 N 
ATOM      4  H5  UNL     1       6.986  24.172  32.988  1.00  0.00     0.160 HD
BRANCH   3   5
HETATM    5  C1  UNL     1       5.053  24.818  32.457  1.00  0.00     0.194 C 
HETATM    6  N4  UNL     1       4.416  24.312  33.444  1.00  0.00    -0.281 N 
ATOM      7  H4  UNL     1       4.908  23.625  34.014  1.00  0.00     0.189 HD
BRANCH   6   8
HETATM    8  N3  UNL     1       3.121  24.617  33.800  1.00  0.00    -0.228 N 
HETATM    9  N2  UNL     1       2.797  25.636  34.463  1.00  0.00    -0.235 N 
ATOM     10  H2  UNL     1       1.816  25.794  34.689  1.00  0.00     0.209 HD
ATOM     11  H3  UNL     1       2.380  23.979  33.509  1.00  0.00     0.210 HD
BRANCH   9  12
HETATM   12  N1  UNL     1       3.757  26.557  34.896  1.00  0.00    -0.330 N 
ATOM     13  H12 UNL     1       3.784  27.473  34.450  1.00  0.00     0.178 HD
ATOM     14  H11 UNL     1       4.416  26.326  35.640  1.00  0.00     0.178 HD
ENDBRANCH   9  12
ENDBRANCH   6   8
ENDBRANCH   3   5
ENDBRANCH   2   3
ENDBRANCH   1   2
BRANCH   1  15
HETATM   15  C4  UNL     1       7.272  25.886  28.919  1.00  0.00     0.116 C 
BRANCH  15  16
HETATM   16  N6  UNL     1       8.596  25.739  28.383  1.00  0.00    -0.412 N 
ATOM     17  H6  UNL     1       8.761  25.553  27.394  1.00  0.00     0.153 HD
BRANCH  16  18
HETATM   18  C5  UNL     1       9.664  25.867  29.313  1.00  0.00     0.134 C 
HETATM   19  C6  UNL     1      10.407  27.163  29.217  1.00  0.00     0.142 C 
HETATM   20  C7  UNL     1      11.896  26.806  29.102  1.00  0.00     0.036 C 
HETATM   21  C8  UNL     1      11.936  25.414  29.666  1.00  0.00     0.036 C 
HETATM   22  C9  UNL     1      10.689  24.774  29.090  1.00  0.00     0.180 C 
BRANCH  19  23
HETATM   23  O1  UNL     1      10.078  27.958  28.148  1.00  0.00    -0.393 OA
ATOM     24  H1  UNL     1       9.786  28.836  28.364  1.00  0.00     0.210 HD
ENDBRANCH  19  23
BRANCH  22  25
HETATM   25  N7  UNL     1      10.823  24.342  27.743  1.00  0.00    -0.148 N 
HETATM   26  O2  UNL     1      10.897  23.102  27.505  1.00  0.00    -0.536 OA
HETATM   27  O3  UNL     1      10.881  25.145  26.646  1.00  0.00    -0.536 OA
ENDBRANCH  22  25
ENDBRANCH  16  18
ENDBRANCH  15  16
ENDBRANCH   1  15
TORSDOF 10
ENDMDL
MODEL 5
REMARK VINA RESULT: -7.168090183      2.099      2.836
REMARK  10 active torsions:
REMARK  status: ('A' for Active; 'I' for Inactive)
REMARK    1  A    between atoms: N1_1  and  N2_4 
REMARK    2  A    between atoms: N3_6  and  N4_8 
REMARK    3  A    between atoms: C1_10  and  N5_11 
REMARK    4  A    between atoms: N5_11  and  C2_13 
REMARK    5  A    between atoms: C2_13  and  C3_14 
REMARK    6  A    between atoms: C3_14  and  C4_15 
REMARK    7  A    between atoms: C4_15  and  N6_16 
REMARK    8  A    between atoms: N6_16  and  C5_18 
REMARK    9  A    between atoms: C6_19  and  O1_20 
REMARK   10  A    between atoms: C9_24  and  N7_25 
ROOT
HETATM    1  C3  UNL     1       8.709  26.072  29.731  1.00  0.00     0.039 C 
ENDROOT
BRANCH   1   2
HETATM    2  C2  UNL     1       7.215  25.900  29.840  1.00  0.00     0.122 C 
BRANCH   2   3
HETATM    3  N5  UNL     1       6.887  25.565  31.221  1.00  0.00    -0.385 N 
ATOM      4  H5  UNL     1       7.592  25.107  31.798  1.00  0.00     0.160 HD
BRANCH   3   5
HETATM    5  C1  UNL     1       5.623  25.855  31.787  1.00  0.00     0.194 C 
HETATM    6  N4  UNL     1       5.404  25.588  33.018  1.00  0.00    -0.281 N 
ATOM      7  H4  UNL     1       6.168  25.170  33.548  1.00  0.00     0.189 HD
BRANCH   6   8
HETATM    8  N3  UNL     1       4.223  25.820  33.688  1.00  0.00    -0.228 N 
HETATM    9  N2  UNL     1       3.398  24.918  33.988  1.00  0.00    -0.235 N 
ATOM     10  H2  UNL     1       2.544  25.168  34.485  1.00  0.00     0.209 HD
ATOM     11  H3  UNL     1       4.004  26.779  33.957  1.00  0.00     0.210 HD
BRANCH   9  12
HETATM   12  N1  UNL     1       3.630  23.580  33.653  1.00  0.00    -0.330 N 
ATOM     13  H12 UNL     1       4.310  23.375  32.921  1.00  0.00     0.178 HD
ATOM     14  H11 UNL     1       3.136  22.822  34.123  1.00  0.00     0.178 HD
ENDBRANCH   9  12
ENDBRANCH   6   8
ENDBRANCH   3   5
ENDBRANCH   2   3
ENDBRANCH   1   2
BRANCH   1  15
HETATM   15  C4  UNL     1       9.443  24.782  30.048  1.00  0.00     0.116 C 
BRANCH  15  16
HETATM   16  N6  UNL     1      10.778  24.900  29.534  1.00  0.00    -0.412 N 
ATOM     17  H6  UNL     1      11.555  24.361  29.917  1.00  0.00     0.153 HD
BRANCH  16  18
HETATM   18  C5  UNL     1      10.954  25.812  28.457  1.00  0.00     0.134 C 
HETATM   19  C6  UNL     1      10.717  25.216  27.105  1.00  0.00     0.142 C 
HETATM   20  C7  UNL     1      11.951  25.552  26.256  1.00  0.00     0.036 C 
HETATM   21  C8  UNL     1      12.532  26.728  26.986  1.00  0.00     0.036 C 
HETATM   22  C9  UNL     1      12.374  26.341  28.443  1.00  0.00     0.180 C 
BRANCH  19  23
HETATM   23  O1  UNL     1      10.541  23.855  27.079  1.00  0.00    -0.393 OA
ATOM     24  H1  UNL     1       9.985  23.526  26.381  1.00  0.00     0.210 HD
ENDBRANCH  19  23
BRANCH  22  25
HETATM   25  N7  UNL     1      13.358  25.431  28.915  1.00  0.00    -0.148 N 
HETATM   26  O2  UNL     1      13.566  25.351  30.160  1.00  0.00    -0.536 OA
HETATM   27  O3  UNL     1      14.125  24.609  28.148  1.00  0.00    -0.536 OA
ENDBRANCH  22  25
ENDBRANCH  16  18
ENDBRANCH  15  16
ENDBRANCH   1  15
TORSDOF 10
ENDMDL
