MODEL 1
REMARK VINA RESULT: -8.649783442      0.000      0.000
REMARK  12 active torsions:
REMARK  status: ('A' for Active; 'I' for Inactive)
REMARK    1  A    between atoms: C1_2  and  C2_4 
REMARK    2  A    between atoms: N2_7  and  C5_8 
REMARK    3  A    between atoms: C8_11  and  S1_12 
REMARK    4  A    between atoms: S1_12  and  N3_15 
REMARK    5  A    between atoms: N3_15  and  C9_17 
REMARK    6  A    between atoms: C10_20  and  S2_21 
REMARK    7  A    between atoms: S2_21  and  C11_22 
REMARK    8  A    between atoms: C11_22  and  C12_23 
REMARK    9  A    between atoms: N5_25  and  C14_26 
REMARK   10  A    between atoms: C14_26  and  C15_27 
REMARK       I    between atoms: C15_27  and  N6_29 
REMARK   11  A    between atoms: N6_29  and  C16_31 
REMARK   12  A    between atoms: C21_43  and  C22_44 
ROOT
HETATM    1  C9  UNL     1     -11.344 -14.320 -19.279  1.00  0.00     0.129 A 
HETATM    2  N4  UNL     1     -11.494 -15.639 -18.998  1.00  0.00    -0.322 N 
ATOM      3  H4  UNL     1     -12.119 -16.194 -19.581  1.00  0.00     0.169 HD
HETATM    4  C10 UNL     1     -10.850 -16.249 -17.974  1.00  0.00     0.146 A 
HETATM    5  N9  UNL     1     -10.037 -15.476 -17.231  1.00  0.00    -0.346 N 
ATOM      6  H9  UNL     1      -9.542 -15.916 -16.455  1.00  0.00     0.167 HD
HETATM    7  C20 UNL     1      -9.836 -14.175 -17.439  1.00  0.00     0.106 A 
HETATM    8  C21 UNL     1     -10.510 -13.560 -18.502  1.00  0.00     0.034 A 
ENDROOT
BRANCH   1   9
HETATM    9  N3  UNL     1     -11.957 -13.760 -20.262  1.00  0.00    -0.265 N 
ATOM     10  H3  UNL     1     -12.279 -12.799 -20.142  1.00  0.00     0.180 HD
BRANCH   9  11
HETATM   11  S1  UNL     1     -12.265 -14.532 -21.760  1.00  0.00     0.264 S 
HETATM   12  O2  UNL     1     -13.235 -15.684 -21.596  1.00  0.00    -0.200 OA
HETATM   13  O3  UNL     1     -10.976 -15.135 -22.243  1.00  0.00    -0.200 OA
BRANCH  11  14
HETATM   14  C8  UNL     1     -12.823 -13.435 -22.989  1.00  0.00     0.080 A 
HETATM   15  C7  UNL     1     -13.624 -13.843 -24.036  1.00  0.00     0.027 A 
HETATM   16  C6  UNL     1     -14.052 -12.942 -25.000  1.00  0.00     0.033 A 
HETATM   17  C5  UNL     1     -13.678 -11.621 -24.923  1.00  0.00     0.056 A 
HETATM   18  C29 UNL     1     -12.878 -11.240 -23.868  1.00  0.00     0.033 A 
HETATM   19  C28 UNL     1     -12.434 -12.110 -22.891  1.00  0.00     0.027 A 
BRANCH  17  20
HETATM   20  N2  UNL     1     -14.127 -10.703 -25.925  1.00  0.00    -0.267 N 
HETATM   21  C4  UNL     1     -13.399  -9.874 -26.692  1.00  0.00     0.119 A 
HETATM   22  C3  UNL     1     -14.224  -9.157 -27.533  1.00  0.00     0.055 A 
HETATM   23  C2  UNL     1     -15.501  -9.589 -27.243  1.00  0.00     0.115 A 
HETATM   24  N10 UNL     1     -15.390 -10.507 -26.282  1.00  0.00    -0.289 N 
ATOM     25  H10 UNL     1     -16.182 -11.001 -25.871  1.00  0.00     0.188 HD
BRANCH  23  26
HETATM   26  C1  UNL     1     -16.698  -9.087 -27.908  1.00  0.00     0.282 C 
HETATM   27  N1  UNL     1     -17.041  -7.707 -27.869  1.00  0.00    -0.056 NA
HETATM   28  O1  UNL     1     -17.469  -9.843 -28.538  1.00  0.00    -0.269 OA
ENDBRANCH  23  26
ENDBRANCH  17  20
ENDBRANCH  11  14
ENDBRANCH   9  11
ENDBRANCH   1   9
BRANCH   8  29
HETATM   29  C22 UNL     1     -10.350 -12.148 -18.778  1.00  0.00    -0.021 A 
HETATM   30  C23 UNL     1      -9.157 -11.533 -18.507  1.00  0.00     0.012 A 
HETATM   31  C24 UNL     1      -8.956 -10.182 -18.742  1.00  0.00     0.001 A 
HETATM   32  C25 UNL     1     -10.003  -9.463 -19.264  1.00  0.00     0.000 A 
HETATM   33  C26 UNL     1     -11.226 -10.051 -19.552  1.00  0.00     0.001 A 
HETATM   34  C27 UNL     1     -11.375 -11.405 -19.298  1.00  0.00     0.012 A 
ENDBRANCH   8  29
BRANCH   4  35
HETATM   35  S2  UNL     1     -11.092 -18.001 -17.648  1.00  0.00    -0.088 SA
BRANCH  35  36
HETATM   36  C11 UNL     1     -12.774 -18.324 -17.095  1.00  0.00     0.142 C 
BRANCH  36  37
HETATM   37  C12 UNL     1     -13.748 -17.999 -18.161  1.00  0.00     0.054 A 
HETATM   38  C13 UNL     1     -14.942 -17.333 -18.020  1.00  0.00     0.139 A 
HETATM   39  N5  UNL     1     -15.509 -17.253 -19.232  1.00  0.00    -0.278 N 
HETATM   40  N7  UNL     1     -14.703 -17.849 -20.119  1.00  0.00    -0.240 N 
HETATM   41  N8  UNL     1     -13.653 -18.295 -19.484  1.00  0.00    -0.288 N 
ATOM     42  H7  UNL     1     -14.880 -17.940 -21.119  1.00  0.00     0.208 HD
ATOM     43  H8  UNL     1     -12.875 -18.792 -19.917  1.00  0.00     0.188 HD
BRANCH  39  44
HETATM   44  C14 UNL     1     -16.779 -16.632 -19.541  1.00  0.00     0.252 C 
BRANCH  44  45
HETATM   45  C15 UNL     1     -16.645 -15.133 -19.642  1.00  0.00     0.243 C 
HETATM   46  O4  UNL     1     -17.312 -14.423 -18.834  1.00  0.00    -0.271 OA
HETATM   47  N6  UNL     1     -15.794 -14.563 -20.618  1.00  0.00    -0.306 N 
ATOM     48  H6  UNL     1     -15.288 -15.198 -21.236  1.00  0.00     0.171 HD
BRANCH  47  49
HETATM   49  C16 UNL     1     -15.597 -13.164 -20.798  1.00  0.00     0.149 A 
HETATM   50  C17 UNL     1     -16.100 -12.316 -21.748  1.00  0.00     0.058 A 
HETATM   51  C18 UNL     1     -15.609 -11.039 -21.493  1.00  0.00     0.029 A 
HETATM   52  C19 UNL     1     -14.827 -11.186 -20.388  1.00  0.00     0.144 A 
HETATM   53  O5  UNL     1     -14.833 -12.424 -20.001  1.00  0.00    -0.306 OA
ENDBRANCH  47  49
ENDBRANCH  44  45
ENDBRANCH  39  44
ENDBRANCH  36  37
ENDBRANCH  35  36
ENDBRANCH   4  35
TORSDOF 12
ENDMDL
MODEL 2
REMARK VINA RESULT: -8.520949852      2.931      4.830
REMARK  12 active torsions:
REMARK  status: ('A' for Active; 'I' for Inactive)
REMARK    1  A    between atoms: C1_2  and  C2_4 
REMARK    2  A    between atoms: N2_7  and  C5_8 
REMARK    3  A    between atoms: C8_11  and  S1_12 
REMARK    4  A    between atoms: S1_12  and  N3_15 
REMARK    5  A    between atoms: N3_15  and  C9_17 
REMARK    6  A    between atoms: C10_20  and  S2_21 
REMARK    7  A    between atoms: S2_21  and  C11_22 
REMARK    8  A    between atoms: C11_22  and  C12_23 
REMARK    9  A    between atoms: N5_25  and  C14_26 
REMARK   10  A    between atoms: C14_26  and  C15_27 
REMARK       I    between atoms: C15_27  and  N6_29 
REMARK   11  A    between atoms: N6_29  and  C16_31 
REMARK   12  A    between atoms: C21_43  and  C22_44 
ROOT
HETATM    1  C9  UNL     1     -13.330 -13.145 -19.188  1.00  0.00     0.129 A 
HETATM    2  N4  UNL     1     -14.418 -13.917 -18.946  1.00  0.00    -0.322 N 
ATOM      3  H4  UNL     1     -14.401 -14.891 -19.245  1.00  0.00     0.169 HD
HETATM    4  C10 UNL     1     -15.527 -13.448 -18.324  1.00  0.00     0.146 A 
HETATM    5  N9  UNL     1     -15.504 -12.157 -17.950  1.00  0.00    -0.346 N 
ATOM      6  H9  UNL     1     -16.329 -11.783 -17.479  1.00  0.00     0.167 HD
HETATM    7  C20 UNL     1     -14.476 -11.331 -18.150  1.00  0.00     0.106 A 
HETATM    8  C21 UNL     1     -13.338 -11.832 -18.795  1.00  0.00     0.034 A 
ENDROOT
BRANCH   1   9
HETATM    9  N3  UNL     1     -12.281 -13.610 -19.771  1.00  0.00    -0.265 N 
ATOM     10  H3  UNL     1     -11.387 -13.534 -19.285  1.00  0.00     0.180 HD
BRANCH   9  11
HETATM   11  S1  UNL     1     -12.297 -14.351 -21.316  1.00  0.00     0.264 S 
HETATM   12  O2  UNL     1     -13.136 -15.613 -21.311  1.00  0.00    -0.200 OA
HETATM   13  O3  UNL     1     -10.894 -14.781 -21.638  1.00  0.00    -0.200 OA
BRANCH  11  14
HETATM   14  C8  UNL     1     -12.820 -13.276 -22.581  1.00  0.00     0.080 A 
HETATM   15  C7  UNL     1     -12.493 -11.935 -22.593  1.00  0.00     0.027 A 
HETATM   16  C6  UNL     1     -12.926 -11.106 -23.617  1.00  0.00     0.033 A 
HETATM   17  C5  UNL     1     -13.692 -11.614 -24.639  1.00  0.00     0.056 A 
HETATM   18  C29 UNL     1     -14.004 -12.956 -24.602  1.00  0.00     0.033 A 
HETATM   19  C28 UNL     1     -13.590 -13.811 -23.599  1.00  0.00     0.027 A 
BRANCH  17  20
HETATM   20  N2  UNL     1     -14.132 -10.745 -25.689  1.00  0.00    -0.267 N 
HETATM   21  C4  UNL     1     -13.393  -9.981 -26.511  1.00  0.00     0.119 A 
HETATM   22  C3  UNL     1     -14.212  -9.295 -27.384  1.00  0.00     0.055 A 
HETATM   23  C2  UNL     1     -15.495  -9.678 -27.054  1.00  0.00     0.115 A 
HETATM   24  N10 UNL     1     -15.394 -10.541 -26.043  1.00  0.00    -0.289 N 
ATOM     25  H10 UNL     1     -16.192 -10.990 -25.594  1.00  0.00     0.188 HD
BRANCH  23  26
HETATM   26  C1  UNL     1     -16.688  -9.187 -27.735  1.00  0.00     0.282 C 
HETATM   27  N1  UNL     1     -17.009  -7.801 -27.756  1.00  0.00    -0.056 NA
HETATM   28  O1  UNL     1     -17.475  -9.957 -28.326  1.00  0.00    -0.269 OA
ENDBRANCH  23  26
ENDBRANCH  17  20
ENDBRANCH  11  14
ENDBRANCH   9  11
ENDBRANCH   1   9
BRANCH   8  29
HETATM   29  C22 UNL     1     -12.191 -10.990 -19.059  1.00  0.00    -0.021 A 
HETATM   30  C23 UNL     1     -12.369  -9.756 -19.625  1.00  0.00     0.012 A 
HETATM   31  C24 UNL     1     -11.304  -8.916 -19.909  1.00  0.00     0.001 A 
HETATM   32  C25 UNL     1     -10.041  -9.362 -19.603  1.00  0.00     0.000 A 
HETATM   33  C26 UNL     1      -9.821 -10.605 -19.029  1.00  0.00     0.001 A 
HETATM   34  C27 UNL     1     -10.920 -11.407 -18.766  1.00  0.00     0.012 A 
ENDBRANCH   8  29
BRANCH   4  35
HETATM   35  S2  UNL     1     -16.942 -14.520 -18.034  1.00  0.00    -0.088 SA
BRANCH  35  36
HETATM   36  C11 UNL     1     -16.873 -15.243 -16.387  1.00  0.00     0.142 C 
BRANCH  36  37
HETATM   37  C12 UNL     1     -16.060 -14.401 -15.479  1.00  0.00     0.054 A 
HETATM   38  C13 UNL     1     -14.814 -14.688 -14.975  1.00  0.00     0.139 A 
HETATM   39  N5  UNL     1     -14.445 -13.660 -14.198  1.00  0.00    -0.278 N 
HETATM   40  N7  UNL     1     -15.423 -12.746 -14.206  1.00  0.00    -0.240 N 
HETATM   41  N8  UNL     1     -16.388 -13.185 -14.969  1.00  0.00    -0.288 N 
ATOM     42  H7  UNL     1     -15.416 -11.860 -13.701  1.00  0.00     0.208 HD
ATOM     43  H8  UNL     1     -17.259 -12.689 -15.154  1.00  0.00     0.188 HD
BRANCH  39  44
HETATM   44  C14 UNL     1     -13.200 -13.548 -13.467  1.00  0.00     0.252 C 
BRANCH  44  45
HETATM   45  C15 UNL     1     -12.033 -13.347 -14.400  1.00  0.00     0.243 C 
HETATM   46  O4  UNL     1     -12.259 -12.810 -15.524  1.00  0.00    -0.271 OA
HETATM   47  N6  UNL     1     -10.736 -13.756 -14.009  1.00  0.00    -0.306 N 
ATOM     48  H6  UNL     1     -10.629 -14.182 -13.088  1.00  0.00     0.171 HD
BRANCH  47  49
HETATM   49  C16 UNL     1      -9.569 -13.613 -14.813  1.00  0.00     0.149 A 
HETATM   50  C17 UNL     1      -8.361 -14.254 -14.739  1.00  0.00     0.058 A 
HETATM   51  C18 UNL     1      -7.546 -13.760 -15.752  1.00  0.00     0.029 A 
HETATM   52  C19 UNL     1      -8.313 -12.836 -16.393  1.00  0.00     0.144 A 
HETATM   53  O5  UNL     1      -9.482 -12.766 -15.834  1.00  0.00    -0.306 OA
ENDBRANCH  47  49
ENDBRANCH  44  45
ENDBRANCH  39  44
ENDBRANCH  36  37
ENDBRANCH  35  36
ENDBRANCH   4  35
TORSDOF 12
ENDMDL
MODEL 3
REMARK VINA RESULT: -8.440853183      1.847      2.164
REMARK  12 active torsions:
REMARK  status: ('A' for Active; 'I' for Inactive)
REMARK    1  A    between atoms: C1_2  and  C2_4 
REMARK    2  A    between atoms: N2_7  and  C5_8 
REMARK    3  A    between atoms: C8_11  and  S1_12 
REMARK    4  A    between atoms: S1_12  and  N3_15 
REMARK    5  A    between atoms: N3_15  and  C9_17 
REMARK    6  A    between atoms: C10_20  and  S2_21 
REMARK    7  A    between atoms: S2_21  and  C11_22 
REMARK    8  A    between atoms: C11_22  and  C12_23 
REMARK    9  A    between atoms: N5_25  and  C14_26 
REMARK   10  A    between atoms: C14_26  and  C15_27 
REMARK       I    between atoms: C15_27  and  N6_29 
REMARK   11  A    between atoms: N6_29  and  C16_31 
REMARK   12  A    between atoms: C21_43  and  C22_44 
ROOT
HETATM    1  C9  UNL     1     -11.126 -14.196 -19.524  1.00  0.00     0.129 A 
HETATM    2  N4  UNL     1     -11.278 -15.507 -19.209  1.00  0.00    -0.322 N 
ATOM      3  H4  UNL     1     -11.624 -16.144 -19.926  1.00  0.00     0.169 HD
HETATM    4  C10 UNL     1     -10.990 -16.005 -17.983  1.00  0.00     0.146 A 
HETATM    5  N9  UNL     1     -10.538 -15.128 -17.069  1.00  0.00    -0.346 N 
ATOM      6  H9  UNL     1     -10.314 -15.483 -16.139  1.00  0.00     0.167 HD
HETATM    7  C20 UNL     1     -10.361 -13.827 -17.297  1.00  0.00     0.106 A 
HETATM    8  C21 UNL     1     -10.664 -13.327 -18.570  1.00  0.00     0.034 A 
ENDROOT
BRANCH   1   9
HETATM    9  N3  UNL     1     -11.395 -13.742 -20.697  1.00  0.00    -0.265 N 
ATOM     10  H3  UNL     1     -10.770 -13.042 -21.096  1.00  0.00     0.180 HD
BRANCH   9  11
HETATM   11  S1  UNL     1     -12.743 -14.245 -21.629  1.00  0.00     0.264 S 
HETATM   12  O2  UNL     1     -13.949 -14.512 -20.751  1.00  0.00    -0.200 OA
HETATM   13  O3  UNL     1     -12.395 -15.556 -22.275  1.00  0.00    -0.200 OA
BRANCH  11  14
HETATM   14  C8  UNL     1     -13.148 -13.126 -22.898  1.00  0.00     0.080 A 
HETATM   15  C7  UNL     1     -12.908 -11.770 -22.793  1.00  0.00     0.027 A 
HETATM   16  C6  UNL     1     -13.244 -10.906 -23.825  1.00  0.00     0.033 A 
HETATM   17  C5  UNL     1     -13.825 -11.393 -24.972  1.00  0.00     0.056 A 
HETATM   18  C29 UNL     1     -14.053 -12.749 -25.050  1.00  0.00     0.033 A 
HETATM   19  C28 UNL     1     -13.732 -13.640 -24.044  1.00  0.00     0.027 A 
BRANCH  17  20
HETATM   20  N2  UNL     1     -14.165 -10.488 -26.027  1.00  0.00    -0.267 N 
HETATM   21  C4  UNL     1     -13.347  -9.771 -26.816  1.00  0.00     0.119 A 
HETATM   22  C3  UNL     1     -14.085  -9.023 -27.710  1.00  0.00     0.055 A 
HETATM   23  C2  UNL     1     -15.403  -9.318 -27.428  1.00  0.00     0.115 A 
HETATM   24  N10 UNL     1     -15.397 -10.193 -26.422  1.00  0.00    -0.289 N 
ATOM     25  H10 UNL     1     -16.240 -10.588 -26.006  1.00  0.00     0.188 HD
BRANCH  23  26
HETATM   26  C1  UNL     1     -16.533  -8.739 -28.145  1.00  0.00     0.282 C 
HETATM   27  N1  UNL     1     -17.173  -9.438 -29.205  1.00  0.00    -0.056 NA
HETATM   28  O1  UNL     1     -16.986  -7.609 -27.860  1.00  0.00    -0.269 OA
ENDBRANCH  23  26
ENDBRANCH  17  20
ENDBRANCH  11  14
ENDBRANCH   9  11
ENDBRANCH   1   9
BRANCH   8  29
HETATM   29  C22 UNL     1     -10.510 -11.923 -18.885  1.00  0.00    -0.021 A 
HETATM   30  C23 UNL     1      -9.305 -11.306 -18.673  1.00  0.00     0.012 A 
HETATM   31  C24 UNL     1      -9.109  -9.962 -18.946  1.00  0.00     0.001 A 
HETATM   32  C25 UNL     1     -10.173  -9.250 -19.443  1.00  0.00     0.000 A 
HETATM   33  C26 UNL     1     -11.408  -9.839 -19.671  1.00  0.00     0.001 A 
HETATM   34  C27 UNL     1     -11.552 -11.187 -19.381  1.00  0.00     0.012 A 
ENDBRANCH   8  29
BRANCH   4  35
HETATM   35  S2  UNL     1     -11.216 -17.753 -17.624  1.00  0.00    -0.088 SA
BRANCH  35  36
HETATM   36  C11 UNL     1     -12.188 -18.552 -18.911  1.00  0.00     0.142 C 
BRANCH  36  37
HETATM   37  C12 UNL     1     -13.507 -17.894 -19.056  1.00  0.00     0.054 A 
HETATM   38  C13 UNL     1     -14.413 -17.622 -18.059  1.00  0.00     0.139 A 
HETATM   39  N5  UNL     1     -15.470 -17.022 -18.625  1.00  0.00    -0.278 N 
HETATM   40  N7  UNL     1     -15.246 -16.914 -19.940  1.00  0.00    -0.240 N 
HETATM   41  N8  UNL     1     -14.076 -17.433 -20.201  1.00  0.00    -0.288 N 
ATOM     42  H7  UNL     1     -15.880 -16.498 -20.622  1.00  0.00     0.208 HD
ATOM     43  H8  UNL     1     -13.653 -17.485 -21.126  1.00  0.00     0.188 HD
BRANCH  39  44
HETATM   44  C14 UNL     1     -16.660 -16.565 -17.938  1.00  0.00     0.252 C 
BRANCH  44  45
HETATM   45  C15 UNL     1     -16.600 -15.082 -17.667  1.00  0.00     0.243 C 
HETATM   46  O4  UNL     1     -16.793 -14.294 -18.639  1.00  0.00    -0.271 OA
HETATM   47  N6  UNL     1     -16.335 -14.613 -16.359  1.00  0.00    -0.306 N 
ATOM     48  H6  UNL     1     -16.189 -15.307 -15.625  1.00  0.00     0.171 HD
BRANCH  47  49
HETATM   49  C16 UNL     1     -16.257 -13.238 -15.996  1.00  0.00     0.149 A 
HETATM   50  C17 UNL     1     -17.247 -12.358 -15.650  1.00  0.00     0.058 A 
HETATM   51  C18 UNL     1     -16.658 -11.126 -15.383  1.00  0.00     0.029 A 
HETATM   52  C19 UNL     1     -15.328 -11.329 -15.584  1.00  0.00     0.144 A 
HETATM   53  O5  UNL     1     -15.115 -12.559 -15.939  1.00  0.00    -0.306 OA
ENDBRANCH  47  49
ENDBRANCH  44  45
ENDBRANCH  39  44
ENDBRANCH  36  37
ENDBRANCH  35  36
ENDBRANCH   4  35
TORSDOF 12
ENDMDL
MODEL 4
REMARK VINA RESULT: -8.438981739      2.056      4.219
REMARK  12 active torsions:
REMARK  status: ('A' for Active; 'I' for Inactive)
REMARK    1  A    between atoms: C1_2  and  C2_4 
REMARK    2  A    between atoms: N2_7  and  C5_8 
REMARK    3  A    between atoms: C8_11  and  S1_12 
REMARK    4  A    between atoms: S1_12  and  N3_15 
REMARK    5  A    between atoms: N3_15  and  C9_17 
REMARK    6  A    between atoms: C10_20  and  S2_21 
REMARK    7  A    between atoms: S2_21  and  C11_22 
REMARK    8  A    between atoms: C11_22  and  C12_23 
REMARK    9  A    between atoms: N5_25  and  C14_26 
REMARK   10  A    between atoms: C14_26  and  C15_27 
REMARK       I    between atoms: C15_27  and  N6_29 
REMARK   11  A    between atoms: N6_29  and  C16_31 
REMARK   12  A    between atoms: C21_43  and  C22_44 
ROOT
HETATM    1  C9  UNL     1     -13.193 -13.105 -19.454  1.00  0.00     0.129 A 
HETATM    2  N4  UNL     1     -14.183 -14.009 -19.246  1.00  0.00    -0.322 N 
ATOM      3  H4  UNL     1     -14.069 -14.951 -19.618  1.00  0.00     0.169 HD
HETATM    4  C10 UNL     1     -15.316 -13.712 -18.566  1.00  0.00     0.146 A 
HETATM    5  N9  UNL     1     -15.423 -12.457 -18.096  1.00  0.00    -0.346 N 
ATOM      6  H9  UNL     1     -16.269 -12.213 -17.580  1.00  0.00     0.167 HD
HETATM    7  C20 UNL     1     -14.499 -11.510 -18.257  1.00  0.00     0.106 A 
HETATM    8  C21 UNL     1     -13.333 -11.833 -18.963  1.00  0.00     0.034 A 
ENDROOT
BRANCH   1   9
HETATM    9  N3  UNL     1     -12.119 -13.407 -20.094  1.00  0.00    -0.265 N 
ATOM     10  H3  UNL     1     -11.223 -13.174 -19.666  1.00  0.00     0.180 HD
BRANCH   9  11
HETATM   11  S1  UNL     1     -12.104 -14.178 -21.625  1.00  0.00     0.264 S 
HETATM   12  O2  UNL     1     -12.641 -15.592 -21.533  1.00  0.00    -0.200 OA
HETATM   13  O3  UNL     1     -10.673 -14.300 -22.067  1.00  0.00    -0.200 OA
BRANCH  11  14
HETATM   14  C8  UNL     1     -12.956 -13.280 -22.848  1.00  0.00     0.080 A 
HETATM   15  C7  UNL     1     -13.656 -13.897 -23.864  1.00  0.00     0.027 A 
HETATM   16  C6  UNL     1     -14.325 -13.150 -24.823  1.00  0.00     0.033 A 
HETATM   17  C5  UNL     1     -14.296 -11.777 -24.773  1.00  0.00     0.056 A 
HETATM   18  C29 UNL     1     -13.588 -11.187 -23.747  1.00  0.00     0.033 A 
HETATM   19  C28 UNL     1     -12.912 -11.898 -22.775  1.00  0.00     0.027 A 
BRANCH  17  20
HETATM   20  N2  UNL     1     -14.990 -11.020 -25.770  1.00  0.00    -0.267 N 
HETATM   21  C4  UNL     1     -15.118  -9.686 -25.875  1.00  0.00     0.119 A 
HETATM   22  C3  UNL     1     -15.869  -9.368 -26.987  1.00  0.00     0.055 A 
HETATM   23  C2  UNL     1     -16.198 -10.578 -27.561  1.00  0.00     0.115 A 
HETATM   24  N10 UNL     1     -15.652 -11.528 -26.802  1.00  0.00    -0.289 N 
ATOM     25  H10 UNL     1     -15.734 -12.527 -26.991  1.00  0.00     0.188 HD
BRANCH  23  26
HETATM   26  C1  UNL     1     -16.996 -10.709 -28.775  1.00  0.00     0.282 C 
HETATM   27  N1  UNL     1     -17.064 -11.939 -29.486  1.00  0.00    -0.056 NA
HETATM   28  O1  UNL     1     -17.652  -9.751 -29.239  1.00  0.00    -0.269 OA
ENDBRANCH  23  26
ENDBRANCH  17  20
ENDBRANCH  11  14
ENDBRANCH   9  11
ENDBRANCH   1   9
BRANCH   8  29
HETATM   29  C22 UNL     1     -12.293 -10.852 -19.189  1.00  0.00    -0.021 A 
HETATM   30  C23 UNL     1     -12.617  -9.624 -19.704  1.00  0.00     0.012 A 
HETATM   31  C24 UNL     1     -11.659  -8.654 -19.951  1.00  0.00     0.001 A 
HETATM   32  C25 UNL     1     -10.352  -8.960 -19.660  1.00  0.00     0.000 A 
HETATM   33  C26 UNL     1      -9.985 -10.192 -19.137  1.00  0.00     0.001 A 
HETATM   34  C27 UNL     1     -10.982 -11.127 -18.910  1.00  0.00     0.012 A 
ENDBRANCH   8  29
BRANCH   4  35
HETATM   35  S2  UNL     1     -16.596 -14.953 -18.326  1.00  0.00    -0.088 SA
BRANCH  35  36
HETATM   36  C11 UNL     1     -15.960 -16.360 -17.400  1.00  0.00     0.142 C 
BRANCH  36  37
HETATM   37  C12 UNL     1     -14.623 -16.755 -17.898  1.00  0.00     0.054 A 
HETATM   38  C13 UNL     1     -13.444 -16.767 -17.192  1.00  0.00     0.139 A 
HETATM   39  N5  UNL     1     -12.479 -17.190 -18.021  1.00  0.00    -0.278 N 
HETATM   40  N7  UNL     1     -13.024 -17.439 -19.218  1.00  0.00    -0.240 N 
HETATM   41  N8  UNL     1     -14.303 -17.181 -19.148  1.00  0.00    -0.288 N 
ATOM     42  H7  UNL     1     -12.526 -17.773 -20.043  1.00  0.00     0.208 HD
ATOM     43  H8  UNL     1     -14.963 -17.283 -19.918  1.00  0.00     0.188 HD
BRANCH  39  44
HETATM   44  C14 UNL     1     -11.080 -17.351 -17.689  1.00  0.00     0.252 C 
BRANCH  44  45
HETATM   45  C15 UNL     1     -10.360 -16.026 -17.694  1.00  0.00     0.243 C 
HETATM   46  O4  UNL     1     -10.357 -15.357 -18.769  1.00  0.00    -0.271 OA
HETATM   47  N6  UNL     1      -9.715 -15.567 -16.521  1.00  0.00    -0.306 N 
ATOM     48  H6  UNL     1      -9.759 -16.159 -15.691  1.00  0.00     0.171 HD
BRANCH  47  49
HETATM   49  C16 UNL     1      -9.009 -14.334 -16.419  1.00  0.00     0.149 A 
HETATM   50  C17 UNL     1      -9.465 -13.045 -16.502  1.00  0.00     0.058 A 
HETATM   51  C18 UNL     1      -8.380 -12.191 -16.338  1.00  0.00     0.029 A 
HETATM   52  C19 UNL     1      -7.313 -13.017 -16.161  1.00  0.00     0.144 A 
HETATM   53  O5  UNL     1      -7.698 -14.255 -16.212  1.00  0.00    -0.306 OA
ENDBRANCH  47  49
ENDBRANCH  44  45
ENDBRANCH  39  44
ENDBRANCH  36  37
ENDBRANCH  35  36
ENDBRANCH   4  35
TORSDOF 12
ENDMDL
MODEL 5
REMARK VINA RESULT: -8.435477164      2.679      5.340
REMARK  12 active torsions:
REMARK  status: ('A' for Active; 'I' for Inactive)
REMARK    1  A    between atoms: C1_2  and  C2_4 
REMARK    2  A    between atoms: N2_7  and  C5_8 
REMARK    3  A    between atoms: C8_11  and  S1_12 
REMARK    4  A    between atoms: S1_12  and  N3_15 
REMARK    5  A    between atoms: N3_15  and  C9_17 
REMARK    6  A    between atoms: C10_20  and  S2_21 
REMARK    7  A    between atoms: S2_21  and  C11_22 
REMARK    8  A    between atoms: C11_22  and  C12_23 
REMARK    9  A    between atoms: N5_25  and  C14_26 
REMARK   10  A    between atoms: C14_26  and  C15_27 
REMARK       I    between atoms: C15_27  and  N6_29 
REMARK   11  A    between atoms: N6_29  and  C16_31 
REMARK   12  A    between atoms: C21_43  and  C22_44 
ROOT
HETATM    1  C9  UNL     1     -12.783 -13.071 -19.905  1.00  0.00     0.129 A 
HETATM    2  N4  UNL     1     -11.586 -12.460 -19.720  1.00  0.00    -0.322 N 
ATOM      3  H4  UNL     1     -10.735 -12.976 -19.943  1.00  0.00     0.169 HD
HETATM    4  C10 UNL     1     -11.473 -11.194 -19.253  1.00  0.00     0.146 A 
HETATM    5  N9  UNL     1     -12.621 -10.553 -18.971  1.00  0.00    -0.346 N 
ATOM      6  H9  UNL     1     -12.559  -9.598 -18.618  1.00  0.00     0.167 HD
HETATM    7  C20 UNL     1     -13.836 -11.082 -19.123  1.00  0.00     0.106 A 
HETATM    8  C21 UNL     1     -13.935 -12.392 -19.607  1.00  0.00     0.034 A 
ENDROOT
BRANCH   1   9
HETATM    9  N3  UNL     1     -12.871 -14.272 -20.359  1.00  0.00    -0.265 N 
ATOM     10  H3  UNL     1     -13.190 -15.004 -19.724  1.00  0.00     0.180 HD
BRANCH   9  11
HETATM   11  S1  UNL     1     -12.485 -14.714 -21.970  1.00  0.00     0.264 S 
HETATM   12  O2  UNL     1     -13.070 -16.067 -22.323  1.00  0.00    -0.200 OA
HETATM   13  O3  UNL     1     -10.993 -14.864 -22.063  1.00  0.00    -0.200 OA
BRANCH  11  14
HETATM   14  C8  UNL     1     -12.966 -13.517 -23.138  1.00  0.00     0.080 A 
HETATM   15  C7  UNL     1     -12.660 -12.179 -22.994  1.00  0.00     0.027 A 
HETATM   16  C6  UNL     1     -13.059 -11.251 -23.944  1.00  0.00     0.033 A 
HETATM   17  C5  UNL     1     -13.770 -11.657 -25.049  1.00  0.00     0.056 A 
HETATM   18  C29 UNL     1     -14.062 -12.998 -25.167  1.00  0.00     0.033 A 
HETATM   19  C28 UNL     1     -13.681 -13.950 -24.242  1.00  0.00     0.027 A 
BRANCH  17  20
HETATM   20  N2  UNL     1     -14.175 -10.687 -26.021  1.00  0.00    -0.267 N 
HETATM   21  C4  UNL     1     -13.409  -9.861 -26.753  1.00  0.00     0.119 A 
HETATM   22  C3  UNL     1     -14.199  -9.084 -27.574  1.00  0.00     0.055 A 
HETATM   23  C2  UNL     1     -15.494  -9.476 -27.307  1.00  0.00     0.115 A 
HETATM   24  N10 UNL     1     -15.427 -10.430 -26.379  1.00  0.00    -0.289 N 
ATOM     25  H10 UNL     1     -16.241 -10.907 -25.991  1.00  0.00     0.188 HD
BRANCH  23  26
HETATM   26  C1  UNL     1     -16.665  -8.904 -27.963  1.00  0.00     0.282 C 
HETATM   27  N1  UNL     1     -17.372  -9.619 -28.968  1.00  0.00    -0.056 NA
HETATM   28  O1  UNL     1     -17.095  -7.767 -27.671  1.00  0.00    -0.269 OA
ENDBRANCH  23  26
ENDBRANCH  17  20
ENDBRANCH  11  14
ENDBRANCH   9  11
ENDBRANCH   1   9
BRANCH   8  29
HETATM   29  C22 UNL     1     -15.220 -13.035 -19.784  1.00  0.00    -0.021 A 
HETATM   30  C23 UNL     1     -15.804 -13.688 -18.731  1.00  0.00     0.012 A 
HETATM   31  C24 UNL     1     -17.026 -14.329 -18.850  1.00  0.00     0.001 A 
HETATM   32  C25 UNL     1     -17.649 -14.292 -20.073  1.00  0.00     0.000 A 
HETATM   33  C26 UNL     1     -17.090 -13.641 -21.162  1.00  0.00     0.001 A 
HETATM   34  C27 UNL     1     -15.865 -13.016 -20.991  1.00  0.00     0.012 A 
ENDBRANCH   8  29
BRANCH   4  35
HETATM   35  S2  UNL     1      -9.857 -10.438 -19.025  1.00  0.00    -0.088 SA
BRANCH  35  36
HETATM   36  C11 UNL     1      -8.622 -11.677 -18.602  1.00  0.00     0.142 C 
BRANCH  36  37
HETATM   37  C12 UNL     1      -8.859 -12.209 -17.240  1.00  0.00     0.054 A 
HETATM   38  C13 UNL     1      -9.850 -13.076 -16.848  1.00  0.00     0.139 A 
HETATM   39  N5  UNL     1      -9.701 -13.296 -15.535  1.00  0.00    -0.278 N 
HETATM   40  N7  UNL     1      -8.648 -12.592 -15.101  1.00  0.00    -0.240 N 
HETATM   41  N8  UNL     1      -8.144 -11.943 -16.115  1.00  0.00    -0.288 N 
ATOM     42  H7  UNL     1      -8.300 -12.567 -14.143  1.00  0.00     0.208 HD
ATOM     43  H8  UNL     1      -7.333 -11.326 -16.070  1.00  0.00     0.188 HD
BRANCH  39  44
HETATM   44  C14 UNL     1     -10.534 -14.148 -14.712  1.00  0.00     0.252 C 
BRANCH  44  45
HETATM   45  C15 UNL     1     -11.887 -13.526 -14.474  1.00  0.00     0.243 C 
HETATM   46  O4  UNL     1     -12.166 -13.149 -13.298  1.00  0.00    -0.271 OA
HETATM   47  N6  UNL     1     -12.798 -13.379 -15.547  1.00  0.00    -0.306 N 
ATOM     48  H6  UNL     1     -12.504 -13.706 -16.468  1.00  0.00     0.171 HD
BRANCH  47  49
HETATM   49  C16 UNL     1     -14.096 -12.807 -15.429  1.00  0.00     0.149 A 
HETATM   50  C17 UNL     1     -15.290 -13.386 -15.089  1.00  0.00     0.058 A 
HETATM   51  C18 UNL     1     -16.272 -12.402 -15.116  1.00  0.00     0.029 A 
HETATM   52  C19 UNL     1     -15.613 -11.266 -15.475  1.00  0.00     0.144 A 
HETATM   53  O5  UNL     1     -14.353 -11.522 -15.652  1.00  0.00    -0.306 OA
ENDBRANCH  47  49
ENDBRANCH  44  45
ENDBRANCH  39  44
ENDBRANCH  36  37
ENDBRANCH  35  36
ENDBRANCH   4  35
TORSDOF 12
ENDMDL
