MODEL 1
REMARK VINA RESULT: -8.568573114      0.000      0.000
REMARK  5 active torsions:
REMARK  status: ('A' for Active; 'I' for Inactive)
REMARK    1  A    between atoms: C5_6  and  C6_7 
REMARK    2  A    between atoms: N1_8  and  O1_10 
REMARK    3  A    between atoms: C13_18  and  C14_19 
REMARK    4  A    between atoms: C14_19  and  N2_20 
REMARK    5  A    between atoms: N2_20  and  S2_22 
ROOT
HETATM    1  C1  UNL     1     -23.000 -32.842  27.510  1.00  0.00     0.057 C 
HETATM    2  C2  UNL     1     -24.245 -32.602  26.686  1.00  0.00    -0.009 A 
HETATM    3  S1  UNL     1     -25.754 -33.370  26.841  1.00  0.00    -0.097 SA
HETATM    4  C3  UNL     1     -26.600 -32.578  25.593  1.00  0.00    -0.001 A 
HETATM    5  C4  UNL     1     -25.676 -31.725  25.079  1.00  0.00    -0.032 A 
HETATM    6  C5  UNL     1     -24.434 -31.727  25.644  1.00  0.00     0.001 A 
HETATM    7  C7  UNL     1     -26.128 -30.839  23.913  1.00  0.00     0.040 C 
HETATM    8  C8  UNL     1     -27.547 -30.431  24.331  1.00  0.00     0.006 C 
HETATM    9  C9  UNL     1     -28.388 -31.645  24.146  1.00  0.00     0.015 C 
HETATM   10  C10 UNL     1     -28.005 -32.708  25.096  1.00  0.00    -0.006 C 
HETATM   11  C11 UNL     1     -28.929 -32.681  26.296  1.00  0.00     0.015 C 
HETATM   12  C12 UNL     1     -29.165 -34.029  26.899  1.00  0.00     0.007 C 
HETATM   13  C13 UNL     1     -29.649 -35.050  25.923  1.00  0.00     0.004 C 
HETATM   14  C15 UNL     1     -29.451 -34.649  24.489  1.00  0.00     0.007 C 
HETATM   15  C16 UNL     1     -28.068 -34.049  24.375  1.00  0.00     0.015 C 
ENDROOT
BRANCH   6  16
HETATM   16  C6  UNL     1     -23.305 -30.863  25.212  1.00  0.00     0.126 C 
HETATM   17  N1  UNL     1     -22.442 -31.248  24.367  1.00  0.00    -0.280 N 
ATOM     18  H1  UNL     1     -22.544 -32.187  23.982  1.00  0.00     0.193 HD
BRANCH  17  19
HETATM   19  O1  UNL     1     -21.398 -30.507  23.939  1.00  0.00    -0.290 OA
ATOM     20  H1  UNL     1     -20.494 -30.645  24.194  1.00  0.00     0.244 HD
ENDBRANCH  17  19
ENDBRANCH   6  16
BRANCH  13  21
HETATM   21  C14 UNL     1     -31.098 -35.428  26.145  1.00  0.00     0.139 C 
BRANCH  21  22
HETATM   22  N2  UNL     1     -31.655 -35.963  24.910  1.00  0.00    -0.301 N 
ATOM     23  H2  UNL     1     -31.321 -36.797  24.428  1.00  0.00     0.174 HD
BRANCH  22  24
HETATM   24  S2  UNL     1     -32.971 -34.965  24.384  1.00  0.00     0.204 S 
HETATM   25  O2  UNL     1     -32.704 -34.545  22.970  1.00  0.00    -0.578 OA
HETATM   26  O3  UNL     1     -32.958 -33.725  25.248  1.00  0.00    -0.578 OA
HETATM   27  O4  UNL     1     -34.439 -35.787  24.509  1.00  0.00    -0.578 OA
ENDBRANCH  22  24
ENDBRANCH  21  22
ENDBRANCH  13  21
TORSDOF 5
ENDMDL
MODEL 2
REMARK VINA RESULT: -8.203878851      3.204      4.882
REMARK  5 active torsions:
REMARK  status: ('A' for Active; 'I' for Inactive)
REMARK    1  A    between atoms: C5_6  and  C6_7 
REMARK    2  A    between atoms: N1_8  and  O1_10 
REMARK    3  A    between atoms: C13_18  and  C14_19 
REMARK    4  A    between atoms: C14_19  and  N2_20 
REMARK    5  A    between atoms: N2_20  and  S2_22 
ROOT
HETATM    1  C1  UNL     1     -21.297 -37.838  27.201  1.00  0.00     0.057 C 
HETATM    2  C2  UNL     1     -21.856 -36.449  27.412  1.00  0.00    -0.009 A 
HETATM    3  S1  UNL     1     -23.478 -35.955  27.296  1.00  0.00    -0.097 SA
HETATM    4  C3  UNL     1     -23.294 -34.302  27.660  1.00  0.00    -0.001 A 
HETATM    5  C4  UNL     1     -21.958 -34.173  27.866  1.00  0.00    -0.032 A 
HETATM    6  C5  UNL     1     -21.189 -35.293  27.739  1.00  0.00     0.001 A 
HETATM    7  C7  UNL     1     -21.448 -32.773  28.226  1.00  0.00     0.040 C 
HETATM    8  C8  UNL     1     -22.527 -32.259  29.189  1.00  0.00     0.006 C 
HETATM    9  C9  UNL     1     -23.712 -31.953  28.341  1.00  0.00     0.015 C 
HETATM   10  C10 UNL     1     -24.281 -33.182  27.756  1.00  0.00    -0.006 C 
HETATM   11  C11 UNL     1     -25.448 -33.658  28.597  1.00  0.00     0.015 C 
HETATM   12  C12 UNL     1     -26.514 -34.345  27.805  1.00  0.00     0.007 C 
HETATM   13  C13 UNL     1     -27.027 -33.540  26.658  1.00  0.00     0.004 C 
HETATM   14  C15 UNL     1     -26.138 -32.385  26.293  1.00  0.00     0.007 C 
HETATM   15  C16 UNL     1     -24.712 -32.884  26.325  1.00  0.00     0.015 C 
ENDROOT
BRANCH   6  16
HETATM   16  C6  UNL     1     -19.717 -35.336  27.928  1.00  0.00     0.126 C 
HETATM   17  N1  UNL     1     -18.907 -34.917  27.047  1.00  0.00    -0.280 N 
ATOM     18  H1  UNL     1     -19.302 -34.540  26.184  1.00  0.00     0.193 HD
BRANCH  17  19
HETATM   19  O1  UNL     1     -17.563 -34.931  27.165  1.00  0.00    -0.290 OA
ATOM     20  H1  UNL     1     -16.965 -34.437  26.617  1.00  0.00     0.244 HD
ENDBRANCH  17  19
ENDBRANCH   6  16
BRANCH  13  21
HETATM   21  C14 UNL     1     -28.438 -33.039  26.880  1.00  0.00     0.139 C 
BRANCH  21  22
HETATM   22  N2  UNL     1     -29.349 -34.173  26.959  1.00  0.00    -0.301 N 
ATOM     23  H2  UNL     1     -29.570 -34.690  27.809  1.00  0.00     0.174 HD
BRANCH  22  24
HETATM   24  S2  UNL     1     -30.000 -34.509  25.388  1.00  0.00     0.204 S 
HETATM   25  O2  UNL     1     -31.468 -34.772  25.536  1.00  0.00    -0.578 OA
HETATM   26  O3  UNL     1     -29.346 -35.783  24.902  1.00  0.00    -0.578 OA
HETATM   27  O4  UNL     1     -29.714 -33.227  24.330  1.00  0.00    -0.578 OA
ENDBRANCH  22  24
ENDBRANCH  21  22
ENDBRANCH  13  21
TORSDOF 5
ENDMDL
MODEL 3
REMARK VINA RESULT: -8.141555134      3.582      8.140
REMARK  5 active torsions:
REMARK  status: ('A' for Active; 'I' for Inactive)
REMARK    1  A    between atoms: C5_6  and  C6_7 
REMARK    2  A    between atoms: N1_8  and  O1_10 
REMARK    3  A    between atoms: C13_18  and  C14_19 
REMARK    4  A    between atoms: C14_19  and  N2_20 
REMARK    5  A    between atoms: N2_20  and  S2_22 
ROOT
HETATM    1  C1  UNL     1     -29.145 -34.208  25.979  1.00  0.00     0.057 C 
HETATM    2  C2  UNL     1     -27.800 -33.518  25.981  1.00  0.00    -0.009 A 
HETATM    3  S1  UNL     1     -26.374 -34.029  26.755  1.00  0.00    -0.097 SA
HETATM    4  C3  UNL     1     -25.338 -32.758  26.298  1.00  0.00    -0.001 A 
HETATM    5  C4  UNL     1     -26.135 -31.957  25.545  1.00  0.00    -0.032 A 
HETATM    6  C5  UNL     1     -27.432 -32.344  25.370  1.00  0.00     0.001 A 
HETATM    7  C7  UNL     1     -25.492 -30.693  24.963  1.00  0.00     0.040 C 
HETATM    8  C8  UNL     1     -24.106 -31.191  24.529  1.00  0.00     0.006 C 
HETATM    9  C9  UNL     1     -23.334 -31.385  25.787  1.00  0.00     0.015 C 
HETATM   10  C10 UNL     1     -23.897 -32.486  26.593  1.00  0.00    -0.006 C 
HETATM   11  C11 UNL     1     -23.119 -33.760  26.336  1.00  0.00     0.015 C 
HETATM   12  C12 UNL     1     -23.047 -34.666  27.523  1.00  0.00     0.007 C 
HETATM   13  C13 UNL     1     -22.523 -34.007  28.755  1.00  0.00     0.004 C 
HETATM   14  C15 UNL     1     -22.526 -32.506  28.678  1.00  0.00     0.007 C 
HETATM   15  C16 UNL     1     -23.841 -32.088  28.063  1.00  0.00     0.015 C 
ENDROOT
BRANCH   6  16
HETATM   16  C6  UNL     1     -28.441 -31.593  24.580  1.00  0.00     0.126 C 
HETATM   17  N1  UNL     1     -28.629 -31.805  23.344  1.00  0.00    -0.280 N 
ATOM     18  H1  UNL     1     -28.056 -32.521  22.895  1.00  0.00     0.193 HD
BRANCH  17  19
HETATM   19  O1  UNL     1     -29.530 -31.155  22.578  1.00  0.00    -0.290 OA
ATOM     20  H1  UNL     1     -30.442 -31.402  22.485  1.00  0.00     0.244 HD
ENDBRANCH  17  19
ENDBRANCH   6  16
BRANCH  13  21
HETATM   21  C14 UNL     1     -21.139 -34.490  29.133  1.00  0.00     0.139 C 
BRANCH  21  22
HETATM   22  N2  UNL     1     -20.917 -35.815  28.570  1.00  0.00    -0.301 N 
ATOM     23  H2  UNL     1     -21.513 -36.627  28.727  1.00  0.00     0.174 HD
BRANCH  22  24
HETATM   24  S2  UNL     1     -19.483 -35.801  27.596  1.00  0.00     0.204 S 
HETATM   25  O2  UNL     1     -18.297 -35.731  28.509  1.00  0.00    -0.578 OA
HETATM   26  O3  UNL     1     -19.517 -34.530  26.778  1.00  0.00    -0.578 OA
HETATM   27  O4  UNL     1     -19.412 -37.167  26.608  1.00  0.00    -0.578 OA
ENDBRANCH  22  24
ENDBRANCH  21  22
ENDBRANCH  13  21
TORSDOF 5
ENDMDL
MODEL 4
REMARK VINA RESULT: -8.133296870      4.452      7.454
REMARK  5 active torsions:
REMARK  status: ('A' for Active; 'I' for Inactive)
REMARK    1  A    between atoms: C5_6  and  C6_7 
REMARK    2  A    between atoms: N1_8  and  O1_10 
REMARK    3  A    between atoms: C13_18  and  C14_19 
REMARK    4  A    between atoms: C14_19  and  N2_20 
REMARK    5  A    between atoms: N2_20  and  S2_22 
ROOT
HETATM    1  C1  UNL     1     -29.012 -32.663  24.853  1.00  0.00     0.057 C 
HETATM    2  C2  UNL     1     -27.566 -32.562  25.284  1.00  0.00    -0.009 A 
HETATM    3  S1  UNL     1     -26.717 -33.609  26.321  1.00  0.00    -0.097 SA
HETATM    4  C3  UNL     1     -25.196 -32.843  26.306  1.00  0.00    -0.001 A 
HETATM    5  C4  UNL     1     -25.387 -31.779  25.485  1.00  0.00    -0.032 A 
HETATM    6  C5  UNL     1     -26.628 -31.618  24.940  1.00  0.00     0.001 A 
HETATM    7  C7  UNL     1     -24.181 -30.863  25.249  1.00  0.00     0.040 C 
HETATM    8  C8  UNL     1     -23.022 -31.861  25.120  1.00  0.00     0.006 C 
HETATM    9  C9  UNL     1     -22.768 -32.367  26.497  1.00  0.00     0.015 C 
HETATM   10  C10 UNL     1     -23.905 -33.169  26.988  1.00  0.00    -0.006 C 
HETATM   11  C11 UNL     1     -23.623 -34.642  26.775  1.00  0.00     0.015 C 
HETATM   12  C12 UNL     1     -24.235 -35.524  27.816  1.00  0.00     0.007 C 
HETATM   13  C13 UNL     1     -23.873 -35.148  29.215  1.00  0.00     0.004 C 
HETATM   14  C15 UNL     1     -23.291 -33.768  29.331  1.00  0.00     0.007 C 
HETATM   15  C16 UNL     1     -24.122 -32.852  28.462  1.00  0.00     0.015 C 
ENDROOT
BRANCH   6  16
HETATM   16  C6  UNL     1     -27.015 -30.516  24.023  1.00  0.00     0.126 C 
HETATM   17  N1  UNL     1     -26.964 -30.634  22.761  1.00  0.00    -0.280 N 
ATOM     18  H1  UNL     1     -26.643 -31.526  22.383  1.00  0.00     0.193 HD
BRANCH  17  19
HETATM   19  O1  UNL     1     -27.302 -29.667  21.882  1.00  0.00    -0.290 OA
ATOM     20  H1  UNL     1     -27.590 -28.794  22.120  1.00  0.00     0.244 HD
ENDBRANCH  17  19
ENDBRANCH   6  16
BRANCH  13  21
HETATM   21  C14 UNL     1     -22.939 -36.145  29.864  1.00  0.00     0.139 C 
BRANCH  21  22
HETATM   22  N2  UNL     1     -21.762 -36.327  29.026  1.00  0.00    -0.301 N 
ATOM     23  H2  UNL     1     -21.188 -35.574  28.648  1.00  0.00     0.174 HD
BRANCH  22  24
HETATM   24  S2  UNL     1     -21.485 -38.019  28.768  1.00  0.00     0.204 S 
HETATM   25  O2  UNL     1     -21.519 -38.279  27.292  1.00  0.00    -0.578 OA
HETATM   26  O3  UNL     1     -22.644 -38.757  29.397  1.00  0.00    -0.578 OA
HETATM   27  O4  UNL     1     -20.013 -38.498  29.437  1.00  0.00    -0.578 OA
ENDBRANCH  22  24
ENDBRANCH  21  22
ENDBRANCH  13  21
TORSDOF 5
ENDMDL
MODEL 5
REMARK VINA RESULT: -8.125829721      4.118      8.031
REMARK  5 active torsions:
REMARK  status: ('A' for Active; 'I' for Inactive)
REMARK    1  A    between atoms: C5_6  and  C6_7 
REMARK    2  A    between atoms: N1_8  and  O1_10 
REMARK    3  A    between atoms: C13_18  and  C14_19 
REMARK    4  A    between atoms: C14_19  and  N2_20 
REMARK    5  A    between atoms: N2_20  and  S2_22 
ROOT
HETATM    1  C1  UNL     1     -28.647 -32.609  25.310  1.00  0.00     0.057 C 
HETATM    2  C2  UNL     1     -27.153 -32.447  25.483  1.00  0.00    -0.009 A 
HETATM    3  S1  UNL     1     -26.109 -33.401  26.426  1.00  0.00    -0.097 SA
HETATM    4  C3  UNL     1     -24.638 -32.604  26.108  1.00  0.00    -0.001 A 
HETATM    5  C4  UNL     1     -25.000 -31.602  25.266  1.00  0.00    -0.032 A 
HETATM    6  C5  UNL     1     -26.318 -31.507  24.928  1.00  0.00     0.001 A 
HETATM    7  C7  UNL     1     -23.881 -30.677  24.774  1.00  0.00     0.040 C 
HETATM    8  C8  UNL     1     -22.727 -31.654  24.514  1.00  0.00     0.006 C 
HETATM    9  C9  UNL     1     -22.230 -32.060  25.858  1.00  0.00     0.015 C 
HETATM   10  C10 UNL     1     -23.242 -32.853  26.582  1.00  0.00    -0.006 C 
HETATM   11  C11 UNL     1     -22.949 -34.330  26.418  1.00  0.00     0.015 C 
HETATM   12  C12 UNL     1     -23.349 -35.155  27.600  1.00  0.00     0.007 C 
HETATM   13  C13 UNL     1     -22.773 -34.677  28.891  1.00  0.00     0.004 C 
HETATM   14  C15 UNL     1     -22.226 -33.279  28.821  1.00  0.00     0.007 C 
HETATM   15  C16 UNL     1     -23.221 -32.443  28.049  1.00  0.00     0.015 C 
ENDROOT
BRANCH   6  16
HETATM   16  C6  UNL     1     -26.889 -30.478  24.022  1.00  0.00     0.126 C 
HETATM   17  N1  UNL     1     -26.933 -30.631  22.764  1.00  0.00    -0.280 N 
ATOM     18  H1  UNL     1     -26.558 -31.500  22.381  1.00  0.00     0.193 HD
BRANCH  17  19
HETATM   19  O1  UNL     1     -27.440 -29.732  21.895  1.00  0.00    -0.290 OA
ATOM     20  H1  UNL     1     -27.178 -28.820  21.844  1.00  0.00     0.244 HD
ENDBRANCH  17  19
ENDBRANCH   6  16
BRANCH  13  21
HETATM   21  C14 UNL     1     -21.710 -35.606  29.436  1.00  0.00     0.139 C 
BRANCH  21  22
HETATM   22  N2  UNL     1     -20.401 -34.983  29.297  1.00  0.00    -0.301 N 
ATOM     23  H2  UNL     1     -20.032 -34.251  29.903  1.00  0.00     0.174 HD
BRANCH  22  24
HETATM   24  S2  UNL     1     -19.566 -35.675  27.945  1.00  0.00     0.204 S 
HETATM   25  O2  UNL     1     -18.141 -35.912  28.345  1.00  0.00    -0.578 OA
HETATM   26  O3  UNL     1     -19.573 -34.639  26.843  1.00  0.00    -0.578 OA
HETATM   27  O4  UNL     1     -20.305 -37.107  27.448  1.00  0.00    -0.578 OA
ENDBRANCH  22  24
ENDBRANCH  21  22
ENDBRANCH  13  21
TORSDOF 5
ENDMDL
