MODEL 1
REMARK VINA RESULT: -8.514854748      0.000      0.000
REMARK  9 active torsions:
REMARK  status: ('A' for Active; 'I' for Inactive)
REMARK    1  A    between atoms: C3_3  and  C4_4 
REMARK    2  A    between atoms: C4_4  and  C5_5 
REMARK    3  A    between atoms: C4_4  and  S2_21 
REMARK    4  A    between atoms: C5_5  and  S1_6 
REMARK    5  A    between atoms: S1_6  and  C6_7 
REMARK    6  A    between atoms: N2_10  and  N3_12 
REMARK    7  A    between atoms: N3_12  and  C8_14 
REMARK    8  A    between atoms: S2_21  and  C11_22 
REMARK    9  A    between atoms: C12_27  and  N8_28 
ROOT
HETATM    1  C6  UNL     1      33.053  40.047  42.501  1.00  0.00     0.166 C 
HETATM    2  C7  UNL     1      33.467  39.478  43.784  1.00  0.00     0.126 C 
HETATM    3  N1  UNL     1      33.816  39.026  44.785  1.00  0.00    -0.189 NA
HETATM    4  N2  UNL     1      33.879  40.848  41.950  1.00  0.00    -0.282 N 
ATOM      5  H2  UNL     1      34.772  41.026  42.408  1.00  0.00     0.188 HD
ENDROOT
BRANCH   1   6
HETATM    6  S1  UNL     1      31.475  39.672  41.782  1.00  0.00    -0.098 SA
BRANCH   6   7
HETATM    7  C5  UNL     1      30.912  37.959  42.292  1.00  0.00     0.103 C 
BRANCH   7   8
HETATM    8  C4  UNL     1      31.182  37.095  41.111  1.00  0.00     0.115 C 
BRANCH   8   9
HETATM    9  C3  UNL     1      30.102  36.357  40.458  1.00  0.00     0.040 A 
HETATM   10  C2  UNL     1      29.793  36.773  39.148  1.00  0.00     0.030 A 
HETATM   11  C1  UNL     1      30.435  38.007  38.603  1.00  0.00     0.056 C 
HETATM   12  C18 UNL     1      28.907  36.030  38.417  1.00  0.00     0.257 A 
HETATM   13  N12 UNL     1      28.327  34.917  38.921  1.00  0.00    -0.275 N 
HETATM   14  O2  UNL     1      28.646  36.424  37.241  1.00  0.00    -0.267 OA
HETATM   15  C17 UNL     1      28.613  34.516  40.158  1.00  0.00     0.327 A 
ATOM     16  H12 UNL     1      27.669  34.384  38.352  1.00  0.00     0.173 HD
HETATM   17  N11 UNL     1      29.494  35.245  40.897  1.00  0.00    -0.310 N 
HETATM   18  O1  UNL     1      28.085  33.469  40.662  1.00  0.00    -0.247 OA
ATOM     19  H11 UNL     1      29.705  34.926  41.843  1.00  0.00     0.170 HD
ENDBRANCH   8   9
BRANCH   8  20
HETATM   20  S2  UNL     1      32.084  35.659  42.021  1.00  0.00    -0.080 SA
BRANCH  20  21
HETATM   21  C11 UNL     1      33.765  36.248  42.226  1.00  0.00     0.175 A 
HETATM   22  N6  UNL     1      34.608  36.910  41.430  1.00  0.00    -0.265 N 
HETATM   23  N7  UNL     1      35.733  37.195  42.023  1.00  0.00    -0.130 N 
ATOM     24  H6  UNL     1      34.394  37.165  40.466  1.00  0.00     0.189 HD
HETATM   25  C12 UNL     1      35.657  36.715  43.262  1.00  0.00     0.697 A 
ATOM     26  H7  UNL     1      36.524  37.691  41.614  1.00  0.00     0.205 HD
HETATM   27  N10 UNL     1      34.464  36.131  43.402  1.00  0.00    -0.168 N 
ATOM     28  H10 UNL     1      34.126  35.672  44.248  1.00  0.00     0.186 HD
BRANCH  25  29
HETATM   29  N8  UNL     1      36.685  36.899  44.239  1.00  0.00    -0.213 N 
HETATM   30  C13 UNL     1      37.380  38.180  44.150  1.00  0.00     0.168 C 
HETATM   31  C14 UNL     1      38.190  38.376  45.376  1.00  0.00     0.252 C 
HETATM   32  N9  UNL     1      37.380  37.928  46.508  1.00  0.00    -0.072 N 
HETATM   33  C15 UNL     1      37.501  36.467  46.519  1.00  0.00     0.252 C 
ATOM     34  H92 UNL     1      37.632  38.368  47.393  1.00  0.00     0.277 HD
ATOM     35  H91 UNL     1      36.416  38.260  46.480  1.00  0.00     0.277 HD
HETATM   36  C16 UNL     1      37.021  35.908  45.220  1.00  0.00     0.168 C 
ENDBRANCH  25  29
ENDBRANCH  20  21
ENDBRANCH   8  20
ENDBRANCH   7   8
ENDBRANCH   6   7
ENDBRANCH   1   6
BRANCH   4  37
HETATM   37  N3  UNL     1      33.600  41.486  40.747  1.00  0.00    -0.270 N 
ATOM     38  H3  UNL     1      33.989  41.099  39.887  1.00  0.00     0.190 HD
BRANCH  37  39
HETATM   39  C8  UNL     1      32.790  42.661  40.666  1.00  0.00     0.190 A 
HETATM   40  N4  UNL     1      32.176  43.036  39.611  1.00  0.00    -0.360 N 
HETATM   41  C9  UNL     1      31.427  44.237  39.760  1.00  0.00     0.142 A 
ATOM     42  H4  UNL     1      32.219  42.517  38.734  1.00  0.00     0.162 HD
HETATM   43  C10 UNL     1      31.562  44.592  41.227  1.00  0.00     0.142 A 
HETATM   44  N5  UNL     1      32.503  43.602  41.693  1.00  0.00    -0.360 N 
ATOM     45  H5  UNL     1      32.906  43.579  42.630  1.00  0.00     0.162 HD
ENDBRANCH  37  39
ENDBRANCH   4  37
TORSDOF 9
ENDMDL
MODEL 2
REMARK VINA RESULT: -8.507881351      2.749      5.617
REMARK  9 active torsions:
REMARK  status: ('A' for Active; 'I' for Inactive)
REMARK    1  A    between atoms: C3_3  and  C4_4 
REMARK    2  A    between atoms: C4_4  and  C5_5 
REMARK    3  A    between atoms: C4_4  and  S2_21 
REMARK    4  A    between atoms: C5_5  and  S1_6 
REMARK    5  A    between atoms: S1_6  and  C6_7 
REMARK    6  A    between atoms: N2_10  and  N3_12 
REMARK    7  A    between atoms: N3_12  and  C8_14 
REMARK    8  A    between atoms: S2_21  and  C11_22 
REMARK    9  A    between atoms: C12_27  and  N8_28 
ROOT
HETATM    1  C6  UNL     1      30.477  35.827  40.362  1.00  0.00     0.166 C 
HETATM    2  C7  UNL     1      29.777  34.874  41.225  1.00  0.00     0.126 C 
HETATM    3  N1  UNL     1      29.205  34.130  41.893  1.00  0.00    -0.189 NA
HETATM    4  N2  UNL     1      30.179  35.785  39.123  1.00  0.00    -0.282 N 
ATOM      5  H2  UNL     1      29.468  35.124  38.809  1.00  0.00     0.188 HD
ENDROOT
BRANCH   1   6
HETATM    6  S1  UNL     1      31.698  36.942  41.005  1.00  0.00    -0.098 SA
BRANCH   6   7
HETATM    7  C5  UNL     1      30.879  38.353  41.925  1.00  0.00     0.103 C 
BRANCH   7   8
HETATM    8  C4  UNL     1      31.869  39.464  41.892  1.00  0.00     0.115 C 
BRANCH   8   9
HETATM    9  C3  UNL     1      31.749  40.548  40.918  1.00  0.00     0.040 A 
HETATM   10  C2  UNL     1      32.151  41.819  41.377  1.00  0.00     0.030 A 
HETATM   11  C1  UNL     1      32.484  42.001  42.822  1.00  0.00     0.056 C 
HETATM   12  C18 UNL     1      32.219  42.847  40.479  1.00  0.00     0.257 A 
HETATM   13  N12 UNL     1      31.910  42.674  39.174  1.00  0.00    -0.275 N 
HETATM   14  O2  UNL     1      32.584  43.980  40.915  1.00  0.00    -0.267 OA
HETATM   15  C17 UNL     1      31.530  41.477  38.731  1.00  0.00     0.327 A 
ATOM     16  H12 UNL     1      31.969  43.460  38.527  1.00  0.00     0.173 HD
HETATM   17  N11 UNL     1      31.458  40.442  39.614  1.00  0.00    -0.310 N 
HETATM   18  O1  UNL     1      31.233  41.278  37.505  1.00  0.00    -0.247 OA
ATOM     19  H11 UNL     1      31.166  39.531  39.260  1.00  0.00     0.170 HD
ENDBRANCH   8   9
BRANCH   8  20
HETATM   20  S2  UNL     1      33.350  38.489  41.146  1.00  0.00    -0.080 SA
BRANCH  20  21
HETATM   21  C11 UNL     1      34.665  38.687  42.349  1.00  0.00     0.175 A 
HETATM   22  N6  UNL     1      35.450  39.712  42.689  1.00  0.00    -0.265 N 
HETATM   23  N7  UNL     1      36.243  39.424  43.682  1.00  0.00    -0.130 N 
ATOM     24  H6  UNL     1      35.430  40.619  42.224  1.00  0.00     0.189 HD
HETATM   25  C12 UNL     1      35.992  38.165  44.033  1.00  0.00     0.697 A 
ATOM     26  H7  UNL     1      36.928  40.046  44.110  1.00  0.00     0.205 HD
HETATM   27  N10 UNL     1      35.034  37.699  43.228  1.00  0.00    -0.168 N 
ATOM     28  H10 UNL     1      34.639  36.759  43.261  1.00  0.00     0.186 HD
BRANCH  25  29
HETATM   29  N8  UNL     1      36.625  37.518  45.141  1.00  0.00    -0.213 N 
HETATM   30  C13 UNL     1      36.557  36.060  45.109  1.00  0.00     0.168 C 
HETATM   31  C14 UNL     1      37.492  35.511  46.120  1.00  0.00     0.252 C 
HETATM   32  N9  UNL     1      38.719  36.304  46.053  1.00  0.00    -0.072 N 
HETATM   33  C15 UNL     1      38.433  37.527  46.809  1.00  0.00     0.252 C 
ATOM     34  H92 UNL     1      39.548  35.805  46.375  1.00  0.00     0.277 HD
ATOM     35  H91 UNL     1      39.046  36.476  45.103  1.00  0.00     0.277 HD
HETATM   36  C16 UNL     1      37.265  38.236  46.206  1.00  0.00     0.168 C 
ENDBRANCH  25  29
ENDBRANCH  20  21
ENDBRANCH   8  20
ENDBRANCH   7   8
ENDBRANCH   6   7
ENDBRANCH   1   6
BRANCH   4  37
HETATM   37  N3  UNL     1      30.791  36.609  38.187  1.00  0.00    -0.270 N 
ATOM     38  H3  UNL     1      31.808  36.689  38.196  1.00  0.00     0.190 HD
BRANCH  37  39
HETATM   39  C8  UNL     1      30.054  37.351  37.212  1.00  0.00     0.190 A 
HETATM   40  N4  UNL     1      28.916  36.995  36.753  1.00  0.00    -0.360 N 
HETATM   41  C9  UNL     1      28.364  37.888  35.790  1.00  0.00     0.142 A 
ATOM     42  H4  UNL     1      28.442  36.143  37.051  1.00  0.00     0.162 HD
HETATM   43  C10 UNL     1      29.341  39.046  35.739  1.00  0.00     0.142 A 
HETATM   44  N5  UNL     1      30.407  38.581  36.593  1.00  0.00    -0.360 N 
ATOM     45  H5  UNL     1      31.292  39.068  36.733  1.00  0.00     0.162 HD
ENDBRANCH  37  39
ENDBRANCH   4  37
TORSDOF 9
ENDMDL
MODEL 3
REMARK VINA RESULT: -8.447756276      2.010      3.613
REMARK  9 active torsions:
REMARK  status: ('A' for Active; 'I' for Inactive)
REMARK    1  A    between atoms: C3_3  and  C4_4 
REMARK    2  A    between atoms: C4_4  and  C5_5 
REMARK    3  A    between atoms: C4_4  and  S2_21 
REMARK    4  A    between atoms: C5_5  and  S1_6 
REMARK    5  A    between atoms: S1_6  and  C6_7 
REMARK    6  A    between atoms: N2_10  and  N3_12 
REMARK    7  A    between atoms: N3_12  and  C8_14 
REMARK    8  A    between atoms: S2_21  and  C11_22 
REMARK    9  A    between atoms: C12_27  and  N8_28 
ROOT
HETATM    1  C6  UNL     1      30.901  40.727  37.898  1.00  0.00     0.166 C 
HETATM    2  C7  UNL     1      31.175  40.391  36.500  1.00  0.00     0.126 C 
HETATM    3  N1  UNL     1      31.388  40.152  35.393  1.00  0.00    -0.189 NA
HETATM    4  N2  UNL     1      31.506  41.752  38.357  1.00  0.00    -0.282 N 
ATOM      5  H2  UNL     1      32.113  42.285  37.736  1.00  0.00     0.188 HD
ENDROOT
BRANCH   1   6
HETATM    6  S1  UNL     1      29.824  39.735  38.899  1.00  0.00    -0.098 SA
BRANCH   6   7
HETATM    7  C5  UNL     1      29.499  38.084  38.076  1.00  0.00     0.103 C 
BRANCH   7   8
HETATM    8  C4  UNL     1      30.415  37.126  38.753  1.00  0.00     0.115 C 
BRANCH   8   9
HETATM    9  C3  UNL     1      29.929  35.832  39.229  1.00  0.00     0.040 A 
HETATM   10  C2  UNL     1      30.242  34.730  38.407  1.00  0.00     0.030 A 
HETATM   11  C1  UNL     1      30.860  34.972  37.068  1.00  0.00     0.056 C 
HETATM   12  C18 UNL     1      29.962  33.472  38.864  1.00  0.00     0.257 A 
HETATM   13  N12 UNL     1      29.397  33.265  40.075  1.00  0.00    -0.275 N 
HETATM   14  O2  UNL     1      30.253  32.498  38.106  1.00  0.00    -0.267 OA
HETATM   15  C17 UNL     1      29.099  34.299  40.859  1.00  0.00     0.327 A 
ATOM     16  H12 UNL     1      29.199  32.315  40.389  1.00  0.00     0.173 HD
HETATM   17  N11 UNL     1      29.373  35.558  40.418  1.00  0.00    -0.310 N 
HETATM   18  O1  UNL     1      28.568  34.138  42.008  1.00  0.00    -0.247 OA
ATOM     19  H11 UNL     1      29.140  36.341  41.029  1.00  0.00     0.170 HD
ENDBRANCH   8   9
BRANCH   8  20
HETATM   20  S2  UNL     1      30.605  38.062  40.423  1.00  0.00    -0.080 SA
BRANCH  20  21
HETATM   21  C11 UNL     1      32.208  37.548  41.042  1.00  0.00     0.175 A 
HETATM   22  N6  UNL     1      33.397  37.366  40.465  1.00  0.00    -0.265 N 
HETATM   23  N7  UNL     1      34.322  37.042  41.324  1.00  0.00    -0.130 N 
ATOM     24  H6  UNL     1      33.563  37.468  39.464  1.00  0.00     0.189 HD
HETATM   25  C12 UNL     1      33.749  37.004  42.524  1.00  0.00     0.697 A 
ATOM     26  H7  UNL     1      35.302  36.852  41.115  1.00  0.00     0.205 HD
HETATM   27  N10 UNL     1      32.458  37.308  42.370  1.00  0.00    -0.168 N 
ATOM     28  H10 UNL     1      31.768  37.353  43.120  1.00  0.00     0.186 HD
BRANCH  25  29
HETATM   29  N8  UNL     1      34.473  36.751  43.732  1.00  0.00    -0.213 N 
HETATM   30  C13 UNL     1      34.891  35.362  43.905  1.00  0.00     0.168 C 
HETATM   31  C14 UNL     1      35.874  35.289  45.012  1.00  0.00     0.252 C 
HETATM   32  N9  UNL     1      36.773  36.434  44.871  1.00  0.00    -0.072 N 
HETATM   33  C15 UNL     1      36.043  37.573  45.437  1.00  0.00     0.252 C 
ATOM     34  H92 UNL     1      37.693  36.287  45.287  1.00  0.00     0.277 HD
ATOM     35  H91 UNL     1      37.097  36.587  43.917  1.00  0.00     0.277 HD
HETATM   36  C16 UNL     1      34.757  37.767  44.703  1.00  0.00     0.168 C 
ENDBRANCH  25  29
ENDBRANCH  20  21
ENDBRANCH   8  20
ENDBRANCH   7   8
ENDBRANCH   6   7
ENDBRANCH   1   6
BRANCH   4  37
HETATM   37  N3  UNL     1      31.364  42.164  39.677  1.00  0.00    -0.270 N 
ATOM     38  H3  UNL     1      30.669  42.878  39.894  1.00  0.00     0.190 HD
BRANCH  37  39
HETATM   39  C8  UNL     1      32.152  41.628  40.741  1.00  0.00     0.190 A 
HETATM   40  N4  UNL     1      31.711  41.414  41.921  1.00  0.00    -0.360 N 
HETATM   41  C9  UNL     1      32.673  40.874  42.821  1.00  0.00     0.142 A 
ATOM     42  H4  UNL     1      30.749  41.613  42.195  1.00  0.00     0.162 HD
HETATM   43  C10 UNL     1      33.906  40.646  41.970  1.00  0.00     0.142 A 
HETATM   44  N5  UNL     1      33.516  41.229  40.709  1.00  0.00    -0.360 N 
ATOM     45  H5  UNL     1      34.134  41.339  39.905  1.00  0.00     0.162 HD
ENDBRANCH  37  39
ENDBRANCH   4  37
TORSDOF 9
ENDMDL
MODEL 4
REMARK VINA RESULT: -8.442844233      1.075      1.537
REMARK  9 active torsions:
REMARK  status: ('A' for Active; 'I' for Inactive)
REMARK    1  A    between atoms: C3_3  and  C4_4 
REMARK    2  A    between atoms: C4_4  and  C5_5 
REMARK    3  A    between atoms: C4_4  and  S2_21 
REMARK    4  A    between atoms: C5_5  and  S1_6 
REMARK    5  A    between atoms: S1_6  and  C6_7 
REMARK    6  A    between atoms: N2_10  and  N3_12 
REMARK    7  A    between atoms: N3_12  and  C8_14 
REMARK    8  A    between atoms: S2_21  and  C11_22 
REMARK    9  A    between atoms: C12_27  and  N8_28 
ROOT
HETATM    1  C6  UNL     1      32.951  40.348  41.773  1.00  0.00     0.166 C 
HETATM    2  C7  UNL     1      33.902  40.392  42.885  1.00  0.00     0.126 C 
HETATM    3  N1  UNL     1      34.669  40.419  43.744  1.00  0.00    -0.189 NA
HETATM    4  N2  UNL     1      33.335  40.894  40.686  1.00  0.00    -0.282 N 
ATOM      5  H2  UNL     1      34.270  41.298  40.641  1.00  0.00     0.188 HD
ENDROOT
BRANCH   1   6
HETATM    6  S1  UNL     1      31.344  39.617  41.950  1.00  0.00    -0.098 SA
BRANCH   6   7
HETATM    7  C5  UNL     1      31.489  37.867  42.600  1.00  0.00     0.103 C 
BRANCH   7   8
HETATM    8  C4  UNL     1      31.592  37.010  41.387  1.00  0.00     0.115 C 
BRANCH   8   9
HETATM    9  C3  UNL     1      30.434  36.266  40.893  1.00  0.00     0.040 A 
HETATM   10  C2  UNL     1      30.048  36.559  39.569  1.00  0.00     0.030 A 
HETATM   11  C1  UNL     1      30.704  37.695  38.853  1.00  0.00     0.056 C 
HETATM   12  C18 UNL     1      29.079  35.792  38.985  1.00  0.00     0.257 A 
HETATM   13  N12 UNL     1      28.488  34.770  39.644  1.00  0.00    -0.275 N 
HETATM   14  O2  UNL     1      28.750  36.074  37.794  1.00  0.00    -0.267 OA
HETATM   15  C17 UNL     1      28.846  34.485  40.895  1.00  0.00     0.327 A 
ATOM     16  H12 UNL     1      27.766  34.215  39.183  1.00  0.00     0.173 HD
HETATM   17  N11 UNL     1      29.811  35.240  41.489  1.00  0.00    -0.310 N 
HETATM   18  O1  UNL     1      28.310  33.526  41.544  1.00  0.00    -0.247 OA
ATOM     19  H11 UNL     1      30.076  35.010  42.447  1.00  0.00     0.170 HD
ENDBRANCH   8   9
BRANCH   8  20
HETATM   20  S2  UNL     1      32.627  35.578  42.148  1.00  0.00    -0.080 SA
BRANCH  20  21
HETATM   21  C11 UNL     1      34.151  36.362  42.677  1.00  0.00     0.175 A 
HETATM   22  N6  UNL     1      35.042  37.142  42.061  1.00  0.00    -0.265 N 
HETATM   23  N7  UNL     1      35.987  37.546  42.861  1.00  0.00    -0.130 N 
ATOM     24  H6  UNL     1      34.988  37.393  41.074  1.00  0.00     0.189 HD
HETATM   25  C12 UNL     1      35.734  37.029  44.061  1.00  0.00     0.697 A 
ATOM     26  H7  UNL     1      36.774  38.146  42.614  1.00  0.00     0.205 HD
HETATM   27  N10 UNL     1      34.618  36.301  43.966  1.00  0.00    -0.168 N 
ATOM     28  H10 UNL     1      34.183  35.783  44.730  1.00  0.00     0.186 HD
BRANCH  25  29
HETATM   29  N8  UNL     1      36.523  37.313  45.220  1.00  0.00    -0.213 N 
HETATM   30  C13 UNL     1      37.272  36.170  45.736  1.00  0.00     0.168 C 
HETATM   31  C14 UNL     1      38.266  36.651  46.724  1.00  0.00     0.252 C 
HETATM   32  N9  UNL     1      38.855  37.877  46.187  1.00  0.00    -0.072 N 
HETATM   33  C15 UNL     1      37.881  38.934  46.476  1.00  0.00     0.252 C 
ATOM     34  H92 UNL     1      39.791  38.072  46.541  1.00  0.00     0.277 HD
ATOM     35  H91 UNL     1      39.111  37.812  45.203  1.00  0.00     0.277 HD
HETATM   36  C16 UNL     1      36.571  38.606  45.838  1.00  0.00     0.168 C 
ENDBRANCH  25  29
ENDBRANCH  20  21
ENDBRANCH   8  20
ENDBRANCH   7   8
ENDBRANCH   6   7
ENDBRANCH   1   6
BRANCH   4  37
HETATM   37  N3  UNL     1      32.521  40.954  39.561  1.00  0.00    -0.270 N 
ATOM     38  H3  UNL     1      32.520  40.164  38.915  1.00  0.00     0.190 HD
BRANCH  37  39
HETATM   39  C8  UNL     1      31.684  42.076  39.274  1.00  0.00     0.190 A 
HETATM   40  N4  UNL     1      31.940  43.273  39.641  1.00  0.00    -0.360 N 
HETATM   41  C9  UNL     1      30.968  44.233  39.242  1.00  0.00     0.142 A 
ATOM     42  H4  UNL     1      32.773  43.519  40.177  1.00  0.00     0.162 HD
HETATM   43  C10 UNL     1      29.985  43.451  38.394  1.00  0.00     0.142 A 
HETATM   44  N5  UNL     1      30.464  42.098  38.545  1.00  0.00    -0.360 N 
ATOM     45  H5  UNL     1      29.992  41.271  38.178  1.00  0.00     0.162 HD
ENDBRANCH  37  39
ENDBRANCH   4  37
TORSDOF 9
ENDMDL
MODEL 5
REMARK VINA RESULT: -8.397592540      4.332      7.551
REMARK  9 active torsions:
REMARK  status: ('A' for Active; 'I' for Inactive)
REMARK    1  A    between atoms: C3_3  and  C4_4 
REMARK    2  A    between atoms: C4_4  and  C5_5 
REMARK    3  A    between atoms: C4_4  and  S2_21 
REMARK    4  A    between atoms: C5_5  and  S1_6 
REMARK    5  A    between atoms: S1_6  and  C6_7 
REMARK    6  A    between atoms: N2_10  and  N3_12 
REMARK    7  A    between atoms: N3_12  and  C8_14 
REMARK    8  A    between atoms: S2_21  and  C11_22 
REMARK    9  A    between atoms: C12_27  and  N8_28 
ROOT
HETATM    1  C6  UNL     1      33.599  40.405  42.214  1.00  0.00     0.166 C 
HETATM    2  C7  UNL     1      33.121  41.777  42.391  1.00  0.00     0.126 C 
HETATM    3  N1  UNL     1      32.753  42.863  42.507  1.00  0.00    -0.189 NA
HETATM    4  N2  UNL     1      33.319  39.854  41.098  1.00  0.00    -0.282 N 
ATOM      5  H2  UNL     1      32.811  40.392  40.396  1.00  0.00     0.188 HD
ENDROOT
BRANCH   1   6
HETATM    6  S1  UNL     1      34.478  39.553  43.497  1.00  0.00    -0.098 SA
BRANCH   6   7
HETATM    7  C5  UNL     1      36.246  39.222  42.974  1.00  0.00     0.103 C 
BRANCH   7   8
HETATM    8  C4  UNL     1      36.875  38.545  44.140  1.00  0.00     0.115 C 
BRANCH   8   9
HETATM    9  C3  UNL     1      36.537  37.162  44.477  1.00  0.00     0.040 A 
HETATM   10  C2  UNL     1      37.447  36.510  45.333  1.00  0.00     0.030 A 
HETATM   11  C1  UNL     1      38.737  37.182  45.675  1.00  0.00     0.056 C 
HETATM   12  C18 UNL     1      37.118  35.275  45.819  1.00  0.00     0.257 A 
HETATM   13  N12 UNL     1      35.950  34.673  45.499  1.00  0.00    -0.275 N 
HETATM   14  O2  UNL     1      37.952  34.709  46.587  1.00  0.00    -0.267 OA
HETATM   15  C17 UNL     1      35.083  35.282  44.692  1.00  0.00     0.327 A 
ATOM     16  H12 UNL     1      35.732  33.750  45.876  1.00  0.00     0.173 HD
HETATM   17  N11 UNL     1      35.397  36.512  44.200  1.00  0.00    -0.310 N 
HETATM   18  O1  UNL     1      33.972  34.742  44.372  1.00  0.00    -0.247 OA
ATOM     19  H11 UNL     1      34.724  36.968  43.584  1.00  0.00     0.170 HD
ENDBRANCH   8   9
BRANCH   8  20
HETATM   20  S2  UNL     1      35.942  39.481  45.538  1.00  0.00    -0.080 SA
BRANCH  20  21
HETATM   21  C11 UNL     1      37.200  40.506  46.302  1.00  0.00     0.175 A 
HETATM   22  N6  UNL     1      38.265  40.238  47.060  1.00  0.00    -0.265 N 
HETATM   23  N7  UNL     1      38.953  41.306  47.349  1.00  0.00    -0.130 N 
ATOM     24  H6  UNL     1      38.513  39.301  47.378  1.00  0.00     0.189 HD
HETATM   25  C12 UNL     1      38.341  42.336  46.768  1.00  0.00     0.697 A 
ATOM     26  H7  UNL     1      39.801  41.346  47.913  1.00  0.00     0.205 HD
HETATM   27  N10 UNL     1      37.268  41.867  46.128  1.00  0.00    -0.168 N 
ATOM     28  H10 UNL     1      36.604  42.429  45.595  1.00  0.00     0.186 HD
BRANCH  25  29
HETATM   29  N8  UNL     1      38.850  43.673  46.806  1.00  0.00    -0.213 N 
HETATM   30  C13 UNL     1      39.083  44.193  48.150  1.00  0.00     0.168 C 
HETATM   31  C14 UNL     1      39.881  45.439  48.053  1.00  0.00     0.252 C 
HETATM   32  N9  UNL     1      40.911  45.218  47.039  1.00  0.00    -0.072 N 
HETATM   33  C15 UNL     1      40.236  45.410  45.751  1.00  0.00     0.252 C 
ATOM     34  H92 UNL     1      41.739  45.801  47.160  1.00  0.00     0.277 HD
ATOM     35  H91 UNL     1      41.385  44.320  47.124  1.00  0.00     0.277 HD
HETATM   36  C16 UNL     1      39.099  44.450  45.626  1.00  0.00     0.168 C 
ENDBRANCH  25  29
ENDBRANCH  20  21
ENDBRANCH   8  20
ENDBRANCH   7   8
ENDBRANCH   6   7
ENDBRANCH   1   6
BRANCH   4  37
HETATM   37  N3  UNL     1      33.682  38.544  40.809  1.00  0.00    -0.270 N 
ATOM     38  H3  UNL     1      34.637  38.357  40.505  1.00  0.00     0.190 HD
BRANCH  37  39
HETATM   39  C8  UNL     1      32.771  37.449  40.921  1.00  0.00     0.190 A 
HETATM   40  N4  UNL     1      32.803  36.584  41.861  1.00  0.00    -0.360 N 
HETATM   41  C9  UNL     1      31.797  35.580  41.773  1.00  0.00     0.142 A 
ATOM     42  H4  UNL     1      33.492  36.612  42.613  1.00  0.00     0.162 HD
HETATM   43  C10 UNL     1      30.951  35.990  40.584  1.00  0.00     0.142 A 
HETATM   44  N5  UNL     1      31.687  37.116  40.063  1.00  0.00    -0.360 N 
ATOM     45  H5  UNL     1      31.461  37.606  39.197  1.00  0.00     0.162 HD
ENDBRANCH  37  39
ENDBRANCH   4  37
TORSDOF 9
ENDMDL
