MODEL 1
REMARK VINA RESULT: -6.488071920      0.000      0.000
REMARK  17 active torsions:
REMARK  status: ('A' for Active; 'I' for Inactive)
REMARK    1  A    between atoms: C2_2  and  N1_3 
REMARK    2  A    between atoms: N1_3  and  C3_4 
REMARK    3  A    between atoms: N1_3  and  C5_6 
REMARK    4  A    between atoms: C5_6  and  C6_7 
REMARK    5  A    between atoms: C6_7  and  O1_8 
REMARK    6  A    between atoms: C6_7  and  N2_10 
REMARK    7  A    between atoms: N2_10  and  C7_11 
REMARK    8  A    between atoms: N2_10  and  C13_19 
REMARK    9  A    between atoms: C7_11  and  C8_12 
REMARK   10  A    between atoms: C8_12  and  C9_13 
REMARK   11  A    between atoms: C9_13  and  O3_15 
REMARK   12  A    between atoms: O3_15  and  C10_16 
REMARK   13  A    between atoms: C13_19  and  N3_20 
REMARK   14  A    between atoms: C15_25  and  C16_26 
REMARK   15  A    between atoms: C19_29  and  O5_30 
REMARK   16  A    between atoms: C21_32  and  C23_34 
REMARK   17  A    between atoms: C31_42  and  C32_43 
ROOT
HETATM    1  N3  UNL     1      42.557  17.195  71.115  1.00  0.00    -0.183 N 
HETATM    2  O4  UNL     1      42.037  16.273  70.138  1.00  0.00    -0.209 OA
HETATM    3  C14 UNL     1      42.155  14.889  70.183  1.00  0.00     0.179 C 
HETATM    4  N4  UNL     1      40.918  14.459  69.992  1.00  0.00    -0.339 N 
ATOM      5  H4  UNL     1      40.211  15.172  69.816  1.00  0.00     0.167 HD
HETATM    6  C15 UNL     1      40.476  13.129  70.007  1.00  0.00     0.022 C 
HETATM    7  C19 UNL     1      41.362  12.024  69.442  1.00  0.00     0.179 C 
HETATM    8  C21 UNL     1      42.579  12.434  68.787  1.00  0.00     0.019 C 
HETATM    9  C22 UNL     1      43.211  11.140  68.134  1.00  0.00     0.024 C 
HETATM   10  C29 UNL     1      43.572  12.800  69.880  1.00  0.00     0.062 C 
HETATM   11  C30 UNL     1      43.375  14.114  70.519  1.00  0.00     0.019 C 
HETATM   12  C31 UNL     1      43.856  14.328  71.924  1.00  0.00     0.025 C 
HETATM   13  N5  UNL     1      43.661  15.459  72.454  1.00  0.00    -0.334 N 
ATOM     14  H5  UNL     1      44.056  15.404  73.393  1.00  0.00     0.168 HD
HETATM   15  C35 UNL     1      43.137  16.765  72.322  1.00  0.00     0.204 C 
HETATM   16  S1  UNL     1      43.321  17.811  73.511  1.00  0.00    -0.038 SA
ENDROOT
BRANCH   1  17
HETATM   17  C13 UNL     1      42.505  18.474  70.542  1.00  0.00     0.221 C 
BRANCH  17  18
HETATM   18  N2  UNL     1      41.757  18.913  69.452  1.00  0.00    -0.321 N 
BRANCH  18  19
HETATM   19  C6  UNL     1      40.409  19.022  69.304  1.00  0.00     0.153 C 
BRANCH  19  20
HETATM   20  C5  UNL     1      39.333  18.100  69.410  1.00  0.00     0.116 C 
BRANCH  20  21
HETATM   21  N1  UNL     1      37.980  18.633  69.511  1.00  0.00    -0.290 NA
BRANCH  21  22
HETATM   22  C2  UNL     1      37.112  17.821  68.606  1.00  0.00     0.090 C 
HETATM   23  C1  UNL     1      36.109  18.841  68.040  1.00  0.00     0.021 C 
ENDBRANCH  21  22
BRANCH  21  24
HETATM   24  C3  UNL     1      37.493  18.117  70.859  1.00  0.00     0.090 C 
HETATM   25  C4  UNL     1      38.153  16.893  71.308  1.00  0.00     0.021 C 
ENDBRANCH  21  24
ENDBRANCH  20  21
ENDBRANCH  19  20
BRANCH  19  26
HETATM   26  O1  UNL     1      40.147  20.283  68.885  1.00  0.00    -0.345 OA
ATOM     27  H1  UNL     1      39.661  20.862  69.459  1.00  0.00     0.219 HD
ENDBRANCH  19  26
ENDBRANCH  18  19
BRANCH  18  28
HETATM   28  C7  UNL     1      42.555  19.683  68.433  1.00  0.00     0.141 C 
BRANCH  28  29
HETATM   29  C8  UNL     1      42.975  18.450  67.542  1.00  0.00     0.131 C 
BRANCH  29  30
HETATM   30  C9  UNL     1      42.367  18.781  66.285  1.00  0.00     0.260 C 
HETATM   31  O2  UNL     1      43.055  18.590  65.227  1.00  0.00    -0.265 OA
BRANCH  30  32
HETATM   32  O3  UNL     1      41.078  19.259  66.192  1.00  0.00    -0.317 OA
BRANCH  32  33
HETATM   33  C10 UNL     1      40.093  18.603  65.472  1.00  0.00     0.123 C 
HETATM   34  C11 UNL     1      39.640  17.282  65.895  1.00  0.00     0.040 C 
HETATM   35  C12 UNL     1      38.853  19.548  65.518  1.00  0.00     0.040 C 
ENDBRANCH  32  33
ENDBRANCH  30  32
ENDBRANCH  29  30
ENDBRANCH  28  29
ENDBRANCH  18  28
ENDBRANCH  17  18
ENDBRANCH   1  17
BRANCH  12  36
HETATM   36  C32 UNL     1      44.426  13.269  72.746  1.00  0.00     0.028 C 
HETATM   37  C33 UNL     1      45.932  13.343  72.961  1.00  0.00     0.016 C 
HETATM   38  C34 UNL     1      43.681  13.127  74.086  1.00  0.00     0.016 C 
ENDBRANCH  12  36
BRANCH   6  39
HETATM   39  C16 UNL     1      39.041  12.976  69.565  1.00  0.00     0.026 C 
HETATM   40  C17 UNL     1      38.034  13.144  70.677  1.00  0.00     0.016 C 
HETATM   41  C18 UNL     1      38.714  14.241  68.681  1.00  0.00     0.016 C 
ENDBRANCH   6  39
BRANCH   7  42
HETATM   42  O5  UNL     1      40.492  11.142  68.765  1.00  0.00    -0.384 OA
HETATM   43  C20 UNL     1      40.002  10.085  69.440  1.00  0.00     0.202 C 
ENDBRANCH   7  42
BRANCH   8  44
HETATM   44  C23 UNL     1      42.558  13.292  67.623  1.00  0.00    -0.047 A 
HETATM   45  C24 UNL     1      43.454  14.290  67.460  1.00  0.00     0.008 A 
HETATM   46  C25 UNL     1      43.390  15.200  66.403  1.00  0.00     0.001 A 
HETATM   47  C26 UNL     1      42.410  15.028  65.452  1.00  0.00     0.000 A 
HETATM   48  C27 UNL     1      41.495  14.014  65.619  1.00  0.00     0.001 A 
HETATM   49  C28 UNL     1      41.541  13.165  66.721  1.00  0.00     0.008 A 
ENDBRANCH   8  44
TORSDOF 17
ENDMDL
MODEL 2
REMARK VINA RESULT: -6.258723099      2.516      5.382
REMARK  17 active torsions:
REMARK  status: ('A' for Active; 'I' for Inactive)
REMARK    1  A    between atoms: C2_2  and  N1_3 
REMARK    2  A    between atoms: N1_3  and  C3_4 
REMARK    3  A    between atoms: N1_3  and  C5_6 
REMARK    4  A    between atoms: C5_6  and  C6_7 
REMARK    5  A    between atoms: C6_7  and  O1_8 
REMARK    6  A    between atoms: C6_7  and  N2_10 
REMARK    7  A    between atoms: N2_10  and  C7_11 
REMARK    8  A    between atoms: N2_10  and  C13_19 
REMARK    9  A    between atoms: C7_11  and  C8_12 
REMARK   10  A    between atoms: C8_12  and  C9_13 
REMARK   11  A    between atoms: C9_13  and  O3_15 
REMARK   12  A    between atoms: O3_15  and  C10_16 
REMARK   13  A    between atoms: C13_19  and  N3_20 
REMARK   14  A    between atoms: C15_25  and  C16_26 
REMARK   15  A    between atoms: C19_29  and  O5_30 
REMARK   16  A    between atoms: C21_32  and  C23_34 
REMARK   17  A    between atoms: C31_42  and  C32_43 
ROOT
HETATM    1  N3  UNL     1      40.984  16.521  66.772  1.00  0.00    -0.183 N 
HETATM    2  O4  UNL     1      40.433  16.254  68.076  1.00  0.00    -0.209 OA
HETATM    3  C14 UNL     1      40.754  15.174  68.889  1.00  0.00     0.179 C 
HETATM    4  N4  UNL     1      41.028  15.728  70.059  1.00  0.00    -0.339 N 
ATOM      5  H4  UNL     1      40.904  16.739  70.124  1.00  0.00     0.167 HD
HETATM    6  C15 UNL     1      41.469  15.076  71.219  1.00  0.00     0.022 C 
HETATM    7  C19 UNL     1      40.941  13.688  71.562  1.00  0.00     0.179 C 
HETATM    8  C21 UNL     1      39.891  13.165  70.725  1.00  0.00     0.019 C 
HETATM    9  C22 UNL     1      39.395  11.819  71.393  1.00  0.00     0.024 C 
HETATM   10  C29 UNL     1      40.541  12.699  69.431  1.00  0.00     0.062 C 
HETATM   11  C30 UNL     1      40.894  13.758  68.468  1.00  0.00     0.019 C 
HETATM   12  C31 UNL     1      42.017  13.526  67.499  1.00  0.00     0.025 C 
HETATM   13  N5  UNL     1      42.310  14.456  66.695  1.00  0.00    -0.334 N 
ATOM     14  H5  UNL     1      43.084  14.108  66.128  1.00  0.00     0.168 HD
HETATM   15  C35 UNL     1      42.041  15.764  66.232  1.00  0.00     0.204 C 
HETATM   16  S1  UNL     1      42.857  16.346  64.993  1.00  0.00    -0.038 SA
ENDROOT
BRANCH   1  17
HETATM   17  C13 UNL     1      40.176  17.499  66.176  1.00  0.00     0.221 C 
BRANCH  17  18
HETATM   18  N2  UNL     1      39.652  18.660  66.739  1.00  0.00    -0.321 N 
BRANCH  18  19
HETATM   19  C6  UNL     1      40.247  19.598  67.523  1.00  0.00     0.153 C 
BRANCH  19  20
HETATM   20  C5  UNL     1      41.323  19.560  68.452  1.00  0.00     0.116 C 
BRANCH  20  21
HETATM   21  N1  UNL     1      42.608  20.110  68.036  1.00  0.00    -0.290 NA
BRANCH  21  22
HETATM   22  C2  UNL     1      43.241  20.725  69.241  1.00  0.00     0.090 C 
HETATM   23  C1  UNL     1      42.883  22.217  69.127  1.00  0.00     0.021 C 
ENDBRANCH  21  22
BRANCH  21  24
HETATM   24  C3  UNL     1      43.492  18.877  67.887  1.00  0.00     0.090 C 
HETATM   25  C4  UNL     1      43.499  17.999  69.055  1.00  0.00     0.021 C 
ENDBRANCH  21  24
ENDBRANCH  20  21
ENDBRANCH  19  20
BRANCH  19  26
HETATM   26  O1  UNL     1      39.546  20.748  67.387  1.00  0.00    -0.345 OA
ATOM     27  H1  UNL     1      38.839  20.778  66.754  1.00  0.00     0.219 HD
ENDBRANCH  19  26
ENDBRANCH  18  19
BRANCH  18  28
HETATM   28  C7  UNL     1      38.353  19.108  66.120  1.00  0.00     0.141 C 
BRANCH  28  29
HETATM   29  C8  UNL     1      37.452  17.946  66.695  1.00  0.00     0.131 C 
BRANCH  29  30
HETATM   30  C9  UNL     1      36.192  18.612  66.858  1.00  0.00     0.260 C 
HETATM   31  O2  UNL     1      35.325  18.469  65.933  1.00  0.00    -0.265 OA
BRANCH  30  32
HETATM   32  O3  UNL     1      35.890  19.357  67.977  1.00  0.00    -0.317 OA
BRANCH  32  33
HETATM   33  C10 UNL     1      36.301  18.988  69.247  1.00  0.00     0.123 C 
HETATM   34  C11 UNL     1      37.210  19.848  69.998  1.00  0.00     0.040 C 
HETATM   35  C12 UNL     1      34.990  18.868  70.084  1.00  0.00     0.040 C 
ENDBRANCH  32  33
ENDBRANCH  30  32
ENDBRANCH  29  30
ENDBRANCH  28  29
ENDBRANCH  18  28
ENDBRANCH  17  18
ENDBRANCH   1  17
BRANCH  12  36
HETATM   36  C32 UNL     1      42.860  12.338  67.518  1.00  0.00     0.028 C 
HETATM   37  C33 UNL     1      43.572  12.060  68.835  1.00  0.00     0.016 C 
HETATM   38  C34 UNL     1      42.099  11.094  67.025  1.00  0.00     0.016 C 
ENDBRANCH  12  36
BRANCH   6  39
HETATM   39  C16 UNL     1      41.502  15.978  72.430  1.00  0.00     0.026 C 
HETATM   40  C17 UNL     1      42.856  16.584  72.708  1.00  0.00     0.016 C 
HETATM   41  C18 UNL     1      40.678  17.266  72.044  1.00  0.00     0.016 C 
ENDBRANCH   6  39
BRANCH   7  42
HETATM   42  O5  UNL     1      40.759  13.681  72.963  1.00  0.00    -0.384 OA
HETATM   43  C20 UNL     1      41.590  12.930  73.710  1.00  0.00     0.202 C 
ENDBRANCH   7  42
BRANCH   8  44
HETATM   44  C23 UNL     1      38.618  13.840  70.598  1.00  0.00    -0.047 A 
HETATM   45  C24 UNL     1      38.154  14.668  71.560  1.00  0.00     0.008 A 
HETATM   46  C25 UNL     1      36.884  15.244  71.514  1.00  0.00     0.001 A 
HETATM   47  C26 UNL     1      36.100  15.009  70.407  1.00  0.00     0.000 A 
HETATM   48  C27 UNL     1      36.569  14.164  69.430  1.00  0.00     0.001 A 
HETATM   49  C28 UNL     1      37.812  13.547  69.535  1.00  0.00     0.008 A 
ENDBRANCH   8  44
TORSDOF 17
ENDMDL
MODEL 3
REMARK VINA RESULT: -6.154097822      3.125      6.513
REMARK  17 active torsions:
REMARK  status: ('A' for Active; 'I' for Inactive)
REMARK    1  A    between atoms: C2_2  and  N1_3 
REMARK    2  A    between atoms: N1_3  and  C3_4 
REMARK    3  A    between atoms: N1_3  and  C5_6 
REMARK    4  A    between atoms: C5_6  and  C6_7 
REMARK    5  A    between atoms: C6_7  and  O1_8 
REMARK    6  A    between atoms: C6_7  and  N2_10 
REMARK    7  A    between atoms: N2_10  and  C7_11 
REMARK    8  A    between atoms: N2_10  and  C13_19 
REMARK    9  A    between atoms: C7_11  and  C8_12 
REMARK   10  A    between atoms: C8_12  and  C9_13 
REMARK   11  A    between atoms: C9_13  and  O3_15 
REMARK   12  A    between atoms: O3_15  and  C10_16 
REMARK   13  A    between atoms: C13_19  and  N3_20 
REMARK   14  A    between atoms: C15_25  and  C16_26 
REMARK   15  A    between atoms: C19_29  and  O5_30 
REMARK   16  A    between atoms: C21_32  and  C23_34 
REMARK   17  A    between atoms: C31_42  and  C32_43 
ROOT
HETATM    1  N3  UNL     1      37.406  17.690  66.943  1.00  0.00    -0.183 N 
HETATM    2  O4  UNL     1      37.878  16.732  67.909  1.00  0.00    -0.209 OA
HETATM    3  C14 UNL     1      37.363  16.541  69.185  1.00  0.00     0.179 C 
HETATM    4  N4  UNL     1      37.165  15.235  69.255  1.00  0.00    -0.339 N 
ATOM      5  H4  UNL     1      37.457  14.686  68.446  1.00  0.00     0.167 HD
HETATM    6  C15 UNL     1      36.597  14.523  70.321  1.00  0.00     0.022 C 
HETATM    7  C19 UNL     1      36.875  14.951  71.758  1.00  0.00     0.179 C 
HETATM    8  C21 UNL     1      37.837  16.007  71.950  1.00  0.00     0.019 C 
HETATM    9  C22 UNL     1      38.084  16.130  73.507  1.00  0.00     0.024 C 
HETATM   10  C29 UNL     1      37.143  17.313  71.597  1.00  0.00     0.062 C 
HETATM   11  C30 UNL     1      36.992  17.598  70.159  1.00  0.00     0.019 C 
HETATM   12  C31 UNL     1      35.866  18.475  69.695  1.00  0.00     0.025 C 
HETATM   13  N5  UNL     1      35.750  18.691  68.456  1.00  0.00    -0.334 N 
ATOM     14  H5  UNL     1      34.940  19.300  68.347  1.00  0.00     0.168 HD
HETATM   15  C35 UNL     1      36.247  18.461  67.152  1.00  0.00     0.204 C 
HETATM   16  S1  UNL     1      35.565  19.189  65.909  1.00  0.00    -0.038 SA
ENDROOT
BRANCH   1  17
HETATM   17  C13 UNL     1      38.380  17.777  65.938  1.00  0.00     0.221 C 
BRANCH  17  18
HETATM   18  N2  UNL     1      39.568  18.505  65.934  1.00  0.00    -0.321 N 
BRANCH  18  19
HETATM   19  C6  UNL     1      40.088  19.334  66.878  1.00  0.00     0.153 C 
BRANCH  19  20
HETATM   20  C5  UNL     1      41.058  19.167  67.904  1.00  0.00     0.116 C 
BRANCH  20  21
HETATM   21  N1  UNL     1      42.308  19.909  67.794  1.00  0.00    -0.290 NA
BRANCH  21  22
HETATM   22  C2  UNL     1      42.776  20.202  69.182  1.00  0.00     0.090 C 
HETATM   23  C1  UNL     1      42.963  21.729  69.196  1.00  0.00     0.021 C 
ENDBRANCH  21  22
BRANCH  21  24
HETATM   24  C3  UNL     1      43.323  18.841  67.404  1.00  0.00     0.090 C 
HETATM   25  C4  UNL     1      43.907  18.126  68.536  1.00  0.00     0.021 C 
ENDBRANCH  21  24
ENDBRANCH  20  21
ENDBRANCH  19  20
BRANCH  19  26
HETATM   26  O1  UNL     1      39.419  20.509  66.800  1.00  0.00    -0.345 OA
ATOM     27  H1  UNL     1      39.606  21.093  66.075  1.00  0.00     0.219 HD
ENDBRANCH  19  26
ENDBRANCH  18  19
BRANCH  18  28
HETATM   28  C7  UNL     1      40.561  18.048  64.898  1.00  0.00     0.141 C 
BRANCH  28  29
HETATM   29  C8  UNL     1      40.004  16.582  64.726  1.00  0.00     0.131 C 
BRANCH  29  30
HETATM   30  C9  UNL     1      41.184  15.796  64.951  1.00  0.00     0.260 C 
HETATM   31  O2  UNL     1      41.480  14.913  64.078  1.00  0.00    -0.265 OA
BRANCH  30  32
HETATM   32  O3  UNL     1      42.003  15.989  66.042  1.00  0.00    -0.317 OA
BRANCH  32  33
HETATM   33  C10 UNL     1      41.790  15.349  67.251  1.00  0.00     0.123 C 
HETATM   34  C11 UNL     1      40.630  14.480  67.421  1.00  0.00     0.040 C 
HETATM   35  C12 UNL     1      43.057  14.468  67.477  1.00  0.00     0.040 C 
ENDBRANCH  32  33
ENDBRANCH  30  32
ENDBRANCH  29  30
ENDBRANCH  28  29
ENDBRANCH  18  28
ENDBRANCH  17  18
ENDBRANCH   1  17
BRANCH  12  36
HETATM   36  C32 UNL     1      34.833  18.990  70.585  1.00  0.00     0.028 C 
HETATM   37  C33 UNL     1      35.096  20.373  71.164  1.00  0.00     0.016 C 
HETATM   38  C34 UNL     1      33.438  18.914  69.939  1.00  0.00     0.016 C 
ENDBRANCH  12  36
BRANCH   6  39
HETATM   39  C16 UNL     1      36.694  13.026  70.154  1.00  0.00     0.026 C 
HETATM   40  C17 UNL     1      35.447  12.388  69.593  1.00  0.00     0.016 C 
HETATM   41  C18 UNL     1      37.707  12.779  68.971  1.00  0.00     0.016 C 
ENDBRANCH   6  39
BRANCH   7  42
HETATM   42  O5  UNL     1      37.026  13.755  72.493  1.00  0.00    -0.384 OA
HETATM   43  C20 UNL     1      36.067  13.424  73.378  1.00  0.00     0.202 C 
ENDBRANCH   7  42
BRANCH   8  44
HETATM   44  C23 UNL     1      39.209  15.869  71.511  1.00  0.00    -0.047 A 
HETATM   45  C24 UNL     1      39.803  14.660  71.405  1.00  0.00     0.008 A 
HETATM   46  C25 UNL     1      41.154  14.506  71.091  1.00  0.00     0.001 A 
HETATM   47  C26 UNL     1      41.892  15.634  70.812  1.00  0.00     0.000 A 
HETATM   48  C27 UNL     1      41.289  16.865  70.922  1.00  0.00     0.001 A 
HETATM   49  C28 UNL     1      39.958  16.993  71.306  1.00  0.00     0.008 A 
ENDBRANCH   8  44
TORSDOF 17
ENDMDL
MODEL 4
REMARK VINA RESULT: -6.134013065      2.487      6.473
REMARK  17 active torsions:
REMARK  status: ('A' for Active; 'I' for Inactive)
REMARK    1  A    between atoms: C2_2  and  N1_3 
REMARK    2  A    between atoms: N1_3  and  C3_4 
REMARK    3  A    between atoms: N1_3  and  C5_6 
REMARK    4  A    between atoms: C5_6  and  C6_7 
REMARK    5  A    between atoms: C6_7  and  O1_8 
REMARK    6  A    between atoms: C6_7  and  N2_10 
REMARK    7  A    between atoms: N2_10  and  C7_11 
REMARK    8  A    between atoms: N2_10  and  C13_19 
REMARK    9  A    between atoms: C7_11  and  C8_12 
REMARK   10  A    between atoms: C8_12  and  C9_13 
REMARK   11  A    between atoms: C9_13  and  O3_15 
REMARK   12  A    between atoms: O3_15  and  C10_16 
REMARK   13  A    between atoms: C13_19  and  N3_20 
REMARK   14  A    between atoms: C15_25  and  C16_26 
REMARK   15  A    between atoms: C19_29  and  O5_30 
REMARK   16  A    between atoms: C21_32  and  C23_34 
REMARK   17  A    between atoms: C31_42  and  C32_43 
ROOT
HETATM    1  N3  UNL     1      39.741  19.120  68.600  1.00  0.00    -0.183 N 
HETATM    2  O4  UNL     1      39.820  17.928  69.404  1.00  0.00    -0.209 OA
HETATM    3  C14 UNL     1      38.764  17.335  70.085  1.00  0.00     0.179 C 
HETATM    4  N4  UNL     1      38.826  16.064  69.720  1.00  0.00    -0.339 N 
ATOM      5  H4  UNL     1      39.601  15.803  69.110  1.00  0.00     0.167 HD
HETATM    6  C15 UNL     1      37.941  15.038  70.081  1.00  0.00     0.022 C 
HETATM    7  C19 UNL     1      37.334  15.011  71.479  1.00  0.00     0.179 C 
HETATM    8  C21 UNL     1      37.819  15.990  72.420  1.00  0.00     0.019 C 
HETATM    9  C22 UNL     1      37.184  15.635  73.824  1.00  0.00     0.024 C 
HETATM   10  C29 UNL     1      37.165  17.316  72.061  1.00  0.00     0.062 C 
HETATM   11  C30 UNL     1      37.736  18.025  70.902  1.00  0.00     0.019 C 
HETATM   12  C31 UNL     1      36.869  18.961  70.112  1.00  0.00     0.025 C 
HETATM   13  N5  UNL     1      37.378  19.545  69.113  1.00  0.00    -0.334 N 
ATOM     14  H5  UNL     1      36.641  20.129  68.718  1.00  0.00     0.168 HD
HETATM   15  C35 UNL     1      38.517  19.747  68.300  1.00  0.00     0.204 C 
HETATM   16  S1  UNL     1      38.456  20.798  67.104  1.00  0.00    -0.038 SA
ENDROOT
BRANCH   1  17
HETATM   17  C13 UNL     1      41.056  19.548  68.366  1.00  0.00     0.221 C 
BRANCH  17  18
HETATM   18  N2  UNL     1      42.134  18.822  67.865  1.00  0.00    -0.321 N 
BRANCH  18  19
HETATM   19  C6  UNL     1      42.528  18.617  66.579  1.00  0.00     0.153 C 
BRANCH  19  20
HETATM   20  C5  UNL     1      42.136  17.698  65.568  1.00  0.00     0.116 C 
BRANCH  20  21
HETATM   21  N1  UNL     1      41.135  16.693  65.905  1.00  0.00    -0.290 NA
BRANCH  21  22
HETATM   22  C2  UNL     1      39.853  17.107  65.260  1.00  0.00     0.090 C 
HETATM   23  C1  UNL     1      38.769  16.571  66.211  1.00  0.00     0.021 C 
ENDBRANCH  21  22
BRANCH  21  24
HETATM   24  C3  UNL     1      41.499  15.513  65.010  1.00  0.00     0.090 C 
HETATM   25  C4  UNL     1      41.588  14.234  65.710  1.00  0.00     0.021 C 
ENDBRANCH  21  24
ENDBRANCH  20  21
ENDBRANCH  19  20
BRANCH  19  26
HETATM   26  O1  UNL     1      43.569  19.448  66.336  1.00  0.00    -0.345 OA
ATOM     27  H1  UNL     1      44.012  19.851  67.072  1.00  0.00     0.219 HD
ENDBRANCH  19  26
ENDBRANCH  18  19
BRANCH  18  28
HETATM   28  C7  UNL     1      43.190  18.507  68.892  1.00  0.00     0.141 C 
BRANCH  28  29
HETATM   29  C8  UNL     1      42.793  16.997  69.123  1.00  0.00     0.131 C 
BRANCH  29  30
HETATM   30  C9  UNL     1      44.034  16.327  68.857  1.00  0.00     0.260 C 
HETATM   31  O2  UNL     1      45.110  16.995  69.010  1.00  0.00    -0.265 OA
BRANCH  30  32
HETATM   32  O3  UNL     1      44.091  15.003  68.478  1.00  0.00    -0.317 OA
BRANCH  32  33
HETATM   33  C10 UNL     1      43.412  14.007  69.159  1.00  0.00     0.123 C 
HETATM   34  C11 UNL     1      43.389  12.648  68.629  1.00  0.00     0.040 C 
HETATM   35  C12 UNL     1      44.085  13.939  70.565  1.00  0.00     0.040 C 
ENDBRANCH  32  33
ENDBRANCH  30  32
ENDBRANCH  29  30
ENDBRANCH  28  29
ENDBRANCH  18  28
ENDBRANCH  17  18
ENDBRANCH   1  17
BRANCH  12  36
HETATM   36  C32 UNL     1      35.445  19.139  70.363  1.00  0.00     0.028 C 
HETATM   37  C33 UNL     1      35.070  20.373  71.172  1.00  0.00     0.016 C 
HETATM   38  C34 UNL     1      34.624  19.058  69.063  1.00  0.00     0.016 C 
ENDBRANCH  12  36
BRANCH   6  39
HETATM   39  C16 UNL     1      38.410  13.671  69.647  1.00  0.00     0.026 C 
HETATM   40  C17 UNL     1      37.581  13.057  68.545  1.00  0.00     0.016 C 
HETATM   41  C18 UNL     1      39.779  13.891  68.896  1.00  0.00     0.016 C 
ENDBRANCH   6  39
BRANCH   7  42
HETATM   42  O5  UNL     1      37.315  13.652  71.864  1.00  0.00    -0.384 OA
HETATM   43  C20 UNL     1      36.121  13.057  72.043  1.00  0.00     0.202 C 
ENDBRANCH   7  42
BRANCH   8  44
HETATM   44  C23 UNL     1      39.212  16.044  72.805  1.00  0.00    -0.047 A 
HETATM   45  C24 UNL     1      40.029  14.976  72.668  1.00  0.00     0.008 A 
HETATM   46  C25 UNL     1      41.345  14.966  73.132  1.00  0.00     0.001 A 
HETATM   47  C26 UNL     1      41.848  16.118  73.692  1.00  0.00     0.000 A 
HETATM   48  C27 UNL     1      41.017  17.204  73.835  1.00  0.00     0.001 A 
HETATM   49  C28 UNL     1      39.687  17.163  73.427  1.00  0.00     0.008 A 
ENDBRANCH   8  44
TORSDOF 17
ENDMDL
MODEL 5
REMARK VINA RESULT: -5.987077218      2.637      7.054
REMARK  17 active torsions:
REMARK  status: ('A' for Active; 'I' for Inactive)
REMARK    1  A    between atoms: C2_2  and  N1_3 
REMARK    2  A    between atoms: N1_3  and  C3_4 
REMARK    3  A    between atoms: N1_3  and  C5_6 
REMARK    4  A    between atoms: C5_6  and  C6_7 
REMARK    5  A    between atoms: C6_7  and  O1_8 
REMARK    6  A    between atoms: C6_7  and  N2_10 
REMARK    7  A    between atoms: N2_10  and  C7_11 
REMARK    8  A    between atoms: N2_10  and  C13_19 
REMARK    9  A    between atoms: C7_11  and  C8_12 
REMARK   10  A    between atoms: C8_12  and  C9_13 
REMARK   11  A    between atoms: C9_13  and  O3_15 
REMARK   12  A    between atoms: O3_15  and  C10_16 
REMARK   13  A    between atoms: C13_19  and  N3_20 
REMARK   14  A    between atoms: C15_25  and  C16_26 
REMARK   15  A    between atoms: C19_29  and  O5_30 
REMARK   16  A    between atoms: C21_32  and  C23_34 
REMARK   17  A    between atoms: C31_42  and  C32_43 
ROOT
HETATM    1  N3  UNL     1      39.495  18.716  68.275  1.00  0.00    -0.183 N 
HETATM    2  O4  UNL     1      39.264  17.760  69.328  1.00  0.00    -0.209 OA
HETATM    3  C14 UNL     1      38.034  17.217  69.679  1.00  0.00     0.179 C 
HETATM    4  N4  UNL     1      38.261  15.914  69.709  1.00  0.00    -0.339 N 
ATOM      5  H4  UNL     1      39.220  15.614  69.536  1.00  0.00     0.167 HD
HETATM    6  C15 UNL     1      37.324  14.900  69.955  1.00  0.00     0.022 C 
HETATM    7  C19 UNL     1      36.206  15.124  70.967  1.00  0.00     0.179 C 
HETATM    8  C21 UNL     1      36.253  16.344  71.733  1.00  0.00     0.019 C 
HETATM    9  C22 UNL     1      35.113  16.250  72.825  1.00  0.00     0.024 C 
HETATM   10  C29 UNL     1      35.776  17.463  70.819  1.00  0.00     0.062 C 
HETATM   11  C30 UNL     1      36.752  17.949  69.827  1.00  0.00     0.019 C 
HETATM   12  C31 UNL     1      36.260  18.565  68.551  1.00  0.00     0.025 C 
HETATM   13  N5  UNL     1      37.118  18.960  67.710  1.00  0.00    -0.334 N 
ATOM     14  H5  UNL     1      36.591  19.344  66.925  1.00  0.00     0.168 HD
HETATM   15  C35 UNL     1      38.484  19.104  67.376  1.00  0.00     0.204 C 
HETATM   16  S1  UNL     1      38.890  19.835  66.020  1.00  0.00    -0.038 SA
ENDROOT
BRANCH   1  17
HETATM   17  C13 UNL     1      40.784  19.233  68.463  1.00  0.00     0.221 C 
BRANCH  17  18
HETATM   18  N2  UNL     1      42.008  18.684  68.085  1.00  0.00    -0.321 N 
BRANCH  18  19
HETATM   19  C6  UNL     1      42.613  18.650  66.868  1.00  0.00     0.153 C 
BRANCH  19  20
HETATM   20  C5  UNL     1      42.511  17.783  65.746  1.00  0.00     0.116 C 
BRANCH  20  21
HETATM   21  N1  UNL     1      41.221  17.159  65.477  1.00  0.00    -0.290 NA
BRANCH  21  22
HETATM   22  C2  UNL     1      41.238  16.697  64.056  1.00  0.00     0.090 C 
HETATM   23  C1  UNL     1      42.310  15.593  64.038  1.00  0.00     0.021 C 
ENDBRANCH  21  22
BRANCH  21  24
HETATM   24  C3  UNL     1      41.324  15.812  66.182  1.00  0.00     0.090 C 
HETATM   25  C4  UNL     1      40.079  15.361  66.800  1.00  0.00     0.021 C 
ENDBRANCH  21  24
ENDBRANCH  20  21
ENDBRANCH  19  20
BRANCH  19  26
HETATM   26  O1  UNL     1      43.548  19.629  66.851  1.00  0.00    -0.345 OA
ATOM     27  H1  UNL     1      44.387  19.451  66.444  1.00  0.00     0.219 HD
ENDBRANCH  19  26
ENDBRANCH  18  19
BRANCH  18  28
HETATM   28  C7  UNL     1      42.929  18.392  69.241  1.00  0.00     0.141 C 
BRANCH  28  29
HETATM   29  C8  UNL     1      42.625  16.847  69.348  1.00  0.00     0.131 C 
BRANCH  29  30
HETATM   30  C9  UNL     1      43.888  16.277  68.978  1.00  0.00     0.260 C 
HETATM   31  O2  UNL     1      44.937  16.967  69.207  1.00  0.00    -0.265 OA
BRANCH  30  32
HETATM   32  O3  UNL     1      43.997  15.020  68.424  1.00  0.00    -0.317 OA
BRANCH  32  33
HETATM   33  C10 UNL     1      43.218  13.955  68.844  1.00  0.00     0.123 C 
HETATM   34  C11 UNL     1      43.076  12.777  67.995  1.00  0.00     0.040 C 
HETATM   35  C12 UNL     1      43.863  13.477  70.182  1.00  0.00     0.040 C 
ENDBRANCH  32  33
ENDBRANCH  30  32
ENDBRANCH  29  30
ENDBRANCH  28  29
ENDBRANCH  18  28
ENDBRANCH  17  18
ENDBRANCH   1  17
BRANCH  12  36
HETATM   36  C32 UNL     1      34.852  18.624  68.179  1.00  0.00     0.028 C 
HETATM   37  C33 UNL     1      33.946  19.364  69.154  1.00  0.00     0.016 C 
HETATM   38  C34 UNL     1      34.665  19.145  66.743  1.00  0.00     0.016 C 
ENDBRANCH  12  36
BRANCH   6  39
HETATM   39  C16 UNL     1      37.952  13.536  70.107  1.00  0.00     0.026 C 
HETATM   40  C17 UNL     1      37.851  12.672  68.874  1.00  0.00     0.016 C 
HETATM   41  C18 UNL     1      39.510  13.772  70.173  1.00  0.00     0.016 C 
ENDBRANCH   6  39
BRANCH   7  42
HETATM   42  O5  UNL     1      36.058  13.898  71.654  1.00  0.00    -0.384 OA
HETATM   43  C20 UNL     1      34.941  13.178  71.440  1.00  0.00     0.202 C 
ENDBRANCH   7  42
BRANCH   8  44
HETATM   44  C23 UNL     1      37.372  16.653  72.596  1.00  0.00    -0.047 A 
HETATM   45  C24 UNL     1      38.216  15.694  73.035  1.00  0.00     0.008 A 
HETATM   46  C25 UNL     1      39.235  15.946  73.954  1.00  0.00     0.001 A 
HETATM   47  C26 UNL     1      39.427  17.242  74.377  1.00  0.00     0.000 A 
HETATM   48  C27 UNL     1      38.567  18.218  73.933  1.00  0.00     0.001 A 
HETATM   49  C28 UNL     1      37.515  17.925  73.071  1.00  0.00     0.008 A 
ENDBRANCH   8  44
TORSDOF 17
ENDMDL
