MODEL 1
REMARK VINA RESULT: -7.282117814      0.000      0.000
REMARK  9 active torsions:
REMARK  status: ('A' for Active; 'I' for Inactive)
REMARK    1  A    between atoms: N3_4  and  C2_6 
REMARK    2  A    between atoms: C2_6  and  C3_7 
REMARK    3  A    between atoms: C3_7  and  N4_8 
REMARK       I    between atoms: N4_8  and  C4_10 
REMARK    4  A    between atoms: N6_12  and  C5_14 
REMARK    5  A    between atoms: C5_14  and  C6_16 
REMARK    6  A    between atoms: C6_16  and  C7_17 
REMARK    7  A    between atoms: C7_17  and  C8_18 
REMARK    8  A    between atoms: C8_18  and  N7_19 
REMARK    9  A    between atoms: N7_19  and  C9_22 
ROOT
HETATM    1  N4  UNL     1      17.269   9.926   8.051  1.00  0.00    -0.363 N 
ATOM      2  H4  UNL     1      17.161  10.656   7.347  1.00  0.00     0.162 HD
HETATM    3  C4  UNL     1      16.278   9.680   9.019  1.00  0.00     0.189 C 
HETATM    4  N5  UNL     1      15.460   8.553   8.920  1.00  0.00    -0.064 NA
HETATM    5  N6  UNL     1      16.129  10.503   9.994  1.00  0.00    -0.325 N 
ATOM      6  H6  UNL     1      16.744  11.316  10.026  1.00  0.00     0.169 HD
ENDROOT
BRANCH   5   7
HETATM    7  C5  UNL     1      15.187  10.361  11.010  1.00  0.00     0.079 C 
HETATM    8  S1  UNL     1      15.704   9.661  12.417  1.00  0.00    -0.065 SA
BRANCH   7   9
HETATM    9  C6  UNL     1      13.770  10.811  10.901  1.00  0.00     0.071 C 
BRANCH   9  10
HETATM   10  C7  UNL     1      13.625  12.159  11.593  1.00  0.00     0.034 C 
BRANCH  10  11
HETATM   11  C8  UNL     1      12.408  12.192  12.441  1.00  0.00     0.233 C 
BRANCH  11  12
HETATM   12  N7  UNL     1      12.442  11.171  13.431  1.00  0.00    -0.071 N 
ATOM     13  H72 UNL     1      11.499  10.838  13.631  1.00  0.00     0.277 HD
ATOM     14  H71 UNL     1      12.851  10.318  13.049  1.00  0.00     0.277 HD
BRANCH  12  15
HETATM   15  C9  UNL     1      13.110  11.545  14.649  1.00  0.00     0.185 C 
HETATM   16  C10 UNL     1      12.371  12.483  15.529  1.00  0.00     0.033 C 
HETATM   17  C11 UNL     1      12.125  11.772  16.840  1.00  0.00     0.002 C 
HETATM   18  C12 UNL     1      13.041  10.591  16.888  1.00  0.00     0.002 C 
HETATM   19  C13 UNL     1      13.547  10.352  15.489  1.00  0.00     0.033 C 
ENDBRANCH  12  15
ENDBRANCH  11  12
ENDBRANCH  10  11
ENDBRANCH   9  10
ENDBRANCH   7   9
ENDBRANCH   5   7
BRANCH   1  20
HETATM   20  C3  UNL     1      18.463   9.083   8.106  1.00  0.00     0.142 C 
BRANCH  20  21
HETATM   21  C2  UNL     1      18.433   8.220   6.854  1.00  0.00     0.141 C 
BRANCH  21  22
HETATM   22  N3  UNL     1      17.951   6.868   7.185  1.00  0.00    -0.365 N 
HETATM   23  C1  UNL     1      16.889   6.513   6.515  1.00  0.00     0.197 C 
HETATM   24  N1  UNL     1      16.357   5.209   6.783  1.00  0.00    -0.067 NA
HETATM   25  N2  UNL     1      16.262   7.339   5.558  1.00  0.00    -0.067 NA
ATOM     26  H3  UNL     1      18.405   6.266   7.872  1.00  0.00     0.161 HD
ENDBRANCH  21  22
ENDBRANCH  20  21
ENDBRANCH   1  20
TORSDOF 9
ENDMDL
MODEL 2
REMARK VINA RESULT: -7.209690586      1.818      8.583
REMARK  9 active torsions:
REMARK  status: ('A' for Active; 'I' for Inactive)
REMARK    1  A    between atoms: N3_4  and  C2_6 
REMARK    2  A    between atoms: C2_6  and  C3_7 
REMARK    3  A    between atoms: C3_7  and  N4_8 
REMARK       I    between atoms: N4_8  and  C4_10 
REMARK    4  A    between atoms: N6_12  and  C5_14 
REMARK    5  A    between atoms: C5_14  and  C6_16 
REMARK    6  A    between atoms: C6_16  and  C7_17 
REMARK    7  A    between atoms: C7_17  and  C8_18 
REMARK    8  A    between atoms: C8_18  and  N7_19 
REMARK    9  A    between atoms: N7_19  and  C9_22 
ROOT
HETATM    1  N4  UNL     1      14.430  11.863  11.367  1.00  0.00    -0.363 N 
ATOM      2  H4  UNL     1      14.911  12.731  11.596  1.00  0.00     0.162 HD
HETATM    3  C4  UNL     1      15.136  10.671  11.117  1.00  0.00     0.189 C 
HETATM    4  N5  UNL     1      15.152   9.648  12.066  1.00  0.00    -0.064 NA
HETATM    5  N6  UNL     1      15.767  10.533  10.007  1.00  0.00    -0.325 N 
ATOM      6  H6  UNL     1      15.734  11.307   9.343  1.00  0.00     0.169 HD
ENDROOT
BRANCH   5   7
HETATM    7  C5  UNL     1      16.494   9.401   9.648  1.00  0.00     0.079 C 
HETATM    8  S1  UNL     1      18.129   9.453   9.890  1.00  0.00    -0.065 SA
BRANCH   7   9
HETATM    9  C6  UNL     1      15.884   8.165   9.079  1.00  0.00     0.071 C 
BRANCH   9  10
HETATM   10  C7  UNL     1      16.451   6.954   9.808  1.00  0.00     0.034 C 
BRANCH  10  11
HETATM   11  C8  UNL     1      16.797   5.873   8.853  1.00  0.00     0.233 C 
BRANCH  11  12
HETATM   12  N7  UNL     1      18.132   6.011   8.380  1.00  0.00    -0.071 N 
ATOM     13  H72 UNL     1      18.614   6.752   8.888  1.00  0.00     0.277 HD
ATOM     14  H71 UNL     1      18.695   5.210   8.665  1.00  0.00     0.277 HD
BRANCH  12  15
HETATM   15  C9  UNL     1      18.242   6.221   6.962  1.00  0.00     0.185 C 
HETATM   16  C10 UNL     1      17.035   5.890   6.164  1.00  0.00     0.033 C 
HETATM   17  C11 UNL     1      16.572   7.163   5.496  1.00  0.00     0.002 C 
HETATM   18  C12 UNL     1      17.700   8.143   5.568  1.00  0.00     0.002 C 
HETATM   19  C13 UNL     1      18.679   7.634   6.593  1.00  0.00     0.033 C 
ENDBRANCH  12  15
ENDBRANCH  11  12
ENDBRANCH  10  11
ENDBRANCH   9  10
ENDBRANCH   7   9
ENDBRANCH   5   7
BRANCH   1  20
HETATM   20  C3  UNL     1      12.972  11.792  11.283  1.00  0.00     0.142 C 
BRANCH  20  21
HETATM   21  C2  UNL     1      12.445  12.186  12.655  1.00  0.00     0.141 C 
BRANCH  21  22
HETATM   22  N3  UNL     1      12.703  11.107  13.622  1.00  0.00    -0.365 N 
HETATM   23  C1  UNL     1      13.149  11.532  14.773  1.00  0.00     0.197 C 
HETATM   24  N1  UNL     1      13.427  10.539  15.770  1.00  0.00    -0.067 NA
HETATM   25  N2  UNL     1      13.360  12.895  15.069  1.00  0.00    -0.067 NA
ATOM     26  H3  UNL     1      12.547  10.121  13.414  1.00  0.00     0.161 HD
ENDBRANCH  21  22
ENDBRANCH  20  21
ENDBRANCH   1  20
TORSDOF 9
ENDMDL
MODEL 3
REMARK VINA RESULT: -7.133607044      3.697      6.931
REMARK  9 active torsions:
REMARK  status: ('A' for Active; 'I' for Inactive)
REMARK    1  A    between atoms: N3_4  and  C2_6 
REMARK    2  A    between atoms: C2_6  and  C3_7 
REMARK    3  A    between atoms: C3_7  and  N4_8 
REMARK       I    between atoms: N4_8  and  C4_10 
REMARK    4  A    between atoms: N6_12  and  C5_14 
REMARK    5  A    between atoms: C5_14  and  C6_16 
REMARK    6  A    between atoms: C6_16  and  C7_17 
REMARK    7  A    between atoms: C7_17  and  C8_18 
REMARK    8  A    between atoms: C8_18  and  N7_19 
REMARK    9  A    between atoms: N7_19  and  C9_22 
ROOT
HETATM    1  N4  UNL     1      17.468   8.683  10.402  1.00  0.00    -0.363 N 
ATOM      2  H4  UNL     1      17.575   8.027  11.174  1.00  0.00     0.162 HD
HETATM    3  C4  UNL     1      16.930   8.285   9.164  1.00  0.00     0.189 C 
HETATM    4  N5  UNL     1      15.635   8.662   8.804  1.00  0.00    -0.064 NA
HETATM    5  N6  UNL     1      17.640   7.570   8.368  1.00  0.00    -0.325 N 
ATOM      6  H6  UNL     1      18.579   7.313   8.671  1.00  0.00     0.169 HD
ENDROOT
BRANCH   5   7
HETATM    7  C5  UNL     1      17.216   7.123   7.118  1.00  0.00     0.079 C 
HETATM    8  S1  UNL     1      17.744   7.971   5.801  1.00  0.00    -0.065 SA
BRANCH   7   9
HETATM    9  C6  UNL     1      16.338   5.935   6.913  1.00  0.00     0.071 C 
BRANCH   9  10
HETATM   10  C7  UNL     1      16.746   4.844   7.894  1.00  0.00     0.034 C 
BRANCH  10  11
HETATM   11  C8  UNL     1      15.722   4.675   8.954  1.00  0.00     0.233 C 
BRANCH  11  12
HETATM   12  N7  UNL     1      15.958   3.496   9.715  1.00  0.00    -0.071 N 
ATOM     13  H72 UNL     1      15.157   2.869   9.656  1.00  0.00     0.277 HD
ATOM     14  H71 UNL     1      16.667   2.917   9.264  1.00  0.00     0.277 HD
BRANCH  12  15
HETATM   15  C9  UNL     1      16.307   3.736  11.090  1.00  0.00     0.185 C 
HETATM   16  C10 UNL     1      16.354   5.159  11.505  1.00  0.00     0.033 C 
HETATM   17  C11 UNL     1      15.314   5.349  12.584  1.00  0.00     0.002 C 
HETATM   18  C12 UNL     1      14.932   3.991  13.083  1.00  0.00     0.002 C 
HETATM   19  C13 UNL     1      15.422   2.984  12.076  1.00  0.00     0.033 C 
ENDBRANCH  12  15
ENDBRANCH  11  12
ENDBRANCH  10  11
ENDBRANCH   9  10
ENDBRANCH   7   9
ENDBRANCH   5   7
BRANCH   1  20
HETATM   20  C3  UNL     1      17.866  10.085  10.525  1.00  0.00     0.142 C 
BRANCH  20  21
HETATM   21  C2  UNL     1      16.934  10.704  11.556  1.00  0.00     0.141 C 
BRANCH  21  22
HETATM   22  N3  UNL     1      15.681  11.130  10.911  1.00  0.00    -0.365 N 
HETATM   23  C1  UNL     1      14.609  10.761  11.555  1.00  0.00     0.197 C 
HETATM   24  N1  UNL     1      13.347  11.137  10.989  1.00  0.00    -0.067 NA
HETATM   25  N2  UNL     1      14.641  10.027  12.760  1.00  0.00    -0.067 NA
ATOM     26  H3  UNL     1      15.654  11.665  10.042  1.00  0.00     0.161 HD
ENDBRANCH  21  22
ENDBRANCH  20  21
ENDBRANCH   1  20
TORSDOF 9
ENDMDL
MODEL 4
REMARK VINA RESULT: -7.075420535      3.562      6.776
REMARK  9 active torsions:
REMARK  status: ('A' for Active; 'I' for Inactive)
REMARK    1  A    between atoms: N3_4  and  C2_6 
REMARK    2  A    between atoms: C2_6  and  C3_7 
REMARK    3  A    between atoms: C3_7  and  N4_8 
REMARK       I    between atoms: N4_8  and  C4_10 
REMARK    4  A    between atoms: N6_12  and  C5_14 
REMARK    5  A    between atoms: C5_14  and  C6_16 
REMARK    6  A    between atoms: C6_16  and  C7_17 
REMARK    7  A    between atoms: C7_17  and  C8_18 
REMARK    8  A    between atoms: C8_18  and  N7_19 
REMARK    9  A    between atoms: N7_19  and  C9_22 
ROOT
HETATM    1  N4  UNL     1      17.058  10.745  10.701  1.00  0.00    -0.363 N 
ATOM      2  H4  UNL     1      17.001  11.692  10.328  1.00  0.00     0.162 HD
HETATM    3  C4  UNL     1      17.331   9.641   9.873  1.00  0.00     0.189 C 
HETATM    4  N5  UNL     1      18.585   9.028   9.906  1.00  0.00    -0.064 NA
HETATM    5  N6  UNL     1      16.418   9.202   9.084  1.00  0.00    -0.325 N 
ATOM      6  H6  UNL     1      15.518   9.681   9.087  1.00  0.00     0.169 HD
ENDROOT
BRANCH   5   7
HETATM    7  C5  UNL     1      16.572   8.116   8.224  1.00  0.00     0.079 C 
HETATM    8  S1  UNL     1      17.523   8.347   6.891  1.00  0.00    -0.065 SA
BRANCH   7   9
HETATM    9  C6  UNL     1      15.946   6.782   8.447  1.00  0.00     0.071 C 
BRANCH   9  10
HETATM   10  C7  UNL     1      16.886   5.703   7.928  1.00  0.00     0.034 C 
BRANCH  10  11
HETATM   11  C8  UNL     1      17.210   4.723   8.994  1.00  0.00     0.233 C 
BRANCH  11  12
HETATM   12  N7  UNL     1      16.064   4.422   9.782  1.00  0.00    -0.071 N 
ATOM     13  H72 UNL     1      15.324   5.102   9.608  1.00  0.00     0.277 HD
ATOM     14  H71 UNL     1      15.608   3.577   9.439  1.00  0.00     0.277 HD
BRANCH  12  15
HETATM   15  C9  UNL     1      16.324   4.315  11.192  1.00  0.00     0.185 C 
HETATM   16  C10 UNL     1      16.216   5.575  11.967  1.00  0.00     0.033 C 
HETATM   17  C11 UNL     1      15.113   5.388  12.982  1.00  0.00     0.002 C 
HETATM   18  C12 UNL     1      14.839   3.921  13.082  1.00  0.00     0.002 C 
HETATM   19  C13 UNL     1      15.469   3.260  11.885  1.00  0.00     0.033 C 
ENDBRANCH  12  15
ENDBRANCH  11  12
ENDBRANCH  10  11
ENDBRANCH   9  10
ENDBRANCH   7   9
ENDBRANCH   5   7
BRANCH   1  20
HETATM   20  C3  UNL     1      16.859  10.466  12.123  1.00  0.00     0.142 C 
BRANCH  20  21
HETATM   21  C2  UNL     1      15.442   9.929  12.258  1.00  0.00     0.141 C 
BRANCH  21  22
HETATM   22  N3  UNL     1      14.487  11.045  12.356  1.00  0.00    -0.365 N 
HETATM   23  C1  UNL     1      13.724  11.174  11.306  1.00  0.00     0.197 C 
HETATM   24  N1  UNL     1      12.767  12.242  11.324  1.00  0.00    -0.067 NA
HETATM   25  N2  UNL     1      13.798  10.323  10.183  1.00  0.00    -0.067 NA
ATOM     26  H3  UNL     1      14.427  11.659  13.169  1.00  0.00     0.161 HD
ENDBRANCH  21  22
ENDBRANCH  20  21
ENDBRANCH   1  20
TORSDOF 9
ENDMDL
MODEL 5
REMARK VINA RESULT: -7.032762952      1.927      9.382
REMARK  9 active torsions:
REMARK  status: ('A' for Active; 'I' for Inactive)
REMARK    1  A    between atoms: N3_4  and  C2_6 
REMARK    2  A    between atoms: C2_6  and  C3_7 
REMARK    3  A    between atoms: C3_7  and  N4_8 
REMARK       I    between atoms: N4_8  and  C4_10 
REMARK    4  A    between atoms: N6_12  and  C5_14 
REMARK    5  A    between atoms: C5_14  and  C6_16 
REMARK    6  A    between atoms: C6_16  and  C7_17 
REMARK    7  A    between atoms: C7_17  and  C8_18 
REMARK    8  A    between atoms: C8_18  and  N7_19 
REMARK    9  A    between atoms: N7_19  and  C9_22 
ROOT
HETATM    1  N4  UNL     1      14.679  11.705  11.552  1.00  0.00    -0.363 N 
ATOM      2  H4  UNL     1      14.430  12.592  11.115  1.00  0.00     0.162 HD
HETATM    3  C4  UNL     1      15.706  10.892  11.038  1.00  0.00     0.189 C 
HETATM    4  N5  UNL     1      16.936  10.811  11.694  1.00  0.00    -0.064 NA
HETATM    5  N6  UNL     1      15.503  10.225   9.960  1.00  0.00    -0.325 N 
ATOM      6  H6  UNL     1      14.593  10.316   9.510  1.00  0.00     0.169 HD
ENDROOT
BRANCH   5   7
HETATM    7  C5  UNL     1      16.442   9.387   9.362  1.00  0.00     0.079 C 
HETATM    8  S1  UNL     1      16.421   7.796   9.817  1.00  0.00    -0.065 SA
BRANCH   7   9
HETATM    9  C6  UNL     1      17.435   9.838   8.346  1.00  0.00     0.071 C 
BRANCH   9  10
HETATM   10  C7  UNL     1      17.973   8.620   7.607  1.00  0.00     0.034 C 
BRANCH  10  11
HETATM   11  C8  UNL     1      17.948   8.836   6.139  1.00  0.00     0.233 C 
BRANCH  11  12
HETATM   12  N7  UNL     1      17.419   7.704   5.460  1.00  0.00    -0.071 N 
ATOM     13  H72 UNL     1      16.406   7.781   5.375  1.00  0.00     0.277 HD
ATOM     14  H71 UNL     1      17.679   7.727   4.474  1.00  0.00     0.277 HD
BRANCH  12  15
HETATM   15  C9  UNL     1      17.778   6.439   6.044  1.00  0.00     0.185 C 
HETATM   16  C10 UNL     1      16.684   5.444   6.151  1.00  0.00     0.033 C 
HETATM   17  C11 UNL     1      17.077   4.248   5.315  1.00  0.00     0.002 C 
HETATM   18  C12 UNL     1      18.543   4.357   5.039  1.00  0.00     0.002 C 
HETATM   19  C13 UNL     1      18.960   5.770   5.353  1.00  0.00     0.033 C 
ENDBRANCH  12  15
ENDBRANCH  11  12
ENDBRANCH  10  11
ENDBRANCH   9  10
ENDBRANCH   7   9
ENDBRANCH   5   7
BRANCH   1  20
HETATM   20  C3  UNL     1      13.986  11.214  12.743  1.00  0.00     0.142 C 
BRANCH  20  21
HETATM   21  C2  UNL     1      13.050  12.330  13.182  1.00  0.00     0.141 C 
BRANCH  21  22
HETATM   22  N3  UNL     1      12.212  11.873  14.302  1.00  0.00    -0.365 N 
HETATM   23  C1  UNL     1      12.495  12.450  15.438  1.00  0.00     0.197 C 
HETATM   24  N1  UNL     1      11.722  12.056  16.579  1.00  0.00    -0.067 NA
HETATM   25  N2  UNL     1      13.503  13.426  15.582  1.00  0.00    -0.067 NA
ATOM     26  H3  UNL     1      11.478  11.171  14.201  1.00  0.00     0.161 HD
ENDBRANCH  21  22
ENDBRANCH  20  21
ENDBRANCH   1  20
TORSDOF 9
ENDMDL
