MODEL 1
REMARK VINA RESULT: -10.543873043      0.000      0.000
REMARK  2 active torsions:
REMARK  status: ('A' for Active; 'I' for Inactive)
REMARK    1  A    between atoms: C2_3  and  N2_4 
REMARK    2  A    between atoms: N2_4  and  C3_6 
ROOT
HETATM    1  C3  UNL     1      33.259  44.858  12.337  1.00  0.00     0.694 A 
HETATM    2  N3  UNL     1      32.373  44.445  11.523  1.00  0.00    -0.112 N 
ATOM      3  H3  UNL     1      31.431  44.835  11.556  1.00  0.00     0.197 HD
HETATM    4  S1  UNL     1      32.759  43.235  10.373  1.00  0.00     0.278 S 
HETATM    5  O1  UNL     1      31.848  42.044  10.482  1.00  0.00    -0.200 OA
HETATM    6  O2  UNL     1      32.640  43.796   8.972  1.00  0.00    -0.200 OA
HETATM    7  C4  UNL     1      34.427  42.794  10.587  1.00  0.00     0.107 A 
HETATM    8  C5  UNL     1      34.983  41.853   9.798  1.00  0.00     0.028 A 
HETATM    9  C6  UNL     1      36.297  41.479   9.938  1.00  0.00     0.002 A 
HETATM   10  C7  UNL     1      37.080  42.080  10.914  1.00  0.00     0.002 A 
HETATM   11  C8  UNL     1      36.493  43.029  11.698  1.00  0.00     0.031 A 
HETATM   12  C9  UNL     1      35.154  43.422  11.569  1.00  0.00     0.072 A 
HETATM   13  N4  UNL     1      34.594  44.407  12.402  1.00  0.00    -0.190 N 
ATOM     14  H4  UNL     1      35.199  44.827  13.107  1.00  0.00     0.184 HD
ENDROOT
BRANCH   1  15
HETATM   15  N2  UNL     1      32.847  45.881  13.273  1.00  0.00    -0.176 N 
ATOM     16  H2  UNL     1      31.873  46.188  13.276  1.00  0.00     0.186 HD
BRANCH  15  17
HETATM   17  C2  UNL     1      33.745  46.460  14.174  1.00  0.00     0.123 A 
HETATM   18  N1  UNL     1      34.075  45.870  15.320  1.00  0.00    -0.336 N 
HETATM   19  C1  UNL     1      33.554  44.621  15.756  1.00  0.00     0.158 C 
HETATM   20  C17 UNL     1      34.971  46.466  16.183  1.00  0.00     0.045 A 
HETATM   21  C12 UNL     1      35.550  47.677  15.896  1.00  0.00    -0.009 A 
HETATM   22  C16 UNL     1      35.331  45.874  17.372  1.00  0.00     0.030 A 
HETATM   23  C11 UNL     1      35.224  48.298  14.726  1.00  0.00     0.017 A 
HETATM   24  C13 UNL     1      36.457  48.290  16.752  1.00  0.00     0.014 A 
HETATM   25  C10 UNL     1      34.324  47.681  13.877  1.00  0.00     0.050 A 
HETATM   26  C14 UNL     1      36.799  47.690  17.922  1.00  0.00     0.001 A 
HETATM   27  C15 UNL     1      36.242  46.486  18.239  1.00  0.00     0.002 A 
ENDBRANCH  15  17
ENDBRANCH   1  15
TORSDOF 2
ENDMDL
MODEL 2
REMARK VINA RESULT: -10.221412448      0.695      1.798
REMARK  2 active torsions:
REMARK  status: ('A' for Active; 'I' for Inactive)
REMARK    1  A    between atoms: C2_3  and  N2_4 
REMARK    2  A    between atoms: N2_4  and  C3_6 
ROOT
HETATM    1  C3  UNL     1      32.975  44.211  13.036  1.00  0.00     0.694 A 
HETATM    2  N3  UNL     1      32.059  44.032  12.171  1.00  0.00    -0.112 N 
ATOM      3  H3  UNL     1      31.113  44.363  12.357  1.00  0.00     0.197 HD
HETATM    4  S1  UNL     1      32.414  43.239  10.695  1.00  0.00     0.278 S 
HETATM    5  O1  UNL     1      31.533  42.040  10.475  1.00  0.00    -0.200 OA
HETATM    6  O2  UNL     1      32.217  44.191   9.535  1.00  0.00    -0.200 OA
HETATM    7  C4  UNL     1      34.099  42.810  10.700  1.00  0.00     0.107 A 
HETATM    8  C5  UNL     1      34.635  42.168   9.642  1.00  0.00     0.028 A 
HETATM    9  C6  UNL     1      35.962  41.814   9.610  1.00  0.00     0.002 A 
HETATM   10  C7  UNL     1      36.779  42.119  10.691  1.00  0.00     0.002 A 
HETATM   11  C8  UNL     1      36.210  42.768  11.747  1.00  0.00     0.031 A 
HETATM   12  C9  UNL     1      34.860  43.137  11.796  1.00  0.00     0.072 A 
HETATM   13  N4  UNL     1      34.320  43.806  12.909  1.00  0.00    -0.190 N 
ATOM     14  H4  UNL     1      34.950  44.015  13.684  1.00  0.00     0.184 HD
ENDROOT
BRANCH   1  15
HETATM   15  N2  UNL     1      32.587  44.890  14.253  1.00  0.00    -0.176 N 
ATOM     16  H2  UNL     1      31.600  45.089  14.418  1.00  0.00     0.186 HD
BRANCH  15  17
HETATM   17  C2  UNL     1      33.529  45.281  15.210  1.00  0.00     0.123 A 
HETATM   18  N1  UNL     1      34.114  46.475  15.178  1.00  0.00    -0.336 N 
HETATM   19  C1  UNL     1      33.866  47.461  14.184  1.00  0.00     0.158 C 
HETATM   20  C17 UNL     1      35.033  46.832  16.143  1.00  0.00     0.045 A 
HETATM   21  C12 UNL     1      35.376  45.978  17.161  1.00  0.00    -0.009 A 
HETATM   22  C16 UNL     1      35.649  48.062  16.133  1.00  0.00     0.030 A 
HETATM   23  C11 UNL     1      34.787  44.748  17.211  1.00  0.00     0.017 A 
HETATM   24  C13 UNL     1      36.298  46.321  18.143  1.00  0.00     0.014 A 
HETATM   25  C10 UNL     1      33.868  44.413  16.233  1.00  0.00     0.050 A 
HETATM   26  C14 UNL     1      36.895  47.541  18.115  1.00  0.00     0.001 A 
HETATM   27  C15 UNL     1      36.578  48.414  17.117  1.00  0.00     0.002 A 
ENDBRANCH  15  17
ENDBRANCH   1  15
TORSDOF 2
ENDMDL
MODEL 3
REMARK VINA RESULT: -10.163790721      1.502      2.408
REMARK  2 active torsions:
REMARK  status: ('A' for Active; 'I' for Inactive)
REMARK    1  A    between atoms: C2_3  and  N2_4 
REMARK    2  A    between atoms: N2_4  and  C3_6 
ROOT
HETATM    1  C3  UNL     1      32.101  44.247  13.437  1.00  0.00     0.694 A 
HETATM    2  N3  UNL     1      31.145  44.682  12.719  1.00  0.00    -0.112 N 
ATOM      3  H3  UNL     1      30.366  45.175  13.154  1.00  0.00     0.197 HD
HETATM    4  S1  UNL     1      31.164  44.441  11.023  1.00  0.00     0.278 S 
HETATM    5  O1  UNL     1      29.933  43.724  10.543  1.00  0.00    -0.200 OA
HETATM    6  O2  UNL     1      31.245  45.774  10.311  1.00  0.00    -0.200 OA
HETATM    7  C4  UNL     1      32.616  43.575  10.614  1.00  0.00     0.107 A 
HETATM    8  C5  UNL     1      32.872  43.257   9.329  1.00  0.00     0.028 A 
HETATM    9  C6  UNL     1      34.008  42.574   8.968  1.00  0.00     0.002 A 
HETATM   10  C7  UNL     1      34.921  42.198   9.945  1.00  0.00     0.002 A 
HETATM   11  C8  UNL     1      34.636  42.533  11.236  1.00  0.00     0.031 A 
HETATM   12  C9  UNL     1      33.483  43.228  11.621  1.00  0.00     0.072 A 
HETATM   13  N4  UNL     1      33.234  43.552  12.967  1.00  0.00    -0.190 N 
ATOM     14  H4  UNL     1      33.927  43.260  13.657  1.00  0.00     0.184 HD
ENDROOT
BRANCH   1  15
HETATM   15  N2  UNL     1      32.003  44.496  14.859  1.00  0.00    -0.176 N 
ATOM     16  H2  UNL     1      31.111  44.341  15.330  1.00  0.00     0.186 HD
BRANCH  15  17
HETATM   17  C2  UNL     1      33.098  44.941  15.605  1.00  0.00     0.123 A 
HETATM   18  N1  UNL     1      33.542  46.193  15.528  1.00  0.00    -0.336 N 
HETATM   19  C1  UNL     1      32.979  47.192  14.687  1.00  0.00     0.158 C 
HETATM   20  C17 UNL     1      34.621  46.602  16.285  1.00  0.00     0.045 A 
HETATM   21  C12 UNL     1      35.269  45.744  17.137  1.00  0.00    -0.009 A 
HETATM   22  C16 UNL     1      35.097  47.892  16.225  1.00  0.00     0.030 A 
HETATM   23  C11 UNL     1      34.828  44.456  17.230  1.00  0.00     0.017 A 
HETATM   24  C13 UNL     1      36.355  46.140  17.909  1.00  0.00     0.014 A 
HETATM   25  C10 UNL     1      33.746  44.069  16.461  1.00  0.00     0.050 A 
HETATM   26  C14 UNL     1      36.811  47.418  17.834  1.00  0.00     0.001 A 
HETATM   27  C15 UNL     1      36.189  48.297  16.998  1.00  0.00     0.002 A 
ENDBRANCH  15  17
ENDBRANCH   1  15
TORSDOF 2
ENDMDL
MODEL 4
REMARK VINA RESULT: -9.182726693      2.544      3.889
REMARK  2 active torsions:
REMARK  status: ('A' for Active; 'I' for Inactive)
REMARK    1  A    between atoms: C2_3  and  N2_4 
REMARK    2  A    between atoms: N2_4  and  C3_6 
ROOT
HETATM    1  C3  UNL     1      33.378  43.884  13.668  1.00  0.00     0.694 A 
HETATM    2  N3  UNL     1      33.106  42.936  12.866  1.00  0.00    -0.112 N 
ATOM      3  H3  UNL     1      33.736  42.137  12.789  1.00  0.00     0.197 HD
HETATM    4  S1  UNL     1      31.683  42.997  11.913  1.00  0.00     0.278 S 
HETATM    5  O1  UNL     1      31.984  42.877  10.445  1.00  0.00    -0.200 OA
HETATM    6  O2  UNL     1      30.752  41.868  12.301  1.00  0.00    -0.200 OA
HETATM    7  C4  UNL     1      30.846  44.475  12.282  1.00  0.00     0.107 A 
HETATM    8  C5  UNL     1      29.685  44.767  11.660  1.00  0.00     0.028 A 
HETATM    9  C6  UNL     1      28.996  45.924  11.926  1.00  0.00     0.002 A 
HETATM   10  C7  UNL     1      29.499  46.824  12.856  1.00  0.00     0.002 A 
HETATM   11  C8  UNL     1      30.674  46.504  13.470  1.00  0.00     0.031 A 
HETATM   12  C9  UNL     1      31.390  45.328  13.211  1.00  0.00     0.072 A 
HETATM   13  N4  UNL     1      32.599  45.042  13.871  1.00  0.00    -0.190 N 
ATOM     14  H4  UNL     1      32.938  45.725  14.549  1.00  0.00     0.184 HD
ENDROOT
BRANCH   1  15
HETATM   15  N2  UNL     1      34.599  43.750  14.433  1.00  0.00    -0.176 N 
ATOM     16  H2  UNL     1      35.022  42.827  14.536  1.00  0.00     0.186 HD
BRANCH  15  17
HETATM   17  C2  UNL     1      35.215  44.851  15.035  1.00  0.00     0.123 A 
HETATM   18  N1  UNL     1      35.043  45.140  16.323  1.00  0.00    -0.336 N 
HETATM   19  C1  UNL     1      34.221  44.390  17.208  1.00  0.00     0.158 C 
HETATM   20  C17 UNL     1      35.672  46.230  16.887  1.00  0.00     0.045 A 
HETATM   21  C12 UNL     1      36.491  47.050  16.151  1.00  0.00    -0.009 A 
HETATM   22  C16 UNL     1      35.512  46.548  18.216  1.00  0.00     0.030 A 
HETATM   23  C11 UNL     1      36.680  46.770  14.829  1.00  0.00     0.017 A 
HETATM   24  C13 UNL     1      37.135  48.150  16.704  1.00  0.00     0.014 A 
HETATM   25  C10 UNL     1      36.039  45.672  14.285  1.00  0.00     0.050 A 
HETATM   26  C14 UNL     1      36.963  48.447  18.018  1.00  0.00     0.001 A 
HETATM   27  C15 UNL     1      36.156  47.654  18.779  1.00  0.00     0.002 A 
ENDBRANCH  15  17
ENDBRANCH   1  15
TORSDOF 2
ENDMDL
MODEL 5
REMARK VINA RESULT: -9.015936099      2.577      4.185
REMARK  2 active torsions:
REMARK  status: ('A' for Active; 'I' for Inactive)
REMARK    1  A    between atoms: C2_3  and  N2_4 
REMARK    2  A    between atoms: N2_4  and  C3_6 
ROOT
HETATM    1  C3  UNL     1      33.211  43.697  13.845  1.00  0.00     0.694 A 
HETATM    2  N3  UNL     1      32.996  42.818  12.951  1.00  0.00    -0.112 N 
ATOM      3  H3  UNL     1      33.611  42.009  12.876  1.00  0.00     0.197 HD
HETATM    4  S1  UNL     1      31.675  42.992  11.875  1.00  0.00     0.278 S 
HETATM    5  O1  UNL     1      32.115  42.970  10.437  1.00  0.00    -0.200 OA
HETATM    6  O2  UNL     1      30.684  41.867  12.085  1.00  0.00    -0.200 OA
HETATM    7  C4  UNL     1      30.840  44.465  12.272  1.00  0.00     0.107 A 
HETATM    8  C5  UNL     1      29.753  44.835  11.566  1.00  0.00     0.028 A 
HETATM    9  C6  UNL     1      29.068  45.991  11.851  1.00  0.00     0.002 A 
HETATM   10  C7  UNL     1      29.498  46.805  12.890  1.00  0.00     0.002 A 
HETATM   11  C8  UNL     1      30.600  46.406  13.588  1.00  0.00     0.031 A 
HETATM   12  C9  UNL     1      31.311  45.230  13.310  1.00  0.00     0.072 A 
HETATM   13  N4  UNL     1      32.442  44.860  14.060  1.00  0.00    -0.190 N 
ATOM     14  H4  UNL     1      32.729  45.482  14.816  1.00  0.00     0.184 HD
ENDROOT
BRANCH   1  15
HETATM   15  N2  UNL     1      34.347  43.471  14.711  1.00  0.00    -0.176 N 
ATOM     16  H2  UNL     1      34.847  42.583  14.653  1.00  0.00     0.186 HD
BRANCH  15  17
HETATM   17  C2  UNL     1      34.780  44.436  15.626  1.00  0.00     0.123 A 
HETATM   18  N1  UNL     1      35.576  45.441  15.269  1.00  0.00    -0.336 N 
HETATM   19  C1  UNL     1      36.077  45.636  13.952  1.00  0.00     0.158 C 
HETATM   20  C17 UNL     1      35.978  46.380  16.196  1.00  0.00     0.045 A 
HETATM   21  C12 UNL     1      35.578  46.315  17.507  1.00  0.00    -0.009 A 
HETATM   22  C16 UNL     1      36.797  47.430  15.850  1.00  0.00     0.030 A 
HETATM   23  C11 UNL     1      34.762  45.291  17.893  1.00  0.00     0.017 A 
HETATM   24  C13 UNL     1      35.971  47.254  18.453  1.00  0.00     0.014 A 
HETATM   25  C10 UNL     1      34.372  44.362  16.946  1.00  0.00     0.050 A 
HETATM   26  C14 UNL     1      36.781  48.283  18.092  1.00  0.00     0.001 A 
HETATM   27  C15 UNL     1      37.198  48.378  16.797  1.00  0.00     0.002 A 
ENDBRANCH  15  17
ENDBRANCH   1  15
TORSDOF 2
ENDMDL
