MODEL 1
REMARK VINA RESULT: -6.249482923      0.000      0.000
REMARK  3 active torsions:
REMARK  status: ('A' for Active; 'I' for Inactive)
REMARK    1  A    between atoms: C7_15  and  N5_16 
REMARK    2  A    between atoms: N5_16  and  C8_18 
REMARK    3  A    between atoms: C8_18  and  C11_21 
ROOT
HETATM    1  C1  UNL     1      38.357  36.371  30.093  1.00  0.00     0.072 C 
HETATM    2  C2  UNL     1      38.509  35.630  28.820  1.00  0.00     0.050 C 
HETATM    3  N1  UNL     1      38.097  34.387  28.771  1.00  0.00    -0.341 N 
ATOM      4  H1  UNL     1      37.697  34.029  29.639  1.00  0.00     0.167 HD
HETATM    5  C3  UNL     1      38.123  33.463  27.692  1.00  0.00     0.131 A 
HETATM    6  N2  UNL     1      38.045  32.130  27.737  1.00  0.00    -0.337 N 
ATOM      7  H2  UNL     1      37.952  31.582  28.592  1.00  0.00     0.168 HD
HETATM    8  C4  UNL     1      38.106  31.609  26.498  1.00  0.00     0.182 A 
HETATM    9  N3  UNL     1      38.227  32.643  25.635  1.00  0.00    -0.351 N 
ATOM     10  H3  UNL     1      38.298  32.572  24.621  1.00  0.00     0.166 HD
HETATM   11  C5  UNL     1      38.239  33.800  26.362  1.00  0.00     0.072 A 
HETATM   12  C6  UNL     1      38.360  35.118  25.714  1.00  0.00     0.182 C 
HETATM   13  N4  UNL     1      39.008  36.121  26.491  1.00  0.00    -0.369 N 
ATOM     14  H4  UNL     1      39.511  36.786  25.905  1.00  0.00     0.161 HD
HETATM   15  C7  UNL     1      39.121  36.402  27.734  1.00  0.00     0.120 C 
ENDROOT
BRANCH  15  16
HETATM   16  N5  UNL     1      39.889  37.552  28.090  1.00  0.00    -0.366 N 
ATOM     17  H5  UNL     1      39.370  38.419  28.232  1.00  0.00     0.162 HD
BRANCH  16  18
HETATM   18  C8  UNL     1      41.293  37.620  28.267  1.00  0.00     0.031 C 
HETATM   19  C9  UNL     1      41.914  38.048  26.926  1.00  0.00     0.039 C 
HETATM   20  C10 UNL     1      41.856  36.240  28.543  1.00  0.00     0.039 C 
BRANCH  18  21
HETATM   21  C11 UNL     1      41.761  38.614  29.300  1.00  0.00    -0.027 C 
HETATM   22  C12 UNL     1      40.832  39.840  29.303  1.00  0.00     0.017 C 
HETATM   23  C13 UNL     1      43.136  39.156  29.068  1.00  0.00     0.017 C 
HETATM   24  C14 UNL     1      41.706  38.049  30.696  1.00  0.00     0.017 C 
ENDBRANCH  18  21
ENDBRANCH  16  18
ENDBRANCH  15  16
TORSDOF 3
ENDMDL
MODEL 2
REMARK VINA RESULT: -6.207622047      0.701      1.586
REMARK  3 active torsions:
REMARK  status: ('A' for Active; 'I' for Inactive)
REMARK    1  A    between atoms: C7_15  and  N5_16 
REMARK    2  A    between atoms: N5_16  and  C8_18 
REMARK    3  A    between atoms: C8_18  and  C11_21 
ROOT
HETATM    1  C1  UNL     1      38.016  36.078  30.443  1.00  0.00     0.072 C 
HETATM    2  C2  UNL     1      38.318  35.446  29.139  1.00  0.00     0.050 C 
HETATM    3  N1  UNL     1      37.915  34.216  28.936  1.00  0.00    -0.341 N 
ATOM      4  H1  UNL     1      37.416  33.789  29.717  1.00  0.00     0.167 HD
HETATM    5  C3  UNL     1      38.069  33.387  27.793  1.00  0.00     0.131 A 
HETATM    6  N2  UNL     1      37.987  32.055  27.714  1.00  0.00    -0.337 N 
ATOM      7  H2  UNL     1      37.793  31.438  28.503  1.00  0.00     0.168 HD
HETATM    8  C4  UNL     1      38.194  31.640  26.451  1.00  0.00     0.182 A 
HETATM    9  N3  UNL     1      38.416  32.743  25.700  1.00  0.00    -0.351 N 
ATOM     10  H3  UNL     1      38.605  32.758  24.698  1.00  0.00     0.166 HD
HETATM   11  C5  UNL     1      38.341  33.834  26.519  1.00  0.00     0.072 A 
HETATM   12  C6  UNL     1      38.538  35.201  26.004  1.00  0.00     0.182 C 
HETATM   13  N4  UNL     1      39.088  36.128  26.935  1.00  0.00    -0.369 N 
ATOM     14  H4  UNL     1      39.658  36.836  26.471  1.00  0.00     0.161 HD
HETATM   15  C7  UNL     1      39.054  36.302  28.202  1.00  0.00     0.120 C 
ENDROOT
BRANCH  15  16
HETATM   16  N5  UNL     1      39.774  37.410  28.743  1.00  0.00    -0.366 N 
ATOM     17  H5  UNL     1      39.215  38.192  29.085  1.00  0.00     0.162 HD
BRANCH  16  18
HETATM   18  C8  UNL     1      41.180  37.541  28.855  1.00  0.00     0.031 C 
HETATM   19  C9  UNL     1      41.797  36.142  28.691  1.00  0.00     0.039 C 
HETATM   20  C10 UNL     1      41.557  37.978  30.257  1.00  0.00     0.039 C 
BRANCH  18  21
HETATM   21  C11 UNL     1      41.826  38.426  27.819  1.00  0.00    -0.027 C 
HETATM   22  C12 UNL     1      42.942  39.261  28.469  1.00  0.00     0.017 C 
HETATM   23  C13 UNL     1      40.905  39.419  27.183  1.00  0.00     0.017 C 
HETATM   24  C14 UNL     1      42.488  37.630  26.726  1.00  0.00     0.017 C 
ENDBRANCH  18  21
ENDBRANCH  16  18
ENDBRANCH  15  16
TORSDOF 3
ENDMDL
MODEL 3
REMARK VINA RESULT: -6.055561007      1.153      1.857
REMARK  3 active torsions:
REMARK  status: ('A' for Active; 'I' for Inactive)
REMARK    1  A    between atoms: C7_15  and  N5_16 
REMARK    2  A    between atoms: N5_16  and  C8_18 
REMARK    3  A    between atoms: C8_18  and  C11_21 
ROOT
HETATM    1  C1  UNL     1      38.020  36.178  30.519  1.00  0.00     0.072 C 
HETATM    2  C2  UNL     1      38.448  35.538  29.254  1.00  0.00     0.050 C 
HETATM    3  N1  UNL     1      37.868  34.421  28.894  1.00  0.00    -0.341 N 
ATOM      4  H1  UNL     1      37.151  34.079  29.536  1.00  0.00     0.167 HD
HETATM    5  C3  UNL     1      38.084  33.612  27.747  1.00  0.00     0.131 A 
HETATM    6  N2  UNL     1      37.767  32.327  27.562  1.00  0.00    -0.337 N 
ATOM      7  H2  UNL     1      37.307  31.738  28.256  1.00  0.00     0.168 HD
HETATM    8  C4  UNL     1      38.138  31.918  26.336  1.00  0.00     0.182 A 
HETATM    9  N3  UNL     1      38.710  32.976  25.717  1.00  0.00    -0.351 N 
ATOM     10  H3  UNL     1      39.094  32.983  24.773  1.00  0.00     0.166 HD
HETATM   11  C5  UNL     1      38.683  34.034  26.581  1.00  0.00     0.072 A 
HETATM   12  C6  UNL     1      39.235  35.350  26.208  1.00  0.00     0.182 C 
HETATM   13  N4  UNL     1      39.756  36.119  27.287  1.00  0.00    -0.369 N 
ATOM     14  H4  UNL     1      40.530  36.712  26.989  1.00  0.00     0.161 HD
HETATM   15  C7  UNL     1      39.505  36.258  28.534  1.00  0.00     0.120 C 
ENDROOT
BRANCH  15  16
HETATM   16  N5  UNL     1      40.300  37.182  29.276  1.00  0.00    -0.366 N 
ATOM     17  H5  UNL     1      40.883  36.789  30.016  1.00  0.00     0.162 HD
BRANCH  16  18
HETATM   18  C8  UNL     1      40.369  38.586  29.096  1.00  0.00     0.031 C 
HETATM   19  C9  UNL     1      39.214  38.997  28.168  1.00  0.00     0.039 C 
HETATM   20  C10 UNL     1      41.632  38.959  28.346  1.00  0.00     0.039 C 
BRANCH  18  21
HETATM   21  C11 UNL     1      40.226  39.401  30.357  1.00  0.00    -0.027 C 
HETATM   22  C12 UNL     1      40.667  38.565  31.571  1.00  0.00     0.017 C 
HETATM   23  C13 UNL     1      38.828  39.840  30.662  1.00  0.00     0.017 C 
HETATM   24  C14 UNL     1      41.112  40.619  30.349  1.00  0.00     0.017 C 
ENDBRANCH  18  21
ENDBRANCH  16  18
ENDBRANCH  15  16
TORSDOF 3
ENDMDL
MODEL 4
REMARK VINA RESULT: -5.876273417      0.958      1.834
REMARK  3 active torsions:
REMARK  status: ('A' for Active; 'I' for Inactive)
REMARK    1  A    between atoms: C7_15  and  N5_16 
REMARK    2  A    between atoms: N5_16  and  C8_18 
REMARK    3  A    between atoms: C8_18  and  C11_21 
ROOT
HETATM    1  C1  UNL     1      38.351  36.277  30.150  1.00  0.00     0.072 C 
HETATM    2  C2  UNL     1      38.639  35.491  28.929  1.00  0.00     0.050 C 
HETATM    3  N1  UNL     1      37.990  34.368  28.745  1.00  0.00    -0.341 N 
ATOM      4  H1  UNL     1      37.325  34.126  29.480  1.00  0.00     0.167 HD
HETATM    5  C3  UNL     1      38.073  33.435  27.677  1.00  0.00     0.131 A 
HETATM    6  N2  UNL     1      37.697  32.153  27.661  1.00  0.00    -0.337 N 
ATOM      7  H2  UNL     1      37.284  31.659  28.452  1.00  0.00     0.168 HD
HETATM    8  C4  UNL     1      37.939  31.601  26.458  1.00  0.00     0.182 A 
HETATM    9  N3  UNL     1      38.487  32.563  25.681  1.00  0.00    -0.351 N 
ATOM     10  H3  UNL     1      38.783  32.455  24.711  1.00  0.00     0.166 HD
HETATM   11  C5  UNL     1      38.576  33.706  26.424  1.00  0.00     0.072 A 
HETATM   12  C6  UNL     1      39.134  34.950  25.863  1.00  0.00     0.182 C 
HETATM   13  N4  UNL     1      39.778  35.805  26.803  1.00  0.00    -0.369 N 
ATOM     14  H4  UNL     1      40.541  36.330  26.375  1.00  0.00     0.161 HD
HETATM   15  C7  UNL     1      39.648  36.085  28.045  1.00  0.00     0.120 C 
ENDROOT
BRANCH  15  16
HETATM   16  N5  UNL     1      40.539  37.046  28.609  1.00  0.00    -0.366 N 
ATOM     17  H5  UNL     1      41.133  36.723  29.373  1.00  0.00     0.162 HD
BRANCH  16  18
HETATM   18  C8  UNL     1      40.689  38.401  28.223  1.00  0.00     0.031 C 
HETATM   19  C9  UNL     1      41.002  39.218  29.489  1.00  0.00     0.039 C 
HETATM   20  C10 UNL     1      39.373  38.951  27.711  1.00  0.00     0.039 C 
BRANCH  18  21
HETATM   21  C11 UNL     1      41.806  38.669  27.245  1.00  0.00    -0.027 C 
HETATM   22  C12 UNL     1      42.478  40.012  27.576  1.00  0.00     0.017 C 
HETATM   23  C13 UNL     1      41.373  38.782  25.817  1.00  0.00     0.017 C 
HETATM   24  C14 UNL     1      42.893  37.631  27.328  1.00  0.00     0.017 C 
ENDBRANCH  18  21
ENDBRANCH  16  18
ENDBRANCH  15  16
TORSDOF 3
ENDMDL
MODEL 5
REMARK VINA RESULT: -5.734378242      5.460      7.747
REMARK  3 active torsions:
REMARK  status: ('A' for Active; 'I' for Inactive)
REMARK    1  A    between atoms: C7_15  and  N5_16 
REMARK    2  A    between atoms: N5_16  and  C8_18 
REMARK    3  A    between atoms: C8_18  and  C11_21 
ROOT
HETATM    1  C1  UNL     1      36.874  35.782  32.750  1.00  0.00     0.072 C 
HETATM    2  C2  UNL     1      37.247  36.524  33.976  1.00  0.00     0.050 C 
HETATM    3  N1  UNL     1      36.809  36.083  35.128  1.00  0.00    -0.341 N 
ATOM      4  H1  UNL     1      36.232  35.242  35.079  1.00  0.00     0.167 HD
HETATM    5  C3  UNL     1      37.016  36.596  36.436  1.00  0.00     0.131 A 
HETATM    6  N2  UNL     1      36.298  36.373  37.541  1.00  0.00    -0.337 N 
ATOM      7  H2  UNL     1      35.472  35.776  37.586  1.00  0.00     0.168 HD
HETATM    8  C4  UNL     1      36.814  37.044  38.587  1.00  0.00     0.182 A 
HETATM    9  N3  UNL     1      37.896  37.717  38.135  1.00  0.00    -0.351 N 
ATOM     10  H3  UNL     1      38.503  38.319  38.690  1.00  0.00     0.166 HD
HETATM   11  C5  UNL     1      38.034  37.449  36.802  1.00  0.00     0.072 A 
HETATM   12  C6  UNL     1      39.127  38.035  36.005  1.00  0.00     0.182 C 
HETATM   13  N4  UNL     1      38.827  38.254  34.630  1.00  0.00    -0.369 N 
ATOM     14  H4  UNL     1      39.330  39.059  34.258  1.00  0.00     0.161 HD
HETATM   15  C7  UNL     1      38.090  37.702  33.742  1.00  0.00     0.120 C 
ENDROOT
BRANCH  15  16
HETATM   16  N5  UNL     1      38.092  38.265  32.430  1.00  0.00    -0.366 N 
ATOM     17  H5  UNL     1      37.209  38.233  31.920  1.00  0.00     0.162 HD
BRANCH  16  18
HETATM   18  C8  UNL     1      39.188  38.863  31.759  1.00  0.00     0.031 C 
HETATM   19  C9  UNL     1      40.425  38.722  32.663  1.00  0.00     0.039 C 
HETATM   20  C10 UNL     1      38.967  40.355  31.618  1.00  0.00     0.039 C 
BRANCH  18  21
HETATM   21  C11 UNL     1      39.545  38.239  30.433  1.00  0.00    -0.027 C 
HETATM   22  C12 UNL     1      39.198  39.209  29.291  1.00  0.00     0.017 C 
HETATM   23  C13 UNL     1      38.809  36.974  30.119  1.00  0.00     0.017 C 
HETATM   24  C14 UNL     1      41.021  37.967  30.313  1.00  0.00     0.017 C 
ENDBRANCH  18  21
ENDBRANCH  16  18
ENDBRANCH  15  16
TORSDOF 3
ENDMDL
