MODEL 1
REMARK VINA RESULT: -6.311433604      0.000      0.000
REMARK  4 active torsions:
REMARK  status: ('A' for Active; 'I' for Inactive)
REMARK    1  A    between atoms: N1_4  and  N2_6 
REMARK    2  A    between atoms: C13_19  and  N4_20 
REMARK    3  A    between atoms: N4_20  and  N5_22 
REMARK    4  A    between atoms: N5_22  and  N6_23 
ROOT
HETATM    1  C1  UNL     1      38.929  38.567  32.562  1.00  0.00     0.021 C 
HETATM    2  C2  UNL     1      39.271  38.021  31.431  1.00  0.00    -0.037 C 
HETATM    3  C3  UNL     1      38.733  36.903  30.667  1.00  0.00     0.042 C 
HETATM    4  N1  UNL     1      37.841  36.107  31.068  1.00  0.00    -0.310 N 
ATOM      5  H1  UNL     1      37.595  35.387  30.388  1.00  0.00     0.186 HD
HETATM    6  C4  UNL     1      39.477  36.944  29.360  1.00  0.00     0.033 C 
HETATM    7  C5  UNL     1      40.864  37.250  29.970  1.00  0.00     0.029 C 
HETATM    8  C6  UNL     1      40.446  38.549  30.630  1.00  0.00     0.039 C 
HETATM    9  C7  UNL     1      39.839  39.335  29.513  1.00  0.00     0.106 C 
HETATM   10  C8  UNL     1      38.788  40.180  30.084  1.00  0.00     0.065 C 
HETATM   11  N3  UNL     1      37.944  40.871  30.525  1.00  0.00    -0.197 NA
HETATM   12  C9  UNL     1      39.216  38.228  28.648  1.00  0.00     0.020 C 
HETATM   13  C10 UNL     1      39.910  38.269  27.334  1.00  0.00     0.007 C 
HETATM   14  C11 UNL     1      39.431  37.121  26.491  1.00  0.00     0.002 C 
HETATM   15  C12 UNL     1      39.625  35.780  27.121  1.00  0.00     0.029 C 
HETATM   16  C13 UNL     1      39.431  35.709  28.590  1.00  0.00     0.129 C 
ENDROOT
BRANCH  16  17
HETATM   17  N4  UNL     1      38.194  34.932  28.804  1.00  0.00    -0.247 N 
ATOM     18  H4  UNL     1      37.332  35.389  29.103  1.00  0.00     0.197 HD
BRANCH  17  19
HETATM   19  N5  UNL     1      38.232  33.719  28.611  1.00  0.00    -0.248 NA
BRANCH  19  20
HETATM   20  N6  UNL     1      38.186  32.509  28.411  1.00  0.00    -0.261 N 
ATOM     21  H62 UNL     1      37.241  32.831  28.200  1.00  0.00     0.193 HD
ATOM     22  H61 UNL     1      38.215  31.500  28.262  1.00  0.00     0.193 HD
ENDBRANCH  19  20
ENDBRANCH  17  19
ENDBRANCH  16  17
BRANCH   4  23
HETATM   23  N2  UNL     1      37.146  36.025  32.231  1.00  0.00    -0.345 N 
ATOM     24  H22 UNL     1      37.746  35.832  33.033  1.00  0.00     0.176 HD
ATOM     25  H21 UNL     1      36.153  36.119  32.445  1.00  0.00     0.176 HD
ENDBRANCH   4  23
TORSDOF 4
ENDMDL
MODEL 2
REMARK VINA RESULT: -6.134458996      2.324      5.148
REMARK  4 active torsions:
REMARK  status: ('A' for Active; 'I' for Inactive)
REMARK    1  A    between atoms: N1_4  and  N2_6 
REMARK    2  A    between atoms: C13_19  and  N4_20 
REMARK    3  A    between atoms: N4_20  and  N5_22 
REMARK    4  A    between atoms: N5_22  and  N6_23 
ROOT
HETATM    1  C1  UNL     1      41.042  37.931  25.897  1.00  0.00     0.021 C 
HETATM    2  C2  UNL     1      40.629  37.609  27.089  1.00  0.00    -0.037 C 
HETATM    3  C3  UNL     1      39.849  38.319  28.093  1.00  0.00     0.042 C 
HETATM    4  N1  UNL     1      39.518  39.535  28.035  1.00  0.00    -0.310 N 
ATOM      5  H1  UNL     1      38.970  39.852  28.836  1.00  0.00     0.186 HD
HETATM    6  C4  UNL     1      39.565  37.288  29.151  1.00  0.00     0.033 C 
HETATM    7  C5  UNL     1      40.975  36.655  29.146  1.00  0.00     0.029 C 
HETATM    8  C6  UNL     1      40.946  36.251  27.686  1.00  0.00     0.039 C 
HETATM    9  C7  UNL     1      39.681  35.463  27.562  1.00  0.00     0.106 C 
HETATM   10  C8  UNL     1      39.165  35.664  26.205  1.00  0.00     0.065 C 
HETATM   11  N3  UNL     1      38.737  35.808  25.119  1.00  0.00    -0.197 NA
HETATM   12  C9  UNL     1      38.771  36.160  28.584  1.00  0.00     0.020 C 
HETATM   13  C10 UNL     1      38.444  35.151  29.624  1.00  0.00     0.007 C 
HETATM   14  C11 UNL     1      37.660  35.814  30.722  1.00  0.00     0.002 C 
HETATM   15  C12 UNL     1      38.357  36.978  31.349  1.00  0.00     0.029 C 
HETATM   16  C13 UNL     1      39.165  37.829  30.442  1.00  0.00     0.129 C 
ENDROOT
BRANCH  16  17
HETATM   17  N4  UNL     1      38.450  39.117  30.341  1.00  0.00    -0.247 N 
ATOM     18  H4  UNL     1      37.861  39.328  29.535  1.00  0.00     0.197 HD
BRANCH  17  19
HETATM   19  N5  UNL     1      38.584  39.926  31.256  1.00  0.00    -0.248 NA
BRANCH  19  20
HETATM   20  N6  UNL     1      38.651  40.776  32.139  1.00  0.00    -0.261 N 
ATOM     21  H62 UNL     1      39.617  40.658  31.835  1.00  0.00     0.193 HD
ATOM     22  H61 UNL     1      38.637  41.477  32.880  1.00  0.00     0.193 HD
ENDBRANCH  19  20
ENDBRANCH  17  19
ENDBRANCH  16  17
BRANCH   4  23
HETATM   23  N2  UNL     1      39.751  40.502  27.112  1.00  0.00    -0.345 N 
ATOM     24  H22 UNL     1      40.607  40.339  26.582  1.00  0.00     0.176 HD
ATOM     25  H21 UNL     1      39.237  41.345  26.857  1.00  0.00     0.176 HD
ENDBRANCH   4  23
TORSDOF 4
ENDMDL
MODEL 3
REMARK VINA RESULT: -5.978286088      1.252      1.747
REMARK  4 active torsions:
REMARK  status: ('A' for Active; 'I' for Inactive)
REMARK    1  A    between atoms: N1_4  and  N2_6 
REMARK    2  A    between atoms: C13_19  and  N4_20 
REMARK    3  A    between atoms: N4_20  and  N5_22 
REMARK    4  A    between atoms: N5_22  and  N6_23 
ROOT
HETATM    1  C1  UNL     1      40.093  38.144  30.980  1.00  0.00     0.021 C 
HETATM    2  C2  UNL     1      40.029  37.378  29.931  1.00  0.00    -0.037 C 
HETATM    3  C3  UNL     1      39.048  36.404  29.472  1.00  0.00     0.042 C 
HETATM    4  N1  UNL     1      38.058  35.995  30.140  1.00  0.00    -0.310 N 
ATOM      5  H1  UNL     1      37.482  35.312  29.647  1.00  0.00     0.186 HD
HETATM    6  C4  UNL     1      39.497  36.036  28.085  1.00  0.00     0.033 C 
HETATM    7  C5  UNL     1      41.005  35.956  28.417  1.00  0.00     0.029 C 
HETATM    8  C6  UNL     1      41.126  37.393  28.883  1.00  0.00     0.039 C 
HETATM    9  C7  UNL     1      40.568  38.182  27.742  1.00  0.00     0.106 C 
HETATM   10  C8  UNL     1      39.946  39.387  28.298  1.00  0.00     0.065 C 
HETATM   11  N3  UNL     1      39.446  40.362  28.725  1.00  0.00    -0.197 NA
HETATM   12  C9  UNL     1      39.490  37.234  27.196  1.00  0.00     0.020 C 
HETATM   13  C10 UNL     1      39.892  36.881  25.809  1.00  0.00     0.007 C 
HETATM   14  C11 UNL     1      38.941  35.850  25.270  1.00  0.00     0.002 C 
HETATM   15  C12 UNL     1      38.853  34.610  26.100  1.00  0.00     0.029 C 
HETATM   16  C13 UNL     1      38.940  34.793  27.569  1.00  0.00     0.129 C 
ENDROOT
BRANCH  16  17
HETATM   17  N4  UNL     1      37.597  34.490  28.102  1.00  0.00    -0.247 N 
ATOM     18  H4  UNL     1      36.802  35.096  27.897  1.00  0.00     0.197 HD
BRANCH  17  19
HETATM   19  N5  UNL     1      37.464  33.486  28.798  1.00  0.00    -0.248 NA
BRANCH  19  20
HETATM   20  N6  UNL     1      37.259  32.516  29.522  1.00  0.00    -0.261 N 
ATOM     21  H62 UNL     1      37.407  33.286  30.175  1.00  0.00     0.193 HD
ATOM     22  H61 UNL     1      37.081  31.672  30.065  1.00  0.00     0.193 HD
ENDBRANCH  19  20
ENDBRANCH  17  19
ENDBRANCH  16  17
BRANCH   4  23
HETATM   23  N2  UNL     1      37.613  36.290  31.387  1.00  0.00    -0.345 N 
ATOM     24  H22 UNL     1      38.272  36.865  31.912  1.00  0.00     0.176 HD
ATOM     25  H21 UNL     1      36.758  36.048  31.886  1.00  0.00     0.176 HD
ENDBRANCH   4  23
TORSDOF 4
ENDMDL
MODEL 4
REMARK VINA RESULT: -5.937156217      2.495      4.868
REMARK  4 active torsions:
REMARK  status: ('A' for Active; 'I' for Inactive)
REMARK    1  A    between atoms: N1_4  and  N2_6 
REMARK    2  A    between atoms: C13_19  and  N4_20 
REMARK    3  A    between atoms: N4_20  and  N5_22 
REMARK    4  A    between atoms: N5_22  and  N6_23 
ROOT
HETATM    1  C1  UNL     1      40.064  35.577  28.822  1.00  0.00     0.021 C 
HETATM    2  C2  UNL     1      40.028  36.877  28.893  1.00  0.00    -0.037 C 
HETATM    3  C3  UNL     1      39.535  37.905  27.987  1.00  0.00     0.042 C 
HETATM    4  N1  UNL     1      39.141  37.709  26.805  1.00  0.00    -0.310 N 
ATOM      5  H1  UNL     1      38.832  38.556  26.327  1.00  0.00     0.186 HD
HETATM    6  C4  UNL     1      39.619  39.181  28.780  1.00  0.00     0.033 C 
HETATM    7  C5  UNL     1      40.997  38.889  29.415  1.00  0.00     0.029 C 
HETATM    8  C6  UNL     1      40.570  37.610  30.105  1.00  0.00     0.039 C 
HETATM    9  C7  UNL     1      39.364  38.017  30.889  1.00  0.00     0.106 C 
HETATM   10  C8  UNL     1      38.470  36.859  30.962  1.00  0.00     0.065 C 
HETATM   11  N3  UNL     1      37.741  35.938  31.036  1.00  0.00    -0.197 NA
HETATM   12  C9  UNL     1      38.752  39.103  29.992  1.00  0.00     0.020 C 
HETATM   13  C10 UNL     1      38.789  40.370  30.766  1.00  0.00     0.007 C 
HETATM   14  C11 UNL     1      38.322  41.496  29.887  1.00  0.00     0.002 C 
HETATM   15  C12 UNL     1      39.111  41.652  28.627  1.00  0.00     0.029 C 
HETATM   16  C13 UNL     1      39.581  40.400  27.985  1.00  0.00     0.129 C 
ENDROOT
BRANCH  16  17
HETATM   17  N4  UNL     1      38.804  40.262  26.738  1.00  0.00    -0.247 N 
ATOM     18  H4  UNL     1      37.897  39.794  26.734  1.00  0.00     0.197 HD
BRANCH  17  19
HETATM   19  N5  UNL     1      39.281  40.725  25.705  1.00  0.00    -0.248 NA
BRANCH  19  20
HETATM   20  N6  UNL     1      39.707  41.136  24.629  1.00  0.00    -0.261 N 
ATOM     21  H62 UNL     1      39.509  40.151  24.457  1.00  0.00     0.193 HD
ATOM     22  H61 UNL     1      40.068  41.541  23.765  1.00  0.00     0.193 HD
ENDBRANCH  19  20
ENDBRANCH  17  19
ENDBRANCH  16  17
BRANCH   4  23
HETATM   23  N2  UNL     1      39.050  36.587  26.047  1.00  0.00    -0.345 N 
ATOM     24  H22 UNL     1      38.211  36.045  26.249  1.00  0.00     0.176 HD
ATOM     25  H21 UNL     1      39.656  36.195  25.326  1.00  0.00     0.176 HD
ENDBRANCH   4  23
TORSDOF 4
ENDMDL
MODEL 5
REMARK VINA RESULT: -5.923186539      3.233      4.878
REMARK  4 active torsions:
REMARK  status: ('A' for Active; 'I' for Inactive)
REMARK    1  A    between atoms: N1_4  and  N2_6 
REMARK    2  A    between atoms: C13_19  and  N4_20 
REMARK    3  A    between atoms: N4_20  and  N5_22 
REMARK    4  A    between atoms: N5_22  and  N6_23 
ROOT
HETATM    1  C1  UNL     1      39.138  34.445  27.969  1.00  0.00     0.021 C 
HETATM    2  C2  UNL     1      39.788  35.542  27.710  1.00  0.00    -0.037 C 
HETATM    3  C3  UNL     1      39.675  36.535  26.650  1.00  0.00     0.042 C 
HETATM    4  N1  UNL     1      38.947  36.430  25.625  1.00  0.00    -0.310 N 
ATOM      5  H1  UNL     1      39.001  37.231  24.996  1.00  0.00     0.186 HD
HETATM    6  C4  UNL     1      40.598  37.647  27.071  1.00  0.00     0.033 C 
HETATM    7  C5  UNL     1      41.744  36.731  27.558  1.00  0.00     0.029 C 
HETATM    8  C6  UNL     1      40.919  36.012  28.605  1.00  0.00     0.039 C 
HETATM    9  C7  UNL     1      40.339  37.121  29.422  1.00  0.00     0.106 C 
HETATM   10  C8  UNL     1      39.033  36.674  29.914  1.00  0.00     0.065 C 
HETATM   11  N3  UNL     1      37.985  36.331  30.323  1.00  0.00    -0.197 NA
HETATM   12  C9  UNL     1      40.158  38.228  28.373  1.00  0.00     0.020 C 
HETATM   13  C10 UNL     1      41.034  39.356  28.785  1.00  0.00     0.007 C 
HETATM   14  C11 UNL     1      40.998  40.418  27.722  1.00  0.00     0.002 C 
HETATM   15  C12 UNL     1      41.400  39.937  26.366  1.00  0.00     0.029 C 
HETATM   16  C13 UNL     1      40.983  38.560  26.005  1.00  0.00     0.129 C 
ENDROOT
BRANCH  16  17
HETATM   17  N4  UNL     1      39.953  38.704  24.957  1.00  0.00    -0.247 N 
ATOM     18  H4  UNL     1      38.968  38.535  25.163  1.00  0.00     0.197 HD
BRANCH  17  19
HETATM   19  N5  UNL     1      40.316  39.035  23.831  1.00  0.00    -0.248 NA
BRANCH  19  20
HETATM   20  N6  UNL     1      40.602  39.400  22.695  1.00  0.00    -0.261 N 
ATOM     21  H62 UNL     1      39.659  39.023  22.604  1.00  0.00     0.193 HD
ATOM     22  H61 UNL     1      40.902  39.725  21.775  1.00  0.00     0.193 HD
ENDBRANCH  19  20
ENDBRANCH  17  19
ENDBRANCH  16  17
BRANCH   4  23
HETATM   23  N2  UNL     1      38.105  35.454  25.200  1.00  0.00    -0.345 N 
ATOM     24  H22 UNL     1      38.480  34.518  25.355  1.00  0.00     0.176 HD
ATOM     25  H21 UNL     1      37.185  35.484  24.762  1.00  0.00     0.176 HD
ENDBRANCH   4  23
TORSDOF 4
ENDMDL
