MODEL 1
REMARK VINA RESULT: -6.885305162      0.000      0.000
REMARK  6 active torsions:
REMARK  status: ('A' for Active; 'I' for Inactive)
REMARK    1  A    between atoms: C2_2  and  O1_3 
REMARK    2  A    between atoms: C3_5  and  O2_6 
REMARK    3  A    between atoms: C6_10  and  O3_11 
REMARK    4  A    between atoms: C12_18  and  O4_19 
REMARK    5  A    between atoms: N1_28  and  C19_29 
REMARK    6  A    between atoms: C19_29  and  C20_30 
ROOT
HETATM    1  C1  UNL     1      39.220  32.545  24.484  1.00  0.00     0.049 C 
HETATM    2  C2  UNL     1      38.494  32.680  25.829  1.00  0.00     0.086 C 
HETATM    3  C3  UNL     1      37.058  33.026  25.665  1.00  0.00     0.152 C 
HETATM    4  C4  UNL     1      36.522  33.944  26.721  1.00  0.00     0.038 C 
HETATM    5  C5  UNL     1      37.221  33.932  28.013  1.00  0.00     0.041 C 
HETATM    6  C6  UNL     1      38.725  33.814  27.983  1.00  0.00     0.067 C 
HETATM    7  C7  UNL     1      39.380  34.830  28.853  1.00  0.00     0.072 C 
HETATM    8  C8  UNL     1      39.897  36.089  28.204  1.00  0.00     0.060 C 
HETATM    9  C9  UNL     1      39.322  36.211  26.790  1.00  0.00     0.034 C 
HETATM   10  C10 UNL     1      39.414  34.998  25.945  1.00  0.00     0.013 C 
HETATM   11  C11 UNL     1      39.296  33.690  26.620  1.00  0.00     0.057 C 
HETATM   12  C12 UNL     1      41.359  36.128  28.103  1.00  0.00     0.147 C 
HETATM   13  C13 UNL     1      42.192  37.031  28.891  1.00  0.00     0.042 C 
HETATM   14  C14 UNL     1      42.042  38.496  28.789  1.00  0.00     0.035 A 
HETATM   15  C15 UNL     1      41.840  39.233  27.545  1.00  0.00     0.185 A 
HETATM   16  F1  UNL     1      42.508  40.402  27.332  1.00  0.00    -0.248 F 
HETATM   17  C16 UNL     1      40.779  39.156  28.685  1.00  0.00     0.010 A 
HETATM   18  C17 UNL     1      40.615  40.550  29.323  1.00  0.00     0.020 C 
HETATM   19  C18 UNL     1      39.516  38.461  28.416  1.00  0.00     0.135 C 
HETATM   20  N1  UNL     1      39.337  37.150  28.971  1.00  0.00    -0.380 N 
ENDROOT
BRANCH  12  21
HETATM   21  O4  UNL     1      41.819  36.204  26.764  1.00  0.00    -0.393 OA
ATOM     22  H4  UNL     1      42.557  36.793  26.659  1.00  0.00     0.210 HD
ENDBRANCH  12  21
BRANCH  20  23
HETATM   23  C19 UNL     1      39.455  37.111  30.370  1.00  0.00     0.064 C 
BRANCH  23  24
HETATM   24  C20 UNL     1      38.131  37.312  31.142  1.00  0.00     0.024 A 
HETATM   25  C21 UNL     1      38.282  37.288  32.681  1.00  0.00     0.010 A 
HETATM   26  C22 UNL     1      37.660  36.169  31.980  1.00  0.00     0.010 A 
ENDBRANCH  23  24
ENDBRANCH  20  23
BRANCH   6  27
HETATM   27  O3  UNL     1      39.005  32.565  28.615  1.00  0.00    -0.389 OA
ATOM     28  H3  UNL     1      39.826  32.279  28.233  1.00  0.00     0.210 HD
ENDBRANCH   6  27
BRANCH   2  29
HETATM   29  O1  UNL     1      38.645  31.445  26.460  1.00  0.00    -0.387 OA
ATOM     30  H1  UNL     1      38.007  31.439  27.164  1.00  0.00     0.210 HD
ENDBRANCH   2  29
BRANCH   3  31
HETATM   31  O2  UNL     1      36.724  33.587  24.436  1.00  0.00    -0.393 OA
ATOM     32  H2  UNL     1      35.792  33.646  24.261  1.00  0.00     0.210 HD
ENDBRANCH   3  31
TORSDOF 6
ENDMDL
MODEL 2
REMARK VINA RESULT: -6.295809122      3.281      5.631
REMARK  6 active torsions:
REMARK  status: ('A' for Active; 'I' for Inactive)
REMARK    1  A    between atoms: C2_2  and  O1_3 
REMARK    2  A    between atoms: C3_5  and  O2_6 
REMARK    3  A    between atoms: C6_10  and  O3_11 
REMARK    4  A    between atoms: C12_18  and  O4_19 
REMARK    5  A    between atoms: N1_28  and  C19_29 
REMARK    6  A    between atoms: C19_29  and  C20_30 
ROOT
HETATM    1  C1  UNL     1      43.450  41.448  25.110  1.00  0.00     0.049 C 
HETATM    2  C2  UNL     1      42.707  40.134  24.836  1.00  0.00     0.086 C 
HETATM    3  C3  UNL     1      41.462  40.341  24.052  1.00  0.00     0.152 C 
HETATM    4  C4  UNL     1      40.337  39.426  24.431  1.00  0.00     0.038 C 
HETATM    5  C5  UNL     1      40.714  38.149  25.050  1.00  0.00     0.041 C 
HETATM    6  C6  UNL     1      41.869  38.167  26.023  1.00  0.00     0.067 C 
HETATM    7  C7  UNL     1      41.540  37.456  27.290  1.00  0.00     0.072 C 
HETATM    8  C8  UNL     1      41.095  38.282  28.470  1.00  0.00     0.060 C 
HETATM    9  C9  UNL     1      40.741  39.696  28.001  1.00  0.00     0.034 C 
HETATM   10  C10 UNL     1      41.734  40.357  27.125  1.00  0.00     0.013 C 
HETATM   11  C11 UNL     1      42.496  39.500  26.194  1.00  0.00     0.057 C 
HETATM   12  C12 UNL     1      42.117  38.393  29.515  1.00  0.00     0.147 C 
HETATM   13  C13 UNL     1      42.002  37.746  30.818  1.00  0.00     0.042 C 
HETATM   14  C14 UNL     1      40.884  38.058  31.732  1.00  0.00     0.035 A 
HETATM   15  C15 UNL     1      40.350  39.395  31.977  1.00  0.00     0.185 A 
HETATM   16  F1  UNL     1      40.032  39.777  33.246  1.00  0.00    -0.248 F 
HETATM   17  C16 UNL     1      39.537  38.251  31.296  1.00  0.00     0.010 A 
HETATM   18  C17 UNL     1      38.387  37.821  32.228  1.00  0.00     0.020 C 
HETATM   19  C18 UNL     1      39.150  38.413  29.891  1.00  0.00     0.135 C 
HETATM   20  N1  UNL     1      39.881  37.673  28.902  1.00  0.00    -0.380 N 
ENDROOT
BRANCH  12  21
HETATM   21  O4  UNL     1      42.523  39.730  29.750  1.00  0.00    -0.393 OA
ATOM     22  H4  UNL     1      43.132  39.810  30.475  1.00  0.00     0.210 HD
ENDBRANCH  12  21
BRANCH  20  23
HETATM   23  C19 UNL     1      39.855  36.284  29.105  1.00  0.00     0.064 C 
BRANCH  23  24
HETATM   24  C20 UNL     1      38.529  35.593  28.711  1.00  0.00     0.024 A 
HETATM   25  C21 UNL     1      37.799  34.902  29.887  1.00  0.00     0.010 A 
HETATM   26  C22 UNL     1      38.473  34.108  28.863  1.00  0.00     0.010 A 
ENDBRANCH  23  24
ENDBRANCH  20  23
BRANCH   6  27
HETATM   27  O3  UNL     1      42.875  37.362  25.409  1.00  0.00    -0.389 OA
ATOM     28  H3  UNL     1      43.530  37.236  26.085  1.00  0.00     0.210 HD
ENDBRANCH   6  27
BRANCH   2  29
HETATM   29  O1  UNL     1      43.613  39.332  24.141  1.00  0.00    -0.387 OA
ATOM     30  H1  UNL     1      43.153  39.048  23.360  1.00  0.00     0.210 HD
ENDBRANCH   2  29
BRANCH   3  31
HETATM   31  O2  UNL     1      40.955  41.637  24.082  1.00  0.00    -0.393 OA
ATOM     32  H2  UNL     1      41.244  42.198  23.372  1.00  0.00     0.210 HD
ENDBRANCH   3  31
TORSDOF 6
ENDMDL
MODEL 3
REMARK VINA RESULT: -6.090288194      3.866      6.696
REMARK  6 active torsions:
REMARK  status: ('A' for Active; 'I' for Inactive)
REMARK    1  A    between atoms: C2_2  and  O1_3 
REMARK    2  A    between atoms: C3_5  and  O2_6 
REMARK    3  A    between atoms: C6_10  and  O3_11 
REMARK    4  A    between atoms: C12_18  and  O4_19 
REMARK    5  A    between atoms: N1_28  and  C19_29 
REMARK    6  A    between atoms: C19_29  and  C20_30 
ROOT
HETATM    1  C1  UNL     1      41.570  43.751  27.258  1.00  0.00     0.049 C 
HETATM    2  C2  UNL     1      41.115  42.408  26.672  1.00  0.00     0.086 C 
HETATM    3  C3  UNL     1      39.783  42.498  26.020  1.00  0.00     0.152 C 
HETATM    4  C4  UNL     1      38.934  41.273  26.184  1.00  0.00     0.038 C 
HETATM    5  C5  UNL     1      39.647  40.012  26.424  1.00  0.00     0.041 C 
HETATM    6  C6  UNL     1      40.860  40.065  27.321  1.00  0.00     0.067 C 
HETATM    7  C7  UNL     1      40.828  39.001  28.364  1.00  0.00     0.072 C 
HETATM    8  C8  UNL     1      40.330  39.372  29.738  1.00  0.00     0.060 C 
HETATM    9  C9  UNL     1      39.625  40.730  29.678  1.00  0.00     0.034 C 
HETATM   10  C10 UNL     1      40.352  41.809  28.973  1.00  0.00     0.013 C 
HETATM   11  C11 UNL     1      41.188  41.423  27.818  1.00  0.00     0.057 C 
HETATM   12  C12 UNL     1      41.401  39.462  30.735  1.00  0.00     0.147 C 
HETATM   13  C13 UNL     1      41.565  38.501  31.821  1.00  0.00     0.042 C 
HETATM   14  C14 UNL     1      40.503  38.295  32.827  1.00  0.00     0.035 A 
HETATM   15  C15 UNL     1      39.712  39.358  33.441  1.00  0.00     0.185 A 
HETATM   16  F1  UNL     1      39.446  39.321  34.777  1.00  0.00    -0.248 F 
HETATM   17  C16 UNL     1      39.111  38.259  32.511  1.00  0.00     0.010 A 
HETATM   18  C17 UNL     1      38.184  37.345  33.337  1.00  0.00     0.020 C 
HETATM   19  C18 UNL     1      38.558  38.669  31.215  1.00  0.00     0.135 C 
HETATM   20  N1  UNL     1      39.333  38.400  30.038  1.00  0.00    -0.380 N 
ENDROOT
BRANCH  12  21
HETATM   21  O4  UNL     1      41.520  40.755  31.303  1.00  0.00    -0.393 OA
ATOM     22  H4  UNL     1      42.358  40.897  31.728  1.00  0.00     0.210 HD
ENDBRANCH  12  21
BRANCH  20  23
HETATM   23  C19 UNL     1      39.638  37.041  29.863  1.00  0.00     0.064 C 
BRANCH  23  24
HETATM   24  C20 UNL     1      38.559  36.222  29.117  1.00  0.00     0.024 A 
HETATM   25  C21 UNL     1      37.846  35.164  29.992  1.00  0.00     0.010 A 
HETATM   26  C22 UNL     1      38.808  34.756  28.972  1.00  0.00     0.010 A 
ENDBRANCH  23  24
ENDBRANCH  20  23
BRANCH   6  27
HETATM   27  O3  UNL     1      41.954  39.707  26.476  1.00  0.00    -0.389 OA
ATOM     28  H3  UNL     1      42.624  39.390  27.069  1.00  0.00     0.210 HD
ENDBRANCH   6  27
BRANCH   2  29
HETATM   29  O1  UNL     1      42.102  42.049  25.754  1.00  0.00    -0.387 OA
ATOM     30  H1  UNL     1      42.723  41.521  26.241  1.00  0.00     0.210 HD
ENDBRANCH   2  29
BRANCH   3  31
HETATM   31  O2  UNL     1      39.005  43.583  26.414  1.00  0.00    -0.393 OA
ATOM     32  H2  UNL     1      39.446  44.424  26.387  1.00  0.00     0.210 HD
ENDBRANCH   3  31
TORSDOF 6
ENDMDL
MODEL 4
REMARK VINA RESULT: -6.073089472      3.888      6.980
REMARK  6 active torsions:
REMARK  status: ('A' for Active; 'I' for Inactive)
REMARK    1  A    between atoms: C2_2  and  O1_3 
REMARK    2  A    between atoms: C3_5  and  O2_6 
REMARK    3  A    between atoms: C6_10  and  O3_11 
REMARK    4  A    between atoms: C12_18  and  O4_19 
REMARK    5  A    between atoms: N1_28  and  C19_29 
REMARK    6  A    between atoms: C19_29  and  C20_30 
ROOT
HETATM    1  C1  UNL     1      39.382  44.386  27.110  1.00  0.00     0.049 C 
HETATM    2  C2  UNL     1      38.797  43.631  28.310  1.00  0.00     0.086 C 
HETATM    3  C3  UNL     1      39.319  44.137  29.606  1.00  0.00     0.152 C 
HETATM    4  C4  UNL     1      39.517  43.076  30.646  1.00  0.00     0.038 C 
HETATM    5  C5  UNL     1      38.699  41.865  30.508  1.00  0.00     0.041 C 
HETATM    6  C6  UNL     1      38.467  41.344  29.110  1.00  0.00     0.067 C 
HETATM    7  C7  UNL     1      38.731  39.881  29.011  1.00  0.00     0.072 C 
HETATM    8  C8  UNL     1      40.074  39.439  28.489  1.00  0.00     0.060 C 
HETATM    9  C9  UNL     1      41.039  40.628  28.485  1.00  0.00     0.034 C 
HETATM   10  C10 UNL     1      40.526  41.880  27.884  1.00  0.00     0.013 C 
HETATM   11  C11 UNL     1      39.086  42.169  28.045  1.00  0.00     0.057 C 
HETATM   12  C12 UNL     1      40.015  38.899  27.127  1.00  0.00     0.147 C 
HETATM   13  C13 UNL     1      40.215  37.487  26.817  1.00  0.00     0.042 C 
HETATM   14  C14 UNL     1      41.482  36.803  27.145  1.00  0.00     0.035 A 
HETATM   15  C15 UNL     1      42.814  37.374  26.964  1.00  0.00     0.185 A 
HETATM   16  F1  UNL     1      43.819  36.605  26.459  1.00  0.00    -0.248 F 
HETATM   17  C16 UNL     1      42.207  37.020  28.357  1.00  0.00     0.010 A 
HETATM   18  C17 UNL     1      42.995  35.847  28.972  1.00  0.00     0.020 C 
HETATM   19  C18 UNL     1      41.924  38.115  29.291  1.00  0.00     0.135 C 
HETATM   20  N1  UNL     1      40.557  38.517  29.462  1.00  0.00    -0.380 N 
ENDROOT
BRANCH  12  21
HETATM   21  O4  UNL     1      40.795  39.640  26.205  1.00  0.00    -0.393 OA
ATOM     22  H4  UNL     1      41.714  39.681  26.446  1.00  0.00     0.210 HD
ENDBRANCH  12  21
BRANCH  20  23
HETATM   23  C19 UNL     1      39.713  37.479  29.888  1.00  0.00     0.064 C 
BRANCH  23  24
HETATM   24  C20 UNL     1      39.567  37.345  31.421  1.00  0.00     0.024 A 
HETATM   25  C21 UNL     1      38.184  36.832  31.887  1.00  0.00     0.010 A 
HETATM   26  C22 UNL     1      38.560  38.229  32.081  1.00  0.00     0.010 A 
ENDBRANCH  23  24
ENDBRANCH  20  23
BRANCH   6  27
HETATM   27  O3  UNL     1      37.060  41.470  28.903  1.00  0.00    -0.389 OA
ATOM     28  H3  UNL     1      36.717  41.761  29.740  1.00  0.00     0.210 HD
ENDBRANCH   6  27
BRANCH   2  29
HETATM   29  O1  UNL     1      37.415  43.802  28.222  1.00  0.00    -0.387 OA
ATOM     30  H1  UNL     1      37.287  44.521  27.615  1.00  0.00     0.210 HD
ENDBRANCH   2  29
BRANCH   3  31
HETATM   31  O2  UNL     1      40.512  44.849  29.524  1.00  0.00    -0.393 OA
ATOM     32  H2  UNL     1      41.291  44.356  29.752  1.00  0.00     0.210 HD
ENDBRANCH   3  31
TORSDOF 6
ENDMDL
MODEL 5
REMARK VINA RESULT: -5.965041165      3.944      7.874
REMARK  6 active torsions:
REMARK  status: ('A' for Active; 'I' for Inactive)
REMARK    1  A    between atoms: C2_2  and  O1_3 
REMARK    2  A    between atoms: C3_5  and  O2_6 
REMARK    3  A    between atoms: C6_10  and  O3_11 
REMARK    4  A    between atoms: C12_18  and  O4_19 
REMARK    5  A    between atoms: N1_28  and  C19_29 
REMARK    6  A    between atoms: C19_29  and  C20_30 
ROOT
HETATM    1  C1  UNL     1      38.955  44.420  30.107  1.00  0.00     0.049 C 
HETATM    2  C2  UNL     1      39.724  44.006  28.846  1.00  0.00     0.086 C 
HETATM    3  C3  UNL     1      38.965  44.294  27.601  1.00  0.00     0.152 C 
HETATM    4  C4  UNL     1      39.154  43.277  26.516  1.00  0.00     0.038 C 
HETATM    5  C5  UNL     1      40.402  42.503  26.557  1.00  0.00     0.041 C 
HETATM    6  C6  UNL     1      40.908  42.081  27.915  1.00  0.00     0.067 C 
HETATM    7  C7  UNL     1      41.269  40.636  27.949  1.00  0.00     0.072 C 
HETATM    8  C8  UNL     1      40.256  39.667  28.503  1.00  0.00     0.060 C 
HETATM    9  C9  UNL     1      38.893  40.356  28.609  1.00  0.00     0.034 C 
HETATM   10  C10 UNL     1      38.887  41.689  29.252  1.00  0.00     0.013 C 
HETATM   11  C11 UNL     1      40.071  42.547  29.046  1.00  0.00     0.057 C 
HETATM   12  C12 UNL     1      40.611  39.157  29.831  1.00  0.00     0.147 C 
HETATM   13  C13 UNL     1      41.022  37.779  30.076  1.00  0.00     0.042 C 
HETATM   14  C14 UNL     1      40.126  36.646  29.766  1.00  0.00     0.035 A 
HETATM   15  C15 UNL     1      38.691  36.616  30.032  1.00  0.00     0.185 A 
HETATM   16  F1  UNL     1      38.117  35.488  30.539  1.00  0.00    -0.248 F 
HETATM   17  C16 UNL     1      39.304  36.584  28.599  1.00  0.00     0.010 A 
HETATM   18  C17 UNL     1      39.028  35.210  27.957  1.00  0.00     0.020 C 
HETATM   19  C18 UNL     1      39.062  37.727  27.712  1.00  0.00     0.135 C 
HETATM   20  N1  UNL     1      40.133  38.658  27.505  1.00  0.00    -0.380 N 
ENDROOT
BRANCH  12  21
HETATM   21  O4  UNL     1      39.653  39.486  30.823  1.00  0.00    -0.393 OA
ATOM     22  H4  UNL     1      39.913  40.228  31.357  1.00  0.00     0.210 HD
ENDBRANCH  12  21
BRANCH  20  23
HETATM   23  C19 UNL     1      41.300  38.069  26.990  1.00  0.00     0.064 C 
BRANCH  23  24
HETATM   24  C20 UNL     1      41.317  37.891  25.455  1.00  0.00     0.024 A 
HETATM   25  C21 UNL     1      42.226  38.894  24.707  1.00  0.00     0.010 A 
HETATM   26  C22 UNL     1      40.773  39.019  24.641  1.00  0.00     0.010 A 
ENDBRANCH  23  24
ENDBRANCH  20  23
BRANCH   6  27
HETATM   27  O3  UNL     1      42.151  42.766  28.069  1.00  0.00    -0.389 OA
ATOM     28  H3  UNL     1      42.405  42.607  28.970  1.00  0.00     0.210 HD
ENDBRANCH   6  27
BRANCH   2  29
HETATM   29  O1  UNL     1      40.918  44.726  28.885  1.00  0.00    -0.387 OA
ATOM     30  H1  UNL     1      41.607  44.073  28.916  1.00  0.00     0.210 HD
ENDBRANCH   2  29
BRANCH   3  31
HETATM   31  O2  UNL     1      37.592  44.452  27.770  1.00  0.00    -0.393 OA
ATOM     32  H2  UNL     1      37.154  43.727  28.200  1.00  0.00     0.210 HD
ENDBRANCH   3  31
TORSDOF 6
ENDMDL
