MODEL 1
REMARK VINA RESULT: -8.021815362      0.000      0.000
REMARK  6 active torsions:
REMARK  status: ('A' for Active; 'I' for Inactive)
REMARK    1  A    between atoms: C2_2  and  N1_3 
REMARK       I    between atoms: N1_3  and  C3_5 
REMARK       I    between atoms: C3_5  and  N2_7 
REMARK    2  A    between atoms: N2_7  and  C4_9 
REMARK    3  A    between atoms: C7_14  and  C8_15 
REMARK    4  A    between atoms: C9_16  and  C10_17 
REMARK       I    between atoms: C10_17  and  N4_19 
REMARK    5  A    between atoms: N4_19  and  C11_21 
REMARK    6  A    between atoms: C16_27  and  N5_28 
ROOT
HETATM    1  N5  UNL     1      40.702  40.355  30.766  1.00  0.00    -0.289 N 
ATOM      2  H5  UNL     1      41.714  40.420  30.877  1.00  0.00     0.178 HD
HETATM    3  C17 UNL     1      39.947  41.421  30.253  1.00  0.00     0.182 C 
HETATM    4  N6  UNL     1      39.301  42.304  29.834  1.00  0.00    -0.172 NA
ENDROOT
BRANCH   1   5
HETATM    5  C16 UNL     1      39.990  39.181  31.124  1.00  0.00     0.101 A 
HETATM    6  C15 UNL     1      39.634  38.210  30.225  1.00  0.00     0.163 A 
HETATM    7  C7  UNL     1      38.948  37.130  30.717  1.00  0.00     0.061 A 
HETATM    8  F1  UNL     1      39.941  38.313  28.936  1.00  0.00    -0.202 F 
HETATM    9  C6  UNL     1      38.615  36.987  32.029  1.00  0.00     0.054 A 
HETATM   10  C5  UNL     1      38.973  37.976  32.969  1.00  0.00     0.055 A 
HETATM   11  N3  UNL     1      38.707  37.948  34.261  1.00  0.00    -0.335 N 
HETATM   12  C18 UNL     1      39.657  39.054  32.487  1.00  0.00     0.065 A 
HETATM   13  C4  UNL     1      39.118  38.966  35.012  1.00  0.00     0.153 A 
ATOM     14  H3  UNL     1      38.199  37.165  34.673  1.00  0.00     0.168 HD
HETATM   15  S1  UNL     1      39.896  39.990  33.892  1.00  0.00    -0.049 SA
BRANCH   7  16
HETATM   16  C8  UNL     1      38.559  36.085  29.772  1.00  0.00    -0.053 C 
HETATM   17  C9  UNL     1      38.254  35.228  28.982  1.00  0.00     0.000 C 
BRANCH  17  18
HETATM   18  C10 UNL     1      37.901  34.192  28.059  1.00  0.00     0.297 C 
HETATM   19  O2  UNL     1      37.035  33.359  28.455  1.00  0.00    -0.258 OA
HETATM   20  N4  UNL     1      38.472  34.082  26.768  1.00  0.00    -0.342 N 
ATOM     21  H4  UNL     1      39.167  34.773  26.486  1.00  0.00     0.164 HD
BRANCH  20  22
HETATM   22  C11 UNL     1      38.121  33.042  25.832  1.00  0.00     0.023 C 
HETATM   23  C12 UNL     1      36.904  33.532  25.064  1.00  0.00     0.037 C 
HETATM   24  C13 UNL     1      39.253  32.855  24.843  1.00  0.00     0.037 C 
HETATM   25  C14 UNL     1      37.833  31.737  26.508  1.00  0.00     0.037 C 
ENDBRANCH  20  22
ENDBRANCH  17  18
ENDBRANCH   7  16
BRANCH  13  26
HETATM   26  N2  UNL     1      38.952  39.123  36.312  1.00  0.00    -0.289 N 
HETATM   27  C3  UNL     1      38.590  38.055  37.132  1.00  0.00     0.322 C 
HETATM   28  N1  UNL     1      37.447  38.138  37.960  1.00  0.00    -0.343 N 
HETATM   29  O1  UNL     1      39.277  37.008  37.142  1.00  0.00    -0.247 OA
ATOM     30  H1  UNL     1      36.888  38.992  37.950  1.00  0.00     0.164 HD
ATOM     31  H2  UNL     1      39.091  40.045  36.726  1.00  0.00     0.172 HD
BRANCH  28  32
HETATM   32  C2  UNL     1      37.046  37.044  38.823  1.00  0.00     0.120 C 
HETATM   33  C1  UNL     1      35.639  36.639  38.508  1.00  0.00     0.026 C 
ENDBRANCH  28  32
ENDBRANCH  13  26
ENDBRANCH   1   5
TORSDOF 6
ENDMDL
MODEL 2
REMARK VINA RESULT: -7.821209531      0.751      1.369
REMARK  6 active torsions:
REMARK  status: ('A' for Active; 'I' for Inactive)
REMARK    1  A    between atoms: C2_2  and  N1_3 
REMARK       I    between atoms: N1_3  and  C3_5 
REMARK       I    between atoms: C3_5  and  N2_7 
REMARK    2  A    between atoms: N2_7  and  C4_9 
REMARK    3  A    between atoms: C7_14  and  C8_15 
REMARK    4  A    between atoms: C9_16  and  C10_17 
REMARK       I    between atoms: C10_17  and  N4_19 
REMARK    5  A    between atoms: N4_19  and  C11_21 
REMARK    6  A    between atoms: C16_27  and  N5_28 
ROOT
HETATM    1  N5  UNL     1      41.030  40.198  30.928  1.00  0.00    -0.289 N 
ATOM      2  H5  UNL     1      40.634  41.123  30.762  1.00  0.00     0.178 HD
HETATM    3  C17 UNL     1      42.413  39.966  30.855  1.00  0.00     0.182 C 
HETATM    4  N6  UNL     1      43.563  39.753  30.791  1.00  0.00    -0.172 NA
ENDROOT
BRANCH   1   5
HETATM    5  C16 UNL     1      40.210  39.084  31.242  1.00  0.00     0.101 A 
HETATM    6  C15 UNL     1      39.825  38.145  30.321  1.00  0.00     0.163 A 
HETATM    7  C7  UNL     1      39.031  37.123  30.771  1.00  0.00     0.061 A 
HETATM    8  F1  UNL     1      40.204  38.225  29.050  1.00  0.00    -0.202 F 
HETATM    9  C6  UNL     1      38.622  37.005  32.064  1.00  0.00     0.054 A 
HETATM   10  C5  UNL     1      39.008  37.960  33.027  1.00  0.00     0.055 A 
HETATM   11  N3  UNL     1      38.675  37.951  34.303  1.00  0.00    -0.335 N 
HETATM   12  C18 UNL     1      39.799  38.981  32.586  1.00  0.00     0.065 A 
HETATM   13  C4  UNL     1      39.126  38.933  35.079  1.00  0.00     0.153 A 
ATOM     14  H3  UNL     1      38.086  37.211  34.685  1.00  0.00     0.168 HD
HETATM   15  S1  UNL     1      40.039  39.893  34.007  1.00  0.00    -0.049 SA
BRANCH   7  16
HETATM   16  C8  UNL     1      38.610  36.113  29.803  1.00  0.00    -0.053 C 
HETATM   17  C9  UNL     1      38.277  35.286  28.992  1.00  0.00     0.000 C 
BRANCH  17  18
HETATM   18  C10 UNL     1      37.892  34.286  28.043  1.00  0.00     0.297 C 
HETATM   19  O2  UNL     1      36.954  33.512  28.392  1.00  0.00    -0.258 OA
HETATM   20  N4  UNL     1      38.509  34.147  26.776  1.00  0.00    -0.342 N 
ATOM     21  H4  UNL     1      39.261  34.790  26.530  1.00  0.00     0.164 HD
BRANCH  20  22
HETATM   22  C11 UNL     1      38.126  33.142  25.814  1.00  0.00     0.023 C 
HETATM   23  C12 UNL     1      39.287  32.994  24.843  1.00  0.00     0.037 C 
HETATM   24  C13 UNL     1      37.939  31.816  26.522  1.00  0.00     0.037 C 
HETATM   25  C14 UNL     1      36.866  33.496  25.086  1.00  0.00     0.037 C 
ENDBRANCH  20  22
ENDBRANCH  17  18
ENDBRANCH   7  16
BRANCH  13  26
HETATM   26  N2  UNL     1      38.907  39.100  36.371  1.00  0.00    -0.289 N 
HETATM   27  C3  UNL     1      38.540  38.033  37.189  1.00  0.00     0.322 C 
HETATM   28  N1  UNL     1      37.363  38.098  37.973  1.00  0.00    -0.343 N 
HETATM   29  O1  UNL     1      39.250  37.003  37.239  1.00  0.00    -0.247 OA
ATOM     30  H1  UNL     1      36.785  38.937  37.931  1.00  0.00     0.164 HD
ATOM     31  H2  UNL     1      39.007  40.030  36.778  1.00  0.00     0.172 HD
BRANCH  28  32
HETATM   32  C2  UNL     1      36.957  37.004  38.833  1.00  0.00     0.120 C 
HETATM   33  C1  UNL     1      35.603  36.512  38.421  1.00  0.00     0.026 C 
ENDBRANCH  28  32
ENDBRANCH  13  26
ENDBRANCH   1   5
TORSDOF 6
ENDMDL
MODEL 3
REMARK VINA RESULT: -7.568453521      2.784      4.385
REMARK  6 active torsions:
REMARK  status: ('A' for Active; 'I' for Inactive)
REMARK    1  A    between atoms: C2_2  and  N1_3 
REMARK       I    between atoms: N1_3  and  C3_5 
REMARK       I    between atoms: C3_5  and  N2_7 
REMARK    2  A    between atoms: N2_7  and  C4_9 
REMARK    3  A    between atoms: C7_14  and  C8_15 
REMARK    4  A    between atoms: C9_16  and  C10_17 
REMARK       I    between atoms: C10_17  and  N4_19 
REMARK    5  A    between atoms: N4_19  and  C11_21 
REMARK    6  A    between atoms: C16_27  and  N5_28 
ROOT
HETATM    1  N5  UNL     1      36.913  36.730  34.428  1.00  0.00    -0.289 N 
ATOM      2  H5  UNL     1      35.904  36.830  34.310  1.00  0.00     0.178 HD
HETATM    3  C17 UNL     1      37.474  36.314  35.645  1.00  0.00     0.182 C 
HETATM    4  N6  UNL     1      37.961  35.975  36.656  1.00  0.00    -0.172 NA
ENDROOT
BRANCH   1   5
HETATM    5  C16 UNL     1      37.814  37.006  33.368  1.00  0.00     0.101 A 
HETATM    6  C15 UNL     1      37.735  36.414  32.135  1.00  0.00     0.163 A 
HETATM    7  C7  UNL     1      38.676  36.780  31.209  1.00  0.00     0.061 A 
HETATM    8  F1  UNL     1      36.788  35.525  31.852  1.00  0.00    -0.202 F 
HETATM    9  C6  UNL     1      39.661  37.685  31.458  1.00  0.00     0.054 A 
HETATM   10  C5  UNL     1      39.759  38.306  32.721  1.00  0.00     0.055 A 
HETATM   11  N3  UNL     1      40.666  39.195  33.078  1.00  0.00    -0.335 N 
HETATM   12  C18 UNL     1      38.825  37.947  33.648  1.00  0.00     0.065 A 
HETATM   13  C4  UNL     1      40.617  39.684  34.314  1.00  0.00     0.153 A 
ATOM     14  H3  UNL     1      41.388  39.498  32.423  1.00  0.00     0.168 HD
HETATM   15  S1  UNL     1      39.273  38.889  34.998  1.00  0.00    -0.049 SA
BRANCH   7  16
HETATM   16  C8  UNL     1      38.608  36.157  29.888  1.00  0.00    -0.053 C 
HETATM   17  C9  UNL     1      38.537  35.631  28.807  1.00  0.00     0.000 C 
BRANCH  17  18
HETATM   18  C10 UNL     1      38.440  35.026  27.513  1.00  0.00     0.297 C 
HETATM   19  O2  UNL     1      38.671  35.779  26.522  1.00  0.00    -0.258 OA
HETATM   20  N4  UNL     1      38.107  33.663  27.322  1.00  0.00    -0.342 N 
ATOM     21  H4  UNL     1      37.929  33.088  28.146  1.00  0.00     0.164 HD
BRANCH  20  22
HETATM   22  C11 UNL     1      38.008  33.046  26.022  1.00  0.00     0.023 C 
HETATM   23  C12 UNL     1      37.779  31.560  26.254  1.00  0.00     0.037 C 
HETATM   24  C13 UNL     1      36.798  33.597  25.297  1.00  0.00     0.037 C 
HETATM   25  C14 UNL     1      39.231  33.270  25.187  1.00  0.00     0.037 C 
ENDBRANCH  20  22
ENDBRANCH  17  18
ENDBRANCH   7  16
BRANCH  13  26
HETATM   26  N2  UNL     1      41.427  40.574  34.858  1.00  0.00    -0.289 N 
HETATM   27  C3  UNL     1      42.660  40.203  35.391  1.00  0.00     0.322 C 
HETATM   28  N1  UNL     1      42.992  40.522  36.728  1.00  0.00    -0.343 N 
HETATM   29  O1  UNL     1      43.489  39.581  34.688  1.00  0.00    -0.247 OA
ATOM     30  H1  UNL     1      42.316  41.029  37.300  1.00  0.00     0.164 HD
ATOM     31  H2  UNL     1      41.144  41.554  34.889  1.00  0.00     0.172 HD
BRANCH  28  32
HETATM   32  C2  UNL     1      44.267  40.149  37.310  1.00  0.00     0.120 C 
HETATM   33  C1  UNL     1      44.096  38.934  38.169  1.00  0.00     0.026 C 
ENDBRANCH  28  32
ENDBRANCH  13  26
ENDBRANCH   1   5
TORSDOF 6
ENDMDL
MODEL 4
REMARK VINA RESULT: -7.470798170      3.872      9.484
REMARK  6 active torsions:
REMARK  status: ('A' for Active; 'I' for Inactive)
REMARK    1  A    between atoms: C2_2  and  N1_3 
REMARK       I    between atoms: N1_3  and  C3_5 
REMARK       I    between atoms: C3_5  and  N2_7 
REMARK    2  A    between atoms: N2_7  and  C4_9 
REMARK    3  A    between atoms: C7_14  and  C8_15 
REMARK    4  A    between atoms: C9_16  and  C10_17 
REMARK       I    between atoms: C10_17  and  N4_19 
REMARK    5  A    between atoms: N4_19  and  C11_21 
REMARK    6  A    between atoms: C16_27  and  N5_28 
ROOT
HETATM    1  N5  UNL     1      37.934  33.526  27.338  1.00  0.00    -0.289 N 
ATOM      2  H5  UNL     1      38.299  32.622  27.635  1.00  0.00     0.178 HD
HETATM    3  C17 UNL     1      37.060  33.645  26.246  1.00  0.00     0.182 C 
HETATM    4  N6  UNL     1      36.335  33.764  25.333  1.00  0.00    -0.172 NA
ENDROOT
BRANCH   1   5
HETATM    5  C16 UNL     1      38.285  34.725  28.010  1.00  0.00     0.101 A 
HETATM    6  C15 UNL     1      38.042  34.946  29.340  1.00  0.00     0.163 A 
HETATM    7  C7  UNL     1      38.438  36.153  29.852  1.00  0.00     0.061 A 
HETATM    8  F1  UNL     1      37.448  34.028  30.097  1.00  0.00    -0.202 F 
HETATM    9  C6  UNL     1      39.049  37.118  29.112  1.00  0.00     0.054 A 
HETATM   10  C5  UNL     1      39.308  36.910  27.741  1.00  0.00     0.055 A 
HETATM   11  N3  UNL     1      39.891  37.767  26.925  1.00  0.00    -0.335 N 
HETATM   12  C18 UNL     1      38.917  35.710  27.223  1.00  0.00     0.065 A 
HETATM   13  C4  UNL     1      40.061  37.412  25.654  1.00  0.00     0.153 A 
ATOM     14  H3  UNL     1      40.204  38.679  27.261  1.00  0.00     0.168 HD
HETATM   15  S1  UNL     1      39.393  35.845  25.592  1.00  0.00    -0.049 SA
BRANCH   7  16
HETATM   16  C8  UNL     1      38.186  36.405  31.269  1.00  0.00    -0.053 C 
HETATM   17  C9  UNL     1      37.986  36.595  32.442  1.00  0.00     0.000 C 
BRANCH  17  18
HETATM   18  C10 UNL     1      37.768  36.837  33.837  1.00  0.00     0.297 C 
HETATM   19  O2  UNL     1      36.605  36.597  34.273  1.00  0.00    -0.258 OA
HETATM   20  N4  UNL     1      38.779  37.318  34.703  1.00  0.00    -0.342 N 
ATOM     21  H4  UNL     1      39.705  37.500  34.314  1.00  0.00     0.164 HD
BRANCH  20  22
HETATM   22  C11 UNL     1      38.567  37.564  36.109  1.00  0.00     0.023 C 
HETATM   23  C12 UNL     1      39.758  36.970  36.846  1.00  0.00     0.037 C 
HETATM   24  C13 UNL     1      38.560  39.057  36.361  1.00  0.00     0.037 C 
HETATM   25  C14 UNL     1      37.285  36.970  36.607  1.00  0.00     0.037 C 
ENDBRANCH  20  22
ENDBRANCH  17  18
ENDBRANCH   7  16
BRANCH  13  26
HETATM   26  N2  UNL     1      40.618  38.122  24.690  1.00  0.00    -0.289 N 
HETATM   27  C3  UNL     1      41.402  39.240  24.972  1.00  0.00     0.322 C 
HETATM   28  N1  UNL     1      41.101  40.496  24.394  1.00  0.00    -0.343 N 
HETATM   29  O1  UNL     1      42.384  39.143  25.742  1.00  0.00    -0.247 OA
ATOM     30  H1  UNL     1      40.299  40.573  23.767  1.00  0.00     0.164 HD
ATOM     31  H2  UNL     1      40.471  37.848  23.718  1.00  0.00     0.172 HD
BRANCH  28  32
HETATM   32  C2  UNL     1      41.899  41.675  24.668  1.00  0.00     0.120 C 
HETATM   33  C1  UNL     1      41.155  42.585  25.597  1.00  0.00     0.026 C 
ENDBRANCH  28  32
ENDBRANCH  13  26
ENDBRANCH   1   5
TORSDOF 6
ENDMDL
MODEL 5
REMARK VINA RESULT: -7.433290480      1.001      1.323
REMARK  6 active torsions:
REMARK  status: ('A' for Active; 'I' for Inactive)
REMARK    1  A    between atoms: C2_2  and  N1_3 
REMARK       I    between atoms: N1_3  and  C3_5 
REMARK       I    between atoms: C3_5  and  N2_7 
REMARK    2  A    between atoms: N2_7  and  C4_9 
REMARK    3  A    between atoms: C7_14  and  C8_15 
REMARK    4  A    between atoms: C9_16  and  C10_17 
REMARK       I    between atoms: C10_17  and  N4_19 
REMARK    5  A    between atoms: N4_19  and  C11_21 
REMARK    6  A    between atoms: C16_27  and  N5_28 
ROOT
HETATM    1  N5  UNL     1      39.885  41.052  29.715  1.00  0.00    -0.289 N 
ATOM      2  H5  UNL     1      40.846  41.389  29.667  1.00  0.00     0.178 HD
HETATM    3  C17 UNL     1      38.811  41.820  29.238  1.00  0.00     0.182 C 
HETATM    4  N6  UNL     1      37.902  42.450  28.852  1.00  0.00    -0.172 NA
ENDROOT
BRANCH   1   5
HETATM    5  C16 UNL     1      39.569  39.784  30.268  1.00  0.00     0.101 A 
HETATM    6  C15 UNL     1      39.288  38.678  29.510  1.00  0.00     0.163 A 
HETATM    7  C7  UNL     1      39.001  37.520  30.184  1.00  0.00     0.061 A 
HETATM    8  F1  UNL     1      39.295  38.728  28.182  1.00  0.00    -0.202 F 
HETATM    9  C6  UNL     1      38.985  37.427  31.542  1.00  0.00     0.054 A 
HETATM   10  C5  UNL     1      39.272  38.555  32.339  1.00  0.00     0.055 A 
HETATM   11  N3  UNL     1      39.286  38.586  33.658  1.00  0.00    -0.335 N 
HETATM   12  C18 UNL     1      39.559  39.711  31.676  1.00  0.00     0.065 A 
HETATM   13  C4  UNL     1      39.578  39.737  34.258  1.00  0.00     0.153 A 
ATOM     14  H3  UNL     1      39.079  37.749  34.203  1.00  0.00     0.168 HD
HETATM   15  S1  UNL     1      39.839  40.804  32.954  1.00  0.00    -0.049 SA
BRANCH   7  16
HETATM   16  C8  UNL     1      38.699  36.330  29.392  1.00  0.00    -0.053 C 
HETATM   17  C9  UNL     1      38.429  35.353  28.740  1.00  0.00     0.000 C 
BRANCH  17  18
HETATM   18  C10 UNL     1      38.116  34.204  27.945  1.00  0.00     0.297 C 
HETATM   19  O2  UNL     1      37.412  33.311  28.502  1.00  0.00    -0.258 OA
HETATM   20  N4  UNL     1      38.555  34.049  26.608  1.00  0.00    -0.342 N 
ATOM     21  H4  UNL     1      39.120  34.790  26.194  1.00  0.00     0.164 HD
BRANCH  20  22
HETATM   22  C11 UNL     1      38.242  32.894  25.801  1.00  0.00     0.023 C 
HETATM   23  C12 UNL     1      39.367  32.746  24.787  1.00  0.00     0.037 C 
HETATM   24  C13 UNL     1      38.238  31.658  26.676  1.00  0.00     0.037 C 
HETATM   25  C14 UNL     1      36.919  33.018  25.111  1.00  0.00     0.037 C 
ENDBRANCH  20  22
ENDBRANCH  17  18
ENDBRANCH   7  16
BRANCH  13  26
HETATM   26  N2  UNL     1      39.644  39.972  35.556  1.00  0.00    -0.289 N 
HETATM   27  C3  UNL     1      39.479  38.948  36.488  1.00  0.00     0.322 C 
HETATM   28  N1  UNL     1      38.501  39.052  37.505  1.00  0.00    -0.343 N 
HETATM   29  O1  UNL     1      40.196  37.924  36.433  1.00  0.00    -0.247 OA
ATOM     30  H1  UNL     1      37.917  39.887  37.549  1.00  0.00     0.164 HD
ATOM     31  H2  UNL     1      39.819  40.922  35.884  1.00  0.00     0.172 HD
BRANCH  28  32
HETATM   32  C2  UNL     1      38.307  38.004  38.488  1.00  0.00     0.120 C 
HETATM   33  C1  UNL     1      37.167  37.125  38.073  1.00  0.00     0.026 C 
ENDBRANCH  28  32
ENDBRANCH  13  26
ENDBRANCH   1   5
TORSDOF 6
ENDMDL
