MODEL 1
REMARK VINA RESULT: -6.602450409      0.000      0.000
REMARK  3 active torsions:
REMARK  status: ('A' for Active; 'I' for Inactive)
REMARK    1  A    between atoms: C2_2  and  C4_5 
REMARK    2  A    between atoms: C4_5  and  N1_6 
REMARK       I    between atoms: N1_6  and  C5_8 
REMARK       I    between atoms: C5_8  and  N2_10 
REMARK    3  A    between atoms: C17_27  and  N5_28 
ROOT
HETATM    1  C4  UNL     1      39.488  38.810  31.412  1.00  0.00     0.180 C 
HETATM    2  C14 UNL     1      38.184  38.058  31.720  1.00  0.00     0.071 C 
HETATM    3  C15 UNL     1      38.305  36.580  31.597  1.00  0.00     0.065 C 
HETATM    4  C16 UNL     1      38.646  36.275  30.144  1.00  0.00     0.052 A 
HETATM    5  N4  UNL     1      38.113  35.415  29.337  1.00  0.00    -0.338 N 
ATOM      6  H4  UNL     1      37.347  34.820  29.651  1.00  0.00     0.168 HD
HETATM    7  C17 UNL     1      38.579  35.315  28.087  1.00  0.00     0.145 A 
HETATM    8  S1  UNL     1      39.825  36.497  28.071  1.00  0.00    -0.028 SA
HETATM    9  C18 UNL     1      39.676  37.055  29.683  1.00  0.00     0.139 A 
HETATM   10  O2  UNL     1      40.292  38.006  30.521  1.00  0.00    -0.307 OA
ENDROOT
BRANCH   1  11
HETATM   11  C2  UNL     1      40.292  38.968  32.648  1.00  0.00     0.146 C 
HETATM   12  C1  UNL     1      40.456  40.287  33.278  1.00  0.00     0.057 C 
HETATM   13  C3  UNL     1      41.735  38.470  32.335  1.00  0.00     0.057 C 
HETATM   14  F1  UNL     1      39.852  38.096  33.657  1.00  0.00    -0.238 F 
ENDBRANCH   1  11
BRANCH   1  15
HETATM   15  N1  UNL     1      39.183  40.019  30.724  1.00  0.00    -0.308 N 
HETATM   16  C5  UNL     1      39.980  40.816  29.881  1.00  0.00     0.320 C 
HETATM   17  O1  UNL     1      41.188  40.453  29.687  1.00  0.00    -0.247 OA
HETATM   18  N2  UNL     1      39.498  41.996  29.246  1.00  0.00    -0.333 N 
HETATM   19  C6  UNL     1      38.185  42.544  29.347  1.00  0.00     0.128 C 
HETATM   20  C13 UNL     1      40.243  42.868  28.381  1.00  0.00     0.137 C 
HETATM   21  C7  UNL     1      37.912  42.894  27.874  1.00  0.00     0.031 C 
HETATM   22  C8  UNL     1      39.223  43.583  27.519  1.00  0.00    -0.019 C 
HETATM   23  C9  UNL     1      39.112  45.050  27.892  1.00  0.00     0.039 C 
HETATM   24  C12 UNL     1      39.542  43.497  26.060  1.00  0.00     0.039 C 
HETATM   25  C10 UNL     1      38.791  45.854  26.649  1.00  0.00     0.233 C 
HETATM   26  N3  UNL     1      39.885  45.845  25.699  1.00  0.00    -0.075 N 
HETATM   27  C11 UNL     1      40.570  44.571  25.748  1.00  0.00     0.233 C 
ATOM     28  H32 UNL     1      39.574  46.077  24.755  1.00  0.00     0.277 HD
ATOM     29  H31 UNL     1      40.523  46.628  25.842  1.00  0.00     0.277 HD
ATOM     30  H1  UNL     1      38.234  40.363  30.864  1.00  0.00     0.167 HD
ENDBRANCH   1  15
BRANCH   7  31
HETATM   31  N5  UNL     1      38.185  34.518  27.122  1.00  0.00    -0.380 N 
ATOM     32  H52 UNL     1      38.068  33.504  27.134  1.00  0.00     0.158 HD
ATOM     33  H51 UNL     1      37.913  34.753  26.167  1.00  0.00     0.158 HD
ENDBRANCH   7  31
TORSDOF 3
ENDMDL
MODEL 2
REMARK VINA RESULT: -6.512473831      2.407      3.180
REMARK  3 active torsions:
REMARK  status: ('A' for Active; 'I' for Inactive)
REMARK    1  A    between atoms: C2_2  and  C4_5 
REMARK    2  A    between atoms: C4_5  and  N1_6 
REMARK       I    between atoms: N1_6  and  C5_8 
REMARK       I    between atoms: C5_8  and  N2_10 
REMARK    3  A    between atoms: C17_27  and  N5_28 
ROOT
HETATM    1  C4  UNL     1      40.651  37.024  28.299  1.00  0.00     0.180 C 
HETATM    2  C14 UNL     1      39.357  36.720  29.070  1.00  0.00     0.071 C 
HETATM    3  C15 UNL     1      38.948  35.291  29.008  1.00  0.00     0.065 C 
HETATM    4  C16 UNL     1      38.666  34.965  27.547  1.00  0.00     0.052 A 
HETATM    5  N4  UNL     1      37.647  34.366  27.019  1.00  0.00    -0.338 N 
ATOM      6  H4  UNL     1      36.882  34.036  27.607  1.00  0.00     0.168 HD
HETATM    7  C17 UNL     1      37.609  34.185  25.694  1.00  0.00     0.145 A 
HETATM    8  S1  UNL     1      39.087  34.898  25.190  1.00  0.00    -0.028 SA
HETATM    9  C18 UNL     1      39.674  35.393  26.721  1.00  0.00     0.139 A 
HETATM   10  O2  UNL     1      40.806  36.049  27.244  1.00  0.00    -0.307 OA
ENDROOT
BRANCH   1  11
HETATM   11  C2  UNL     1      41.827  36.851  29.185  1.00  0.00     0.146 C 
HETATM   12  C1  UNL     1      41.839  37.415  30.543  1.00  0.00     0.057 C 
HETATM   13  C3  UNL     1      43.056  37.477  28.460  1.00  0.00     0.057 C 
HETATM   14  F1  UNL     1      42.174  35.495  29.313  1.00  0.00    -0.238 F 
ENDBRANCH   1  11
BRANCH   1  15
HETATM   15  N1  UNL     1      40.539  38.299  27.676  1.00  0.00    -0.308 N 
HETATM   16  C5  UNL     1      39.974  39.499  28.146  1.00  0.00     0.320 C 
HETATM   17  O1  UNL     1      39.441  39.491  29.305  1.00  0.00    -0.247 OA
HETATM   18  N2  UNL     1      39.973  40.705  27.389  1.00  0.00    -0.333 N 
HETATM   19  C6  UNL     1      40.523  40.896  26.086  1.00  0.00     0.128 C 
HETATM   20  C13 UNL     1      39.413  41.966  27.788  1.00  0.00     0.137 C 
HETATM   21  C7  UNL     1      41.238  42.244  26.278  1.00  0.00     0.031 C 
HETATM   22  C8  UNL     1      40.143  43.026  26.989  1.00  0.00    -0.019 C 
HETATM   23  C9  UNL     1      39.240  43.650  25.941  1.00  0.00     0.039 C 
HETATM   24  C12 UNL     1      40.685  44.124  27.849  1.00  0.00     0.039 C 
HETATM   25  C10 UNL     1      39.630  45.102  25.752  1.00  0.00     0.233 C 
HETATM   26  N3  UNL     1      39.352  45.897  26.931  1.00  0.00    -0.075 N 
HETATM   27  C11 UNL     1      39.553  45.099  28.122  1.00  0.00     0.233 C 
ATOM     28  H32 UNL     1      39.900  46.758  26.950  1.00  0.00     0.277 HD
ATOM     29  H31 UNL     1      38.422  46.313  26.901  1.00  0.00     0.277 HD
ATOM     30  H1  UNL     1      40.932  38.352  26.737  1.00  0.00     0.167 HD
ENDBRANCH   1  15
BRANCH   7  31
HETATM   31  N5  UNL     1      36.681  33.608  24.968  1.00  0.00    -0.380 N 
ATOM     32  H52 UNL     1      36.571  32.621  24.732  1.00  0.00     0.158 HD
ATOM     33  H51 UNL     1      35.881  34.031  24.496  1.00  0.00     0.158 HD
ENDBRANCH   7  31
TORSDOF 3
ENDMDL
MODEL 3
REMARK VINA RESULT: -6.303059135      4.789      7.518
REMARK  3 active torsions:
REMARK  status: ('A' for Active; 'I' for Inactive)
REMARK    1  A    between atoms: C2_2  and  C4_5 
REMARK    2  A    between atoms: C4_5  and  N1_6 
REMARK       I    between atoms: N1_6  and  C5_8 
REMARK       I    between atoms: C5_8  and  N2_10 
REMARK    3  A    between atoms: C17_27  and  N5_28 
ROOT
HETATM    1  C4  UNL     1      40.057  36.309  28.811  1.00  0.00     0.180 C 
HETATM    2  C14 UNL     1      39.315  34.983  29.032  1.00  0.00     0.071 C 
HETATM    3  C15 UNL     1      37.891  35.154  29.428  1.00  0.00     0.065 C 
HETATM    4  C16 UNL     1      37.880  35.884  30.766  1.00  0.00     0.052 A 
HETATM    5  N4  UNL     1      37.231  35.604  31.850  1.00  0.00    -0.338 N 
ATOM      6  H4  UNL     1      36.617  34.790  31.888  1.00  0.00     0.168 HD
HETATM    7  C17 UNL     1      37.374  36.394  32.920  1.00  0.00     0.145 A 
HETATM    8  S1  UNL     1      38.477  37.578  32.349  1.00  0.00    -0.028 SA
HETATM    9  C18 UNL     1      38.694  36.987  30.757  1.00  0.00     0.139 A 
HETATM   10  O2  UNL     1      39.422  37.337  29.602  1.00  0.00    -0.307 OA
ENDROOT
BRANCH   1  11
HETATM   11  C2  UNL     1      39.920  36.743  27.400  1.00  0.00     0.146 C 
HETATM   12  C1  UNL     1      41.081  36.755  26.498  1.00  0.00     0.057 C 
HETATM   13  C3  UNL     1      39.382  38.205  27.410  1.00  0.00     0.057 C 
HETATM   14  F1  UNL     1      38.909  36.023  26.741  1.00  0.00    -0.238 F 
ENDBRANCH   1  11
BRANCH   1  15
HETATM   15  N1  UNL     1      41.395  36.185  29.283  1.00  0.00    -0.308 N 
HETATM   16  C5  UNL     1      42.272  37.152  29.808  1.00  0.00     0.320 C 
HETATM   17  O1  UNL     1      41.859  38.357  29.871  1.00  0.00    -0.247 OA
HETATM   18  N2  UNL     1      43.585  36.842  30.263  1.00  0.00    -0.333 N 
HETATM   19  C6  UNL     1      44.206  35.558  30.270  1.00  0.00     0.128 C 
HETATM   20  C13 UNL     1      44.544  37.766  30.803  1.00  0.00     0.137 C 
HETATM   21  C7  UNL     1      44.849  35.564  31.667  1.00  0.00     0.031 C 
HETATM   22  C8  UNL     1      45.488  36.946  31.659  1.00  0.00    -0.019 C 
HETATM   23  C9  UNL     1      46.861  36.838  31.022  1.00  0.00     0.039 C 
HETATM   24  C12 UNL     1      45.655  37.512  33.034  1.00  0.00     0.039 C 
HETATM   25  C10 UNL     1      47.910  36.776  32.115  1.00  0.00     0.233 C 
HETATM   26  N3  UNL     1      47.994  38.019  32.856  1.00  0.00    -0.075 N 
HETATM   27  C11 UNL     1      46.684  38.626  32.953  1.00  0.00     0.233 C 
ATOM     28  H32 UNL     1      48.425  37.889  33.772  1.00  0.00     0.277 HD
ATOM     29  H31 UNL     1      48.684  38.656  32.457  1.00  0.00     0.277 HD
ATOM     30  H1  UNL     1      41.779  35.242  29.233  1.00  0.00     0.167 HD
ENDBRANCH   1  15
BRANCH   7  31
HETATM   31  N5  UNL     1      36.812  36.289  34.102  1.00  0.00    -0.380 N 
ATOM     32  H52 UNL     1      36.877  35.529  34.779  1.00  0.00     0.158 HD
ATOM     33  H51 UNL     1      36.198  36.950  34.580  1.00  0.00     0.158 HD
ENDBRANCH   7  31
TORSDOF 3
ENDMDL
MODEL 4
REMARK VINA RESULT: -6.209328313      4.324      8.687
REMARK  3 active torsions:
REMARK  status: ('A' for Active; 'I' for Inactive)
REMARK    1  A    between atoms: C2_2  and  C4_5 
REMARK    2  A    between atoms: C4_5  and  N1_6 
REMARK       I    between atoms: N1_6  and  C5_8 
REMARK       I    between atoms: C5_8  and  N2_10 
REMARK    3  A    between atoms: C17_27  and  N5_28 
ROOT
HETATM    1  C4  UNL     1      40.506  40.075  25.921  1.00  0.00     0.180 C 
HETATM    2  C14 UNL     1      41.820  40.070  26.715  1.00  0.00     0.071 C 
HETATM    3  C15 UNL     1      42.761  41.152  26.319  1.00  0.00     0.065 C 
HETATM    4  C16 UNL     1      43.137  40.914  24.862  1.00  0.00     0.052 A 
HETATM    5  N4  UNL     1      44.304  40.901  24.305  1.00  0.00    -0.338 N 
ATOM      6  H4  UNL     1      45.143  41.068  24.861  1.00  0.00     0.168 HD
HETATM    7  C17 UNL     1      44.400  40.667  22.991  1.00  0.00     0.145 A 
HETATM    8  S1  UNL     1      42.756  40.459  22.542  1.00  0.00    -0.028 SA
HETATM    9  C18 UNL     1      42.035  40.685  24.078  1.00  0.00     0.139 A 
HETATM   10  O2  UNL     1      40.740  40.690  24.634  1.00  0.00    -0.307 OA
ENDROOT
BRANCH   1  11
HETATM   11  C2  UNL     1      39.501  40.929  26.599  1.00  0.00     0.146 C 
HETATM   12  C1  UNL     1      39.216  42.288  26.114  1.00  0.00     0.057 C 
HETATM   13  C3  UNL     1      39.954  41.099  28.080  1.00  0.00     0.057 C 
HETATM   14  F1  UNL     1      38.263  40.274  26.705  1.00  0.00    -0.238 F 
ENDBRANCH   1  11
BRANCH   1  15
HETATM   15  N1  UNL     1      40.099  38.733  25.675  1.00  0.00    -0.308 N 
HETATM   16  C5  UNL     1      40.073  37.615  26.529  1.00  0.00     0.320 C 
HETATM   17  O1  UNL     1      40.494  37.770  27.723  1.00  0.00    -0.247 OA
HETATM   18  N2  UNL     1      39.604  36.335  26.117  1.00  0.00    -0.333 N 
HETATM   19  C6  UNL     1      39.098  35.984  24.830  1.00  0.00     0.128 C 
HETATM   20  C13 UNL     1      39.551  35.144  26.919  1.00  0.00     0.137 C 
HETATM   21  C7  UNL     1      37.867  35.152  25.229  1.00  0.00     0.031 C 
HETATM   22  C8  UNL     1      38.485  34.263  26.300  1.00  0.00    -0.019 C 
HETATM   23  C9  UNL     1      39.094  33.048  25.625  1.00  0.00     0.039 C 
HETATM   24  C12 UNL     1      37.481  33.786  27.301  1.00  0.00     0.039 C 
HETATM   25  C10 UNL     1      38.134  31.881  25.747  1.00  0.00     0.233 C 
HETATM   26  N3  UNL     1      37.982  31.445  27.120  1.00  0.00    -0.075 N 
HETATM   27  C11 UNL     1      38.074  32.581  28.012  1.00  0.00     0.233 C 
ATOM     28  H32 UNL     1      37.120  30.917  27.261  1.00  0.00     0.277 HD
ATOM     29  H31 UNL     1      38.647  30.711  27.364  1.00  0.00     0.277 HD
ATOM     30  H1  UNL     1      39.773  38.552  24.725  1.00  0.00     0.167 HD
ENDBRANCH   1  15
BRANCH   7  31
HETATM   31  N5  UNL     1      45.475  40.613  22.240  1.00  0.00    -0.380 N 
ATOM     32  H52 UNL     1      46.442  40.823  22.488  1.00  0.00     0.158 HD
ATOM     33  H51 UNL     1      45.558  40.348  21.258  1.00  0.00     0.158 HD
ENDBRANCH   7  31
TORSDOF 3
ENDMDL
MODEL 5
REMARK VINA RESULT: -6.200153824      4.018      8.698
REMARK  3 active torsions:
REMARK  status: ('A' for Active; 'I' for Inactive)
REMARK    1  A    between atoms: C2_2  and  C4_5 
REMARK    2  A    between atoms: C4_5  and  N1_6 
REMARK       I    between atoms: N1_6  and  C5_8 
REMARK       I    between atoms: C5_8  and  N2_10 
REMARK    3  A    between atoms: C17_27  and  N5_28 
ROOT
HETATM    1  C4  UNL     1      40.920  39.722  24.886  1.00  0.00     0.180 C 
HETATM    2  C14 UNL     1      39.884  40.730  24.368  1.00  0.00     0.071 C 
HETATM    3  C15 UNL     1      39.941  42.050  25.053  1.00  0.00     0.065 C 
HETATM    4  C16 UNL     1      39.614  41.811  26.521  1.00  0.00     0.052 A 
HETATM    5  N4  UNL     1      38.784  42.437  27.292  1.00  0.00    -0.338 N 
ATOM      6  H4  UNL     1      38.233  43.216  26.931  1.00  0.00     0.168 HD
HETATM    7  C17 UNL     1      38.656  42.051  28.566  1.00  0.00     0.145 A 
HETATM    8  S1  UNL     1      39.767  40.746  28.661  1.00  0.00    -0.028 SA
HETATM    9  C18 UNL     1      40.336  40.770  27.046  1.00  0.00     0.139 A 
HETATM   10  O2  UNL     1      41.255  40.056  26.251  1.00  0.00    -0.307 OA
ENDROOT
BRANCH   1  11
HETATM   11  C2  UNL     1      42.183  39.846  24.119  1.00  0.00     0.146 C 
HETATM   12  C1  UNL     1      43.155  40.904  24.433  1.00  0.00     0.057 C 
HETATM   13  C3  UNL     1      41.804  40.055  22.622  1.00  0.00     0.057 C 
HETATM   14  F1  UNL     1      42.897  38.636  24.113  1.00  0.00    -0.238 F 
ENDBRANCH   1  11
BRANCH   1  15
HETATM   15  N1  UNL     1      40.342  38.420  24.904  1.00  0.00    -0.308 N 
HETATM   16  C5  UNL     1      40.410  37.404  25.874  1.00  0.00     0.320 C 
HETATM   17  O1  UNL     1      41.110  37.625  26.918  1.00  0.00    -0.247 OA
HETATM   18  N2  UNL     1      39.739  36.155  25.738  1.00  0.00    -0.333 N 
HETATM   19  C6  UNL     1      38.917  35.742  24.648  1.00  0.00     0.128 C 
HETATM   20  C13 UNL     1      39.762  35.065  26.673  1.00  0.00     0.137 C 
HETATM   21  C7  UNL     1      37.741  35.107  25.408  1.00  0.00     0.031 C 
HETATM   22  C8  UNL     1      38.503  34.261  26.418  1.00  0.00    -0.019 C 
HETATM   23  C9  UNL     1      38.821  32.921  25.782  1.00  0.00     0.039 C 
HETATM   24  C12 UNL     1      37.719  34.010  27.667  1.00  0.00     0.039 C 
HETATM   25  C10 UNL     1      37.811  31.896  26.256  1.00  0.00     0.233 C 
HETATM   26  N3  UNL     1      37.941  31.619  27.672  1.00  0.00    -0.075 N 
HETATM   27  C11 UNL     1      38.345  32.819  28.374  1.00  0.00     0.233 C 
ATOM     28  H32 UNL     1      37.089  31.215  28.063  1.00  0.00     0.277 HD
ATOM     29  H31 UNL     1      38.573  30.839  27.853  1.00  0.00     0.277 HD
ATOM     30  H1  UNL     1      39.790  38.187  24.079  1.00  0.00     0.167 HD
ENDBRANCH   1  15
BRANCH   7  31
HETATM   31  N5  UNL     1      37.881  42.546  29.503  1.00  0.00    -0.380 N 
ATOM     32  H52 UNL     1      36.874  42.711  29.483  1.00  0.00     0.158 HD
ATOM     33  H51 UNL     1      38.132  42.864  30.440  1.00  0.00     0.158 HD
ENDBRANCH   7  31
TORSDOF 3
ENDMDL
