MODEL 1
REMARK VINA RESULT: -8.446677501      0.000      0.000
REMARK  2 active torsions:
REMARK  status: ('A' for Active; 'I' for Inactive)
REMARK    1  A    between atoms: N1_12  and  C11_14 
REMARK    2  A    between atoms: C12_20  and  N4_21 
ROOT
HETATM    1  C1  UNL     1     -52.119 -12.208 -10.297  1.00  0.00     0.015 C 
HETATM    2  C2  UNL     1     -53.435 -11.501  -9.950  1.00  0.00    -0.048 C 
HETATM    3  C3  UNL     1     -53.099 -10.359  -9.012  1.00  0.00     0.015 C 
HETATM    4  C4  UNL     1     -54.057 -10.914 -11.189  1.00  0.00     0.010 C 
HETATM    5  C5  UNL     1     -54.548 -11.969 -12.145  1.00  0.00     0.019 C 
HETATM    6  C6  UNL     1     -55.497 -12.917 -11.452  1.00  0.00     0.028 C 
HETATM    7  C7  UNL     1     -55.653 -12.592  -9.979  1.00  0.00     0.019 C 
HETATM    8  C8  UNL     1     -54.321 -12.502  -9.274  1.00  0.00     0.010 C 
HETATM    9  C9  UNL     1     -55.099 -14.364 -11.669  1.00  0.00     0.193 C 
HETATM   10  O1  UNL     1     -56.324 -15.022 -11.338  1.00  0.00    -0.333 OA
HETATM   11  C10 UNL     1     -57.376 -14.247 -11.866  1.00  0.00     0.167 C 
HETATM   12  N1  UNL     1     -58.558 -14.687 -12.122  1.00  0.00    -0.317 N 
ATOM     13  H1  UNL     1     -59.269 -14.065 -12.506  1.00  0.00     0.169 HD
HETATM   14  C13 UNL     1     -56.848 -12.900 -12.049  1.00  0.00     0.065 C 
HETATM   15  N5  UNL     1     -57.410 -11.898 -12.603  1.00  0.00    -0.398 N 
ATOM     16  H51 UNL     1     -58.343 -11.885 -13.014  1.00  0.00     0.156 HD
ATOM     17  H52 UNL     1     -57.040 -10.956 -12.731  1.00  0.00     0.156 HD
ENDROOT
BRANCH  12  18
HETATM   18  C11 UNL     1     -58.855 -16.044 -11.864  1.00  0.00     0.175 A 
HETATM   19  N2  UNL     1     -58.164 -17.148 -12.180  1.00  0.00    -0.222 N 
HETATM   20  O2  UNL     1     -58.819 -18.180 -11.742  1.00  0.00    -0.153 OA
ATOM     21  H2  UNL     1     -57.276 -17.174 -12.681  1.00  0.00     0.198 HD
HETATM   22  N3  UNL     1     -59.915 -17.821 -11.147  1.00  0.00    -0.222 N 
HETATM   23  C12 UNL     1     -59.979 -16.478 -11.200  1.00  0.00     0.167 A 
ATOM     24  H3  UNL     1     -60.601 -18.442 -10.718  1.00  0.00     0.198 HD
BRANCH  23  25
HETATM   25  N4  UNL     1     -60.939 -15.773 -10.706  1.00  0.00    -0.381 N 
ATOM     26  H42 UNL     1     -61.155 -14.816 -10.987  1.00  0.00     0.157 HD
ATOM     27  H41 UNL     1     -61.611 -16.036  -9.986  1.00  0.00     0.157 HD
ENDBRANCH  23  25
ENDBRANCH  12  18
TORSDOF 2
ENDMDL
MODEL 2
REMARK VINA RESULT: -8.417606759      4.828      7.686
REMARK  2 active torsions:
REMARK  status: ('A' for Active; 'I' for Inactive)
REMARK    1  A    between atoms: N1_12  and  C11_14 
REMARK    2  A    between atoms: C12_20  and  N4_21 
ROOT
HETATM    1  C1  UNL     1     -57.583 -12.863 -12.291  1.00  0.00     0.015 C 
HETATM    2  C2  UNL     1     -56.519 -13.801 -11.706  1.00  0.00    -0.048 C 
HETATM    3  C3  UNL     1     -56.968 -15.221 -11.987  1.00  0.00     0.015 C 
HETATM    4  C4  UNL     1     -55.197 -13.589 -12.396  1.00  0.00     0.010 C 
HETATM    5  C5  UNL     1     -54.592 -12.246 -12.082  1.00  0.00     0.019 C 
HETATM    6  C6  UNL     1     -54.469 -12.050 -10.591  1.00  0.00     0.028 C 
HETATM    7  C7  UNL     1     -55.039 -13.222  -9.814  1.00  0.00     0.019 C 
HETATM    8  C8  UNL     1     -56.453 -13.545 -10.232  1.00  0.00     0.010 C 
HETATM    9  C9  UNL     1     -55.077 -10.734 -10.148  1.00  0.00     0.193 C 
HETATM   10  O1  UNL     1     -54.460 -10.582  -8.868  1.00  0.00    -0.333 OA
HETATM   11  C10 UNL     1     -53.121 -11.005  -8.990  1.00  0.00     0.167 C 
HETATM   12  N1  UNL     1     -52.164 -10.661  -8.202  1.00  0.00    -0.317 N 
ATOM     13  H1  UNL     1     -51.218 -11.008  -8.355  1.00  0.00     0.169 HD
HETATM   14  C13 UNL     1     -53.067 -11.879 -10.157  1.00  0.00     0.065 C 
HETATM   15  N5  UNL     1     -52.043 -12.401 -10.709  1.00  0.00    -0.398 N 
ATOM     16  H51 UNL     1     -51.075 -12.283 -10.410  1.00  0.00     0.156 HD
ATOM     17  H52 UNL     1     -52.006 -13.011 -11.526  1.00  0.00     0.156 HD
ENDROOT
BRANCH  12  18
HETATM   18  C11 UNL     1     -52.445  -9.795  -7.122  1.00  0.00     0.175 A 
HETATM   19  N2  UNL     1     -53.378  -8.838  -7.009  1.00  0.00    -0.222 N 
HETATM   20  O2  UNL     1     -53.267  -8.295  -5.835  1.00  0.00    -0.153 OA
ATOM     21  H2  UNL     1     -54.058  -8.580  -7.724  1.00  0.00     0.198 HD
HETATM   22  N3  UNL     1     -52.306  -8.841  -5.155  1.00  0.00    -0.222 N 
HETATM   23  C12 UNL     1     -51.758  -9.795  -5.930  1.00  0.00     0.167 A 
ATOM     24  H3  UNL     1     -52.019  -8.593  -4.208  1.00  0.00     0.198 HD
BRANCH  23  25
HETATM   25  N4  UNL     1     -50.771 -10.545  -5.576  1.00  0.00    -0.381 N 
ATOM     26  H42 UNL     1     -50.561 -11.454  -5.988  1.00  0.00     0.157 HD
ATOM     27  H41 UNL     1     -50.067 -10.368  -4.859  1.00  0.00     0.157 HD
ENDBRANCH  23  25
ENDBRANCH  12  18
TORSDOF 2
ENDMDL
MODEL 3
REMARK VINA RESULT: -8.324809642      5.867      8.154
REMARK  2 active torsions:
REMARK  status: ('A' for Active; 'I' for Inactive)
REMARK    1  A    between atoms: N1_12  and  C11_14 
REMARK    2  A    between atoms: C12_20  and  N4_21 
ROOT
HETATM    1  C1  UNL     1     -55.576 -10.613 -11.894  1.00  0.00     0.015 C 
HETATM    2  C2  UNL     1     -55.483 -12.055 -11.378  1.00  0.00    -0.048 C 
HETATM    3  C3  UNL     1     -56.761 -12.761 -11.787  1.00  0.00     0.015 C 
HETATM    4  C4  UNL     1     -54.330 -12.772 -12.029  1.00  0.00     0.010 C 
HETATM    5  C5  UNL     1     -52.994 -12.232 -11.592  1.00  0.00     0.019 C 
HETATM    6  C6  UNL     1     -52.875 -12.253 -10.088  1.00  0.00     0.028 C 
HETATM    7  C7  UNL     1     -54.144 -12.753  -9.423  1.00  0.00     0.019 C 
HETATM    8  C8  UNL     1     -55.363 -11.994  -9.886  1.00  0.00     0.010 C 
HETATM    9  C9  UNL     1     -52.447 -10.906  -9.541  1.00  0.00     0.193 C 
HETATM   10  O1  UNL     1     -51.983 -11.288  -8.244  1.00  0.00    -0.333 OA
HETATM   11  C10 UNL     1     -51.292 -12.508  -8.385  1.00  0.00     0.167 C 
HETATM   12  N1  UNL     1     -50.416 -12.958  -7.557  1.00  0.00    -0.317 N 
ATOM     13  H1  UNL     1     -49.954 -13.851  -7.726  1.00  0.00     0.169 HD
HETATM   14  C13 UNL     1     -51.769 -13.116  -9.622  1.00  0.00     0.065 C 
HETATM   15  N5  UNL     1     -51.343 -14.167 -10.203  1.00  0.00    -0.398 N 
ATOM     16  H51 UNL     1     -50.580 -14.763  -9.881  1.00  0.00     0.156 HD
ATOM     17  H52 UNL     1     -51.676 -14.592 -11.069  1.00  0.00     0.156 HD
ENDROOT
BRANCH  12  18
HETATM   18  C11 UNL     1     -50.103 -12.195  -6.409  1.00  0.00     0.175 A 
HETATM   19  N2  UNL     1     -50.322 -10.896  -6.156  1.00  0.00    -0.222 N 
HETATM   20  O2  UNL     1     -49.865 -10.628  -4.971  1.00  0.00    -0.153 OA
ATOM     21  H2  UNL     1     -50.770 -10.233  -6.788  1.00  0.00     0.198 HD
HETATM   22  N3  UNL     1     -49.351 -11.683  -4.417  1.00  0.00    -0.222 N 
HETATM   23  C12 UNL     1     -49.479 -12.697  -5.291  1.00  0.00     0.167 A 
ATOM     24  H3  UNL     1     -48.928 -11.733  -3.490  1.00  0.00     0.198 HD
BRANCH  23  25
HETATM   25  N4  UNL     1     -49.075 -13.903  -5.074  1.00  0.00    -0.381 N 
ATOM     26  H42 UNL     1     -49.448 -14.729  -5.542  1.00  0.00     0.157 HD
ATOM     27  H41 UNL     1     -48.351 -14.221  -4.430  1.00  0.00     0.157 HD
ENDBRANCH  23  25
ENDBRANCH  12  18
TORSDOF 2
ENDMDL
MODEL 4
REMARK VINA RESULT: -8.211459872      5.142      7.548
REMARK  2 active torsions:
REMARK  status: ('A' for Active; 'I' for Inactive)
REMARK    1  A    between atoms: N1_12  and  C11_14 
REMARK    2  A    between atoms: C12_20  and  N4_21 
ROOT
HETATM    1  C1  UNL     1     -54.803 -15.998 -11.877  1.00  0.00     0.015 C 
HETATM    2  C2  UNL     1     -53.551 -15.312 -12.438  1.00  0.00    -0.048 C 
HETATM    3  C3  UNL     1     -52.997 -16.210 -13.527  1.00  0.00     0.015 C 
HETATM    4  C4  UNL     1     -53.912 -13.993 -13.067  1.00  0.00     0.010 C 
HETATM    5  C5  UNL     1     -54.360 -12.973 -12.052  1.00  0.00     0.019 C 
HETATM    6  C6  UNL     1     -53.318 -12.800 -10.974  1.00  0.00     0.028 C 
HETATM    7  C7  UNL     1     -52.137 -13.733 -11.167  1.00  0.00     0.019 C 
HETATM    8  C8  UNL     1     -52.571 -15.172 -11.314  1.00  0.00     0.010 C 
HETATM    9  C9  UNL     1     -53.919 -12.933  -9.589  1.00  0.00     0.193 C 
HETATM   10  O1  UNL     1     -52.902 -12.308  -8.804  1.00  0.00    -0.333 OA
HETATM   11  C10 UNL     1     -52.441 -11.188  -9.524  1.00  0.00     0.167 C 
HETATM   12  N1  UNL     1     -51.840 -10.175  -9.006  1.00  0.00    -0.317 N 
ATOM     13  H1  UNL     1     -51.535  -9.398  -9.593  1.00  0.00     0.169 HD
HETATM   14  C13 UNL     1     -52.783 -11.424 -10.922  1.00  0.00     0.065 C 
HETATM   15  N5  UNL     1     -52.658 -10.631 -11.913  1.00  0.00    -0.398 N 
ATOM     16  H51 UNL     1     -52.288  -9.681 -11.878  1.00  0.00     0.156 HD
ATOM     17  H52 UNL     1     -52.898 -10.796 -12.891  1.00  0.00     0.156 HD
ENDROOT
BRANCH  12  18
HETATM   18  C11 UNL     1     -51.609 -10.155  -7.612  1.00  0.00     0.175 A 
HETATM   19  N2  UNL     1     -50.629 -10.725  -6.897  1.00  0.00    -0.222 N 
HETATM   20  O2  UNL     1     -50.818 -10.441  -5.644  1.00  0.00    -0.153 OA
ATOM     21  H2  UNL     1     -49.865 -11.287  -7.273  1.00  0.00     0.198 HD
HETATM   22  N3  UNL     1     -51.877  -9.708  -5.485  1.00  0.00    -0.222 N 
HETATM   23  C12 UNL     1     -52.409  -9.502  -6.704  1.00  0.00     0.167 A 
ATOM     24  H3  UNL     1     -52.238  -9.353  -4.600  1.00  0.00     0.198 HD
BRANCH  23  25
HETATM   25  N4  UNL     1     -53.476  -8.813  -6.927  1.00  0.00    -0.381 N 
ATOM     26  H42 UNL     1     -54.343  -9.197  -7.302  1.00  0.00     0.157 HD
ATOM     27  H41 UNL     1     -53.628  -7.815  -6.777  1.00  0.00     0.157 HD
ENDBRANCH  23  25
ENDBRANCH  12  18
TORSDOF 2
ENDMDL
MODEL 5
REMARK VINA RESULT: -8.166155179      5.824      8.003
REMARK  2 active torsions:
REMARK  status: ('A' for Active; 'I' for Inactive)
REMARK    1  A    between atoms: N1_12  and  C11_14 
REMARK    2  A    between atoms: C12_20  and  N4_21 
ROOT
HETATM    1  C1  UNL     1     -53.079 -15.453 -13.611  1.00  0.00     0.015 C 
HETATM    2  C2  UNL     1     -53.337 -15.810 -12.141  1.00  0.00    -0.048 C 
HETATM    3  C3  UNL     1     -54.243 -17.026 -12.127  1.00  0.00     0.015 C 
HETATM    4  C4  UNL     1     -52.049 -16.185 -11.458  1.00  0.00     0.010 C 
HETATM    5  C5  UNL     1     -51.116 -15.013 -11.302  1.00  0.00     0.019 C 
HETATM    6  C6  UNL     1     -51.802 -13.874 -10.590  1.00  0.00     0.028 C 
HETATM    7  C7  UNL     1     -53.253 -14.190 -10.277  1.00  0.00     0.019 C 
HETATM    8  C8  UNL     1     -54.013 -14.635 -11.503  1.00  0.00     0.010 C 
HETATM    9  C9  UNL     1     -51.662 -12.571 -11.352  1.00  0.00     0.193 C 
HETATM   10  O1  UNL     1     -51.964 -11.633 -10.318  1.00  0.00    -0.333 OA
HETATM   11  C10 UNL     1     -51.359 -12.098  -9.134  1.00  0.00     0.167 C 
HETATM   12  N1  UNL     1     -51.067 -11.365  -8.117  1.00  0.00    -0.317 N 
ATOM     13  H1  UNL     1     -50.628 -11.774  -7.293  1.00  0.00     0.169 HD
HETATM   14  C13 UNL     1     -51.145 -13.530  -9.312  1.00  0.00     0.065 C 
HETATM   15  N5  UNL     1     -50.527 -14.340  -8.545  1.00  0.00    -0.398 N 
ATOM     16  H51 UNL     1     -50.074 -14.103  -7.663  1.00  0.00     0.156 HD
ATOM     17  H52 UNL     1     -50.378 -15.341  -8.670  1.00  0.00     0.156 HD
ENDROOT
BRANCH  12  18
HETATM   18  C11 UNL     1     -51.367  -9.985  -8.161  1.00  0.00     0.175 A 
HETATM   19  N2  UNL     1     -50.760  -8.996  -8.833  1.00  0.00    -0.222 N 
HETATM   20  O2  UNL     1     -51.378  -7.884  -8.572  1.00  0.00    -0.153 OA
ATOM     21  H2  UNL     1     -49.950  -9.099  -9.444  1.00  0.00     0.198 HD
HETATM   22  N3  UNL     1     -52.370  -8.080  -7.758  1.00  0.00    -0.222 N 
HETATM   23  C12 UNL     1     -52.400  -9.394  -7.471  1.00  0.00     0.167 A 
ATOM     24  H3  UNL     1     -53.008  -7.368  -7.402  1.00  0.00     0.198 HD
BRANCH  23  25
HETATM   25  N4  UNL     1     -53.260  -9.950  -6.687  1.00  0.00    -0.381 N 
ATOM     26  H42 UNL     1     -54.195 -10.243  -6.971  1.00  0.00     0.157 HD
ATOM     27  H41 UNL     1     -53.158 -10.181  -5.698  1.00  0.00     0.157 HD
ENDBRANCH  23  25
ENDBRANCH  12  18
TORSDOF 2
ENDMDL
