MODEL 1
REMARK VINA RESULT: -6.802680737      0.000      0.000
REMARK  4 active torsions:
REMARK  status: ('A' for Active; 'I' for Inactive)
REMARK    1  A    between atoms: N1_2  and  O1_3 
REMARK    2  A    between atoms: N1_2  and  C2_5 
REMARK    3  A    between atoms: C5_8  and  O2_9 
REMARK    4  A    between atoms: C13_18  and  O3_19 
ROOT
HETATM    1  C2  UNL     1     -54.296 -13.483 -11.921  1.00  0.00     0.095 C 
HETATM    2  C3  UNL     1     -53.603 -14.430 -12.830  1.00  0.00     0.042 C 
HETATM    3  C4  UNL     1     -52.581 -15.051 -11.859  1.00  0.00     0.035 C 
HETATM    4  C5  UNL     1     -52.408 -14.032 -10.720  1.00  0.00     0.126 C 
HETATM    5  C6  UNL     1     -53.113 -12.874 -11.248  1.00  0.00     0.062 C 
HETATM    6  C7  UNL     1     -53.496 -11.731 -10.434  1.00  0.00     0.004 C 
HETATM    7  C8  UNL     1     -52.199 -10.967 -10.110  1.00  0.00     0.013 C 
HETATM    8  C9  UNL     1     -51.868 -11.175  -8.643  1.00  0.00     0.001 C 
HETATM    9  C10 UNL     1     -52.928 -10.362  -7.906  1.00  0.00     0.000 C 
HETATM   10  C11 UNL     1     -54.234 -11.022  -8.113  1.00  0.00     0.001 C 
HETATM   11  C12 UNL     1     -54.320 -11.995  -9.233  1.00  0.00     0.013 C 
HETATM   12  C13 UNL     1     -54.210 -10.809 -11.444  1.00  0.00     0.190 C 
HETATM   13  S1  UNL     1     -54.892 -11.962 -12.714  1.00  0.00    -0.108 SA
ENDROOT
BRANCH  12  14
HETATM   14  O3  UNL     1     -55.204 -10.073 -10.854  1.00  0.00    -0.384 OA
ATOM     15  H3  UNL     1     -55.746  -9.627 -11.494  1.00  0.00     0.211 HD
ENDBRANCH  12  14
BRANCH   1  16
HETATM   16  N1  UNL     1     -55.333 -14.005 -11.115  1.00  0.00    -0.184 NA
HETATM   17  C1  UNL     1     -56.580 -13.362 -11.492  1.00  0.00     0.145 C 
BRANCH  16  18
HETATM   18  O1  UNL     1     -55.546 -15.330 -11.289  1.00  0.00    -0.312 OA
ATOM     19  H1  UNL     1     -54.790 -15.760 -10.907  1.00  0.00     0.237 HD
ENDBRANCH  16  18
ENDBRANCH   1  16
BRANCH   4  20
HETATM   20  O2  UNL     1     -51.042 -13.740 -10.643  1.00  0.00    -0.395 OA
ATOM     21  H2  UNL     1     -50.953 -12.996 -10.061  1.00  0.00     0.210 HD
ENDBRANCH   4  20
TORSDOF 4
ENDMDL
MODEL 2
REMARK VINA RESULT: -6.525418596      1.927      2.663
REMARK  4 active torsions:
REMARK  status: ('A' for Active; 'I' for Inactive)
REMARK    1  A    between atoms: N1_2  and  O1_3 
REMARK    2  A    between atoms: N1_2  and  C2_5 
REMARK    3  A    between atoms: C5_8  and  O2_9 
REMARK    4  A    between atoms: C13_18  and  O3_19 
ROOT
HETATM    1  C2  UNL     1     -54.583 -12.448 -11.342  1.00  0.00     0.095 C 
HETATM    2  C3  UNL     1     -55.346 -13.107 -12.430  1.00  0.00     0.042 C 
HETATM    3  C4  UNL     1     -55.219 -14.583 -12.006  1.00  0.00     0.035 C 
HETATM    4  C5  UNL     1     -53.972 -14.657 -11.107  1.00  0.00     0.126 C 
HETATM    5  C6  UNL     1     -53.388 -13.338 -11.301  1.00  0.00     0.062 C 
HETATM    6  C7  UNL     1     -52.347 -12.791 -10.445  1.00  0.00     0.004 C 
HETATM    7  C8  UNL     1     -51.056 -13.564 -10.772  1.00  0.00     0.013 C 
HETATM    8  C9  UNL     1     -50.734 -14.483  -9.607  1.00  0.00     0.001 C 
HETATM    9  C10 UNL     1     -50.284 -13.533  -8.501  1.00  0.00     0.000 C 
HETATM   10  C11 UNL     1     -51.459 -12.748  -8.069  1.00  0.00     0.001 C 
HETATM   11  C12 UNL     1     -52.623 -12.727  -8.992  1.00  0.00     0.013 C 
HETATM   12  C13 UNL     1     -52.092 -11.397 -11.055  1.00  0.00     0.190 C 
HETATM   13  S1  UNL     1     -53.702 -10.938 -11.835  1.00  0.00    -0.108 SA
ENDROOT
BRANCH  12  14
HETATM   14  O3  UNL     1     -51.719 -10.481 -10.106  1.00  0.00    -0.384 OA
ATOM     15  H3  UNL     1     -50.939 -10.002 -10.360  1.00  0.00     0.211 HD
ENDBRANCH  12  14
BRANCH   1  16
HETATM   16  N1  UNL     1     -55.272 -12.191 -10.135  1.00  0.00    -0.184 NA
HETATM   17  C1  UNL     1     -55.304 -10.755  -9.917  1.00  0.00     0.145 C 
BRANCH  16  18
HETATM   18  O1  UNL     1     -56.568 -12.581 -10.152  1.00  0.00    -0.312 OA
ATOM     19  H1  UNL     1     -56.787 -12.688 -11.071  1.00  0.00     0.237 HD
ENDBRANCH  16  18
ENDBRANCH   1  16
BRANCH   4  20
HETATM   20  O2  UNL     1     -53.126 -15.619 -11.668  1.00  0.00    -0.395 OA
ATOM     21  H2  UNL     1     -52.973 -16.273 -10.997  1.00  0.00     0.210 HD
ENDBRANCH   4  20
TORSDOF 4
ENDMDL
MODEL 3
REMARK VINA RESULT: -6.384125893      2.656      4.736
REMARK  4 active torsions:
REMARK  status: ('A' for Active; 'I' for Inactive)
REMARK    1  A    between atoms: N1_2  and  O1_3 
REMARK    2  A    between atoms: N1_2  and  C2_5 
REMARK    3  A    between atoms: C5_8  and  O2_9 
REMARK    4  A    between atoms: C13_18  and  O3_19 
ROOT
HETATM    1  C2  UNL     1     -51.780 -11.066  -7.890  1.00  0.00     0.095 C 
HETATM    2  C3  UNL     1     -50.902 -11.698  -6.875  1.00  0.00     0.042 C 
HETATM    3  C4  UNL     1     -50.031 -12.593  -7.778  1.00  0.00     0.035 C 
HETATM    4  C5  UNL     1     -50.847 -12.815  -9.063  1.00  0.00     0.126 C 
HETATM    5  C6  UNL     1     -52.144 -12.270  -8.689  1.00  0.00     0.062 C 
HETATM    6  C7  UNL     1     -53.193 -11.972  -9.652  1.00  0.00     0.004 C 
HETATM    7  C8  UNL     1     -53.745 -13.326 -10.135  1.00  0.00     0.013 C 
HETATM    8  C9  UNL     1     -53.289 -13.553 -11.565  1.00  0.00     0.001 C 
HETATM    9  C10 UNL     1     -54.104 -12.550 -12.376  1.00  0.00     0.000 C 
HETATM   10  C11 UNL     1     -53.637 -11.192 -12.024  1.00  0.00     0.001 C 
HETATM   11  C12 UNL     1     -52.855 -11.060 -10.768  1.00  0.00     0.013 C 
HETATM   12  C13 UNL     1     -54.329 -11.419  -8.767  1.00  0.00     0.190 C 
HETATM   13  S1  UNL     1     -53.459 -10.684  -7.313  1.00  0.00    -0.108 SA
ENDROOT
BRANCH  12  14
HETATM   14  O3  UNL     1     -55.082 -10.481  -9.424  1.00  0.00    -0.384 OA
ATOM     15  H3  UNL     1     -55.942 -10.811  -9.653  1.00  0.00     0.211 HD
ENDBRANCH  12  14
BRANCH   1  16
HETATM   16  N1  UNL     1     -51.271  -9.936  -8.569  1.00  0.00    -0.184 NA
HETATM   17  C1  UNL     1     -52.078  -8.781  -8.214  1.00  0.00     0.145 C 
BRANCH  16  18
HETATM   18  O1  UNL     1     -50.005  -9.612  -8.217  1.00  0.00    -0.312 OA
ATOM     19  H1  UNL     1     -49.960  -9.752  -7.278  1.00  0.00     0.237 HD
ENDBRANCH  16  18
ENDBRANCH   1  16
BRANCH   4  20
HETATM   20  O2  UNL     1     -50.963 -14.199  -9.234  1.00  0.00    -0.395 OA
ATOM     21  H2  UNL     1     -50.401 -14.602  -8.584  1.00  0.00     0.210 HD
ENDBRANCH   4  20
TORSDOF 4
ENDMDL
MODEL 4
REMARK VINA RESULT: -6.320207747      2.018      4.019
REMARK  4 active torsions:
REMARK  status: ('A' for Active; 'I' for Inactive)
REMARK    1  A    between atoms: N1_2  and  O1_3 
REMARK    2  A    between atoms: N1_2  and  C2_5 
REMARK    3  A    between atoms: C5_8  and  O2_9 
REMARK    4  A    between atoms: C13_18  and  O3_19 
ROOT
HETATM    1  C2  UNL     1     -52.387 -13.152 -10.392  1.00  0.00     0.095 C 
HETATM    2  C3  UNL     1     -51.365 -14.217 -10.241  1.00  0.00     0.042 C 
HETATM    3  C4  UNL     1     -51.605 -15.019 -11.534  1.00  0.00     0.035 C 
HETATM    4  C5  UNL     1     -53.046 -14.697 -11.969  1.00  0.00     0.126 C 
HETATM    5  C6  UNL     1     -53.553 -13.983 -10.807  1.00  0.00     0.062 C 
HETATM    6  C7  UNL     1     -54.782 -13.204 -10.822  1.00  0.00     0.004 C 
HETATM    7  C8  UNL     1     -55.943 -14.214 -10.881  1.00  0.00     0.013 C 
HETATM    8  C9  UNL     1     -56.565 -14.156 -12.265  1.00  0.00     0.001 C 
HETATM    9  C10 UNL     1     -57.289 -12.813 -12.287  1.00  0.00     0.000 C 
HETATM   10  C11 UNL     1     -56.267 -11.744 -12.270  1.00  0.00     0.001 C 
HETATM   11  C12 UNL     1     -54.900 -12.135 -11.839  1.00  0.00     0.013 C 
HETATM   12  C13 UNL     1     -54.862 -12.655  -9.382  1.00  0.00     0.190 C 
HETATM   13  S1  UNL     1     -53.102 -12.554  -8.833  1.00  0.00    -0.108 SA
ENDROOT
BRANCH  12  14
HETATM   14  O3  UNL     1     -55.470 -11.427  -9.334  1.00  0.00    -0.384 OA
ATOM     15  H3  UNL     1     -55.668 -11.163  -8.444  1.00  0.00     0.211 HD
ENDBRANCH  12  14
BRANCH   1  16
HETATM   16  N1  UNL     1     -52.041 -12.034 -11.185  1.00  0.00    -0.184 NA
HETATM   17  C1  UNL     1     -51.954 -10.866 -10.325  1.00  0.00     0.145 C 
BRANCH  16  18
HETATM   18  O1  UNL     1     -50.828 -12.137 -11.775  1.00  0.00    -0.312 OA
ATOM     19  H1  UNL     1     -50.272 -12.566 -11.135  1.00  0.00     0.237 HD
ENDBRANCH  16  18
ENDBRANCH   1  16
BRANCH   4  20
HETATM   20  O2  UNL     1     -53.716 -15.920 -12.084  1.00  0.00    -0.395 OA
ATOM     21  H2  UNL     1     -53.833 -16.081 -13.012  1.00  0.00     0.210 HD
ENDBRANCH   4  20
TORSDOF 4
ENDMDL
MODEL 5
REMARK VINA RESULT: -6.285217382      1.602      4.277
REMARK  4 active torsions:
REMARK  status: ('A' for Active; 'I' for Inactive)
REMARK    1  A    between atoms: N1_2  and  O1_3 
REMARK    2  A    between atoms: N1_2  and  C2_5 
REMARK    3  A    between atoms: C5_8  and  O2_9 
REMARK    4  A    between atoms: C13_18  and  O3_19 
ROOT
HETATM    1  C2  UNL     1     -54.253 -11.870 -10.983  1.00  0.00     0.095 C 
HETATM    2  C3  UNL     1     -53.823 -10.846  -9.998  1.00  0.00     0.042 C 
HETATM    3  C4  UNL     1     -52.309 -10.805 -10.281  1.00  0.00     0.035 C 
HETATM    4  C5  UNL     1     -51.967 -12.153 -10.940  1.00  0.00     0.126 C 
HETATM    5  C6  UNL     1     -53.201 -12.899 -10.746  1.00  0.00     0.062 C 
HETATM    6  C7  UNL     1     -53.503 -14.138 -11.446  1.00  0.00     0.004 C 
HETATM    7  C8  UNL     1     -52.590 -15.221 -10.841  1.00  0.00     0.013 C 
HETATM    8  C9  UNL     1     -51.521 -15.577 -11.858  1.00  0.00     0.001 C 
HETATM    9  C10 UNL     1     -52.280 -16.344 -12.937  1.00  0.00     0.000 C 
HETATM   10  C11 UNL     1     -53.178 -15.394 -13.626  1.00  0.00     0.001 C 
HETATM   11  C12 UNL     1     -53.459 -14.114 -12.926  1.00  0.00     0.013 C 
HETATM   12  C13 UNL     1     -54.901 -14.509 -10.907  1.00  0.00     0.190 C 
HETATM   13  S1  UNL     1     -55.663 -12.888 -10.458  1.00  0.00    -0.108 SA
ENDROOT
BRANCH  12  14
HETATM   14  O3  UNL     1     -55.653 -15.170 -11.843  1.00  0.00    -0.384 OA
ATOM     15  H3  UNL     1     -56.442 -14.692 -12.069  1.00  0.00     0.211 HD
ENDBRANCH  12  14
BRANCH   1  16
HETATM   16  N1  UNL     1     -54.482 -11.434 -12.307  1.00  0.00    -0.184 NA
HETATM   17  C1  UNL     1     -55.911 -11.474 -12.566  1.00  0.00     0.145 C 
BRANCH  16  18
HETATM   18  O1  UNL     1     -54.112 -10.152 -12.532  1.00  0.00    -0.312 OA
ATOM     19  H1  UNL     1     -54.209  -9.711 -11.697  1.00  0.00     0.237 HD
ENDBRANCH  16  18
ENDBRANCH   1  16
BRANCH   4  20
HETATM   20  O2  UNL     1     -50.955 -12.733 -10.168  1.00  0.00    -0.395 OA
ATOM     21  H2  UNL     1     -50.833 -13.616 -10.496  1.00  0.00     0.210 HD
ENDBRANCH   4  20
TORSDOF 4
ENDMDL
