MODEL 1
REMARK VINA RESULT: -7.009256809      0.000      0.000
REMARK  3 active torsions:
REMARK  status: ('A' for Active; 'I' for Inactive)
REMARK    1  A    between atoms: C5_7  and  O3_8 
REMARK    2  A    between atoms: C6_10  and  C8_12 
REMARK    3  A    between atoms: C8_12  and  O4_13 
ROOT
HETATM    1  C1  UNL     1     -50.823 -10.266  -8.174  1.00  0.00     0.049 C 
HETATM    2  C2  UNL     1     -51.466 -11.041  -9.040  1.00  0.00     0.081 C 
HETATM    3  O1  UNL     1     -52.109 -10.257  -9.993  1.00  0.00    -0.202 OA
HETATM    4  O2  UNL     1     -52.734 -10.463 -11.111  1.00  0.00    -0.219 OA
HETATM    5  C3  UNL     1     -53.699 -11.388 -11.222  1.00  0.00     0.150 C 
HETATM    6  C4  UNL     1     -54.672 -10.858 -12.289  1.00  0.00     0.055 C 
HETATM    7  C5  UNL     1     -53.120 -12.659 -11.837  1.00  0.00     0.171 C 
HETATM    8  C6  UNL     1     -52.337 -13.468 -10.866  1.00  0.00     0.033 C 
HETATM    9  C7  UNL     1     -50.859 -13.328 -11.281  1.00  0.00     0.023 C 
HETATM   10  C9  UNL     1     -52.567 -13.156  -9.433  1.00  0.00     0.145 C 
HETATM   11  O5  UNL     1     -53.594 -12.368  -9.089  1.00  0.00    -0.371 OA
HETATM   12  C10 UNL     1     -54.407 -11.795  -9.976  1.00  0.00     0.090 C 
HETATM   13  C11 UNL     1     -55.576 -12.714 -10.228  1.00  0.00     0.049 C 
HETATM   14  C12 UNL     1     -55.051 -10.527  -9.397  1.00  0.00     0.049 C 
HETATM   15  C13 UNL     1     -51.336 -12.499  -8.772  1.00  0.00     0.071 C 
HETATM   16  C14 UNL     1     -51.356 -12.795  -7.284  1.00  0.00     0.020 C 
ENDROOT
BRANCH   8  17
HETATM   17  C8  UNL     1     -52.549 -14.976 -11.119  1.00  0.00     0.178 C 
BRANCH  17  18
HETATM   18  O4  UNL     1     -51.919 -15.217 -12.356  1.00  0.00    -0.400 OA
ATOM     19  H4  UNL     1     -51.080 -15.597 -12.125  1.00  0.00     0.209 HD
ENDBRANCH  17  18
ENDBRANCH   8  17
BRANCH   7  20
HETATM   20  O3  UNL     1     -54.191 -13.332 -12.408  1.00  0.00    -0.391 OA
ATOM     21  H3  UNL     1     -54.758 -13.583 -11.688  1.00  0.00     0.210 HD
ENDBRANCH   7  20
TORSDOF 3
ENDMDL
MODEL 2
REMARK VINA RESULT: -6.801521380      2.169      5.233
REMARK  3 active torsions:
REMARK  status: ('A' for Active; 'I' for Inactive)
REMARK    1  A    between atoms: C5_7  and  O3_8 
REMARK    2  A    between atoms: C6_10  and  C8_12 
REMARK    3  A    between atoms: C8_12  and  O4_13 
ROOT
HETATM    1  C1  UNL     1     -53.586 -11.209 -11.456  1.00  0.00     0.049 C 
HETATM    2  C2  UNL     1     -53.139 -10.971 -10.227  1.00  0.00     0.081 C 
HETATM    3  O1  UNL     1     -51.748 -10.974 -10.219  1.00  0.00    -0.202 OA
HETATM    4  O2  UNL     1     -50.814 -10.668  -9.373  1.00  0.00    -0.219 OA
HETATM    5  C3  UNL     1     -50.822 -11.129  -8.113  1.00  0.00     0.150 C 
HETATM    6  C4  UNL     1     -49.346 -11.252  -7.698  1.00  0.00     0.055 C 
HETATM    7  C5  UNL     1     -51.388 -10.061  -7.182  1.00  0.00     0.171 C 
HETATM    8  C6  UNL     1     -52.870  -9.961  -7.247  1.00  0.00     0.033 C 
HETATM    9  C7  UNL     1     -53.183  -8.631  -7.960  1.00  0.00     0.023 C 
HETATM   10  C9  UNL     1     -53.569 -11.122  -7.854  1.00  0.00     0.145 C 
HETATM   11  O5  UNL     1     -52.887 -12.251  -8.086  1.00  0.00    -0.371 OA
HETATM   12  C10 UNL     1     -51.582 -12.382  -7.844  1.00  0.00     0.090 C 
HETATM   13  C11 UNL     1     -51.397 -12.902  -6.441  1.00  0.00     0.049 C 
HETATM   14  C12 UNL     1     -50.963 -13.474  -8.729  1.00  0.00     0.049 C 
HETATM   15  C13 UNL     1     -54.211 -10.772  -9.214  1.00  0.00     0.071 C 
HETATM   16  C14 UNL     1     -55.387 -11.697  -9.459  1.00  0.00     0.020 C 
ENDROOT
BRANCH   8  17
HETATM   17  C8  UNL     1     -53.457  -9.665  -5.849  1.00  0.00     0.178 C 
BRANCH  17  18
HETATM   18  O4  UNL     1     -52.834  -8.464  -5.453  1.00  0.00    -0.400 OA
ATOM     19  H4  UNL     1     -53.519  -7.810  -5.514  1.00  0.00     0.209 HD
ENDBRANCH  17  18
ENDBRANCH   8  17
BRANCH   7  20
HETATM   20  O3  UNL     1     -50.890 -10.349  -5.918  1.00  0.00    -0.391 OA
ATOM     21  H3  UNL     1     -51.551 -10.055  -5.302  1.00  0.00     0.210 HD
ENDBRANCH   7  20
TORSDOF 3
ENDMDL
MODEL 3
REMARK VINA RESULT: -6.784091853      1.587      3.795
REMARK  3 active torsions:
REMARK  status: ('A' for Active; 'I' for Inactive)
REMARK    1  A    between atoms: C5_7  and  O3_8 
REMARK    2  A    between atoms: C6_10  and  C8_12 
REMARK    3  A    between atoms: C8_12  and  O4_13 
ROOT
HETATM    1  C1  UNL     1     -51.163 -15.054 -12.194  1.00  0.00     0.049 C 
HETATM    2  C2  UNL     1     -51.947 -14.077 -11.750  1.00  0.00     0.081 C 
HETATM    3  O1  UNL     1     -51.173 -12.991 -11.353  1.00  0.00    -0.202 OA
HETATM    4  O2  UNL     1     -51.392 -11.764 -10.994  1.00  0.00    -0.219 OA
HETATM    5  C3  UNL     1     -52.306 -11.452 -10.064  1.00  0.00     0.150 C 
HETATM    6  C4  UNL     1     -51.784 -10.184  -9.366  1.00  0.00     0.055 C 
HETATM    7  C5  UNL     1     -53.596 -11.004 -10.745  1.00  0.00     0.171 C 
HETATM    8  C6  UNL     1     -54.396 -12.140 -11.275  1.00  0.00     0.033 C 
HETATM    9  C7  UNL     1     -54.283 -12.068 -12.810  1.00  0.00     0.023 C 
HETATM   10  C9  UNL     1     -54.054 -13.478 -10.731  1.00  0.00     0.145 C 
HETATM   11  O5  UNL     1     -53.247 -13.569  -9.667  1.00  0.00    -0.371 OA
HETATM   12  C10 UNL     1     -52.681 -12.511  -9.085  1.00  0.00     0.090 C 
HETATM   13  C11 UNL     1     -53.590 -12.015  -7.988  1.00  0.00     0.049 C 
HETATM   14  C12 UNL     1     -51.393 -12.909  -8.348  1.00  0.00     0.049 C 
HETATM   15  C13 UNL     1     -53.401 -14.391 -11.791  1.00  0.00     0.071 C 
HETATM   16  C14 UNL     1     -53.667 -15.840 -11.431  1.00  0.00     0.020 C 
ENDROOT
BRANCH   8  17
HETATM   17  C8  UNL     1     -55.906 -11.869 -11.100  1.00  0.00     0.178 C 
BRANCH  17  18
HETATM   18  O4  UNL     1     -56.266 -12.606  -9.953  1.00  0.00    -0.400 OA
ATOM     19  H4  UNL     1     -56.964 -13.178 -10.249  1.00  0.00     0.209 HD
ENDBRANCH  17  18
ENDBRANCH   8  17
BRANCH   7  20
HETATM   20  O3  UNL     1     -54.267 -10.216  -9.820  1.00  0.00    -0.391 OA
ATOM     21  H3  UNL     1     -55.181 -10.467  -9.874  1.00  0.00     0.210 HD
ENDBRANCH   7  20
TORSDOF 3
ENDMDL
MODEL 4
REMARK VINA RESULT: -6.573420592      1.994      3.205
REMARK  3 active torsions:
REMARK  status: ('A' for Active; 'I' for Inactive)
REMARK    1  A    between atoms: C5_7  and  O3_8 
REMARK    2  A    between atoms: C6_10  and  C8_12 
REMARK    3  A    between atoms: C8_12  and  O4_13 
ROOT
HETATM    1  C1  UNL     1     -52.466  -7.814  -7.647  1.00  0.00     0.049 C 
HETATM    2  C2  UNL     1     -52.205  -9.092  -7.902  1.00  0.00     0.081 C 
HETATM    3  O1  UNL     1     -52.121  -9.293  -9.276  1.00  0.00    -0.202 OA
HETATM    4  O2  UNL     1     -51.761 -10.260 -10.062  1.00  0.00    -0.219 OA
HETATM    5  C3  UNL     1     -52.226 -11.508  -9.908  1.00  0.00     0.150 C 
HETATM    6  C4  UNL     1     -52.259 -12.125 -11.316  1.00  0.00     0.055 C 
HETATM    7  C5  UNL     1     -51.200 -12.347  -9.152  1.00  0.00     0.171 C 
HETATM    8  C6  UNL     1     -51.193 -12.076  -7.690  1.00  0.00     0.033 C 
HETATM    9  C7  UNL     1     -49.882 -11.320  -7.398  1.00  0.00     0.023 C 
HETATM   10  C9  UNL     1     -52.392 -11.382  -7.157  1.00  0.00     0.145 C 
HETATM   11  O5  UNL     1     -53.476 -11.253  -7.934  1.00  0.00    -0.371 OA
HETATM   12  C10 UNL     1     -53.526 -11.675  -9.197  1.00  0.00     0.090 C 
HETATM   13  C11 UNL     1     -54.039 -13.093  -9.217  1.00  0.00     0.049 C 
HETATM   14  C12 UNL     1     -54.573 -10.890 -10.001  1.00  0.00     0.049 C 
HETATM   15  C13 UNL     1     -52.077  -9.945  -6.690  1.00  0.00     0.071 C 
HETATM   16  C14 UNL     1     -53.073  -9.542  -5.619  1.00  0.00     0.020 C 
ENDROOT
BRANCH   8  17
HETATM   17  C8  UNL     1     -50.940 -13.376  -6.898  1.00  0.00     0.178 C 
BRANCH  17  18
HETATM   18  O4  UNL     1     -49.550 -13.587  -7.002  1.00  0.00    -0.400 OA
ATOM     19  H4  UNL     1     -49.302 -13.956  -6.162  1.00  0.00     0.209 HD
ENDBRANCH  17  18
ENDBRANCH   8  17
BRANCH   7  20
HETATM   20  O3  UNL     1     -51.461 -13.669  -9.486  1.00  0.00    -0.391 OA
ATOM     21  H3  UNL     1     -51.083 -13.802 -10.347  1.00  0.00     0.210 HD
ENDBRANCH   7  20
TORSDOF 3
ENDMDL
MODEL 5
REMARK VINA RESULT: -6.502249287      3.341      5.482
REMARK  3 active torsions:
REMARK  status: ('A' for Active; 'I' for Inactive)
REMARK    1  A    between atoms: C5_7  and  O3_8 
REMARK    2  A    between atoms: C6_10  and  C8_12 
REMARK    3  A    between atoms: C8_12  and  O4_13 
ROOT
HETATM    1  C1  UNL     1     -51.986 -13.522 -11.263  1.00  0.00     0.049 C 
HETATM    2  C2  UNL     1     -51.799 -14.742 -11.755  1.00  0.00     0.081 C 
HETATM    3  O1  UNL     1     -52.635 -14.946 -12.848  1.00  0.00    -0.202 OA
HETATM    4  O2  UNL     1     -52.774 -15.850 -13.768  1.00  0.00    -0.219 OA
HETATM    5  C3  UNL     1     -52.844 -17.156 -13.471  1.00  0.00     0.150 C 
HETATM    6  C4  UNL     1     -53.734 -17.789 -14.555  1.00  0.00     0.055 C 
HETATM    7  C5  UNL     1     -51.477 -17.801 -13.680  1.00  0.00     0.171 C 
HETATM    8  C6  UNL     1     -50.524 -17.513 -12.576  1.00  0.00     0.033 C 
HETATM    9  C7  UNL     1     -49.473 -16.545 -13.155  1.00  0.00     0.023 C 
HETATM   10  C9  UNL     1     -51.131 -17.021 -11.313  1.00  0.00     0.145 C 
HETATM   11  O5  UNL     1     -52.459 -17.085 -11.154  1.00  0.00    -0.371 OA
HETATM   12  C10 UNL     1     -53.290 -17.526 -12.098  1.00  0.00     0.090 C 
HETATM   13  C11 UNL     1     -53.489 -19.010 -11.916  1.00  0.00     0.049 C 
HETATM   14  C12 UNL     1     -54.697 -16.938 -11.916  1.00  0.00     0.049 C 
HETATM   15  C13 UNL     1     -50.777 -15.545 -11.030  1.00  0.00     0.071 C 
HETATM   16  C14 UNL     1     -50.835 -15.300  -9.535  1.00  0.00     0.020 C 
ENDROOT
BRANCH   8  17
HETATM   17  C8  UNL     1     -49.635 -18.742 -12.291  1.00  0.00     0.178 C 
BRANCH  17  18
HETATM   18  O4  UNL     1     -48.708 -18.760 -13.353  1.00  0.00    -0.400 OA
ATOM     19  H4  UNL     1     -48.073 -18.091 -13.125  1.00  0.00     0.209 HD
ENDBRANCH  17  18
ENDBRANCH   8  17
BRANCH   7  20
HETATM   20  O3  UNL     1     -51.717 -19.153 -13.889  1.00  0.00    -0.391 OA
ATOM     21  H3  UNL     1     -50.865 -19.572 -13.909  1.00  0.00     0.210 HD
ENDBRANCH   7  20
TORSDOF 3
ENDMDL
