MODEL 1
REMARK VINA RESULT: -8.733935469      0.000      0.000
REMARK  12 active torsions:
REMARK  status: ('A' for Active; 'I' for Inactive)
REMARK    1  A    between atoms: C2_2  and  O2_4 
REMARK    2  A    between atoms: O2_4  and  N1_5 
REMARK    3  A    between atoms: N1_5  and  C3_6 
REMARK    4  A    between atoms: C3_6  and  C4_7 
REMARK    5  A    between atoms: C3_6  and  C5_10 
REMARK    6  A    between atoms: C5_10  and  C6_11 
REMARK    7  A    between atoms: C5_10  and  C15_36 
REMARK       I    between atoms: C6_11  and  N2_13 
REMARK    8  A    between atoms: N2_13  and  C7_15 
REMARK    9  A    between atoms: C9_22  and  O6_23 
REMARK   10  A    between atoms: O6_23  and  C10_24 
REMARK   11  A    between atoms: C12_28  and  N6_29 
REMARK   12  A    between atoms: N6_29  and  O7_30 
ROOT
HETATM    1  C7  UNL     1     -13.644  -0.624   9.174  1.00  0.00     0.232 A 
HETATM    2  N3  UNL     1     -14.885  -0.794   8.687  1.00  0.00    -0.306 N 
ATOM      3  H3  UNL     1     -14.996  -1.205   7.761  1.00  0.00     0.171 HD
HETATM    4  C8  UNL     1     -16.005  -0.436   9.385  1.00  0.00     0.139 A 
HETATM    5  N4  UNL     1     -17.185  -0.610   8.894  1.00  0.00    -0.383 N 
ATOM      6  H41 UNL     1     -18.021  -0.343   9.414  1.00  0.00     0.157 HD
ATOM      7  H42 UNL     1     -17.295  -1.021   7.966  1.00  0.00     0.157 HD
HETATM    8  C9  UNL     1     -15.856   0.118  10.637  1.00  0.00     0.152 A 
HETATM    9  C13 UNL     1     -14.569   0.277  11.105  1.00  0.00     0.090 A 
HETATM   10  C14 UNL     1     -14.394   0.877  12.458  1.00  0.00     0.080 C 
HETATM   11  O9  UNL     1     -13.522  -0.094  10.367  1.00  0.00    -0.281 OA
ENDROOT
BRANCH   1  12
HETATM   12  N2  UNL     1     -12.628  -0.983   8.463  1.00  0.00    -0.292 N 
HETATM   13  C6  UNL     1     -12.547  -0.771   7.064  1.00  0.00     0.236 C 
HETATM   14  O5  UNL     1     -13.304   0.117   6.587  1.00  0.00    -0.272 OA
ATOM     15  H2  UNL     1     -11.846  -1.442   8.930  1.00  0.00     0.172 HD
BRANCH  13  16
HETATM   16  C5  UNL     1     -11.658  -1.506   6.165  1.00  0.00     0.160 C 
BRANCH  16  17
HETATM   17  C3  UNL     1     -11.984  -2.974   6.305  1.00  0.00     0.226 C 
BRANCH  17  18
HETATM   18  N1  UNL     1     -13.435  -3.030   6.551  1.00  0.00    -0.074 NA
BRANCH  18  19
HETATM   19  O2  UNL     1     -14.118  -2.945   5.364  1.00  0.00    -0.206 OA
BRANCH  19  20
HETATM   20  C2  UNL     1     -15.455  -2.581   5.293  1.00  0.00     0.273 C 
HETATM   21  C1  UNL     1     -16.274  -3.176   4.196  1.00  0.00     0.127 C 
HETATM   22  O1  UNL     1     -15.914  -1.789   6.126  1.00  0.00    -0.264 OA
ENDBRANCH  19  20
ENDBRANCH  18  19
ENDBRANCH  17  18
BRANCH  17  23
HETATM   23  C4  UNL     1     -11.600  -3.796   5.162  1.00  0.00     0.196 C 
HETATM   24  O3  UNL     1     -11.397  -5.024   5.317  1.00  0.00    -0.647 OA
HETATM   25  O4  UNL     1     -11.449  -3.265   3.898  1.00  0.00    -0.647 OA
ENDBRANCH  17  23
ENDBRANCH  16  17
BRANCH  16  26
HETATM   26  C15 UNL     1     -10.201  -1.251   6.515  1.00  0.00     0.035 A 
HETATM   27  C16 UNL     1      -9.641  -0.016   6.413  1.00  0.00     0.081 A 
HETATM   28  S1  UNL     1      -8.036  -0.291   6.915  1.00  0.00    -0.039 SA
HETATM   29  C17 UNL     1      -8.160  -1.959   7.228  1.00  0.00     0.288 A 
HETATM   30  O10 UNL     1      -7.265  -2.781   7.647  1.00  0.00    -0.260 OA
HETATM   31  N7  UNL     1      -9.428  -2.241   6.936  1.00  0.00    -0.320 N 
ATOM     32  H7  UNL     1      -9.792  -3.189   7.032  1.00  0.00     0.169 HD
ENDBRANCH  16  26
ENDBRANCH  13  16
ENDBRANCH   1  12
BRANCH   8  33
HETATM   33  O6  UNL     1     -16.935   0.508  11.410  1.00  0.00    -0.268 OA
BRANCH  33  34
HETATM   34  C10 UNL     1     -17.607  -0.452  12.199  1.00  0.00     0.267 C 
HETATM   35  N5  UNL     1     -17.906  -0.257  13.415  1.00  0.00    -0.346 N 
HETATM   36  C11 UNL     1     -18.587  -1.381  14.000  1.00  0.00     0.175 C 
ATOM     37  H5  UNL     1     -17.688   0.601  13.923  1.00  0.00     0.163 HD
HETATM   38  C12 UNL     1     -18.986  -2.193  12.785  1.00  0.00     0.269 C 
HETATM   39  O8  UNL     1     -18.039  -1.696  11.827  1.00  0.00    -0.290 OA
BRANCH  38  40
HETATM   40  N6  UNL     1     -18.709  -3.586  13.082  1.00  0.00    -0.069 NA
BRANCH  40  41
HETATM   41  O7  UNL     1     -18.977  -4.392  12.055  1.00  0.00    -0.294 OA
ATOM     42  H7  UNL     1     -18.570  -5.245  12.145  1.00  0.00     0.238 HD
ENDBRANCH  40  41
ENDBRANCH  38  40
ENDBRANCH  33  34
ENDBRANCH   8  33
TORSDOF 12
ENDMDL
MODEL 2
REMARK VINA RESULT: -8.668668408      2.890      8.727
REMARK  12 active torsions:
REMARK  status: ('A' for Active; 'I' for Inactive)
REMARK    1  A    between atoms: C2_2  and  O2_4 
REMARK    2  A    between atoms: O2_4  and  N1_5 
REMARK    3  A    between atoms: N1_5  and  C3_6 
REMARK    4  A    between atoms: C3_6  and  C4_7 
REMARK    5  A    between atoms: C3_6  and  C5_10 
REMARK    6  A    between atoms: C5_10  and  C6_11 
REMARK    7  A    between atoms: C5_10  and  C15_36 
REMARK       I    between atoms: C6_11  and  N2_13 
REMARK    8  A    between atoms: N2_13  and  C7_15 
REMARK    9  A    between atoms: C9_22  and  O6_23 
REMARK   10  A    between atoms: O6_23  and  C10_24 
REMARK   11  A    between atoms: C12_28  and  N6_29 
REMARK   12  A    between atoms: N6_29  and  O7_30 
ROOT
HETATM    1  C7  UNL     1     -14.241  -1.022   8.125  1.00  0.00     0.232 A 
HETATM    2  N3  UNL     1     -12.960  -0.652   8.290  1.00  0.00    -0.306 N 
ATOM      3  H3  UNL     1     -12.714  -0.083   9.099  1.00  0.00     0.171 HD
HETATM    4  C8  UNL     1     -11.972  -1.009   7.414  1.00  0.00     0.139 A 
HETATM    5  N4  UNL     1     -10.749  -0.640   7.596  1.00  0.00    -0.383 N 
ATOM      6  H41 UNL     1     -10.012  -0.906   6.943  1.00  0.00     0.157 HD
ATOM      7  H42 UNL     1     -10.505  -0.069   8.406  1.00  0.00     0.157 HD
HETATM    8  C9  UNL     1     -12.302  -1.780   6.321  1.00  0.00     0.152 A 
HETATM    9  C13 UNL     1     -13.625  -2.141   6.185  1.00  0.00     0.090 A 
HETATM   10  C14 UNL     1     -13.997  -2.974   5.006  1.00  0.00     0.080 C 
HETATM   11  O9  UNL     1     -14.536  -1.755   7.079  1.00  0.00    -0.281 OA
ENDROOT
BRANCH   1  12
HETATM   12  N2  UNL     1     -15.126  -0.651   8.989  1.00  0.00    -0.292 N 
HETATM   13  C6  UNL     1     -15.737   0.627   8.971  1.00  0.00     0.236 C 
HETATM   14  O5  UNL     1     -15.694   1.255   7.878  1.00  0.00    -0.272 OA
ATOM     15  H2  UNL     1     -15.398  -1.309   9.720  1.00  0.00     0.172 HD
BRANCH  13  16
HETATM   16  C5  UNL     1     -16.397   1.246  10.121  1.00  0.00     0.160 C 
BRANCH  16  17
HETATM   17  C3  UNL     1     -15.319   1.818  11.010  1.00  0.00     0.226 C 
BRANCH  17  18
HETATM   18  N1  UNL     1     -14.096   1.818  10.189  1.00  0.00    -0.074 NA
BRANCH  18  19
HETATM   19  O2  UNL     1     -13.086   1.164  10.848  1.00  0.00    -0.206 OA
BRANCH  19  20
HETATM   20  C2  UNL     1     -13.324   0.206  11.822  1.00  0.00     0.273 C 
HETATM   21  C1  UNL     1     -13.333   0.657  13.245  1.00  0.00     0.127 C 
HETATM   22  O1  UNL     1     -13.517  -0.969  11.485  1.00  0.00    -0.264 OA
ENDBRANCH  19  20
ENDBRANCH  18  19
ENDBRANCH  17  18
BRANCH  17  23
HETATM   23  C4  UNL     1     -15.608   3.144  11.545  1.00  0.00     0.196 C 
HETATM   24  O3  UNL     1     -14.668   3.935  11.796  1.00  0.00    -0.647 OA
HETATM   25  O4  UNL     1     -16.899   3.567  11.790  1.00  0.00    -0.647 OA
ENDBRANCH  17  23
ENDBRANCH  16  17
BRANCH  16  26
HETATM   26  C15 UNL     1     -17.227   0.226  10.883  1.00  0.00     0.035 A 
HETATM   27  C16 UNL     1     -17.983  -0.709  10.246  1.00  0.00     0.081 A 
HETATM   28  S1  UNL     1     -18.683  -1.568  11.541  1.00  0.00    -0.039 SA
HETATM   29  C17 UNL     1     -17.978  -0.698  12.822  1.00  0.00     0.288 A 
HETATM   30  O10 UNL     1     -18.111  -0.859  14.091  1.00  0.00    -0.260 OA
HETATM   31  N7  UNL     1     -17.233   0.219  12.208  1.00  0.00    -0.320 N 
ATOM     32  H7  UNL     1     -16.686   0.895  12.740  1.00  0.00     0.169 HD
ENDBRANCH  16  26
ENDBRANCH  13  16
ENDBRANCH   1  12
BRANCH   8  33
HETATM   33  O6  UNL     1     -11.366  -2.185   5.388  1.00  0.00    -0.268 OA
BRANCH  33  34
HETATM   34  C10 UNL     1     -10.604  -3.350   5.628  1.00  0.00     0.267 C 
HETATM   35  N5  UNL     1     -10.743  -4.415   4.954  1.00  0.00    -0.346 N 
HETATM   36  C11 UNL     1      -9.854  -5.459   5.389  1.00  0.00     0.175 C 
ATOM     37  H5  UNL     1     -11.410  -4.519   4.189  1.00  0.00     0.163 HD
HETATM   38  C12 UNL     1      -8.859  -4.707   6.248  1.00  0.00     0.269 C 
HETATM   39  O8  UNL     1      -9.633  -3.543   6.572  1.00  0.00    -0.290 OA
BRANCH  38  40
HETATM   40  N6  UNL     1      -8.628  -5.501   7.442  1.00  0.00    -0.069 NA
BRANCH  40  41
HETATM   41  O7  UNL     1      -9.759  -5.964   7.975  1.00  0.00    -0.294 OA
ATOM     42  H7  UNL     1      -9.721  -6.895   8.157  1.00  0.00     0.238 HD
ENDBRANCH  40  41
ENDBRANCH  38  40
ENDBRANCH  33  34
ENDBRANCH   8  33
TORSDOF 12
ENDMDL
MODEL 3
REMARK VINA RESULT: -8.631252345      4.082      7.619
REMARK  12 active torsions:
REMARK  status: ('A' for Active; 'I' for Inactive)
REMARK    1  A    between atoms: C2_2  and  O2_4 
REMARK    2  A    between atoms: O2_4  and  N1_5 
REMARK    3  A    between atoms: N1_5  and  C3_6 
REMARK    4  A    between atoms: C3_6  and  C4_7 
REMARK    5  A    between atoms: C3_6  and  C5_10 
REMARK    6  A    between atoms: C5_10  and  C6_11 
REMARK    7  A    between atoms: C5_10  and  C15_36 
REMARK       I    between atoms: C6_11  and  N2_13 
REMARK    8  A    between atoms: N2_13  and  C7_15 
REMARK    9  A    between atoms: C9_22  and  O6_23 
REMARK   10  A    between atoms: O6_23  and  C10_24 
REMARK   11  A    between atoms: C12_28  and  N6_29 
REMARK   12  A    between atoms: N6_29  and  O7_30 
ROOT
HETATM    1  C7  UNL     1     -14.686  -3.304   4.434  1.00  0.00     0.232 A 
HETATM    2  N3  UNL     1     -15.977  -3.465   4.769  1.00  0.00    -0.306 N 
ATOM      3  H3  UNL     1     -16.277  -3.197   5.706  1.00  0.00     0.171 HD
HETATM    4  C8  UNL     1     -16.906  -3.972   3.903  1.00  0.00     0.139 A 
HETATM    5  N4  UNL     1     -18.139  -4.116   4.252  1.00  0.00    -0.383 N 
ATOM      6  H41 UNL     1     -18.832  -4.495   3.605  1.00  0.00     0.157 HD
ATOM      7  H42 UNL     1     -18.438  -3.850   5.190  1.00  0.00     0.157 HD
HETATM    8  C9  UNL     1     -16.502  -4.332   2.636  1.00  0.00     0.152 A 
HETATM    9  C13 UNL     1     -15.171  -4.152   2.326  1.00  0.00     0.090 A 
HETATM   10  C14 UNL     1     -14.721  -4.538   0.959  1.00  0.00     0.080 C 
HETATM   11  O9  UNL     1     -14.321  -3.652   3.223  1.00  0.00    -0.281 OA
ENDROOT
BRANCH   1  12
HETATM   12  N2  UNL     1     -13.860  -2.819   5.299  1.00  0.00    -0.292 N 
HETATM   13  C6  UNL     1     -12.504  -3.222   5.386  1.00  0.00     0.236 C 
HETATM   14  O5  UNL     1     -12.015  -3.772   4.362  1.00  0.00    -0.272 OA
ATOM     15  H2  UNL     1     -14.199  -2.112   5.952  1.00  0.00     0.172 HD
BRANCH  13  16
HETATM   16  C5  UNL     1     -11.661  -3.042   6.568  1.00  0.00     0.160 C 
BRANCH  16  17
HETATM   17  C3  UNL     1     -11.060  -1.659   6.490  1.00  0.00     0.226 C 
BRANCH  17  18
HETATM   18  N1  UNL     1     -12.181  -0.765   6.154  1.00  0.00    -0.074 NA
BRANCH  18  19
HETATM   19  O2  UNL     1     -12.892  -0.454   7.286  1.00  0.00    -0.206 OA
BRANCH  19  20
HETATM   20  C2  UNL     1     -14.259  -0.222   7.272  1.00  0.00     0.273 C 
HETATM   21  C1  UNL     1     -15.000  -0.387   8.558  1.00  0.00     0.127 C 
HETATM   22  O1  UNL     1     -14.809   0.107   6.212  1.00  0.00    -0.264 OA
ENDBRANCH  19  20
ENDBRANCH  18  19
ENDBRANCH  17  18
BRANCH  17  23
HETATM   23  C4  UNL     1     -10.370  -1.224   7.700  1.00  0.00     0.196 C 
HETATM   24  O3  UNL     1      -9.583  -0.248   7.654  1.00  0.00    -0.647 OA
HETATM   25  O4  UNL     1     -10.552  -1.858   8.913  1.00  0.00    -0.647 OA
ENDBRANCH  17  23
ENDBRANCH  16  17
BRANCH  16  26
HETATM   26  C15 UNL     1     -10.565  -4.093   6.617  1.00  0.00     0.035 A 
HETATM   27  C16 UNL     1      -9.270  -3.798   6.324  1.00  0.00     0.081 A 
HETATM   28  S1  UNL     1      -8.489  -5.300   6.531  1.00  0.00    -0.039 SA
HETATM   29  C17 UNL     1      -9.846  -6.222   6.980  1.00  0.00     0.288 A 
HETATM   30  O10 UNL     1      -9.924  -7.469   7.279  1.00  0.00    -0.260 OA
HETATM   31  N7  UNL     1     -10.847  -5.344   6.953  1.00  0.00    -0.320 N 
ATOM     32  H7  UNL     1     -11.800  -5.624   7.183  1.00  0.00     0.169 HD
ENDBRANCH  16  26
ENDBRANCH  13  16
ENDBRANCH   1  12
BRANCH   8  33
HETATM   33  O6  UNL     1     -17.375  -4.852   1.698  1.00  0.00    -0.268 OA
BRANCH  33  34
HETATM   34  C10 UNL     1     -18.559  -4.148   1.384  1.00  0.00     0.267 C 
HETATM   35  N5  UNL     1     -19.677  -4.722   1.213  1.00  0.00    -0.346 N 
HETATM   36  C11 UNL     1     -20.729  -3.791   0.904  1.00  0.00     0.175 C 
ATOM     37  H5  UNL     1     -19.814  -5.730   1.287  1.00  0.00     0.163 HD
HETATM   38  C12 UNL     1     -20.112  -2.460   1.279  1.00  0.00     0.269 C 
HETATM   39  O8  UNL     1     -18.719  -2.800   1.215  1.00  0.00    -0.290 OA
BRANCH  38  40
HETATM   40  N6  UNL     1     -20.442  -1.515   0.227  1.00  0.00    -0.069 NA
BRANCH  40  41
HETATM   41  O7  UNL     1     -21.688  -1.664  -0.221  1.00  0.00    -0.294 OA
ATOM     42  H7  UNL     1     -21.739  -1.641  -1.169  1.00  0.00     0.238 HD
ENDBRANCH  40  41
ENDBRANCH  38  40
ENDBRANCH  33  34
ENDBRANCH   8  33
TORSDOF 12
ENDMDL
MODEL 4
REMARK VINA RESULT: -8.592821406      2.005      3.140
REMARK  12 active torsions:
REMARK  status: ('A' for Active; 'I' for Inactive)
REMARK    1  A    between atoms: C2_2  and  O2_4 
REMARK    2  A    between atoms: O2_4  and  N1_5 
REMARK    3  A    between atoms: N1_5  and  C3_6 
REMARK    4  A    between atoms: C3_6  and  C4_7 
REMARK    5  A    between atoms: C3_6  and  C5_10 
REMARK    6  A    between atoms: C5_10  and  C6_11 
REMARK    7  A    between atoms: C5_10  and  C15_36 
REMARK       I    between atoms: C6_11  and  N2_13 
REMARK    8  A    between atoms: N2_13  and  C7_15 
REMARK    9  A    between atoms: C9_22  and  O6_23 
REMARK   10  A    between atoms: O6_23  and  C10_24 
REMARK   11  A    between atoms: C12_28  and  N6_29 
REMARK   12  A    between atoms: N6_29  and  O7_30 
ROOT
HETATM    1  C7  UNL     1     -13.352  -0.459   8.931  1.00  0.00     0.232 A 
HETATM    2  N3  UNL     1     -13.038  -0.592  10.231  1.00  0.00    -0.306 N 
ATOM      3  H3  UNL     1     -12.247  -1.183  10.486  1.00  0.00     0.171 HD
HETATM    4  C8  UNL     1     -13.739   0.033  11.225  1.00  0.00     0.139 A 
HETATM    5  N4  UNL     1     -13.416  -0.114  12.466  1.00  0.00    -0.383 N 
ATOM      6  H41 UNL     1     -13.939   0.352  13.207  1.00  0.00     0.157 HD
ATOM      7  H42 UNL     1     -12.625  -0.706  12.720  1.00  0.00     0.157 HD
HETATM    8  C9  UNL     1     -14.806   0.832  10.881  1.00  0.00     0.152 A 
HETATM    9  C13 UNL     1     -15.099   0.947   9.539  1.00  0.00     0.090 A 
HETATM   10  C14 UNL     1     -16.252   1.808   9.154  1.00  0.00     0.080 C 
HETATM   11  O9  UNL     1     -14.372   0.306   8.623  1.00  0.00    -0.281 OA
ENDROOT
BRANCH   1  12
HETATM   12  N2  UNL     1     -12.649  -1.076   8.041  1.00  0.00    -0.292 N 
HETATM   13  C6  UNL     1     -11.239  -0.972   7.959  1.00  0.00     0.236 C 
HETATM   14  O5  UNL     1     -10.643  -0.581   8.998  1.00  0.00    -0.272 OA
ATOM     15  H2  UNL     1     -13.133  -1.667   7.364  1.00  0.00     0.172 HD
BRANCH  13  16
HETATM   16  C5  UNL     1     -10.454  -1.283   6.764  1.00  0.00     0.160 C 
BRANCH  16  17
HETATM   17  C3  UNL     1     -10.654  -2.749   6.458  1.00  0.00     0.226 C 
BRANCH  17  18
HETATM   18  N1  UNL     1     -10.709  -3.416   7.769  1.00  0.00    -0.074 NA
BRANCH  18  19
HETATM   19  O2  UNL     1     -10.309  -4.724   7.650  1.00  0.00    -0.206 OA
BRANCH  19  20
HETATM   20  C2  UNL     1      -9.215  -5.106   6.888  1.00  0.00     0.273 C 
HETATM   21  C1  UNL     1      -9.482  -5.847   5.620  1.00  0.00     0.127 C 
HETATM   22  O1  UNL     1      -8.074  -4.824   7.279  1.00  0.00    -0.264 OA
ENDBRANCH  19  20
ENDBRANCH  18  19
ENDBRANCH  17  18
BRANCH  17  23
HETATM   23  C4  UNL     1     -11.832  -3.048   5.652  1.00  0.00     0.196 C 
HETATM   24  O3  UNL     1     -11.809  -2.847   4.414  1.00  0.00    -0.647 OA
HETATM   25  O4  UNL     1     -12.989  -3.553   6.208  1.00  0.00    -0.647 OA
ENDBRANCH  17  23
ENDBRANCH  16  17
BRANCH  16  26
HETATM   26  C15 UNL     1      -8.980  -0.986   6.990  1.00  0.00     0.035 A 
HETATM   27  C16 UNL     1      -8.396   0.153   6.529  1.00  0.00     0.081 A 
HETATM   28  S1  UNL     1      -6.781  -0.020   7.047  1.00  0.00    -0.039 SA
HETATM   29  C17 UNL     1      -6.933  -1.527   7.822  1.00  0.00     0.288 A 
HETATM   30  O10 UNL     1      -6.043  -2.224   8.434  1.00  0.00    -0.260 OA
HETATM   31  N7  UNL     1      -8.216  -1.840   7.654  1.00  0.00    -0.320 N 
ATOM     32  H7  UNL     1      -8.598  -2.710   8.024  1.00  0.00     0.169 HD
ENDBRANCH  16  26
ENDBRANCH  13  16
ENDBRANCH   1  12
BRANCH   8  33
HETATM   33  O6  UNL     1     -15.567   1.500  11.823  1.00  0.00    -0.268 OA
BRANCH  33  34
HETATM   34  C10 UNL     1     -16.600   0.812  12.497  1.00  0.00     0.267 C 
HETATM   35  N5  UNL     1     -17.178   1.274  13.527  1.00  0.00    -0.346 N 
HETATM   36  C11 UNL     1     -18.195   0.389  14.029  1.00  0.00     0.175 C 
ATOM     37  H5  UNL     1     -16.949   2.173  13.951  1.00  0.00     0.163 HD
HETATM   38  C12 UNL     1     -18.392  -0.574  12.876  1.00  0.00     0.269 C 
HETATM   39  O8  UNL     1     -17.142  -0.406  12.191  1.00  0.00    -0.290 OA
BRANCH  38  40
HETATM   40  N6  UNL     1     -18.478  -1.911  13.436  1.00  0.00    -0.069 NA
BRANCH  40  41
HETATM   41  O7  UNL     1     -19.685  -2.454  13.279  1.00  0.00    -0.294 OA
ATOM     42  H7  UNL     1     -20.315  -2.129  13.911  1.00  0.00     0.238 HD
ENDBRANCH  40  41
ENDBRANCH  38  40
ENDBRANCH  33  34
ENDBRANCH   8  33
TORSDOF 12
ENDMDL
MODEL 5
REMARK VINA RESULT: -8.589486141      2.954      9.064
REMARK  12 active torsions:
REMARK  status: ('A' for Active; 'I' for Inactive)
REMARK    1  A    between atoms: C2_2  and  O2_4 
REMARK    2  A    between atoms: O2_4  and  N1_5 
REMARK    3  A    between atoms: N1_5  and  C3_6 
REMARK    4  A    between atoms: C3_6  and  C4_7 
REMARK    5  A    between atoms: C3_6  and  C5_10 
REMARK    6  A    between atoms: C5_10  and  C6_11 
REMARK    7  A    between atoms: C5_10  and  C15_36 
REMARK       I    between atoms: C6_11  and  N2_13 
REMARK    8  A    between atoms: N2_13  and  C7_15 
REMARK    9  A    between atoms: C9_22  and  O6_23 
REMARK   10  A    between atoms: O6_23  and  C10_24 
REMARK   11  A    between atoms: C12_28  and  N6_29 
REMARK   12  A    between atoms: N6_29  and  O7_30 
ROOT
HETATM    1  C7  UNL     1     -11.978  -2.397   7.906  1.00  0.00     0.232 A 
HETATM    2  N3  UNL     1     -10.854  -1.685   7.721  1.00  0.00    -0.306 N 
ATOM      3  H3  UNL     1     -10.836  -0.711   8.026  1.00  0.00     0.171 HD
HETATM    4  C8  UNL     1      -9.734  -2.212   7.142  1.00  0.00     0.139 A 
HETATM    5  N4  UNL     1      -8.668  -1.504   6.977  1.00  0.00    -0.383 N 
ATOM      6  H41 UNL     1      -7.832  -1.898   6.544  1.00  0.00     0.157 HD
ATOM      7  H42 UNL     1      -8.651  -0.530   7.280  1.00  0.00     0.157 HD
HETATM    8  C9  UNL     1      -9.757  -3.527   6.733  1.00  0.00     0.152 A 
HETATM    9  C13 UNL     1     -10.926  -4.228   6.938  1.00  0.00     0.090 A 
HETATM   10  C14 UNL     1     -10.964  -5.652   6.498  1.00  0.00     0.080 C 
HETATM   11  O9  UNL     1     -11.981  -3.647   7.509  1.00  0.00    -0.281 OA
ENDROOT
BRANCH   1  12
HETATM   12  N2  UNL     1     -13.002  -1.839   8.459  1.00  0.00    -0.292 N 
HETATM   13  C6  UNL     1     -13.488  -0.563   8.079  1.00  0.00     0.236 C 
HETATM   14  O5  UNL     1     -13.149  -0.151   6.937  1.00  0.00    -0.272 OA
ATOM     15  H2  UNL     1     -13.484  -2.339   9.206  1.00  0.00     0.172 HD
BRANCH  13  16
HETATM   16  C5  UNL     1     -14.338   0.283   8.917  1.00  0.00     0.160 C 
BRANCH  16  17
HETATM   17  C3  UNL     1     -13.670   0.403  10.266  1.00  0.00     0.226 C 
BRANCH  17  18
HETATM   18  N1  UNL     1     -12.228   0.495   9.980  1.00  0.00    -0.074 NA
BRANCH  18  19
HETATM   19  O2  UNL     1     -11.504   0.140  11.090  1.00  0.00    -0.206 OA
BRANCH  19  20
HETATM   20  C2  UNL     1     -11.235  -1.180  11.420  1.00  0.00     0.273 C 
HETATM   21  C1  UNL     1     -11.864  -1.722  12.661  1.00  0.00     0.127 C 
HETATM   22  O1  UNL     1     -10.497  -1.851  10.687  1.00  0.00    -0.264 OA
ENDBRANCH  19  20
ENDBRANCH  18  19
ENDBRANCH  17  18
BRANCH  17  23
HETATM   23  C4  UNL     1     -14.129   1.526  11.077  1.00  0.00     0.196 C 
HETATM   24  O3  UNL     1     -13.802   2.696  10.766  1.00  0.00    -0.647 OA
HETATM   25  O4  UNL     1     -14.924   1.345  12.191  1.00  0.00    -0.647 OA
ENDBRANCH  17  23
ENDBRANCH  16  17
BRANCH  16  26
HETATM   26  C15 UNL     1     -15.725  -0.321   9.065  1.00  0.00     0.035 A 
HETATM   27  C16 UNL     1     -16.467  -0.694   7.988  1.00  0.00     0.081 A 
HETATM   28  S1  UNL     1     -17.894  -1.290   8.706  1.00  0.00    -0.039 SA
HETATM   29  C17 UNL     1     -17.473  -1.035  10.335  1.00  0.00     0.288 A 
HETATM   30  O10 UNL     1     -18.145  -1.286  11.402  1.00  0.00    -0.260 OA
HETATM   31  N7  UNL     1     -16.255  -0.503  10.266  1.00  0.00    -0.320 N 
ATOM     32  H7  UNL     1     -15.745  -0.242  11.110  1.00  0.00     0.169 HD
ENDBRANCH  16  26
ENDBRANCH  13  16
ENDBRANCH   1  12
BRANCH   8  33
HETATM   33  O6  UNL     1      -8.669  -4.139   6.139  1.00  0.00    -0.268 OA
BRANCH  33  34
HETATM   34  C10 UNL     1      -7.488  -4.338   6.888  1.00  0.00     0.267 C 
HETATM   35  N5  UNL     1      -7.052  -5.488   7.194  1.00  0.00    -0.346 N 
HETATM   36  C11 UNL     1      -5.835  -5.428   7.959  1.00  0.00     0.175 C 
ATOM     37  H5  UNL     1      -7.511  -6.359   6.927  1.00  0.00     0.163 HD
HETATM   38  C12 UNL     1      -5.391  -3.994   7.758  1.00  0.00     0.269 C 
HETATM   39  O8  UNL     1      -6.642  -3.390   7.396  1.00  0.00    -0.290 OA
BRANCH  38  40
HETATM   40  N6  UNL     1      -4.950  -3.490   9.047  1.00  0.00    -0.069 NA
BRANCH  40  41
HETATM   41  O7  UNL     1      -5.696  -2.475   9.482  1.00  0.00    -0.294 OA
ATOM     42  H7  UNL     1      -5.200  -1.670   9.570  1.00  0.00     0.238 HD
ENDBRANCH  40  41
ENDBRANCH  38  40
ENDBRANCH  33  34
ENDBRANCH   8  33
TORSDOF 12
ENDMDL
