MODEL 1
REMARK VINA RESULT: -9.867256223      0.000      0.000
REMARK  10 active torsions:
REMARK  status: ('A' for Active; 'I' for Inactive)
REMARK    1  A    between atoms: C2_2  and  N1_3 
REMARK    2  A    between atoms: C3_4  and  S1_5 
REMARK    3  A    between atoms: S1_5  and  C4_6 
REMARK    4  A    between atoms: N2_7  and  C5_9 
REMARK    5  A    between atoms: C5_9  and  C6_10 
REMARK    6  A    between atoms: C6_10  and  N3_11 
REMARK    7  A    between atoms: N3_11  and  C7_13 
REMARK    8  A    between atoms: C10_23  and  C11_24 
REMARK    9  A    between atoms: C15_35  and  N10_36 
REMARK       I    between atoms: N10_36  and  C16_38 
REMARK       I    between atoms: C16_38  and  N11_39 
REMARK       I    between atoms: C16_38  and  N12_43 
REMARK   10  A    between atoms: C17_49  and  N14_50 
ROOT
HETATM    1  C11 UNL     1     -13.823   0.002   8.984  1.00  0.00     0.124 A 
HETATM    2  N7  UNL     1     -14.436  -0.608   7.960  1.00  0.00    -0.334 N 
ATOM      3  H7  UNL     1     -15.432  -0.442   7.815  1.00  0.00     0.168 HD
HETATM    4  C12 UNL     1     -13.776  -1.446   7.100  1.00  0.00     0.154 A 
HETATM    5  C13 UNL     1     -12.435  -1.661   7.305  1.00  0.00     0.124 A 
HETATM    6  N8  UNL     1     -11.806  -1.068   8.311  1.00  0.00    -0.335 N 
ATOM      7  H8  UNL     1     -10.810  -1.239   8.449  1.00  0.00     0.168 HD
HETATM    8  C14 UNL     1     -12.479  -0.218   9.181  1.00  0.00     0.130 A 
HETATM    9  N9  UNL     1     -11.777   0.279  10.093  1.00  0.00    -0.383 N 
ATOM     10  H91 UNL     1     -10.781   0.116  10.239  1.00  0.00     0.157 HD
ATOM     11  H92 UNL     1     -12.271   0.903  10.731  1.00  0.00     0.157 HD
HETATM   12  C15 UNL     1     -11.775  -2.521   6.416  1.00  0.00     0.150 A 
HETATM   13  N13 UNL     1     -12.451  -3.098   5.414  1.00  0.00    -0.174 N 
ATOM     14  H13 UNL     1     -11.957  -3.721   4.776  1.00  0.00     0.186 HD
HETATM   15  C17 UNL     1     -13.750  -2.878   5.231  1.00  0.00     0.681 A 
HETATM   16  N15 UNL     1     -14.402  -2.050   6.081  1.00  0.00    -0.170 N 
HETATM   17  C18 UNL     1     -15.833  -1.837   5.854  1.00  0.00     0.177 C 
ENDROOT
BRANCH   1  18
HETATM   18  C10 UNL     1     -14.552   0.899   9.889  1.00  0.00     0.155 A 
HETATM   19  N1  UNL     1     -15.609   0.641  10.676  1.00  0.00    -0.310 N 
HETATM   20  C3  UNL     1     -15.940   1.773  11.340  1.00  0.00     0.168 A 
HETATM   21  N5  UNL     1     -15.083   2.727  10.958  1.00  0.00    -0.278 N 
HETATM   22  N6  UNL     1     -14.263   2.202  10.097  1.00  0.00    -0.281 N 
ATOM     23  H5  UNL     1     -15.075   3.693  11.284  1.00  0.00     0.189 HD
ATOM     24  H6  UNL     1     -13.504   2.706   9.640  1.00  0.00     0.188 HD
BRANCH  19  25
HETATM   25  C2  UNL     1     -16.318  -0.602  10.834  1.00  0.00     0.128 C 
HETATM   26  C1  UNL     1     -17.528  -0.702   9.930  1.00  0.00     0.027 C 
ENDBRANCH  19  25
BRANCH  20  27
HETATM   27  S1  UNL     1     -17.262   1.987  12.515  1.00  0.00    -0.048 SA
BRANCH  27  28
HETATM   28  C4  UNL     1     -17.222   0.696  13.748  1.00  0.00     0.137 C 
HETATM   29  N2  UNL     1     -18.325   0.110  14.014  1.00  0.00    -0.392 N 
ATOM     30  H2  UNL     1     -19.168   0.402  13.518  1.00  0.00     0.159 HD
BRANCH  29  31
HETATM   31  C5  UNL     1     -18.427  -0.941  14.983  1.00  0.00     0.139 C 
BRANCH  31  32
HETATM   32  C6  UNL     1     -19.708  -1.726  14.730  1.00  0.00     0.141 C 
BRANCH  32  33
HETATM   33  N3  UNL     1     -20.488  -1.831  15.954  1.00  0.00    -0.369 N 
ATOM     34  H3  UNL     1     -20.011  -1.933  16.850  1.00  0.00     0.161 HD
BRANCH  33  35
HETATM   35  C7  UNL     1     -21.896  -1.795  15.915  1.00  0.00     0.140 C 
HETATM   36  N4  UNL     1     -22.681  -2.465  15.191  1.00  0.00    -0.350 N 
HETATM   37  C8  UNL     1     -24.066  -2.289  15.298  1.00  0.00     0.073 C 
ATOM     38  H4  UNL     1     -22.305  -3.139  14.524  1.00  0.00     0.167 HD
HETATM   39  C9  UNL     1     -24.422  -0.922  15.843  1.00  0.00     0.127 C 
HETATM   40  S2  UNL     1     -22.927  -0.731  16.917  1.00  0.00    -0.089 SA
ENDBRANCH  33  35
ENDBRANCH  32  33
ENDBRANCH  31  32
ENDBRANCH  29  31
ENDBRANCH  27  28
ENDBRANCH  20  27
ENDBRANCH   1  18
BRANCH  12  41
HETATM   41  N10 UNL     1     -10.541  -2.698   6.635  1.00  0.00    -0.325 N 
HETATM   42  C16 UNL     1      -9.828  -3.922   6.593  1.00  0.00     0.481 C 
HETATM   43  N11 UNL     1     -10.275  -4.932   7.520  1.00  0.00    -0.033 N 
HETATM   44  N12 UNL     1      -9.860  -4.499   5.258  1.00  0.00    -0.033 N 
ATOM     45 3H11 UNL     1     -10.273  -4.560   8.470  1.00  0.00     0.278 HD
ATOM     46 2H11 UNL     1     -11.272  -5.105   7.396  1.00  0.00     0.278 HD
ATOM     47 1H11 UNL     1      -9.762  -5.814   7.490  1.00  0.00     0.278 HD
ATOM     48 3H12 UNL     1     -10.815  -4.609   4.918  1.00  0.00     0.278 HD
ATOM     49 2H12 UNL     1      -9.520  -3.841   4.556  1.00  0.00     0.278 HD
ATOM     50 1H12 UNL     1      -9.347  -5.380   5.228  1.00  0.00     0.278 HD
ATOM     51  H10 UNL     1      -9.999  -1.866   6.868  1.00  0.00     0.165 HD
ENDBRANCH  12  41
BRANCH  15  52
HETATM   52  N14 UNL     1     -14.378  -3.454   4.242  1.00  0.00    -0.234 N 
ATOM     53 2H14 UNL     1     -14.179  -3.198   3.275  1.00  0.00     0.174 HD
ATOM     54 1H14 UNL     1     -15.079  -4.172   4.430  1.00  0.00     0.174 HD
ENDBRANCH  15  52
TORSDOF 10
ENDMDL
MODEL 2
REMARK VINA RESULT: -9.328677221      5.629     11.332
REMARK  10 active torsions:
REMARK  status: ('A' for Active; 'I' for Inactive)
REMARK    1  A    between atoms: C2_2  and  N1_3 
REMARK    2  A    between atoms: C3_4  and  S1_5 
REMARK    3  A    between atoms: S1_5  and  C4_6 
REMARK    4  A    between atoms: N2_7  and  C5_9 
REMARK    5  A    between atoms: C5_9  and  C6_10 
REMARK    6  A    between atoms: C6_10  and  N3_11 
REMARK    7  A    between atoms: N3_11  and  C7_13 
REMARK    8  A    between atoms: C10_23  and  C11_24 
REMARK    9  A    between atoms: C15_35  and  N10_36 
REMARK       I    between atoms: N10_36  and  C16_38 
REMARK       I    between atoms: C16_38  and  N11_39 
REMARK       I    between atoms: C16_38  and  N12_43 
REMARK   10  A    between atoms: C17_49  and  N14_50 
ROOT
HETATM    1  C11 UNL     1     -12.717  -1.652   8.725  1.00  0.00     0.124 A 
HETATM    2  N7  UNL     1     -12.489  -1.572  10.044  1.00  0.00    -0.334 N 
ATOM      3  H7  UNL     1     -11.940  -2.305  10.492  1.00  0.00     0.168 HD
HETATM    4  C12 UNL     1     -12.967  -0.542  10.812  1.00  0.00     0.154 A 
HETATM    5  C13 UNL     1     -13.705   0.439  10.196  1.00  0.00     0.124 A 
HETATM    6  N8  UNL     1     -13.943   0.381   8.893  1.00  0.00    -0.335 N 
ATOM      7  H8  UNL     1     -14.493   1.118   8.451  1.00  0.00     0.168 HD
HETATM    8  C14 UNL     1     -13.456  -0.665   8.116  1.00  0.00     0.130 A 
HETATM    9  N9  UNL     1     -13.749  -0.608   6.899  1.00  0.00    -0.383 N 
ATOM     10  H91 UNL     1     -14.297   0.124   6.447  1.00  0.00     0.157 HD
ATOM     11  H92 UNL     1     -13.393  -1.375   6.329  1.00  0.00     0.157 HD
HETATM   12  C15 UNL     1     -14.185   1.484  10.996  1.00  0.00     0.150 A 
HETATM   13  N13 UNL     1     -13.920   1.501  12.309  1.00  0.00    -0.174 N 
ATOM     14  H13 UNL     1     -14.276   2.268  12.879  1.00  0.00     0.186 HD
HETATM   15  C17 UNL     1     -13.203   0.542  12.889  1.00  0.00     0.681 A 
HETATM   16  N15 UNL     1     -12.732  -0.476  12.130  1.00  0.00    -0.170 N 
HETATM   17  C18 UNL     1     -11.954  -1.518  12.802  1.00  0.00     0.177 C 
ENDROOT
BRANCH   1  18
HETATM   18  C10 UNL     1     -12.191  -2.764   7.923  1.00  0.00     0.155 A 
HETATM   19  N1  UNL     1     -10.985  -2.903   7.348  1.00  0.00    -0.310 N 
HETATM   20  C3  UNL     1     -10.945  -4.099   6.714  1.00  0.00     0.168 A 
HETATM   21  N5  UNL     1     -12.129  -4.691   6.900  1.00  0.00    -0.278 N 
HETATM   22  N6  UNL     1     -12.863  -3.894   7.618  1.00  0.00    -0.281 N 
ATOM     23  H5  UNL     1     -12.407  -5.605   6.543  1.00  0.00     0.189 HD
ATOM     24  H6  UNL     1     -13.819  -4.095   7.911  1.00  0.00     0.188 HD
BRANCH  19  25
HETATM   25  C2  UNL     1      -9.880  -1.980   7.363  1.00  0.00     0.128 C 
HETATM   26  C1  UNL     1     -10.099  -0.793   6.450  1.00  0.00     0.027 C 
ENDBRANCH  19  25
BRANCH  20  27
HETATM   27  S1  UNL     1      -9.582  -4.786   5.794  1.00  0.00    -0.048 SA
BRANCH  27  28
HETATM   28  C4  UNL     1      -8.354  -5.462   6.901  1.00  0.00     0.137 C 
HETATM   29  N2  UNL     1      -7.188  -4.944   6.865  1.00  0.00    -0.392 N 
ATOM     30  H2  UNL     1      -7.013  -4.177   6.214  1.00  0.00     0.159 HD
BRANCH  29  31
HETATM   31  C5  UNL     1      -6.117  -5.395   7.701  1.00  0.00     0.139 C 
BRANCH  31  32
HETATM   32  C6  UNL     1      -5.224  -4.210   8.047  1.00  0.00     0.141 C 
BRANCH  32  33
HETATM   33  N3  UNL     1      -5.391  -3.146   7.069  1.00  0.00    -0.369 N 
ATOM     34  H3  UNL     1      -5.471  -3.378   6.079  1.00  0.00     0.161 HD
BRANCH  33  35
HETATM   35  C7  UNL     1      -5.444  -1.797   7.475  1.00  0.00     0.140 C 
HETATM   36  N4  UNL     1      -5.356  -0.759   6.766  1.00  0.00    -0.350 N 
HETATM   37  C8  UNL     1      -5.433   0.509   7.357  1.00  0.00     0.073 C 
ATOM     38  H4  UNL     1      -5.228  -0.842   5.758  1.00  0.00     0.167 HD
HETATM   39  C9  UNL     1      -5.033   0.477   8.817  1.00  0.00     0.127 C 
HETATM   40  S2  UNL     1      -5.639  -1.236   9.162  1.00  0.00    -0.089 SA
ENDBRANCH  33  35
ENDBRANCH  32  33
ENDBRANCH  31  32
ENDBRANCH  29  31
ENDBRANCH  27  28
ENDBRANCH  20  27
ENDBRANCH   1  18
BRANCH  12  41
HETATM   41  N10 UNL     1     -14.862   2.370  10.397  1.00  0.00    -0.325 N 
HETATM   42  C16 UNL     1     -16.261   2.581  10.476  1.00  0.00     0.481 C 
HETATM   43  N11 UNL     1     -17.081   1.474  10.048  1.00  0.00    -0.033 N 
HETATM   44  N12 UNL     1     -16.660   2.933  11.830  1.00  0.00    -0.033 N 
ATOM     45 3H11 UNL     1     -16.823   1.194   9.102  1.00  0.00     0.278 HD
ATOM     46 2H11 UNL     1     -16.826   0.631  10.562  1.00  0.00     0.278 HD
ATOM     47 1H11 UNL     1     -18.088   1.626  10.105  1.00  0.00     0.278 HD
ATOM     48 3H12 UNL     1     -16.347   2.238  12.508  1.00  0.00     0.278 HD
ATOM     49 2H12 UNL     1     -16.138   3.737  12.179  1.00  0.00     0.278 HD
ATOM     50 1H12 UNL     1     -17.667   3.085  11.887  1.00  0.00     0.278 HD
ATOM     51  H10 UNL     1     -14.342   3.003   9.790  1.00  0.00     0.165 HD
ENDBRANCH  12  41
BRANCH  15  52
HETATM   52  N14 UNL     1     -12.961   0.589  14.171  1.00  0.00    -0.234 N 
ATOM     53 2H14 UNL     1     -13.693   0.845  14.833  1.00  0.00     0.174 HD
ATOM     54 1H14 UNL     1     -12.030   0.367  14.524  1.00  0.00     0.174 HD
ENDBRANCH  15  52
TORSDOF 10
ENDMDL
MODEL 3
REMARK VINA RESULT: -9.007486201      5.210     11.195
REMARK  10 active torsions:
REMARK  status: ('A' for Active; 'I' for Inactive)
REMARK    1  A    between atoms: C2_2  and  N1_3 
REMARK    2  A    between atoms: C3_4  and  S1_5 
REMARK    3  A    between atoms: S1_5  and  C4_6 
REMARK    4  A    between atoms: N2_7  and  C5_9 
REMARK    5  A    between atoms: C5_9  and  C6_10 
REMARK    6  A    between atoms: C6_10  and  N3_11 
REMARK    7  A    between atoms: N3_11  and  C7_13 
REMARK    8  A    between atoms: C10_23  and  C11_24 
REMARK    9  A    between atoms: C15_35  and  N10_36 
REMARK       I    between atoms: N10_36  and  C16_38 
REMARK       I    between atoms: C16_38  and  N11_39 
REMARK       I    between atoms: C16_38  and  N12_43 
REMARK   10  A    between atoms: C17_49  and  N14_50 
ROOT
HETATM    1  C11 UNL     1     -14.320  -0.604   8.316  1.00  0.00     0.124 A 
HETATM    2  N7  UNL     1     -13.761  -0.675   9.533  1.00  0.00    -0.334 N 
ATOM      3  H7  UNL     1     -13.054  -1.389   9.707  1.00  0.00     0.168 HD
HETATM    4  C12 UNL     1     -14.105   0.177  10.551  1.00  0.00     0.154 A 
HETATM    5  C13 UNL     1     -15.057   1.134  10.302  1.00  0.00     0.124 A 
HETATM    6  N8  UNL     1     -15.623   1.224   9.106  1.00  0.00    -0.335 N 
ATOM      7  H8  UNL     1     -16.329   1.940   8.939  1.00  0.00     0.168 HD
HETATM    8  C14 UNL     1     -15.273   0.359   8.076  1.00  0.00     0.130 A 
HETATM    9  N9  UNL     1     -15.878   0.543   6.994  1.00  0.00    -0.383 N 
ATOM     10  H91 UNL     1     -16.584   1.256   6.816  1.00  0.00     0.157 HD
ATOM     11  H92 UNL     1     -15.621  -0.092   6.238  1.00  0.00     0.157 HD
HETATM   12  C15 UNL     1     -15.396   1.997  11.354  1.00  0.00     0.150 A 
HETATM   13  N13 UNL     1     -14.798   1.869  12.546  1.00  0.00    -0.174 N 
ATOM     14  H13 UNL     1     -15.055   2.504  13.302  1.00  0.00     0.186 HD
HETATM   15  C17 UNL     1     -13.877   0.935  12.768  1.00  0.00     0.681 A 
HETATM   16  N15 UNL     1     -13.538   0.094  11.763  1.00  0.00    -0.170 N 
HETATM   17  C18 UNL     1     -12.527  -0.927  12.045  1.00  0.00     0.177 C 
ENDROOT
BRANCH   1  18
HETATM   18  C10 UNL     1     -13.932  -1.525   7.241  1.00  0.00     0.155 A 
HETATM   19  N1  UNL     1     -12.734  -1.699   6.658  1.00  0.00    -0.310 N 
HETATM   20  C3  UNL     1     -12.847  -2.665   5.717  1.00  0.00     0.168 A 
HETATM   21  N5  UNL     1     -14.117  -3.083   5.723  1.00  0.00    -0.278 N 
HETATM   22  N6  UNL     1     -14.755  -2.403   6.628  1.00  0.00    -0.281 N 
ATOM     23  H5  UNL     1     -14.515  -3.806   5.123  1.00  0.00     0.189 HD
ATOM     24  H6  UNL     1     -15.745  -2.516   6.847  1.00  0.00     0.188 HD
BRANCH  19  25
HETATM   25  C2  UNL     1     -11.501  -1.010   6.938  1.00  0.00     0.128 C 
HETATM   26  C1  UNL     1     -10.666  -1.710   7.988  1.00  0.00     0.027 C 
ENDBRANCH  19  25
BRANCH  20  27
HETATM   27  S1  UNL     1     -11.562  -3.290   4.653  1.00  0.00    -0.048 SA
BRANCH  27  28
HETATM   28  C4  UNL     1     -10.755  -4.697   5.401  1.00  0.00     0.137 C 
HETATM   29  N2  UNL     1      -9.479  -4.720   5.372  1.00  0.00    -0.392 N 
ATOM     30  H2  UNL     1      -8.984  -3.944   4.930  1.00  0.00     0.159 HD
BRANCH  29  31
HETATM   31  C5  UNL     1      -8.714  -5.791   5.937  1.00  0.00     0.139 C 
BRANCH  31  32
HETATM   32  C6  UNL     1      -7.975  -5.278   7.167  1.00  0.00     0.141 C 
BRANCH  32  33
HETATM   33  N3  UNL     1      -6.591  -4.971   6.837  1.00  0.00    -0.369 N 
ATOM     34  H3  UNL     1      -6.124  -5.487   6.092  1.00  0.00     0.161 HD
BRANCH  33  35
HETATM   35  C7  UNL     1      -5.890  -3.968   7.536  1.00  0.00     0.140 C 
HETATM   36  N4  UNL     1      -4.991  -4.100   8.409  1.00  0.00    -0.350 N 
HETATM   37  C8  UNL     1      -4.405  -2.972   8.996  1.00  0.00     0.073 C 
ATOM     38  H4  UNL     1      -4.689  -5.033   8.689  1.00  0.00     0.167 HD
HETATM   39  C9  UNL     1      -5.317  -1.765   8.937  1.00  0.00     0.127 C 
HETATM   40  S2  UNL     1      -6.145  -2.208   7.343  1.00  0.00    -0.089 SA
ENDBRANCH  33  35
ENDBRANCH  32  33
ENDBRANCH  31  32
ENDBRANCH  29  31
ENDBRANCH  27  28
ENDBRANCH  20  27
ENDBRANCH   1  18
BRANCH  12  41
HETATM   41  N10 UNL     1     -16.278   2.866  11.092  1.00  0.00    -0.325 N 
HETATM   42  C16 UNL     1     -16.828   3.825  11.978  1.00  0.00     0.481 C 
HETATM   43  N11 UNL     1     -17.509   3.287  13.130  1.00  0.00    -0.033 N 
HETATM   44  N12 UNL     1     -15.805   4.743  12.454  1.00  0.00    -0.033 N 
ATOM     45 3H11 UNL     1     -18.231   2.631  12.834  1.00  0.00     0.278 HD
ATOM     46 2H11 UNL     1     -16.890   2.657  13.639  1.00  0.00     0.278 HD
ATOM     47 1H11 UNL     1     -17.905   3.978  13.768  1.00  0.00     0.278 HD
ATOM     48 3H12 UNL     1     -15.022   4.247  12.878  1.00  0.00     0.278 HD
ATOM     49 2H12 UNL     1     -15.308   5.187  11.681  1.00  0.00     0.278 HD
ATOM     50 1H12 UNL     1     -16.202   5.434  13.092  1.00  0.00     0.278 HD
ATOM     51  H10 UNL     1     -16.632   2.876  10.135  1.00  0.00     0.165 HD
ENDBRANCH  12  41
BRANCH  15  52
HETATM   52  N14 UNL     1     -13.311   0.839  13.941  1.00  0.00    -0.234 N 
ATOM     53 2H14 UNL     1     -13.757   1.230  14.770  1.00  0.00     0.174 HD
ATOM     54 1H14 UNL     1     -12.412   0.367  14.038  1.00  0.00     0.174 HD
ENDBRANCH  15  52
TORSDOF 10
ENDMDL
MODEL 4
REMARK VINA RESULT: -8.861493152      3.545      6.822
REMARK  10 active torsions:
REMARK  status: ('A' for Active; 'I' for Inactive)
REMARK    1  A    between atoms: C2_2  and  N1_3 
REMARK    2  A    between atoms: C3_4  and  S1_5 
REMARK    3  A    between atoms: S1_5  and  C4_6 
REMARK    4  A    between atoms: N2_7  and  C5_9 
REMARK    5  A    between atoms: C5_9  and  C6_10 
REMARK    6  A    between atoms: C6_10  and  N3_11 
REMARK    7  A    between atoms: N3_11  and  C7_13 
REMARK    8  A    between atoms: C10_23  and  C11_24 
REMARK    9  A    between atoms: C15_35  and  N10_36 
REMARK       I    between atoms: N10_36  and  C16_38 
REMARK       I    between atoms: C16_38  and  N11_39 
REMARK       I    between atoms: C16_38  and  N12_43 
REMARK   10  A    between atoms: C17_49  and  N14_50 
ROOT
HETATM    1  C11 UNL     1      -9.723  -2.224   6.760  1.00  0.00     0.124 A 
HETATM    2  N7  UNL     1      -9.014  -3.357   6.852  1.00  0.00    -0.334 N 
ATOM      3  H7  UNL     1      -9.497  -4.249   6.744  1.00  0.00     0.168 HD
HETATM    4  C12 UNL     1      -7.663  -3.363   7.086  1.00  0.00     0.154 A 
HETATM    5  C13 UNL     1      -7.024  -2.155   7.228  1.00  0.00     0.124 A 
HETATM    6  N8  UNL     1      -7.705  -1.021   7.140  1.00  0.00    -0.335 N 
ATOM      7  H8  UNL     1      -7.215  -0.133   7.248  1.00  0.00     0.168 HD
HETATM    8  C14 UNL     1      -9.075  -1.019   6.903  1.00  0.00     0.130 A 
HETATM    9  N9  UNL     1      -9.605   0.115   6.843  1.00  0.00    -0.383 N 
ATOM     10  H91 UNL     1      -9.125   1.008   6.948  1.00  0.00     0.157 HD
ATOM     11  H92 UNL     1     -10.610   0.117   6.669  1.00  0.00     0.157 HD
HETATM   12  C15 UNL     1      -5.643  -2.180   7.466  1.00  0.00     0.150 A 
HETATM   13  N13 UNL     1      -4.996  -3.350   7.547  1.00  0.00    -0.174 N 
ATOM     14  H13 UNL     1      -3.991  -3.352   7.721  1.00  0.00     0.186 HD
HETATM   15  C17 UNL     1      -5.632  -4.510   7.406  1.00  0.00     0.681 A 
HETATM   16  N15 UNL     1      -6.966  -4.504   7.176  1.00  0.00    -0.170 N 
HETATM   17  C18 UNL     1      -7.635  -5.799   7.035  1.00  0.00     0.177 C 
ENDROOT
BRANCH   1  18
HETATM   18  C10 UNL     1     -11.169  -2.244   6.505  1.00  0.00     0.155 A 
HETATM   19  N1  UNL     1     -12.188  -2.045   7.357  1.00  0.00    -0.310 N 
HETATM   20  C3  UNL     1     -13.351  -2.153   6.673  1.00  0.00     0.168 A 
HETATM   21  N5  UNL     1     -13.043  -2.419   5.399  1.00  0.00    -0.278 N 
HETATM   22  N6  UNL     1     -11.748  -2.472   5.306  1.00  0.00    -0.281 N 
ATOM     23  H5  UNL     1     -13.706  -2.556   4.636  1.00  0.00     0.189 HD
ATOM     24  H6  UNL     1     -11.237  -2.660   4.444  1.00  0.00     0.188 HD
BRANCH  19  25
HETATM   25  C2  UNL     1     -12.125  -1.764   8.767  1.00  0.00     0.128 C 
HETATM   26  C1  UNL     1     -12.059  -0.281   9.064  1.00  0.00     0.027 C 
ENDBRANCH  19  25
BRANCH  20  27
HETATM   27  S1  UNL     1     -15.002  -1.975   7.318  1.00  0.00    -0.048 SA
BRANCH  27  28
HETATM   28  C4  UNL     1     -15.453  -0.251   7.427  1.00  0.00     0.137 C 
HETATM   29  N2  UNL     1     -15.617   0.236   8.595  1.00  0.00    -0.392 N 
ATOM     30  H2  UNL     1     -15.484  -0.373   9.403  1.00  0.00     0.159 HD
BRANCH  29  31
HETATM   31  C5  UNL     1     -15.979   1.605   8.817  1.00  0.00     0.139 C 
BRANCH  31  32
HETATM   32  C6  UNL     1     -15.381   2.067  10.141  1.00  0.00     0.141 C 
BRANCH  32  33
HETATM   33  N3  UNL     1     -15.341   0.967  11.092  1.00  0.00    -0.369 N 
ATOM     34  H3  UNL     1     -14.516   0.368  11.136  1.00  0.00     0.161 HD
BRANCH  33  35
HETATM   35  C7  UNL     1     -16.429   0.719  11.952  1.00  0.00     0.140 C 
HETATM   36  N4  UNL     1     -16.747   1.321  13.013  1.00  0.00    -0.350 N 
HETATM   37  C8  UNL     1     -17.877   0.927  13.739  1.00  0.00     0.073 C 
ATOM     38  H4  UNL     1     -16.177   2.100  13.344  1.00  0.00     0.167 HD
HETATM   39  C9  UNL     1     -18.238  -0.521  13.481  1.00  0.00     0.127 C 
HETATM   40  S2  UNL     1     -17.645  -0.574  11.729  1.00  0.00    -0.089 SA
ENDBRANCH  33  35
ENDBRANCH  32  33
ENDBRANCH  31  32
ENDBRANCH  29  31
ENDBRANCH  27  28
ENDBRANCH  20  27
ENDBRANCH   1  18
BRANCH  12  41
HETATM   41  N10 UNL     1      -5.086  -1.051   7.593  1.00  0.00    -0.325 N 
HETATM   42  C16 UNL     1      -4.365  -0.570   8.715  1.00  0.00     0.481 C 
HETATM   43  N11 UNL     1      -5.113  -0.490   9.946  1.00  0.00    -0.033 N 
HETATM   44  N12 UNL     1      -3.185  -1.383   8.964  1.00  0.00    -0.033 N 
ATOM     45 3H11 UNL     1      -5.956   0.068   9.807  1.00  0.00     0.278 HD
ATOM     46 2H11 UNL     1      -5.530  -1.396  10.161  1.00  0.00     0.278 HD
ATOM     47 1H11 UNL     1      -4.595  -0.145  10.753  1.00  0.00     0.278 HD
ATOM     48 3H12 UNL     1      -3.422  -2.370   9.065  1.00  0.00     0.278 HD
ATOM     49 2H12 UNL     1      -2.592  -1.449   8.136  1.00  0.00     0.278 HD
ATOM     50 1H12 UNL     1      -2.666  -1.038   9.772  1.00  0.00     0.278 HD
ATOM     51  H10 UNL     1      -5.165  -0.415   6.800  1.00  0.00     0.165 HD
ENDBRANCH  12  41
BRANCH  15  52
HETATM   52  N14 UNL     1      -4.972  -5.633   7.488  1.00  0.00    -0.234 N 
ATOM     53 2H14 UNL     1      -5.325  -6.482   7.046  1.00  0.00     0.174 HD
ATOM     54 1H14 UNL     1      -4.089  -5.672   7.998  1.00  0.00     0.174 HD
ENDBRANCH  15  52
TORSDOF 10
ENDMDL
MODEL 5
REMARK VINA RESULT: -8.632785699      6.550      9.236
REMARK  10 active torsions:
REMARK  status: ('A' for Active; 'I' for Inactive)
REMARK    1  A    between atoms: C2_2  and  N1_3 
REMARK    2  A    between atoms: C3_4  and  S1_5 
REMARK    3  A    between atoms: S1_5  and  C4_6 
REMARK    4  A    between atoms: N2_7  and  C5_9 
REMARK    5  A    between atoms: C5_9  and  C6_10 
REMARK    6  A    between atoms: C6_10  and  N3_11 
REMARK    7  A    between atoms: N3_11  and  C7_13 
REMARK    8  A    between atoms: C10_23  and  C11_24 
REMARK    9  A    between atoms: C15_35  and  N10_36 
REMARK       I    between atoms: N10_36  and  C16_38 
REMARK       I    between atoms: C16_38  and  N11_39 
REMARK       I    between atoms: C16_38  and  N12_43 
REMARK   10  A    between atoms: C17_49  and  N14_50 
ROOT
HETATM    1  C11 UNL     1      -9.559  -2.180   6.775  1.00  0.00     0.124 A 
HETATM    2  N7  UNL     1      -8.885  -3.334   6.870  1.00  0.00    -0.334 N 
ATOM      3  H7  UNL     1      -9.393  -4.211   6.752  1.00  0.00     0.168 HD
HETATM    4  C12 UNL     1      -7.538  -3.382   7.122  1.00  0.00     0.154 A 
HETATM    5  C13 UNL     1      -6.866  -2.194   7.279  1.00  0.00     0.124 A 
HETATM    6  N8  UNL     1      -7.511  -1.040   7.188  1.00  0.00    -0.335 N 
ATOM      7  H8  UNL     1      -6.997  -0.167   7.308  1.00  0.00     0.168 HD
HETATM    8  C14 UNL     1      -8.877  -0.996   6.933  1.00  0.00     0.130 A 
HETATM    9  N9  UNL     1      -9.373   0.154   6.872  1.00  0.00    -0.383 N 
ATOM     10  H91 UNL     1      -8.868   1.032   6.989  1.00  0.00     0.157 HD
ATOM     11  H92 UNL     1     -10.375   0.186   6.685  1.00  0.00     0.157 HD
HETATM   12  C15 UNL     1      -5.489  -2.261   7.535  1.00  0.00     0.150 A 
HETATM   13  N13 UNL     1      -4.878  -3.450   7.618  1.00  0.00    -0.174 N 
ATOM     14  H13 UNL     1      -3.876  -3.482   7.805  1.00  0.00     0.186 HD
HETATM   15  C17 UNL     1      -5.546  -4.590   7.463  1.00  0.00     0.681 A 
HETATM   16  N15 UNL     1      -6.876  -4.543   7.215  1.00  0.00    -0.170 N 
HETATM   17  C18 UNL     1      -7.581  -5.817   7.058  1.00  0.00     0.177 C 
ENDROOT
BRANCH   1  18
HETATM   18  C10 UNL     1     -11.001  -2.156   6.501  1.00  0.00     0.155 A 
HETATM   19  N1  UNL     1     -12.031  -2.072   7.359  1.00  0.00    -0.310 N 
HETATM   20  C3  UNL     1     -13.185  -2.076   6.651  1.00  0.00     0.168 A 
HETATM   21  N5  UNL     1     -12.861  -2.164   5.357  1.00  0.00    -0.278 N 
HETATM   22  N6  UNL     1     -11.564  -2.212   5.274  1.00  0.00    -0.281 N 
ATOM     23  H5  UNL     1     -13.514  -2.190   4.574  1.00  0.00     0.189 HD
ATOM     24  H6  UNL     1     -11.043  -2.282   4.401  1.00  0.00     0.188 HD
BRANCH  19  25
HETATM   25  C2  UNL     1     -11.987  -1.990   8.796  1.00  0.00     0.128 C 
HETATM   26  C1  UNL     1     -11.764  -0.578   9.292  1.00  0.00     0.027 C 
ENDBRANCH  19  25
BRANCH  20  27
HETATM   27  S1  UNL     1     -14.844  -1.981   7.293  1.00  0.00    -0.048 SA
BRANCH  27  28
HETATM   28  C4  UNL     1     -16.038  -2.260   5.995  1.00  0.00     0.137 C 
HETATM   29  N2  UNL     1     -15.810  -3.225   5.191  1.00  0.00    -0.392 N 
ATOM     30  H2  UNL     1     -14.968  -3.786   5.324  1.00  0.00     0.159 HD
BRANCH  29  31
HETATM   31  C5  UNL     1     -16.690  -3.551   4.108  1.00  0.00     0.139 C 
BRANCH  31  32
HETATM   32  C6  UNL     1     -15.862  -4.051   2.930  1.00  0.00     0.141 C 
BRANCH  32  33
HETATM   33  N3  UNL     1     -16.728  -4.598   1.897  1.00  0.00    -0.369 N 
ATOM     34  H3  UNL     1     -16.405  -5.383   1.331  1.00  0.00     0.161 HD
BRANCH  33  35
HETATM   35  C7  UNL     1     -18.008  -4.056   1.669  1.00  0.00     0.140 C 
HETATM   36  N4  UNL     1     -19.117  -4.653   1.611  1.00  0.00    -0.350 N 
HETATM   37  C8  UNL     1     -20.296  -3.935   1.374  1.00  0.00     0.073 C 
ATOM     38  H4  UNL     1     -19.155  -5.665   1.737  1.00  0.00     0.167 HD
HETATM   39  C9  UNL     1     -20.028  -2.634   0.648  1.00  0.00     0.127 C 
HETATM   40  S2  UNL     1     -18.358  -2.326   1.382  1.00  0.00    -0.089 SA
ENDBRANCH  33  35
ENDBRANCH  32  33
ENDBRANCH  31  32
ENDBRANCH  29  31
ENDBRANCH  27  28
ENDBRANCH  20  27
ENDBRANCH   1  18
BRANCH  12  41
HETATM   41  N10 UNL     1      -4.901  -1.149   7.676  1.00  0.00    -0.325 N 
HETATM   42  C16 UNL     1      -4.292  -0.643   8.851  1.00  0.00     0.481 C 
HETATM   43  N11 UNL     1      -5.171  -0.473   9.982  1.00  0.00    -0.033 N 
HETATM   44  N12 UNL     1      -3.184  -1.488   9.271  1.00  0.00    -0.033 N 
ATOM     45 3H11 UNL     1      -5.966   0.110   9.722  1.00  0.00     0.278 HD
ATOM     46 2H11 UNL     1      -5.649  -1.350  10.187  1.00  0.00     0.278 HD
ATOM     47 1H11 UNL     1      -4.733  -0.109  10.828  1.00  0.00     0.278 HD
ATOM     48 3H12 UNL     1      -3.475  -2.459   9.387  1.00  0.00     0.278 HD
ATOM     49 2H12 UNL     1      -2.505  -1.618   8.521  1.00  0.00     0.278 HD
ATOM     50 1H12 UNL     1      -2.747  -1.124  10.117  1.00  0.00     0.278 HD
ATOM     51  H10 UNL     1      -4.861  -0.551   6.851  1.00  0.00     0.165 HD
ENDBRANCH  12  41
BRANCH  15  52
HETATM   52  N14 UNL     1      -4.921  -5.733   7.548  1.00  0.00    -0.234 N 
ATOM     53 2H14 UNL     1      -4.960  -6.409   6.785  1.00  0.00     0.174 HD
ATOM     54 1H14 UNL     1      -4.381  -5.960   8.383  1.00  0.00     0.174 HD
ENDBRANCH  15  52
TORSDOF 10
ENDMDL
