MODEL 1
REMARK VINA RESULT: -9.199895223      0.000      0.000
REMARK  13 active torsions:
REMARK  status: ('A' for Active; 'I' for Inactive)
REMARK    1  A    between atoms: C4_4  and  O1_5 
REMARK    2  A    between atoms: O1_5  and  C5_6 
REMARK       I    between atoms: C5_6  and  N1_8 
REMARK    3  A    between atoms: N1_8  and  C6_10 
REMARK    4  A    between atoms: C6_10  and  C7_11 
REMARK    5  A    between atoms: C7_11  and  N2_12 
REMARK    6  A    between atoms: N2_12  and  C8_15 
REMARK    7  A    between atoms: C8_15  and  C9_16 
REMARK    8  A    between atoms: C9_16  and  C10_17 
REMARK    9  A    between atoms: C10_17  and  C11_18 
REMARK   10  A    between atoms: C13_25  and  N5_26 
REMARK   11  A    between atoms: N5_26  and  N6_28 
REMARK   12  A    between atoms: N6_28  and  O4_30 
REMARK   13  A    between atoms: O4_30  and  N7_31 
REMARK       I    between atoms: N7_31  and  C14_33 
ROOT
HETATM    1  C11 UNL     1      24.684 -14.273   7.248  1.00  0.00     0.059 A 
HETATM    2  N3  UNL     1      24.884 -15.320   6.392  1.00  0.00    -0.300 N 
ATOM      3  H3  UNL     1      25.762 -15.825   6.275  1.00  0.00     0.186 HD
HETATM    4  N4  UNL     1      23.751 -15.580   5.732  1.00  0.00    -0.264 N 
ATOM      5  H4  UNL     1      23.639 -16.315   5.033  1.00  0.00     0.190 HD
HETATM    6  C12 UNL     1      22.783 -14.737   6.120  1.00  0.00     0.290 A 
HETATM    7  O3  UNL     1      21.607 -14.697   5.712  1.00  0.00    -0.264 OA
HETATM    8  C13 UNL     1      23.362 -13.926   7.061  1.00  0.00     0.143 A 
ENDROOT
BRANCH   1   9
HETATM    9  C10 UNL     1      25.680 -13.662   8.152  1.00  0.00     0.063 C 
BRANCH   9  10
HETATM   10  C9  UNL     1      26.719 -14.722   8.540  1.00  0.00     0.033 C 
BRANCH  10  11
HETATM   11  C8  UNL     1      27.034 -14.466   9.988  1.00  0.00     0.232 C 
BRANCH  11  12
HETATM   12  N2  UNL     1      26.007 -15.107  10.831  1.00  0.00    -0.074 N 
ATOM     13  H22 UNL     1      25.856 -16.081  10.572  1.00  0.00     0.277 HD
ATOM     14  H21 UNL     1      25.072 -14.751  10.629  1.00  0.00     0.277 HD
BRANCH  12  15
HETATM   15  C7  UNL     1      26.341 -14.969  12.200  1.00  0.00     0.252 C 
BRANCH  15  16
HETATM   16  C6  UNL     1      27.674 -15.481  12.577  1.00  0.00     0.152 C 
BRANCH  16  17
HETATM   17  N1  UNL     1      27.715 -16.818  13.044  1.00  0.00    -0.335 N 
HETATM   18  C5  UNL     1      28.556 -17.857  12.674  1.00  0.00     0.365 C 
HETATM   19  O2  UNL     1      29.460 -17.762  11.840  1.00  0.00    -0.238 OA
ATOM     20  H1  UNL     1      27.024 -17.052  13.757  1.00  0.00     0.164 HD
BRANCH  18  21
HETATM   21  O1  UNL     1      28.431 -19.156  13.254  1.00  0.00    -0.274 OA
BRANCH  21  22
HETATM   22  C4  UNL     1      29.074 -19.442  14.435  1.00  0.00     0.149 C 
HETATM   23  C2  UNL     1      29.097 -20.662  14.929  1.00  0.00    -0.065 C 
HETATM   24  C1  UNL     1      28.405 -21.771  14.186  1.00  0.00     0.045 C 
HETATM   25  C3  UNL     1      29.779 -20.993  16.189  1.00  0.00     0.045 C 
ENDBRANCH  21  22
ENDBRANCH  18  21
ENDBRANCH  16  17
ENDBRANCH  15  16
ENDBRANCH  12  15
ENDBRANCH  11  12
ENDBRANCH  10  11
ENDBRANCH   9  10
ENDBRANCH   1   9
BRANCH   8  26
HETATM   26  N5  UNL     1      22.696 -12.874   7.769  1.00  0.00    -0.272 N 
ATOM     27  H5  UNL     1      23.107 -11.942   7.822  1.00  0.00     0.189 HD
BRANCH  26  28
HETATM   28  N6  UNL     1      21.553 -13.130   8.346  1.00  0.00    -0.181 N 
ATOM     29  H6  UNL     1      20.744 -12.528   8.199  1.00  0.00     0.218 HD
BRANCH  28  30
HETATM   30  O4  UNL     1      21.477 -14.215   9.140  1.00  0.00    -0.137 OA
BRANCH  30  31
HETATM   31  N7  UNL     1      21.514 -14.297  10.485  1.00  0.00    -0.192 N 
HETATM   32  C14 UNL     1      22.633 -13.827  11.212  1.00  0.00     0.354 C 
HETATM   33  N8  UNL     1      22.661 -13.916  12.631  1.00  0.00    -0.038 NA
HETATM   34  O5  UNL     1      23.603 -13.329  10.566  1.00  0.00    -0.249 OA
ATOM     35  H7  UNL     1      20.724 -14.702  10.986  1.00  0.00     0.201 HD
ENDBRANCH  30  31
ENDBRANCH  28  30
ENDBRANCH  26  28
ENDBRANCH   8  26
TORSDOF 13
ENDMDL
MODEL 2
REMARK VINA RESULT: -8.929065567      2.413      4.315
REMARK  13 active torsions:
REMARK  status: ('A' for Active; 'I' for Inactive)
REMARK    1  A    between atoms: C4_4  and  O1_5 
REMARK    2  A    between atoms: O1_5  and  C5_6 
REMARK       I    between atoms: C5_6  and  N1_8 
REMARK    3  A    between atoms: N1_8  and  C6_10 
REMARK    4  A    between atoms: C6_10  and  C7_11 
REMARK    5  A    between atoms: C7_11  and  N2_12 
REMARK    6  A    between atoms: N2_12  and  C8_15 
REMARK    7  A    between atoms: C8_15  and  C9_16 
REMARK    8  A    between atoms: C9_16  and  C10_17 
REMARK    9  A    between atoms: C10_17  and  C11_18 
REMARK   10  A    between atoms: C13_25  and  N5_26 
REMARK   11  A    between atoms: N5_26  and  N6_28 
REMARK   12  A    between atoms: N6_28  and  O4_30 
REMARK   13  A    between atoms: O4_30  and  N7_31 
REMARK       I    between atoms: N7_31  and  C14_33 
ROOT
HETATM    1  C11 UNL     1      27.913 -13.204  10.379  1.00  0.00     0.059 A 
HETATM    2  N3  UNL     1      29.013 -12.432  10.130  1.00  0.00    -0.300 N 
ATOM      3  H3  UNL     1      29.473 -11.827  10.810  1.00  0.00     0.186 HD
HETATM    4  N4  UNL     1      29.391 -12.590   8.858  1.00  0.00    -0.264 N 
ATOM      5  H4  UNL     1      30.186 -12.120   8.423  1.00  0.00     0.190 HD
HETATM    6  C12 UNL     1      28.577 -13.454   8.235  1.00  0.00     0.290 A 
HETATM    7  O3  UNL     1      28.639 -13.831   7.050  1.00  0.00    -0.264 OA
HETATM    8  C13 UNL     1      27.659 -13.836   9.179  1.00  0.00     0.143 A 
ENDROOT
BRANCH   1   9
HETATM    9  C10 UNL     1      27.173 -13.313  11.653  1.00  0.00     0.063 C 
BRANCH   9  10
HETATM   10  C9  UNL     1      27.842 -14.380  12.530  1.00  0.00     0.033 C 
BRANCH  10  11
HETATM   11  C8  UNL     1      26.855 -15.511  12.611  1.00  0.00     0.232 C 
BRANCH  11  12
HETATM   12  N2  UNL     1      27.562 -16.747  12.998  1.00  0.00    -0.074 N 
ATOM     13  H22 UNL     1      27.686 -17.378  12.206  1.00  0.00     0.277 HD
ATOM     14  H21 UNL     1      26.982 -17.350  13.582  1.00  0.00     0.277 HD
BRANCH  12  15
HETATM   15  C7  UNL     1      28.794 -16.433  13.620  1.00  0.00     0.252 C 
BRANCH  15  16
HETATM   16  C6  UNL     1      29.860 -17.442  13.453  1.00  0.00     0.152 C 
BRANCH  16  17
HETATM   17  N1  UNL     1      29.803 -18.554  14.330  1.00  0.00    -0.335 N 
HETATM   18  C5  UNL     1      29.052 -19.715  14.235  1.00  0.00     0.365 C 
HETATM   19  O2  UNL     1      28.282 -19.977  13.306  1.00  0.00    -0.238 OA
ATOM     20  H1  UNL     1      30.403 -18.490  15.152  1.00  0.00     0.164 HD
BRANCH  18  21
HETATM   21  O1  UNL     1      29.121 -20.728  15.240  1.00  0.00    -0.274 OA
BRANCH  21  22
HETATM   22  C4  UNL     1      28.673 -21.997  14.963  1.00  0.00     0.149 C 
HETATM   23  C2  UNL     1      29.108 -23.044  15.633  1.00  0.00    -0.065 C 
HETATM   24  C1  UNL     1      30.119 -22.848  16.729  1.00  0.00     0.045 C 
HETATM   25  C3  UNL     1      28.643 -24.411  15.357  1.00  0.00     0.045 C 
ENDBRANCH  21  22
ENDBRANCH  18  21
ENDBRANCH  16  17
ENDBRANCH  15  16
ENDBRANCH  12  15
ENDBRANCH  11  12
ENDBRANCH  10  11
ENDBRANCH   9  10
ENDBRANCH   1   9
BRANCH   8  26
HETATM   26  N5  UNL     1      26.594 -14.769   8.967  1.00  0.00    -0.272 N 
ATOM     27  H5  UNL     1      26.547 -15.634   9.506  1.00  0.00     0.189 HD
BRANCH  26  28
HETATM   28  N6  UNL     1      25.685 -14.493   8.073  1.00  0.00    -0.181 N 
ATOM     29  H6  UNL     1      25.843 -14.688   7.084  1.00  0.00     0.218 HD
BRANCH  28  30
HETATM   30  O4  UNL     1      24.530 -13.943   8.495  1.00  0.00    -0.137 OA
BRANCH  30  31
HETATM   31  N7  UNL     1      23.412 -13.656   7.800  1.00  0.00    -0.192 N 
HETATM   32  C14 UNL     1      22.781 -14.639   7.001  1.00  0.00     0.354 C 
HETATM   33  N8  UNL     1      21.600 -14.327   6.273  1.00  0.00    -0.038 NA
HETATM   34  O5  UNL     1      23.295 -15.796   6.954  1.00  0.00    -0.249 OA
ATOM     35  H7  UNL     1      23.015 -12.719   7.850  1.00  0.00     0.201 HD
ENDBRANCH  30  31
ENDBRANCH  28  30
ENDBRANCH  26  28
ENDBRANCH   8  26
TORSDOF 13
ENDMDL
MODEL 3
REMARK VINA RESULT: -8.859282605      2.621      4.816
REMARK  13 active torsions:
REMARK  status: ('A' for Active; 'I' for Inactive)
REMARK    1  A    between atoms: C4_4  and  O1_5 
REMARK    2  A    between atoms: O1_5  and  C5_6 
REMARK       I    between atoms: C5_6  and  N1_8 
REMARK    3  A    between atoms: N1_8  and  C6_10 
REMARK    4  A    between atoms: C6_10  and  C7_11 
REMARK    5  A    between atoms: C7_11  and  N2_12 
REMARK    6  A    between atoms: N2_12  and  C8_15 
REMARK    7  A    between atoms: C8_15  and  C9_16 
REMARK    8  A    between atoms: C9_16  and  C10_17 
REMARK    9  A    between atoms: C10_17  and  C11_18 
REMARK   10  A    between atoms: C13_25  and  N5_26 
REMARK   11  A    between atoms: N5_26  and  N6_28 
REMARK   12  A    between atoms: N6_28  and  O4_30 
REMARK   13  A    between atoms: O4_30  and  N7_31 
REMARK       I    between atoms: N7_31  and  C14_33 
ROOT
HETATM    1  C11 UNL     1      28.111 -13.369  10.773  1.00  0.00     0.059 A 
HETATM    2  N3  UNL     1      29.011 -12.400  10.427  1.00  0.00    -0.300 N 
ATOM      3  H3  UNL     1      29.469 -11.762  11.078  1.00  0.00     0.186 HD
HETATM    4  N4  UNL     1      29.196 -12.415   9.103  1.00  0.00    -0.264 N 
ATOM      5  H4  UNL     1      29.818 -11.787   8.594  1.00  0.00     0.190 HD
HETATM    6  C12 UNL     1      28.447 -13.373   8.540  1.00  0.00     0.290 A 
HETATM    7  O3  UNL     1      28.375 -13.665   7.331  1.00  0.00    -0.264 OA
HETATM    8  C13 UNL     1      27.773 -13.966   9.576  1.00  0.00     0.143 A 
ENDROOT
BRANCH   1   9
HETATM    9  C10 UNL     1      27.618 -13.680  12.131  1.00  0.00     0.063 C 
BRANCH   9  10
HETATM   10  C9  UNL     1      28.687 -14.492  12.876  1.00  0.00     0.033 C 
BRANCH  10  11
HETATM   11  C8  UNL     1      28.010 -15.771  13.283  1.00  0.00     0.232 C 
BRANCH  11  12
HETATM   12  N2  UNL     1      28.722 -16.353  14.437  1.00  0.00    -0.074 N 
ATOM     13  H22 UNL     1      28.079 -16.776  15.106  1.00  0.00     0.277 HD
ATOM     14  H21 UNL     1      29.117 -15.633  15.043  1.00  0.00     0.277 HD
BRANCH  12  15
HETATM   15  C7  UNL     1      29.705 -17.271  13.995  1.00  0.00     0.252 C 
BRANCH  15  16
HETATM   16  C6  UNL     1      29.203 -18.620  13.664  1.00  0.00     0.152 C 
BRANCH  16  17
HETATM   17  N1  UNL     1      29.096 -19.524  14.750  1.00  0.00    -0.335 N 
HETATM   18  C5  UNL     1      28.804 -20.880  14.744  1.00  0.00     0.365 C 
HETATM   19  O2  UNL     1      28.593 -21.546  13.726  1.00  0.00    -0.238 OA
ATOM     20  H1  UNL     1      29.258 -19.119  15.672  1.00  0.00     0.164 HD
BRANCH  18  21
HETATM   21  O1  UNL     1      28.725 -21.627  15.958  1.00  0.00    -0.274 OA
BRANCH  21  22
HETATM   22  C4  UNL     1      29.871 -22.130  16.526  1.00  0.00     0.149 C 
HETATM   23  C2  UNL     1      30.141 -23.419  16.510  1.00  0.00    -0.065 C 
HETATM   24  C1  UNL     1      29.174 -24.365  15.855  1.00  0.00     0.045 C 
HETATM   25  C3  UNL     1      31.360 -23.981  17.110  1.00  0.00     0.045 C 
ENDBRANCH  21  22
ENDBRANCH  18  21
ENDBRANCH  16  17
ENDBRANCH  15  16
ENDBRANCH  12  15
ENDBRANCH  11  12
ENDBRANCH  10  11
ENDBRANCH   9  10
ENDBRANCH   1   9
BRANCH   8  26
HETATM   26  N5  UNL     1      26.858 -15.060   9.450  1.00  0.00    -0.272 N 
ATOM     27  H5  UNL     1      26.807 -15.780  10.172  1.00  0.00     0.189 HD
BRANCH  26  28
HETATM   28  N6  UNL     1      26.092 -15.121   8.396  1.00  0.00    -0.181 N 
ATOM     29  H6  UNL     1      26.296 -15.767   7.634  1.00  0.00     0.218 HD
BRANCH  28  30
HETATM   30  O4  UNL     1      25.022 -14.304   8.345  1.00  0.00    -0.137 OA
BRANCH  30  31
HETATM   31  N7  UNL     1      24.192 -14.042   7.316  1.00  0.00    -0.192 N 
HETATM   32  C14 UNL     1      23.626 -15.090   6.553  1.00  0.00     0.354 C 
HETATM   33  N8  UNL     1      22.749 -14.802   5.472  1.00  0.00    -0.038 NA
HETATM   34  O5  UNL     1      23.921 -16.284   6.861  1.00  0.00    -0.249 OA
ATOM     35  H7  UNL     1      23.969 -13.074   7.085  1.00  0.00     0.201 HD
ENDBRANCH  30  31
ENDBRANCH  28  30
ENDBRANCH  26  28
ENDBRANCH   8  26
TORSDOF 13
ENDMDL
MODEL 4
REMARK VINA RESULT: -8.706281937      2.091      4.055
REMARK  13 active torsions:
REMARK  status: ('A' for Active; 'I' for Inactive)
REMARK    1  A    between atoms: C4_4  and  O1_5 
REMARK    2  A    between atoms: O1_5  and  C5_6 
REMARK       I    between atoms: C5_6  and  N1_8 
REMARK    3  A    between atoms: N1_8  and  C6_10 
REMARK    4  A    between atoms: C6_10  and  C7_11 
REMARK    5  A    between atoms: C7_11  and  N2_12 
REMARK    6  A    between atoms: N2_12  and  C8_15 
REMARK    7  A    between atoms: C8_15  and  C9_16 
REMARK    8  A    between atoms: C9_16  and  C10_17 
REMARK    9  A    between atoms: C10_17  and  C11_18 
REMARK   10  A    between atoms: C13_25  and  N5_26 
REMARK   11  A    between atoms: N5_26  and  N6_28 
REMARK   12  A    between atoms: N6_28  and  O4_30 
REMARK   13  A    between atoms: O4_30  and  N7_31 
REMARK       I    between atoms: N7_31  and  C14_33 
ROOT
HETATM    1  C11 UNL     1      26.847 -14.919  10.799  1.00  0.00     0.059 A 
HETATM    2  N3  UNL     1      27.767 -15.370   9.894  1.00  0.00    -0.300 N 
ATOM      3  H3  UNL     1      28.588 -15.932  10.119  1.00  0.00     0.186 HD
HETATM    4  N4  UNL     1      27.426 -14.959   8.669  1.00  0.00    -0.264 N 
ATOM      5  H4  UNL     1      27.951 -15.162   7.818  1.00  0.00     0.190 HD
HETATM    6  C12 UNL     1      26.294 -14.242   8.717  1.00  0.00     0.290 A 
HETATM    7  O3  UNL     1      25.694 -13.711   7.764  1.00  0.00    -0.264 OA
HETATM    8  C13 UNL     1      25.934 -14.217  10.040  1.00  0.00     0.143 A 
ENDROOT
BRANCH   1   9
HETATM    9  C10 UNL     1      26.857 -15.138  12.260  1.00  0.00     0.063 C 
BRANCH   9  10
HETATM   10  C9  UNL     1      28.163 -14.579  12.840  1.00  0.00     0.033 C 
BRANCH  10  11
HETATM   11  C8  UNL     1      28.718 -15.672  13.710  1.00  0.00     0.232 C 
BRANCH  11  12
HETATM   12  N2  UNL     1      30.078 -16.015  13.253  1.00  0.00    -0.074 N 
ATOM     13  H22 UNL     1      30.792 -15.477  13.745  1.00  0.00     0.277 HD
ATOM     14  H21 UNL     1      30.260 -15.677  12.308  1.00  0.00     0.277 HD
BRANCH  12  15
HETATM   15  C7  UNL     1      30.296 -17.409  13.367  1.00  0.00     0.252 C 
BRANCH  15  16
HETATM   16  C6  UNL     1      29.086 -18.218  13.615  1.00  0.00     0.152 C 
BRANCH  16  17
HETATM   17  N1  UNL     1      29.280 -19.416  14.346  1.00  0.00    -0.335 N 
HETATM   18  C5  UNL     1      28.691 -20.660  14.175  1.00  0.00     0.365 C 
HETATM   19  O2  UNL     1      27.869 -20.930  13.296  1.00  0.00    -0.238 OA
ATOM     20  H1  UNL     1      29.951 -19.354  15.112  1.00  0.00     0.164 HD
BRANCH  18  21
HETATM   21  O1  UNL     1      29.009 -21.755  15.035  1.00  0.00    -0.274 OA
BRANCH  21  22
HETATM   22  C4  UNL     1      28.268 -22.911  14.971  1.00  0.00     0.149 C 
HETATM   23  C2  UNL     1      28.682 -24.028  15.533  1.00  0.00    -0.065 C 
HETATM   24  C1  UNL     1      29.996 -24.041  16.264  1.00  0.00     0.045 C 
HETATM   25  C3  UNL     1      27.907 -25.276  15.481  1.00  0.00     0.045 C 
ENDBRANCH  21  22
ENDBRANCH  18  21
ENDBRANCH  16  17
ENDBRANCH  15  16
ENDBRANCH  12  15
ENDBRANCH  11  12
ENDBRANCH  10  11
ENDBRANCH   9  10
ENDBRANCH   1   9
BRANCH   8  26
HETATM   26  N5  UNL     1      24.770 -13.572  10.568  1.00  0.00    -0.272 N 
ATOM     27  H5  UNL     1      24.854 -12.869  11.303  1.00  0.00     0.189 HD
BRANCH  26  28
HETATM   28  N6  UNL     1      23.599 -13.901  10.094  1.00  0.00    -0.181 N 
ATOM     29  H6  UNL     1      23.165 -14.791  10.335  1.00  0.00     0.218 HD
BRANCH  28  30
HETATM   30  O4  UNL     1      22.982 -13.027   9.276  1.00  0.00    -0.137 OA
BRANCH  30  31
HETATM   31  N7  UNL     1      22.733 -13.119   7.955  1.00  0.00    -0.192 N 
HETATM   32  C14 UNL     1      22.264 -14.326   7.385  1.00  0.00     0.354 C 
HETATM   33  N8  UNL     1      22.001 -14.411   5.991  1.00  0.00    -0.038 NA
HETATM   34  O5  UNL     1      22.087 -15.321   8.150  1.00  0.00    -0.249 OA
ATOM     35  H7  UNL     1      22.883 -12.306   7.357  1.00  0.00     0.201 HD
ENDBRANCH  30  31
ENDBRANCH  28  30
ENDBRANCH  26  28
ENDBRANCH   8  26
TORSDOF 13
ENDMDL
MODEL 5
REMARK VINA RESULT: -8.591585835      4.660      6.537
REMARK  13 active torsions:
REMARK  status: ('A' for Active; 'I' for Inactive)
REMARK    1  A    between atoms: C4_4  and  O1_5 
REMARK    2  A    between atoms: O1_5  and  C5_6 
REMARK       I    between atoms: C5_6  and  N1_8 
REMARK    3  A    between atoms: N1_8  and  C6_10 
REMARK    4  A    between atoms: C6_10  and  C7_11 
REMARK    5  A    between atoms: C7_11  and  N2_12 
REMARK    6  A    between atoms: N2_12  and  C8_15 
REMARK    7  A    between atoms: C8_15  and  C9_16 
REMARK    8  A    between atoms: C9_16  and  C10_17 
REMARK    9  A    between atoms: C10_17  and  C11_18 
REMARK   10  A    between atoms: C13_25  and  N5_26 
REMARK   11  A    between atoms: N5_26  and  N6_28 
REMARK   12  A    between atoms: N6_28  and  O4_30 
REMARK   13  A    between atoms: O4_30  and  N7_31 
REMARK       I    between atoms: N7_31  and  C14_33 
ROOT
HETATM    1  C11 UNL     1      28.742 -13.529  11.077  1.00  0.00     0.059 A 
HETATM    2  N3  UNL     1      29.712 -13.289  12.010  1.00  0.00    -0.300 N 
ATOM      3  H3  UNL     1      29.545 -13.114  13.001  1.00  0.00     0.186 HD
HETATM    4  N4  UNL     1      30.913 -13.319  11.424  1.00  0.00    -0.264 N 
ATOM      5  H4  UNL     1      31.800 -13.167  11.904  1.00  0.00     0.190 HD
HETATM    6  C12 UNL     1      30.784 -13.576  10.115  1.00  0.00     0.290 A 
HETATM    7  O3  UNL     1      31.695 -13.675   9.271  1.00  0.00    -0.264 OA
HETATM    8  C13 UNL     1      29.437 -13.706   9.899  1.00  0.00     0.143 A 
ENDROOT
BRANCH   1   9
HETATM    9  C10 UNL     1      27.282 -13.571  11.303  1.00  0.00     0.063 C 
BRANCH   9  10
HETATM   10  C9  UNL     1      26.828 -15.035  11.359  1.00  0.00     0.033 C 
BRANCH  10  11
HETATM   11  C8  UNL     1      26.784 -15.388  12.820  1.00  0.00     0.232 C 
BRANCH  11  12
HETATM   12  N2  UNL     1      27.542 -16.633  13.044  1.00  0.00    -0.074 N 
ATOM     13  H22 UNL     1      27.640 -17.178  12.188  1.00  0.00     0.277 HD
ATOM     14  H21 UNL     1      27.011 -17.309  13.594  1.00  0.00     0.277 HD
BRANCH  12  15
HETATM   15  C7  UNL     1      28.797 -16.343  13.632  1.00  0.00     0.252 C 
BRANCH  15  16
HETATM   16  C6  UNL     1      29.840 -17.368  13.428  1.00  0.00     0.152 C 
BRANCH  16  17
HETATM   17  N1  UNL     1      29.793 -18.483  14.301  1.00  0.00    -0.335 N 
HETATM   18  C5  UNL     1      29.043 -19.646  14.207  1.00  0.00     0.365 C 
HETATM   19  O2  UNL     1      28.266 -19.905  13.284  1.00  0.00    -0.238 OA
ATOM     20  H1  UNL     1      30.400 -18.422  15.118  1.00  0.00     0.164 HD
BRANCH  18  21
HETATM   21  O1  UNL     1      29.122 -20.662  15.208  1.00  0.00    -0.274 OA
BRANCH  21  22
HETATM   22  C4  UNL     1      28.693 -21.936  14.923  1.00  0.00     0.149 C 
HETATM   23  C2  UNL     1      29.153 -22.981  15.579  1.00  0.00    -0.065 C 
HETATM   24  C1  UNL     1      30.171 -22.779  16.666  1.00  0.00     0.045 C 
HETATM   25  C3  UNL     1      28.708 -24.354  15.294  1.00  0.00     0.045 C 
ENDBRANCH  21  22
ENDBRANCH  18  21
ENDBRANCH  16  17
ENDBRANCH  15  16
ENDBRANCH  12  15
ENDBRANCH  11  12
ENDBRANCH  10  11
ENDBRANCH   9  10
ENDBRANCH   1   9
BRANCH   8  26
HETATM   26  N5  UNL     1      28.825 -14.001   8.638  1.00  0.00    -0.272 N 
ATOM     27  H5  UNL     1      27.904 -14.438   8.597  1.00  0.00     0.189 HD
BRANCH  26  28
HETATM   28  N6  UNL     1      29.468 -13.700   7.542  1.00  0.00    -0.181 N 
ATOM     29  H6  UNL     1      29.968 -14.414   7.013  1.00  0.00     0.218 HD
BRANCH  28  30
HETATM   30  O4  UNL     1      29.450 -12.418   7.132  1.00  0.00    -0.137 OA
BRANCH  30  31
HETATM   31  N7  UNL     1      30.477 -11.573   6.915  1.00  0.00    -0.192 N 
HETATM   32  C14 UNL     1      30.759 -11.088   5.616  1.00  0.00     0.354 C 
HETATM   33  N8  UNL     1      31.844 -10.195   5.400  1.00  0.00    -0.038 NA
HETATM   34  O5  UNL     1      30.022 -11.471   4.659  1.00  0.00    -0.249 OA
ATOM     35  H7  UNL     1      31.059 -11.278   7.699  1.00  0.00     0.201 HD
ENDBRANCH  30  31
ENDBRANCH  28  30
ENDBRANCH  26  28
ENDBRANCH   8  26
TORSDOF 13
ENDMDL
