MODEL 1
REMARK VINA RESULT: -6.432918712      0.000      0.000
REMARK  5 active torsions:
REMARK  status: ('A' for Active; 'I' for Inactive)
REMARK       I    between atoms: C2_2  and  N1_4 
REMARK       I    between atoms: C3_6  and  N3_8 
REMARK    1  A    between atoms: N3_8  and  C4_10 
REMARK    2  A    between atoms: C4_10  and  C5_11 
REMARK    3  A    between atoms: C4_10  and  C8_20 
REMARK       I    between atoms: C5_11  and  N4_13 
REMARK    4  A    between atoms: N4_13  and  C6_15 
REMARK    5  A    between atoms: C6_15  and  C7_17 
ROOT
HETATM    1  C4  UNL     1      25.569  64.835   9.796  1.00  0.00     0.180 C 
ENDROOT
BRANCH   1   2
HETATM    2  N3  UNL     1      26.815  65.457  10.195  1.00  0.00    -0.351 N 
HETATM    3  C3  UNL     1      28.012  65.383   9.472  1.00  0.00     0.191 C 
HETATM    4  N1  UNL     1      28.158  65.993   8.319  1.00  0.00    -0.302 N 
HETATM    5  N2  UNL     1      29.096  64.637  10.028  1.00  0.00    -0.063 NA
HETATM    6  C2  UNL     1      29.415  65.869   7.681  1.00  0.00     0.220 C 
ATOM      7  H1  UNL     1      27.399  66.531   7.901  1.00  0.00     0.171 HD
HETATM    8  C1  UNL     1      29.507  65.507   6.260  1.00  0.00     0.117 C 
HETATM    9  O1  UNL     1      30.462  66.079   8.370  1.00  0.00    -0.274 OA
ATOM     10  H3  UNL     1      26.821  65.989  11.065  1.00  0.00     0.163 HD
ENDBRANCH   1   2
BRANCH   1  11
HETATM   11  C5  UNL     1      24.628  66.034   9.708  1.00  0.00     0.246 C 
HETATM   12  O2  UNL     1      25.140  67.064   9.129  1.00  0.00    -0.271 OA
HETATM   13  N4  UNL     1      23.327  66.110  10.181  1.00  0.00    -0.311 N 
ATOM     14  H4  UNL     1      22.998  65.263  10.645  1.00  0.00     0.170 HD
BRANCH  13  15
HETATM   15  C6  UNL     1      22.382  67.146  10.135  1.00  0.00     0.180 C 
HETATM   16  S1  UNL     1      22.627  68.369  11.282  1.00  0.00    -0.053 SA
BRANCH  15  17
HETATM   17  C7  UNL     1      21.249  67.351   9.295  1.00  0.00     0.238 C 
HETATM   18  O3  UNL     1      21.094  66.527   8.306  1.00  0.00    -0.642 OA
HETATM   19  O4  UNL     1      20.277  68.312   9.382  1.00  0.00    -0.642 OA
ENDBRANCH  15  17
ENDBRANCH  13  15
ENDBRANCH   1  11
BRANCH   1  20
HETATM   20  C8  UNL     1      25.077  63.792  10.697  1.00  0.00     0.009 C 
HETATM   21  C9  UNL     1      25.121  62.438   9.971  1.00  0.00     0.012 C 
HETATM   22  C10 UNL     1      25.803  63.578  11.983  1.00  0.00     0.012 C 
ENDBRANCH   1  20
TORSDOF 5
ENDMDL
MODEL 2
REMARK VINA RESULT: -6.318240807      3.237      5.455
REMARK  5 active torsions:
REMARK  status: ('A' for Active; 'I' for Inactive)
REMARK       I    between atoms: C2_2  and  N1_4 
REMARK       I    between atoms: C3_6  and  N3_8 
REMARK    1  A    between atoms: N3_8  and  C4_10 
REMARK    2  A    between atoms: C4_10  and  C5_11 
REMARK    3  A    between atoms: C4_10  and  C8_20 
REMARK       I    between atoms: C5_11  and  N4_13 
REMARK    4  A    between atoms: N4_13  and  C6_15 
REMARK    5  A    between atoms: C6_15  and  C7_17 
ROOT
HETATM    1  C4  UNL     1      24.831  65.075   9.765  1.00  0.00     0.180 C 
ENDROOT
BRANCH   1   2
HETATM    2  N3  UNL     1      24.997  63.851  10.521  1.00  0.00    -0.351 N 
HETATM    3  C3  UNL     1      26.179  63.460  11.160  1.00  0.00     0.191 C 
HETATM    4  N1  UNL     1      26.629  64.092  12.220  1.00  0.00    -0.302 N 
HETATM    5  N2  UNL     1      26.890  62.333  10.645  1.00  0.00    -0.063 NA
HETATM    6  C2  UNL     1      27.824  63.602  12.801  1.00  0.00     0.220 C 
ATOM      7  H1  UNL     1      26.141  64.899  12.606  1.00  0.00     0.171 HD
HETATM    8  C1  UNL     1      28.925  64.514  13.140  1.00  0.00     0.117 C 
HETATM    9  O1  UNL     1      27.918  62.354  13.019  1.00  0.00    -0.274 OA
ATOM     10  H3  UNL     1      24.192  63.228  10.593  1.00  0.00     0.163 HD
ENDBRANCH   1   2
BRANCH   1  11
HETATM   11  C5  UNL     1      26.075  65.073   8.879  1.00  0.00     0.246 C 
HETATM   12  O2  UNL     1      25.951  64.386   7.798  1.00  0.00    -0.271 OA
HETATM   13  N4  UNL     1      27.279  65.715   9.130  1.00  0.00    -0.311 N 
ATOM     14  H4  UNL     1      27.308  66.222  10.014  1.00  0.00     0.170 HD
BRANCH  13  15
HETATM   15  C6  UNL     1      28.463  65.789   8.382  1.00  0.00     0.180 C 
HETATM   16  S1  UNL     1      29.881  65.762   9.308  1.00  0.00    -0.053 SA
BRANCH  15  17
HETATM   17  C7  UNL     1      28.685  65.888   6.977  1.00  0.00     0.238 C 
HETATM   18  O3  UNL     1      29.045  64.805   6.361  1.00  0.00    -0.642 OA
HETATM   19  O4  UNL     1      28.571  66.984   6.164  1.00  0.00    -0.642 OA
ENDBRANCH  15  17
ENDBRANCH  13  15
ENDBRANCH   1  11
BRANCH   1  20
HETATM   20  C8  UNL     1      24.708  66.293  10.569  1.00  0.00     0.009 C 
HETATM   21  C9  UNL     1      24.203  67.436   9.675  1.00  0.00     0.012 C 
HETATM   22  C10 UNL     1      23.786  66.267  11.742  1.00  0.00     0.012 C 
ENDBRANCH   1  20
TORSDOF 5
ENDMDL
MODEL 3
REMARK VINA RESULT: -6.297954035      3.585      6.742
REMARK  5 active torsions:
REMARK  status: ('A' for Active; 'I' for Inactive)
REMARK       I    between atoms: C2_2  and  N1_4 
REMARK       I    between atoms: C3_6  and  N3_8 
REMARK    1  A    between atoms: N3_8  and  C4_10 
REMARK    2  A    between atoms: C4_10  and  C5_11 
REMARK    3  A    between atoms: C4_10  and  C8_20 
REMARK       I    between atoms: C5_11  and  N4_13 
REMARK    4  A    between atoms: N4_13  and  C6_15 
REMARK    5  A    between atoms: C6_15  and  C7_17 
ROOT
HETATM    1  C4  UNL     1      28.328  66.968  11.089  1.00  0.00     0.180 C 
ENDROOT
BRANCH   1   2
HETATM    2  N3  UNL     1      27.759  65.711  11.531  1.00  0.00    -0.351 N 
HETATM    3  C3  UNL     1      26.577  65.150  11.033  1.00  0.00     0.191 C 
HETATM    4  N1  UNL     1      26.505  64.673   9.812  1.00  0.00    -0.302 N 
HETATM    5  N2  UNL     1      25.439  65.087  11.894  1.00  0.00    -0.063 NA
HETATM    6  C2  UNL     1      25.268  64.110   9.415  1.00  0.00     0.220 C 
ATOM      7  H1  UNL     1      27.302  64.707   9.178  1.00  0.00     0.171 HD
HETATM    8  C1  UNL     1      24.648  64.480   8.135  1.00  0.00     0.117 C 
HETATM    9  O1  UNL     1      24.708  63.278  10.195  1.00  0.00    -0.274 OA
ATOM     10  H3  UNL     1      28.256  65.198  12.259  1.00  0.00     0.163 HD
ENDBRANCH   1   2
BRANCH   1  11
HETATM   11  C5  UNL     1      29.260  66.518   9.965  1.00  0.00     0.246 C 
HETATM   12  O2  UNL     1      30.135  65.646  10.325  1.00  0.00    -0.271 OA
HETATM   13  N4  UNL     1      29.249  66.953   8.649  1.00  0.00    -0.311 N 
ATOM     14  H4  UNL     1      28.541  67.659   8.445  1.00  0.00     0.170 HD
BRANCH  13  15
HETATM   15  C6  UNL     1      30.040  66.595   7.547  1.00  0.00     0.180 C 
HETATM   16  S1  UNL     1      29.358  65.407   6.550  1.00  0.00    -0.053 SA
BRANCH  15  17
HETATM   17  C7  UNL     1      31.321  67.052   7.119  1.00  0.00     0.238 C 
HETATM   18  O3  UNL     1      31.397  67.556   5.927  1.00  0.00    -0.642 OA
HETATM   19  O4  UNL     1      32.510  67.035   7.799  1.00  0.00    -0.642 OA
ENDBRANCH  15  17
ENDBRANCH  13  15
ENDBRANCH   1  11
BRANCH   1  20
HETATM   20  C8  UNL     1      29.018  67.739  12.124  1.00  0.00     0.009 C 
HETATM   21  C9  UNL     1      28.401  69.145  12.200  1.00  0.00     0.012 C 
HETATM   22  C10 UNL     1      28.990  67.216  13.522  1.00  0.00     0.012 C 
ENDBRANCH   1  20
TORSDOF 5
ENDMDL
MODEL 4
REMARK VINA RESULT: -6.260007208      2.859      5.153
REMARK  5 active torsions:
REMARK  status: ('A' for Active; 'I' for Inactive)
REMARK       I    between atoms: C2_2  and  N1_4 
REMARK       I    between atoms: C3_6  and  N3_8 
REMARK    1  A    between atoms: N3_8  and  C4_10 
REMARK    2  A    between atoms: C4_10  and  C5_11 
REMARK    3  A    between atoms: C4_10  and  C8_20 
REMARK       I    between atoms: C5_11  and  N4_13 
REMARK    4  A    between atoms: N4_13  and  C6_15 
REMARK    5  A    between atoms: C6_15  and  C7_17 
ROOT
HETATM    1  C4  UNL     1      29.586  66.759   9.504  1.00  0.00     0.180 C 
ENDROOT
BRANCH   1   2
HETATM    2  N3  UNL     1      29.723  67.032  10.920  1.00  0.00    -0.351 N 
HETATM    3  C3  UNL     1      29.079  66.319  11.937  1.00  0.00     0.191 C 
HETATM    4  N1  UNL     1      29.402  65.077  12.217  1.00  0.00    -0.302 N 
HETATM    5  N2  UNL     1      28.061  66.979  12.691  1.00  0.00    -0.063 NA
HETATM    6  C2  UNL     1      28.702  64.454  13.277  1.00  0.00     0.220 C 
ATOM      7  H1  UNL     1      30.125  64.584  11.693  1.00  0.00     0.171 HD
HETATM    8  C1  UNL     1      28.123  63.114  13.113  1.00  0.00     0.117 C 
HETATM    9  O1  UNL     1      28.586  65.086  14.374  1.00  0.00    -0.274 OA
ATOM     10  H3  UNL     1      30.334  67.801  11.196  1.00  0.00     0.163 HD
ENDBRANCH   1   2
BRANCH   1  11
HETATM   11  C5  UNL     1      28.372  65.833   9.474  1.00  0.00     0.246 C 
HETATM   12  O2  UNL     1      28.660  64.593   9.282  1.00  0.00    -0.271 OA
HETATM   13  N4  UNL     1      27.043  66.197   9.624  1.00  0.00    -0.311 N 
ATOM     14  H4  UNL     1      26.892  67.198   9.752  1.00  0.00     0.170 HD
BRANCH  13  15
HETATM   15  C6  UNL     1      25.867  65.431   9.630  1.00  0.00     0.180 C 
HETATM   16  S1  UNL     1      25.316  65.005  11.174  1.00  0.00    -0.053 SA
BRANCH  15  17
HETATM   17  C7  UNL     1      25.055  64.944   8.564  1.00  0.00     0.238 C 
HETATM   18  O3  UNL     1      25.666  64.368   7.575  1.00  0.00    -0.642 OA
HETATM   19  O4  UNL     1      23.693  64.997   8.428  1.00  0.00    -0.642 OA
ENDBRANCH  15  17
ENDBRANCH  13  15
ENDBRANCH   1  11
BRANCH   1  20
HETATM   20  C8  UNL     1      30.765  66.172   8.864  1.00  0.00     0.009 C 
HETATM   21  C9  UNL     1      30.969  66.825   7.489  1.00  0.00     0.012 C 
HETATM   22  C10 UNL     1      32.077  66.299   9.565  1.00  0.00     0.012 C 
ENDBRANCH   1  20
TORSDOF 5
ENDMDL
MODEL 5
REMARK VINA RESULT: -6.240411961      2.858      6.696
REMARK  5 active torsions:
REMARK  status: ('A' for Active; 'I' for Inactive)
REMARK       I    between atoms: C2_2  and  N1_4 
REMARK       I    between atoms: C3_6  and  N3_8 
REMARK    1  A    between atoms: N3_8  and  C4_10 
REMARK    2  A    between atoms: C4_10  and  C5_11 
REMARK    3  A    between atoms: C4_10  and  C8_20 
REMARK       I    between atoms: C5_11  and  N4_13 
REMARK    4  A    between atoms: N4_13  and  C6_15 
REMARK    5  A    between atoms: C6_15  and  C7_17 
ROOT
HETATM    1  C4  UNL     1      28.058  65.379  10.938  1.00  0.00     0.180 C 
ENDROOT
BRANCH   1   2
HETATM    2  N3  UNL     1      26.805  64.942  10.357  1.00  0.00    -0.351 N 
HETATM    3  C3  UNL     1      25.556  65.512  10.629  1.00  0.00     0.191 C 
HETATM    4  N1  UNL     1      25.247  66.719  10.214  1.00  0.00    -0.302 N 
HETATM    5  N2  UNL     1      24.602  64.741  11.361  1.00  0.00    -0.063 NA
HETATM    6  C2  UNL     1      23.950  67.193  10.527  1.00  0.00     0.220 C 
ATOM      7  H1  UNL     1      25.911  67.289   9.691  1.00  0.00     0.171 HD
HETATM    8  C1  UNL     1      23.756  68.529  11.107  1.00  0.00     0.117 C 
HETATM    9  O1  UNL     1      22.960  66.432  10.293  1.00  0.00    -0.274 OA
ATOM     10  H3  UNL     1      26.836  64.161   9.701  1.00  0.00     0.163 HD
ENDBRANCH   1   2
BRANCH   1  11
HETATM   11  C5  UNL     1      29.003  65.322   9.739  1.00  0.00     0.246 C 
HETATM   12  O2  UNL     1      29.761  64.282   9.715  1.00  0.00    -0.271 OA
HETATM   13  N4  UNL     1      29.113  66.256   8.720  1.00  0.00    -0.311 N 
ATOM     14  H4  UNL     1      28.494  67.061   8.819  1.00  0.00     0.170 HD
BRANCH  13  15
HETATM   15  C6  UNL     1      29.926  66.289   7.577  1.00  0.00     0.180 C 
HETATM   16  S1  UNL     1      29.360  65.351   6.286  1.00  0.00    -0.053 SA
BRANCH  15  17
HETATM   17  C7  UNL     1      31.150  66.971   7.312  1.00  0.00     0.238 C 
HETATM   18  O3  UNL     1      31.220  67.644   6.205  1.00  0.00    -0.642 OA
HETATM   19  O4  UNL     1      32.289  67.020   8.071  1.00  0.00    -0.642 OA
ENDBRANCH  15  17
ENDBRANCH  13  15
ENDBRANCH   1  11
BRANCH   1  20
HETATM   20  C8  UNL     1      28.531  64.583  12.072  1.00  0.00     0.009 C 
HETATM   21  C9  UNL     1      28.442  65.429  13.352  1.00  0.00     0.012 C 
HETATM   22  C10 UNL     1      27.812  63.312  12.383  1.00  0.00     0.012 C 
ENDBRANCH   1  20
TORSDOF 5
ENDMDL
