MODEL 1
REMARK VINA RESULT: -9.130374556      0.000      0.000
REMARK  5 active torsions:
REMARK  status: ('A' for Active; 'I' for Inactive)
REMARK    1  A    between atoms: C2_2  and  C3_3 
REMARK    2  A    between atoms: C3_3  and  C4_4 
REMARK    3  A    between atoms: C6_12  and  C7_13 
REMARK    4  A    between atoms: C7_13  and  O2_14 
REMARK    5  A    between atoms: C7_13  and  N3_16 
REMARK       I    between atoms: N4_22  and  C13_23 
ROOT
HETATM    1  N3  UNL     1      28.913  66.120  10.136  1.00  0.00    -0.297 N 
HETATM    2  C8  UNL     1      29.074  67.161  11.243  1.00  0.00     0.135 C 
HETATM    3  C9  UNL     1      28.076  66.694  12.246  1.00  0.00     0.039 C 
HETATM    4  C10 UNL     1      27.026  65.896  11.498  1.00  0.00     0.046 C 
HETATM    5  C11 UNL     1      25.692  66.616  11.525  1.00  0.00     0.039 C 
HETATM    6  C12 UNL     1      25.069  66.388  12.875  1.00  0.00     0.127 C 
HETATM    7  N4  UNL     1      24.729  64.968  12.887  1.00  0.00    -0.356 N 
HETATM    8  C13 UNL     1      23.443  64.565  13.331  1.00  0.00     0.183 C 
HETATM    9  N5  UNL     1      23.286  63.654  14.221  1.00  0.00    -0.374 N 
ATOM     10  H51 UNL     1      22.362  63.364  14.540  1.00  0.00     0.158 HD
ATOM     11  H52 UNL     1      24.097  63.195  14.637  1.00  0.00     0.158 HD
HETATM   12  N6  UNL     1      22.309  65.207  12.750  1.00  0.00    -0.064 NA
HETATM   13  C14 UNL     1      25.661  63.980  12.461  1.00  0.00     0.127 C 
HETATM   14  C15 UNL     1      26.966  64.491  11.979  1.00  0.00     0.039 C 
HETATM   15  C16 UNL     1      27.504  66.019  10.084  1.00  0.00     0.234 C 
HETATM   16  O3  UNL     1      26.762  66.033   9.092  1.00  0.00    -0.272 OA
ENDROOT
BRANCH   1  17
HETATM   17  C7  UNL     1      30.033  65.651   9.475  1.00  0.00     0.161 C 
BRANCH  17  18
HETATM   18  C6  UNL     1      31.191  66.241   8.871  1.00  0.00     0.092 A 
HETATM   19  C4  UNL     1      31.183  67.043   7.743  1.00  0.00     0.094 A 
HETATM   20  O1  UNL     1      32.449  67.404   7.507  1.00  0.00    -0.240 OA
HETATM   21  N1  UNL     1      33.224  66.910   8.375  1.00  0.00    -0.244 N 
HETATM   22  C5  UNL     1      32.512  66.163   9.275  1.00  0.00     0.136 A 
ATOM     23  H1  UNL     1      34.235  67.048   8.401  1.00  0.00     0.196 HD
HETATM   24  N2  UNL     1      33.037  65.577  10.286  1.00  0.00    -0.383 N 
ATOM     25  H22 UNL     1      34.011  65.519  10.583  1.00  0.00     0.157 HD
ATOM     26  H21 UNL     1      32.507  65.020  10.956  1.00  0.00     0.157 HD
BRANCH  19  27
HETATM   27  C3  UNL     1      30.080  67.503   6.872  1.00  0.00     0.068 C 
BRANCH  27  28
HETATM   28  C2  UNL     1      29.909  66.563   5.711  1.00  0.00     0.002 C 
HETATM   29  C1  UNL     1      29.057  65.348   6.133  1.00  0.00     0.005 C 
ENDBRANCH  27  28
ENDBRANCH  19  27
ENDBRANCH  17  18
BRANCH  17  30
HETATM   30  O2  UNL     1      30.027  64.333   9.381  1.00  0.00    -0.345 OA
ATOM     31  H2  UNL     1      29.232  63.999   8.983  1.00  0.00     0.219 HD
ENDBRANCH  17  30
ENDBRANCH   1  17
TORSDOF 5
ENDMDL
MODEL 2
REMARK VINA RESULT: -9.052398319      1.638      1.796
REMARK  5 active torsions:
REMARK  status: ('A' for Active; 'I' for Inactive)
REMARK    1  A    between atoms: C2_2  and  C3_3 
REMARK    2  A    between atoms: C3_3  and  C4_4 
REMARK    3  A    between atoms: C6_12  and  C7_13 
REMARK    4  A    between atoms: C7_13  and  O2_14 
REMARK    5  A    between atoms: C7_13  and  N3_16 
REMARK       I    between atoms: N4_22  and  C13_23 
ROOT
HETATM    1  N3  UNL     1      29.099  66.182  10.323  1.00  0.00    -0.297 N 
HETATM    2  C8  UNL     1      29.184  67.611  10.858  1.00  0.00     0.135 C 
HETATM    3  C9  UNL     1      28.782  67.427  12.281  1.00  0.00     0.039 C 
HETATM    4  C10 UNL     1      27.933  66.172  12.350  1.00  0.00     0.046 C 
HETATM    5  C11 UNL     1      26.502  66.518  12.709  1.00  0.00     0.039 C 
HETATM    6  C12 UNL     1      26.444  66.777  14.190  1.00  0.00     0.127 C 
HETATM    7  N4  UNL     1      26.678  65.472  14.799  1.00  0.00    -0.356 N 
HETATM    8  C13 UNL     1      25.832  65.033  15.851  1.00  0.00     0.183 C 
HETATM    9  N5  UNL     1      26.301  64.597  16.964  1.00  0.00    -0.374 N 
ATOM     10  H51 UNL     1      25.693  64.282  17.720  1.00  0.00     0.158 HD
ATOM     11  H52 UNL     1      27.309  64.558  17.118  1.00  0.00     0.158 HD
HETATM   12  N6  UNL     1      24.423  65.087  15.636  1.00  0.00    -0.064 NA
HETATM   13  C14 UNL     1      27.738  64.628  14.360  1.00  0.00     0.127 C 
HETATM   14  C15 UNL     1      28.549  65.148  13.233  1.00  0.00     0.039 C 
HETATM   15  C16 UNL     1      27.883  65.762  10.911  1.00  0.00     0.234 C 
HETATM   16  O3  UNL     1      26.930  65.175  10.382  1.00  0.00    -0.272 OA
ENDROOT
BRANCH   1  17
HETATM   17  C7  UNL     1      30.060  65.730   9.439  1.00  0.00     0.161 C 
BRANCH  17  18
HETATM   18  C6  UNL     1      31.135  66.322   8.699  1.00  0.00     0.092 A 
HETATM   19  C4  UNL     1      31.003  66.996   7.497  1.00  0.00     0.094 A 
HETATM   20  O1  UNL     1      32.225  67.407   7.140  1.00  0.00    -0.240 OA
HETATM   21  N1  UNL     1      33.083  67.058   7.999  1.00  0.00    -0.244 N 
HETATM   22  C5  UNL     1      32.481  66.369   9.018  1.00  0.00     0.136 A 
ATOM     23  H1  UNL     1      34.082  67.260   7.942  1.00  0.00     0.196 HD
HETATM   24  N2  UNL     1      33.105  65.928  10.046  1.00  0.00    -0.383 N 
ATOM     25  H22 UNL     1      34.098  65.964  10.280  1.00  0.00     0.157 HD
ATOM     26  H21 UNL     1      32.657  65.416  10.805  1.00  0.00     0.157 HD
BRANCH  19  27
HETATM   27  C3  UNL     1      29.820  67.291   6.661  1.00  0.00     0.068 C 
BRANCH  27  28
HETATM   28  C2  UNL     1      29.107  66.016   6.303  1.00  0.00     0.002 C 
HETATM   29  C1  UNL     1      27.690  66.011   6.913  1.00  0.00     0.005 C 
ENDBRANCH  27  28
ENDBRANCH  19  27
ENDBRANCH  17  18
BRANCH  17  30
HETATM   30  O2  UNL     1      29.953  64.431   9.227  1.00  0.00    -0.345 OA
ATOM     31  H2  UNL     1      30.730  64.060   8.826  1.00  0.00     0.219 HD
ENDBRANCH  17  30
ENDBRANCH   1  17
TORSDOF 5
ENDMDL
MODEL 3
REMARK VINA RESULT: -8.628716060      1.971      2.502
REMARK  5 active torsions:
REMARK  status: ('A' for Active; 'I' for Inactive)
REMARK    1  A    between atoms: C2_2  and  C3_3 
REMARK    2  A    between atoms: C3_3  and  C4_4 
REMARK    3  A    between atoms: C6_12  and  C7_13 
REMARK    4  A    between atoms: C7_13  and  O2_14 
REMARK    5  A    between atoms: C7_13  and  N3_16 
REMARK       I    between atoms: N4_22  and  C13_23 
ROOT
HETATM    1  N3  UNL     1      29.051  66.114  10.352  1.00  0.00    -0.297 N 
HETATM    2  C8  UNL     1      28.620  65.240  11.530  1.00  0.00     0.135 C 
HETATM    3  C9  UNL     1      27.146  65.454  11.544  1.00  0.00     0.039 C 
HETATM    4  C10 UNL     1      26.879  66.795  10.889  1.00  0.00     0.046 C 
HETATM    5  C11 UNL     1      26.338  67.783  11.903  1.00  0.00     0.039 C 
HETATM    6  C12 UNL     1      24.883  67.471  12.124  1.00  0.00     0.127 C 
HETATM    7  N4  UNL     1      24.236  67.833  10.866  1.00  0.00    -0.356 N 
HETATM    8  C13 UNL     1      23.048  68.610  10.893  1.00  0.00     0.183 C 
HETATM    9  N5  UNL     1      21.991  68.257  10.255  1.00  0.00    -0.374 N 
ATOM     10  H51 UNL     1      21.138  68.815  10.275  1.00  0.00     0.158 HD
ATOM     11  H52 UNL     1      21.983  67.396   9.709  1.00  0.00     0.158 HD
HETATM   12  N6  UNL     1      23.060  69.815  11.657  1.00  0.00    -0.064 NA
HETATM   13  C14 UNL     1      24.773  67.424   9.612  1.00  0.00     0.127 C 
HETATM   14  C15 UNL     1      26.034  66.649   9.675  1.00  0.00     0.039 C 
HETATM   15  C16 UNL     1      28.269  67.267  10.592  1.00  0.00     0.234 C 
HETATM   16  O3  UNL     1      28.618  68.455  10.579  1.00  0.00    -0.272 OA
ENDROOT
BRANCH   1  17
HETATM   17  C7  UNL     1      30.036  65.662   9.495  1.00  0.00     0.161 C 
BRANCH  17  18
HETATM   18  C6  UNL     1      31.187  66.235   8.862  1.00  0.00     0.092 A 
HETATM   19  C4  UNL     1      31.169  66.987   7.700  1.00  0.00     0.094 A 
HETATM   20  O1  UNL     1      32.431  67.348   7.443  1.00  0.00    -0.240 OA
HETATM   21  N1  UNL     1      33.213  66.898   8.328  1.00  0.00    -0.244 N 
HETATM   22  C5  UNL     1      32.510  66.184   9.263  1.00  0.00     0.136 A 
ATOM     23  H1  UNL     1      34.223  67.045   8.344  1.00  0.00     0.196 HD
HETATM   24  N2  UNL     1      33.044  65.646  10.296  1.00  0.00    -0.383 N 
ATOM     25  H22 UNL     1      34.019  65.610  10.591  1.00  0.00     0.157 HD
ATOM     26  H21 UNL     1      32.521  65.115  10.992  1.00  0.00     0.157 HD
BRANCH  19  27
HETATM   27  C3  UNL     1      30.059  67.400   6.814  1.00  0.00     0.068 C 
BRANCH  27  28
HETATM   28  C2  UNL     1      29.426  66.194   6.178  1.00  0.00     0.002 C 
HETATM   29  C1  UNL     1      27.973  66.035   6.671  1.00  0.00     0.005 C 
ENDBRANCH  27  28
ENDBRANCH  19  27
ENDBRANCH  17  18
BRANCH  17  30
HETATM   30  O2  UNL     1      29.869  64.389   9.189  1.00  0.00    -0.345 OA
ATOM     31  H2  UNL     1      29.073  64.025   9.559  1.00  0.00     0.219 HD
ENDBRANCH  17  30
ENDBRANCH   1  17
TORSDOF 5
ENDMDL
MODEL 4
REMARK VINA RESULT: -8.342664897      2.917      3.748
REMARK  5 active torsions:
REMARK  status: ('A' for Active; 'I' for Inactive)
REMARK    1  A    between atoms: C2_2  and  C3_3 
REMARK    2  A    between atoms: C3_3  and  C4_4 
REMARK    3  A    between atoms: C6_12  and  C7_13 
REMARK    4  A    between atoms: C7_13  and  O2_14 
REMARK    5  A    between atoms: C7_13  and  N3_16 
REMARK       I    between atoms: N4_22  and  C13_23 
ROOT
HETATM    1  N3  UNL     1      29.151  66.305  10.452  1.00  0.00    -0.297 N 
HETATM    2  C8  UNL     1      27.963  67.097   9.909  1.00  0.00     0.135 C 
HETATM    3  C9  UNL     1      27.832  68.182  10.921  1.00  0.00     0.039 C 
HETATM    4  C10 UNL     1      28.436  67.667  12.213  1.00  0.00     0.046 C 
HETATM    5  C11 UNL     1      27.362  67.494  13.269  1.00  0.00     0.039 C 
HETATM    6  C12 UNL     1      27.038  68.853  13.828  1.00  0.00     0.127 C 
HETATM    7  N4  UNL     1      28.234  69.239  14.569  1.00  0.00    -0.356 N 
HETATM    8  C13 UNL     1      28.100  69.766  15.880  1.00  0.00     0.183 C 
HETATM    9  N5  UNL     1      28.662  70.866  16.231  1.00  0.00    -0.374 N 
ATOM     10  H51 UNL     1      28.565  71.245  17.173  1.00  0.00     0.158 HD
ATOM     11  H52 UNL     1      29.224  71.393  15.563  1.00  0.00     0.158 HD
HETATM   12  N6  UNL     1      27.313  69.030  16.815  1.00  0.00    -0.064 NA
HETATM   13  C14 UNL     1      29.534  69.096  14.005  1.00  0.00     0.127 C 
HETATM   14  C15 UNL     1      29.584  68.503  12.648  1.00  0.00     0.039 C 
HETATM   15  C16 UNL     1      28.828  66.274  11.829  1.00  0.00     0.234 C 
HETATM   16  O3  UNL     1      28.842  65.309  12.606  1.00  0.00    -0.272 OA
ENDROOT
BRANCH   1  17
HETATM   17  C7  UNL     1      30.091  65.799   9.574  1.00  0.00     0.161 C 
BRANCH  17  18
HETATM   18  C6  UNL     1      31.237  66.317   8.886  1.00  0.00     0.092 A 
HETATM   19  C4  UNL     1      31.205  67.007   7.686  1.00  0.00     0.094 A 
HETATM   20  O1  UNL     1      32.467  67.331   7.384  1.00  0.00    -0.240 OA
HETATM   21  N1  UNL     1      33.261  66.915   8.275  1.00  0.00    -0.244 N 
HETATM   22  C5  UNL     1      32.567  66.265   9.261  1.00  0.00     0.136 A 
ATOM     23  H1  UNL     1      34.273  67.045   8.262  1.00  0.00     0.196 HD
HETATM   24  N2  UNL     1      33.114  65.774  10.310  1.00  0.00    -0.383 N 
ATOM     25  H22 UNL     1      34.096  65.736  10.587  1.00  0.00     0.157 HD
ATOM     26  H21 UNL     1      32.598  65.290  11.044  1.00  0.00     0.157 HD
BRANCH  19  27
HETATM   27  C3  UNL     1      30.082  67.392   6.804  1.00  0.00     0.068 C 
BRANCH  27  28
HETATM   28  C2  UNL     1      29.541  66.181   6.094  1.00  0.00     0.002 C 
HETATM   29  C1  UNL     1      28.091  65.908   6.542  1.00  0.00     0.005 C 
ENDBRANCH  27  28
ENDBRANCH  19  27
ENDBRANCH  17  18
BRANCH  17  30
HETATM   30  O2  UNL     1      29.871  64.525   9.307  1.00  0.00    -0.345 OA
ATOM     31  H2  UNL     1      29.211  64.142   9.872  1.00  0.00     0.219 HD
ENDBRANCH  17  30
ENDBRANCH   1  17
TORSDOF 5
ENDMDL
MODEL 5
REMARK VINA RESULT: -8.230132492      2.336      3.008
REMARK  5 active torsions:
REMARK  status: ('A' for Active; 'I' for Inactive)
REMARK    1  A    between atoms: C2_2  and  C3_3 
REMARK    2  A    between atoms: C3_3  and  C4_4 
REMARK    3  A    between atoms: C6_12  and  C7_13 
REMARK    4  A    between atoms: C7_13  and  O2_14 
REMARK    5  A    between atoms: C7_13  and  N3_16 
REMARK       I    between atoms: N4_22  and  C13_23 
ROOT
HETATM    1  N3  UNL     1      29.683  66.182  10.402  1.00  0.00    -0.297 N 
HETATM    2  C8  UNL     1      28.926  64.884  10.680  1.00  0.00     0.135 C 
HETATM    3  C9  UNL     1      27.528  65.375  10.838  1.00  0.00     0.039 C 
HETATM    4  C10 UNL     1      27.608  66.828  11.263  1.00  0.00     0.046 C 
HETATM    5  C11 UNL     1      27.095  66.995  12.680  1.00  0.00     0.039 C 
HETATM    6  C12 UNL     1      25.591  66.970  12.635  1.00  0.00     0.127 C 
HETATM    7  N4  UNL     1      25.225  68.209  11.955  1.00  0.00    -0.356 N 
HETATM    8  C13 UNL     1      24.202  69.026  12.503  1.00  0.00     0.183 C 
HETATM    9  N5  UNL     1      23.213  69.442  11.798  1.00  0.00    -0.374 N 
ATOM     10  H51 UNL     1      22.478  70.030  12.191  1.00  0.00     0.158 HD
ATOM     11  H52 UNL     1      23.140  69.187  10.813  1.00  0.00     0.158 HD
HETATM   12  N6  UNL     1      24.304  69.383  13.881  1.00  0.00    -0.064 NA
HETATM   13  C14 UNL     1      25.872  68.614  10.754  1.00  0.00     0.127 C 
HETATM   14  C15 UNL     1      26.952  67.721  10.273  1.00  0.00     0.039 C 
HETATM   15  C16 UNL     1      29.087  67.034  11.361  1.00  0.00     0.234 C 
HETATM   16  O3  UNL     1      29.637  67.810  12.154  1.00  0.00    -0.272 OA
ENDROOT
BRANCH   1  17
HETATM   17  C7  UNL     1      30.697  66.190   9.462  1.00  0.00     0.161 C 
BRANCH  17  18
HETATM   18  C6  UNL     1      30.880  66.746   8.154  1.00  0.00     0.092 A 
HETATM   19  C4  UNL     1      29.861  67.123   7.296  1.00  0.00     0.094 A 
HETATM   20  O1  UNL     1      30.436  67.606   6.189  1.00  0.00    -0.240 OA
HETATM   21  N1  UNL     1      31.696  67.565   6.286  1.00  0.00    -0.244 N 
HETATM   22  C5  UNL     1      32.061  67.038   7.496  1.00  0.00     0.136 A 
ATOM     23  H1  UNL     1      32.346  67.880   5.566  1.00  0.00     0.196 HD
HETATM   24  N2  UNL     1      33.277  66.915   7.880  1.00  0.00    -0.383 N 
ATOM     25  H22 UNL     1      34.148  67.130   7.394  1.00  0.00     0.157 HD
ATOM     26  H21 UNL     1      33.549  66.523   8.781  1.00  0.00     0.157 HD
BRANCH  19  27
HETATM   27  C3  UNL     1      28.390  67.073   7.436  1.00  0.00     0.068 C 
BRANCH  27  28
HETATM   28  C2  UNL     1      27.884  65.694   7.111  1.00  0.00     0.002 C 
HETATM   29  C1  UNL     1      26.374  65.599   7.411  1.00  0.00     0.005 C 
ENDBRANCH  27  28
ENDBRANCH  19  27
ENDBRANCH  17  18
BRANCH  17  30
HETATM   30  O2  UNL     1      31.753  65.518   9.881  1.00  0.00    -0.345 OA
ATOM     31  H2  UNL     1      31.541  64.630  10.144  1.00  0.00     0.219 HD
ENDBRANCH  17  30
ENDBRANCH   1  17
TORSDOF 5
ENDMDL
