MODEL 1
REMARK VINA RESULT: -2.719521679      0.000      0.000
REMARK  10 active torsions:
REMARK  status: ('A' for Active; 'I' for Inactive)
REMARK    1  A    between atoms: C4_4  and  C5_5 
REMARK    2  A    between atoms: C5_5  and  C6_6 
REMARK    3  A    between atoms: C8_8  and  C9_9 
REMARK    4  A    between atoms: C10_12  and  C11_13 
REMARK    5  A    between atoms: C14_19  and  C15_20 
REMARK    6  A    between atoms: C15_20  and  C16_21 
REMARK    7  A    between atoms: C20_28  and  C21_29 
REMARK    8  A    between atoms: C26_36  and  C27_37 
REMARK    9  A    between atoms: C27_37  and  C28_38 
REMARK   10  A    between atoms: C31_43  and  O6_44 
ROOT
HETATM    1  C1  UNL     1      22.000  39.920  11.135  1.00  0.00     0.017 C 
HETATM    2  C2  UNL     1      22.419  40.389  12.177  1.00  0.00    -0.090 C 
HETATM    3  C3  UNL     1      22.886  40.929  13.396  1.00  0.00     0.060 C 
HETATM    4  C4  UNL     1      22.147  40.886  14.501  1.00  0.00    -0.013 C 
ENDROOT
BRANCH   4   5
HETATM    5  C5  UNL     1      22.594  41.436  15.794  1.00  0.00     0.070 C 
BRANCH   5   6
HETATM    6  C6  UNL     1      22.234  40.514  16.957  1.00  0.00    -0.007 C 
HETATM    7  C7  UNL     1      22.298  39.247  16.621  1.00  0.00     0.002 C 
HETATM    8  C8  UNL     1      22.025  38.044  17.457  1.00  0.00     0.133 C 
HETATM    9  C10 UNL     1      20.849  37.346  16.890  1.00  0.00     0.102 C 
HETATM   10  N1  UNL     1      20.494  36.151  17.669  1.00  0.00    -0.354 N 
HETATM   11  C13 UNL     1      19.267  35.933  18.287  1.00  0.00     0.240 C 
ATOM     12  H1  UNL     1      21.204  35.424  17.765  1.00  0.00     0.163 HD
HETATM   13  O3  UNL     1      19.160  35.170  19.283  1.00  0.00    -0.271 OA
HETATM   14  C14 UNL     1      17.973  36.577  17.834  1.00  0.00     0.177 C 
HETATM   15  N2  UNL     1      17.492  37.394  18.914  1.00  0.00    -0.343 N 
HETATM   16  C19 UNL     1      16.702  38.529  18.940  1.00  0.00     0.265 C 
ATOM     17  H2  UNL     1      17.789  37.077  19.837  1.00  0.00     0.163 HD
HETATM   18  O4  UNL     1      15.826  38.534  19.889  1.00  0.00    -0.266 OA
HETATM   19  C20 UNL     1      16.646  39.721  18.123  1.00  0.00     0.086 C 
HETATM   20  N3  UNL     1      17.783  40.495  17.796  1.00  0.00    -0.315 N 
HETATM   21  C24 UNL     1      17.877  40.887  16.353  1.00  0.00     0.159 C 
HETATM   22  C25 UNL     1      18.870  40.991  18.540  1.00  0.00     0.274 C 
HETATM   23  O5  UNL     1      19.201  42.206  18.229  1.00  0.00    -0.266 OA
HETATM   24  C26 UNL     1      19.726  40.478  19.583  1.00  0.00     0.099 C 
HETATM   25  N4  UNL     1      21.171  40.699  19.340  1.00  0.00    -0.332 N 
HETATM   26  C31 UNL     1      21.902  41.094  18.250  1.00  0.00     0.146 C 
ATOM     27  H4  UNL     1      21.746  40.518  20.162  1.00  0.00     0.168 HD
BRANCH   8  28
HETATM   28  C9  UNL     1      23.261  37.266  17.664  1.00  0.00     0.182 C 
HETATM   29  O1  UNL     1      23.210  36.020  17.996  1.00  0.00    -0.647 OA
HETATM   30  O2  UNL     1      24.556  37.730  17.538  1.00  0.00    -0.647 OA
ENDBRANCH   8  28
BRANCH   9  31
HETATM   31  C11 UNL     1      20.807  37.008  15.464  1.00  0.00     0.022 C 
HETATM   32  C12 UNL     1      21.866  36.153  14.888  1.00  0.00     0.007 C 
ENDBRANCH   9  31
BRANCH  14  33
HETATM   33  C15 UNL     1      17.078  35.369  17.571  1.00  0.00     0.038 C 
BRANCH  33  34
HETATM   34  C16 UNL     1      16.989  34.959  16.151  1.00  0.00    -0.020 C 
HETATM   35  C17 UNL     1      17.747  33.717  15.803  1.00  0.00     0.009 C 
HETATM   36  C18 UNL     1      15.526  34.712  15.821  1.00  0.00     0.009 C 
ENDBRANCH  33  34
ENDBRANCH  14  33
BRANCH  19  37
HETATM   37  C21 UNL     1      15.369  40.546  18.355  1.00  0.00     0.033 C 
HETATM   38  C22 UNL     1      14.811  41.150  17.116  1.00  0.00     0.016 C 
HETATM   39  C23 UNL     1      15.549  41.654  19.364  1.00  0.00     0.016 C 
ENDBRANCH  19  37
BRANCH  24  40
HETATM   40  C27 UNL     1      19.420  40.722  21.002  1.00  0.00     0.012 C 
BRANCH  40  41
HETATM   41  C28 UNL     1      18.975  42.026  21.495  1.00  0.00     0.002 C 
HETATM   42  C29 UNL     1      19.841  42.288  22.761  1.00  0.00     0.013 C 
HETATM   43  C30 UNL     1      17.589  42.261  21.916  1.00  0.00     0.013 C 
ENDBRANCH  40  41
ENDBRANCH  24  40
BRANCH  26  44
HETATM   44  O6  UNL     1      22.447  42.278  18.383  1.00  0.00    -0.346 OA
ATOM     45  H6  UNL     1      22.271  42.819  17.622  1.00  0.00     0.219 HD
ENDBRANCH  26  44
ENDBRANCH   5   6
ENDBRANCH   4   5
TORSDOF 10
ENDMDL
MODEL 2
REMARK VINA RESULT: -2.710956885      3.591      7.752
REMARK  10 active torsions:
REMARK  status: ('A' for Active; 'I' for Inactive)
REMARK    1  A    between atoms: C4_4  and  C5_5 
REMARK    2  A    between atoms: C5_5  and  C6_6 
REMARK    3  A    between atoms: C8_8  and  C9_9 
REMARK    4  A    between atoms: C10_12  and  C11_13 
REMARK    5  A    between atoms: C14_19  and  C15_20 
REMARK    6  A    between atoms: C15_20  and  C16_21 
REMARK    7  A    between atoms: C20_28  and  C21_29 
REMARK    8  A    between atoms: C26_36  and  C27_37 
REMARK    9  A    between atoms: C27_37  and  C28_38 
REMARK   10  A    between atoms: C31_43  and  O6_44 
ROOT
HETATM    1  C1  UNL     1      20.915  27.234  11.462  1.00  0.00     0.017 C 
HETATM    2  C2  UNL     1      21.271  28.276  11.982  1.00  0.00    -0.090 C 
HETATM    3  C3  UNL     1      21.668  29.495  12.574  1.00  0.00     0.060 C 
HETATM    4  C4  UNL     1      20.959  30.609  12.409  1.00  0.00    -0.013 C 
ENDROOT
BRANCH   4   5
HETATM    5  C5  UNL     1      21.335  31.902  13.009  1.00  0.00     0.070 C 
BRANCH   5   6
HETATM    6  C6  UNL     1      20.748  32.069  14.409  1.00  0.00    -0.007 C 
HETATM    7  C7  UNL     1      19.439  32.159  14.388  1.00  0.00     0.002 C 
HETATM    8  C8  UNL     1      18.496  32.328  15.529  1.00  0.00     0.133 C 
HETATM    9  C10 UNL     1      17.824  33.640  15.382  1.00  0.00     0.102 C 
HETATM   10  N1  UNL     1      16.884  33.899  16.482  1.00  0.00    -0.354 N 
HETATM   11  C13 UNL     1      16.952  34.981  17.354  1.00  0.00     0.240 C 
ATOM     12  H1  UNL     1      16.123  33.234  16.617  1.00  0.00     0.163 HD
HETATM   13  O3  UNL     1      16.452  34.926  18.508  1.00  0.00    -0.271 OA
HETATM   14  C14 UNL     1      17.619  36.297  17.009  1.00  0.00     0.177 C 
HETATM   15  N2  UNL     1      18.708  36.487  17.927  1.00  0.00    -0.343 N 
HETATM   16  C19 UNL     1      19.901  37.179  17.822  1.00  0.00     0.265 C 
ATOM     17  H2  UNL     1      18.577  36.024  18.826  1.00  0.00     0.163 HD
HETATM   18  O4  UNL     1      20.220  37.834  18.888  1.00  0.00    -0.266 OA
HETATM   19  C20 UNL     1      20.875  37.327  16.764  1.00  0.00     0.086 C 
HETATM   20  N3  UNL     1      21.421  36.237  16.049  1.00  0.00    -0.315 N 
HETATM   21  C24 UNL     1      21.463  36.423  14.564  1.00  0.00     0.159 C 
HETATM   22  C25 UNL     1      21.948  34.988  16.431  1.00  0.00     0.274 C 
HETATM   23  O5  UNL     1      23.016  34.652  15.776  1.00  0.00    -0.266 OA
HETATM   24  C26 UNL     1      21.592  33.968  17.388  1.00  0.00     0.099 C 
HETATM   25  N4  UNL     1      21.587  32.595  16.830  1.00  0.00    -0.332 N 
HETATM   26  C31 UNL     1      21.639  32.084  15.559  1.00  0.00     0.146 C 
ATOM     27  H4  UNL     1      21.533  31.872  17.548  1.00  0.00     0.168 HD
BRANCH   8  28
HETATM   28  C9  UNL     1      17.650  31.129  15.683  1.00  0.00     0.182 C 
HETATM   29  O1  UNL     1      18.143  29.947  15.528  1.00  0.00    -0.647 OA
HETATM   30  O2  UNL     1      16.304  31.108  15.994  1.00  0.00    -0.647 OA
ENDBRANCH   8  28
BRANCH   9  31
HETATM   31  C11 UNL     1      17.179  34.001  14.116  1.00  0.00     0.022 C 
HETATM   32  C12 UNL     1      16.063  34.971  14.119  1.00  0.00     0.007 C 
ENDBRANCH   9  31
BRANCH  14  33
HETATM   33  C15 UNL     1      16.492  37.303  17.223  1.00  0.00     0.038 C 
BRANCH  33  34
HETATM   34  C16 UNL     1      16.932  38.644  17.671  1.00  0.00    -0.020 C 
HETATM   35  C17 UNL     1      16.425  39.785  16.847  1.00  0.00     0.009 C 
HETATM   36  C18 UNL     1      16.442  38.851  19.094  1.00  0.00     0.009 C 
ENDBRANCH  33  34
ENDBRANCH  14  33
BRANCH  19  37
HETATM   37  C21 UNL     1      21.870  38.472  17.023  1.00  0.00     0.033 C 
HETATM   38  C22 UNL     1      22.042  39.391  15.867  1.00  0.00     0.016 C 
HETATM   39  C23 UNL     1      23.240  37.989  17.433  1.00  0.00     0.016 C 
ENDBRANCH  19  37
BRANCH  24  40
HETATM   40  C27 UNL     1      22.183  33.953  18.735  1.00  0.00     0.012 C 
BRANCH  40  41
HETATM   41  C28 UNL     1      23.556  34.388  18.992  1.00  0.00     0.002 C 
HETATM   42  C29 UNL     1      24.448  33.336  18.269  1.00  0.00     0.013 C 
HETATM   43  C30 UNL     1      24.095  34.482  20.354  1.00  0.00     0.013 C 
ENDBRANCH  40  41
ENDBRANCH  24  40
BRANCH  26  44
HETATM   44  O6  UNL     1      22.753  31.448  15.293  1.00  0.00    -0.346 OA
ATOM     45  H6  UNL     1      22.605  30.511  15.251  1.00  0.00     0.219 HD
ENDBRANCH  26  44
ENDBRANCH   5   6
ENDBRANCH   4   5
TORSDOF 10
ENDMDL
MODEL 3
REMARK VINA RESULT: -2.338546296     10.316     14.988
REMARK  10 active torsions:
REMARK  status: ('A' for Active; 'I' for Inactive)
REMARK    1  A    between atoms: C4_4  and  C5_5 
REMARK    2  A    between atoms: C5_5  and  C6_6 
REMARK    3  A    between atoms: C8_8  and  C9_9 
REMARK    4  A    between atoms: C10_12  and  C11_13 
REMARK    5  A    between atoms: C14_19  and  C15_20 
REMARK    6  A    between atoms: C15_20  and  C16_21 
REMARK    7  A    between atoms: C20_28  and  C21_29 
REMARK    8  A    between atoms: C26_36  and  C27_37 
REMARK    9  A    between atoms: C27_37  and  C28_38 
REMARK   10  A    between atoms: C31_43  and  O6_44 
ROOT
HETATM    1  C1  UNL     1      19.136  33.888  16.071  1.00  0.00     0.017 C 
HETATM    2  C2  UNL     1      18.784  33.090  15.222  1.00  0.00    -0.090 C 
HETATM    3  C3  UNL     1      18.396  32.164  14.229  1.00  0.00     0.060 C 
HETATM    4  C4  UNL     1      19.284  31.624  13.399  1.00  0.00    -0.013 C 
ENDROOT
BRANCH   4   5
HETATM    5  C5  UNL     1      18.923  30.653  12.349  1.00  0.00     0.070 C 
BRANCH   5   6
HETATM    6  C6  UNL     1      19.604  29.303  12.568  1.00  0.00    -0.007 C 
HETATM    7  C7  UNL     1      20.904  29.373  12.403  1.00  0.00     0.002 C 
HETATM    8  C8  UNL     1      21.920  28.291  12.525  1.00  0.00     0.133 C 
HETATM    9  C10 UNL     1      22.531  28.080  11.192  1.00  0.00     0.102 C 
HETATM   10  N1  UNL     1      23.537  27.008  11.216  1.00  0.00    -0.354 N 
HETATM   11  C13 UNL     1      23.493  25.852  10.443  1.00  0.00     0.240 C 
ATOM     12  H1  UNL     1      24.330  27.121  11.848  1.00  0.00     0.163 HD
HETATM   13  O3  UNL     1      24.077  24.798  10.807  1.00  0.00    -0.271 OA
HETATM   14  C14 UNL     1      22.756  25.751   9.124  1.00  0.00     0.177 C 
HETATM   15  N2  UNL     1      21.729  24.756   9.274  1.00  0.00    -0.343 N 
HETATM   16  C19 UNL     1      20.508  24.581   8.650  1.00  0.00     0.265 C 
ATOM     17  H2  UNL     1      21.942  24.044   9.972  1.00  0.00     0.163 HD
HETATM   18  O4  UNL     1      20.243  23.352   8.356  1.00  0.00    -0.266 OA
HETATM   19  C20 UNL     1      19.455  25.489   8.251  1.00  0.00     0.086 C 
HETATM   20  N3  UNL     1      18.899  26.462   9.112  1.00  0.00    -0.315 N 
HETATM   21  C24 UNL     1      18.743  27.821   8.500  1.00  0.00     0.159 C 
HETATM   22  C25 UNL     1      18.447  26.439  10.445  1.00  0.00     0.274 C 
HETATM   23  O5  UNL     1      17.348  27.101  10.633  1.00  0.00    -0.266 OA
HETATM   24  C26 UNL     1      18.908  25.851  11.681  1.00  0.00     0.099 C 
HETATM   25  N4  UNL     1      18.923  26.791  12.826  1.00  0.00    -0.332 N 
HETATM   26  C31 UNL     1      18.798  28.151  12.942  1.00  0.00     0.146 C 
ATOM     27  H4  UNL     1      19.054  26.325  13.724  1.00  0.00     0.168 HD
BRANCH   8  28
HETATM   28  C9  UNL     1      22.817  28.549  13.666  1.00  0.00     0.182 C 
HETATM   29  O1  UNL     1      22.342  28.851  14.826  1.00  0.00    -0.647 OA
HETATM   30  O2  UNL     1      24.199  28.505  13.652  1.00  0.00    -0.647 OA
ENDBRANCH   8  28
BRANCH   9  31
HETATM   31  C11 UNL     1      23.069  29.216  10.438  1.00  0.00     0.022 C 
HETATM   32  C12 UNL     1      24.513  29.260  10.121  1.00  0.00     0.007 C 
ENDBRANCH   9  31
BRANCH  14  33
HETATM   33  C15 UNL     1      23.858  25.313   8.163  1.00  0.00     0.038 C 
BRANCH  33  34
HETATM   34  C16 UNL     1      23.448  24.298   7.167  1.00  0.00    -0.020 C 
HETATM   35  C17 UNL     1      22.960  24.851   5.864  1.00  0.00     0.009 C 
HETATM   36  C18 UNL     1      24.647  23.414   6.871  1.00  0.00     0.009 C 
ENDBRANCH  33  34
ENDBRANCH  14  33
BRANCH  19  37
HETATM   37  C21 UNL     1      18.441  24.844   7.292  1.00  0.00     0.033 C 
HETATM   38  C22 UNL     1      18.256  25.594   6.021  1.00  0.00     0.016 C 
HETATM   39  C23 UNL     1      17.078  24.646   7.909  1.00  0.00     0.016 C 
ENDBRANCH  19  37
BRANCH  24  40
HETATM   40  C27 UNL     1      18.416  24.538  12.124  1.00  0.00     0.012 C 
BRANCH  40  41
HETATM   41  C28 UNL     1      16.998  24.179  12.089  1.00  0.00     0.002 C 
HETATM   42  C29 UNL     1      16.276  25.343  12.830  1.00  0.00     0.013 C 
HETATM   43  C30 UNL     1      16.496  22.950  12.713  1.00  0.00     0.013 C 
ENDBRANCH  40  41
ENDBRANCH  24  40
BRANCH  26  44
HETATM   44  O6  UNL     1      17.691  28.529  13.533  1.00  0.00    -0.346 OA
ATOM     45  H6  UNL     1      17.070  28.872  12.901  1.00  0.00     0.219 HD
ENDBRANCH  26  44
ENDBRANCH   5   6
ENDBRANCH   4   5
TORSDOF 10
ENDMDL
MODEL 4
REMARK VINA RESULT: -2.260042758      8.159     11.831
REMARK  10 active torsions:
REMARK  status: ('A' for Active; 'I' for Inactive)
REMARK    1  A    between atoms: C4_4  and  C5_5 
REMARK    2  A    between atoms: C5_5  and  C6_6 
REMARK    3  A    between atoms: C8_8  and  C9_9 
REMARK    4  A    between atoms: C10_12  and  C11_13 
REMARK    5  A    between atoms: C14_19  and  C15_20 
REMARK    6  A    between atoms: C15_20  and  C16_21 
REMARK    7  A    between atoms: C20_28  and  C21_29 
REMARK    8  A    between atoms: C26_36  and  C27_37 
REMARK    9  A    between atoms: C27_37  and  C28_38 
REMARK   10  A    between atoms: C31_43  and  O6_44 
ROOT
HETATM    1  C1  UNL     1      24.438  25.064   7.556  1.00  0.00     0.017 C 
HETATM    2  C2  UNL     1      24.301  25.790   8.524  1.00  0.00    -0.090 C 
HETATM    3  C3  UNL     1      24.146  26.650   9.633  1.00  0.00     0.060 C 
HETATM    4  C4  UNL     1      24.128  27.973   9.488  1.00  0.00    -0.013 C 
ENDROOT
BRANCH   4   5
HETATM    5  C5  UNL     1      23.967  28.907  10.617  1.00  0.00     0.070 C 
BRANCH   5   6
HETATM    6  C6  UNL     1      23.058  28.334  11.702  1.00  0.00    -0.007 C 
HETATM    7  C7  UNL     1      22.198  27.468  11.219  1.00  0.00     0.002 C 
HETATM    8  C8  UNL     1      21.150  26.693  11.940  1.00  0.00     0.133 C 
HETATM    9  C10 UNL     1      19.826  27.131  11.439  1.00  0.00     0.102 C 
HETATM   10  N1  UNL     1      18.726  26.427  12.114  1.00  0.00    -0.354 N 
HETATM   11  C13 UNL     1      17.712  27.040  12.843  1.00  0.00     0.240 C 
ATOM     12  H1  UNL     1      18.705  25.410  12.042  1.00  0.00     0.163 HD
HETATM   13  O3  UNL     1      17.094  26.426  13.751  1.00  0.00    -0.271 OA
HETATM   14  C14 UNL     1      17.265  28.470  12.621  1.00  0.00     0.177 C 
HETATM   15  N2  UNL     1      17.512  29.197  13.836  1.00  0.00    -0.343 N 
HETATM   16  C19 UNL     1      17.769  30.533  14.083  1.00  0.00     0.265 C 
ATOM     17  H2  UNL     1      17.495  28.618  14.675  1.00  0.00     0.163 HD
HETATM   18  O4  UNL     1      17.161  30.999  15.122  1.00  0.00    -0.266 OA
HETATM   19  C20 UNL     1      18.580  31.530  13.419  1.00  0.00     0.086 C 
HETATM   20  N3  UNL     1      19.928  31.318  13.050  1.00  0.00    -0.315 N 
HETATM   21  C24 UNL     1      20.272  31.758  11.660  1.00  0.00     0.159 C 
HETATM   22  C25 UNL     1      21.045  30.774  13.713  1.00  0.00     0.274 C 
HETATM   23  O5  UNL     1      22.143  31.432  13.506  1.00  0.00    -0.266 OA
HETATM   24  C26 UNL     1      21.279  29.647  14.584  1.00  0.00     0.099 C 
HETATM   25  N4  UNL     1      22.449  28.821  14.198  1.00  0.00    -0.332 N 
HETATM   26  C31 UNL     1      23.241  28.757  13.082  1.00  0.00     0.146 C 
ATOM     27  H4  UNL     1      22.723  28.157  14.921  1.00  0.00     0.168 HD
BRANCH   8  28
HETATM   28  C9  UNL     1      21.459  25.251  11.910  1.00  0.00     0.182 C 
HETATM   29  O1  UNL     1      22.675  24.838  11.782  1.00  0.00    -0.647 OA
HETATM   30  O2  UNL     1      20.552  24.213  12.008  1.00  0.00    -0.647 OA
ENDBRANCH   8  28
BRANCH   9  31
HETATM   31  C11 UNL     1      19.554  27.160   9.999  1.00  0.00     0.022 C 
HETATM   32  C12 UNL     1      18.953  25.976   9.348  1.00  0.00     0.007 C 
ENDBRANCH   9  31
BRANCH  14  33
HETATM   33  C15 UNL     1      15.776  28.309  12.329  1.00  0.00     0.038 C 
BRANCH  33  34
HETATM   34  C16 UNL     1      15.436  28.147  10.897  1.00  0.00    -0.020 C 
HETATM   35  C17 UNL     1      16.314  28.903   9.949  1.00  0.00     0.009 C 
HETATM   36  C18 UNL     1      15.547  26.672  10.549  1.00  0.00     0.009 C 
ENDBRANCH  33  34
ENDBRANCH  14  33
BRANCH  19  37
HETATM   37  C21 UNL     1      18.274  32.961  13.891  1.00  0.00     0.033 C 
HETATM   38  C22 UNL     1      19.257  33.492  14.874  1.00  0.00     0.016 C 
HETATM   39  C23 UNL     1      16.898  33.110  14.493  1.00  0.00     0.016 C 
ENDBRANCH  19  37
BRANCH  24  40
HETATM   40  C27 UNL     1      21.241  29.798  16.046  1.00  0.00     0.012 C 
BRANCH  40  41
HETATM   41  C28 UNL     1      21.637  31.038  16.716  1.00  0.00     0.002 C 
HETATM   42  C29 UNL     1      20.365  31.934  16.676  1.00  0.00     0.013 C 
HETATM   43  C30 UNL     1      22.722  31.881  16.202  1.00  0.00     0.013 C 
ENDBRANCH  40  41
ENDBRANCH  24  40
BRANCH  26  44
HETATM   44  O6  UNL     1      24.468  29.170  13.284  1.00  0.00    -0.346 OA
ATOM     45  H6  UNL     1      25.073  28.733  12.695  1.00  0.00     0.219 HD
ENDBRANCH  26  44
ENDBRANCH   5   6
ENDBRANCH   4   5
TORSDOF 10
ENDMDL
MODEL 5
REMARK VINA RESULT: -2.227015529      9.891     14.649
REMARK  10 active torsions:
REMARK  status: ('A' for Active; 'I' for Inactive)
REMARK    1  A    between atoms: C4_4  and  C5_5 
REMARK    2  A    between atoms: C5_5  and  C6_6 
REMARK    3  A    between atoms: C8_8  and  C9_9 
REMARK    4  A    between atoms: C10_12  and  C11_13 
REMARK    5  A    between atoms: C14_19  and  C15_20 
REMARK    6  A    between atoms: C15_20  and  C16_21 
REMARK    7  A    between atoms: C20_28  and  C21_29 
REMARK    8  A    between atoms: C26_36  and  C27_37 
REMARK    9  A    between atoms: C27_37  and  C28_38 
REMARK   10  A    between atoms: C31_43  and  O6_44 
ROOT
HETATM    1  C1  UNL     1      17.864  34.077  16.639  1.00  0.00     0.017 C 
HETATM    2  C2  UNL     1      17.670  33.411  15.639  1.00  0.00    -0.090 C 
HETATM    3  C3  UNL     1      17.466  32.636  14.476  1.00  0.00     0.060 C 
HETATM    4  C4  UNL     1      18.485  32.074  13.830  1.00  0.00    -0.013 C 
ENDROOT
BRANCH   4   5
HETATM    5  C5  UNL     1      18.319  31.257  12.614  1.00  0.00     0.070 C 
BRANCH   5   6
HETATM    6  C6  UNL     1      18.750  29.809  12.841  1.00  0.00    -0.007 C 
HETATM    7  C7  UNL     1      20.055  29.672  12.808  1.00  0.00     0.002 C 
HETATM    8  C8  UNL     1      20.868  28.436  12.983  1.00  0.00     0.133 C 
HETATM    9  C10 UNL     1      21.575  28.165  11.710  1.00  0.00     0.102 C 
HETATM   10  N1  UNL     1      22.390  26.945  11.786  1.00  0.00    -0.354 N 
HETATM   11  C13 UNL     1      22.245  25.832  10.964  1.00  0.00     0.240 C 
ATOM     12  H1  UNL     1      23.120  26.911  12.498  1.00  0.00     0.163 HD
HETATM   13  O3  UNL     1      22.613  24.688  11.338  1.00  0.00    -0.271 OA
HETATM   14  C14 UNL     1      21.643  25.887   9.575  1.00  0.00     0.177 C 
HETATM   15  N2  UNL     1      20.462  25.068   9.579  1.00  0.00    -0.343 N 
HETATM   16  C19 UNL     1      19.301  25.110   8.830  1.00  0.00     0.265 C 
ATOM     17  H2  UNL     1      20.485  24.313  10.264  1.00  0.00     0.163 HD
HETATM   18  O4  UNL     1      18.876  23.948   8.459  1.00  0.00    -0.266 OA
HETATM   19  C20 UNL     1      18.452  26.187   8.369  1.00  0.00     0.086 C 
HETATM   20  N3  UNL     1      17.970  27.214   9.212  1.00  0.00    -0.315 N 
HETATM   21  C24 UNL     1      18.097  28.595   8.647  1.00  0.00     0.159 C 
HETATM   22  C25 UNL     1      17.383  27.228  10.491  1.00  0.00     0.274 C 
HETATM   23  O5  UNL     1      16.389  28.055  10.598  1.00  0.00    -0.266 OA
HETATM   24  C26 UNL     1      17.613  26.541  11.740  1.00  0.00     0.099 C 
HETATM   25  N4  UNL     1      17.657  27.435  12.921  1.00  0.00    -0.332 N 
HETATM   26  C31 UNL     1      17.737  28.793  13.082  1.00  0.00     0.146 C 
ATOM     27  H4  UNL     1      17.618  26.929  13.806  1.00  0.00     0.168 HD
BRANCH   8  28
HETATM   28  C9  UNL     1      21.671  28.515  14.218  1.00  0.00     0.182 C 
HETATM   29  O1  UNL     1      21.217  28.049  15.332  1.00  0.00    -0.647 OA
HETATM   30  O2  UNL     1      22.934  29.061  14.344  1.00  0.00    -0.647 OA
ENDBRANCH   8  28
BRANCH   9  31
HETATM   31  C11 UNL     1      22.362  29.219  11.063  1.00  0.00     0.022 C 
HETATM   32  C12 UNL     1      23.759  28.943  10.665  1.00  0.00     0.007 C 
ENDBRANCH   9  31
BRANCH  14  33
HETATM   33  C15 UNL     1      22.757  25.303   8.710  1.00  0.00     0.038 C 
BRANCH  33  34
HETATM   34  C16 UNL     1      22.332  24.213   7.802  1.00  0.00    -0.020 C 
HETATM   35  C17 UNL     1      22.014  24.642   6.404  1.00  0.00     0.009 C 
HETATM   36  C18 UNL     1      23.457  23.195   7.726  1.00  0.00     0.009 C 
ENDBRANCH  33  34
ENDBRANCH  14  33
BRANCH  19  37
HETATM   37  C21 UNL     1      17.455  25.741   7.286  1.00  0.00     0.033 C 
HETATM   38  C22 UNL     1      16.838  24.413   7.549  1.00  0.00     0.016 C 
HETATM   39  C23 UNL     1      18.056  25.701   5.902  1.00  0.00     0.016 C 
ENDBRANCH  19  37
BRANCH  24  40
HETATM   40  C27 UNL     1      16.876  25.312  12.075  1.00  0.00     0.012 C 
BRANCH  40  41
HETATM   41  C28 UNL     1      17.503  23.990  12.046  1.00  0.00     0.002 C 
HETATM   42  C29 UNL     1      16.540  23.077  12.860  1.00  0.00     0.013 C 
HETATM   43  C30 UNL     1      18.835  23.754  12.615  1.00  0.00     0.013 C 
ENDBRANCH  40  41
ENDBRANCH  24  40
BRANCH  26  44
HETATM   44  O6  UNL     1      16.648  29.329  13.577  1.00  0.00    -0.346 OA
ATOM     45  H6  UNL     1      16.331  30.028  13.017  1.00  0.00     0.219 HD
ENDBRANCH  26  44
ENDBRANCH   5   6
ENDBRANCH   4   5
TORSDOF 10
ENDMDL
