MODEL 1
REMARK VINA RESULT: -5.558459577      0.000      0.000
REMARK  10 active torsions:
REMARK  status: ('A' for Active; 'I' for Inactive)
REMARK    1  A    between atoms: C2_2  and  C3_3 
REMARK    2  A    between atoms: C4_4  and  O1_5 
REMARK    3  A    between atoms: C5_9  and  C6_10 
REMARK    4  A    between atoms: C6_10  and  C7_11 
REMARK    5  A    between atoms: C11_18  and  C12_19 
REMARK    6  A    between atoms: C12_19  and  C13_20 
REMARK    7  A    between atoms: C18_29  and  C19_30 
REMARK    8  A    between atoms: C19_30  and  C20_31 
REMARK    9  A    between atoms: C25_39  and  C26_40 
REMARK   10  A    between atoms: C26_40  and  C27_41 
ROOT
HETATM    1  C3  UNL     1      16.977  39.618  18.167  1.00  0.00     0.160 C 
HETATM    2  C4  UNL     1      17.512  38.625  19.102  1.00  0.00     0.135 C 
HETATM    3  N1  UNL     1      18.334  37.525  18.910  1.00  0.00    -0.359 N 
ATOM      4  H1  UNL     1      19.203  37.569  19.443  1.00  0.00     0.162 HD
HETATM    5  C5  UNL     1      18.212  36.340  18.115  1.00  0.00     0.176 C 
HETATM    6  C10 UNL     1      19.282  35.338  18.453  1.00  0.00     0.242 C 
HETATM    7  O2  UNL     1      19.129  34.621  19.517  1.00  0.00    -0.271 OA
HETATM    8  N2  UNL     1      20.453  35.096  17.719  1.00  0.00    -0.338 N 
ATOM      9  H2  UNL     1      21.020  34.311  18.039  1.00  0.00     0.164 HD
HETATM   10  C11 UNL     1      20.961  35.808  16.574  1.00  0.00     0.193 C 
HETATM   11  N3  UNL     1      22.184  36.477  16.962  1.00  0.00    -0.338 N 
ATOM     12  H3  UNL     1      23.030  35.905  16.958  1.00  0.00     0.164 HD
HETATM   13  C17 UNL     1      22.345  37.805  17.340  1.00  0.00     0.242 C 
HETATM   14  O4  UNL     1      22.873  38.021  18.490  1.00  0.00    -0.271 OA
HETATM   15  C18 UNL     1      21.965  39.025  16.549  1.00  0.00     0.177 C 
HETATM   16  N4  UNL     1      22.691  40.122  17.131  1.00  0.00    -0.348 N 
ATOM     17  H4  UNL     1      23.639  40.265  16.784  1.00  0.00     0.163 HD
HETATM   18  C23 UNL     1      22.253  41.027  18.124  1.00  0.00     0.219 C 
HETATM   19  O5  UNL     1      22.969  41.042  19.191  1.00  0.00    -0.274 OA
HETATM   20  C24 UNL     1      21.098  41.940  18.086  1.00  0.00     0.117 C 
HETATM   21  C25 UNL     1      19.809  41.435  18.623  1.00  0.00     0.087 C 
HETATM   22  C30 UNL     1      18.804  41.285  17.486  1.00  0.00     0.224 C 
HETATM   23  O6  UNL     1      18.869  42.288  16.676  1.00  0.00    -0.273 OA
HETATM   24  N5  UNL     1      17.904  40.250  17.270  1.00  0.00    -0.344 N 
HETATM   25  C31 UNL     1      17.855  39.709  15.891  1.00  0.00     0.153 C 
ENDROOT
BRANCH  10  26
HETATM   26  C12 UNL     1      21.232  34.937  15.384  1.00  0.00     0.112 C 
BRANCH  26  27
HETATM   27  C13 UNL     1      20.948  33.521  15.524  1.00  0.00     0.056 A 
HETATM   28  C14 UNL     1      21.831  32.519  15.168  1.00  0.00     0.035 A 
HETATM   29  C15 UNL     1      21.222  31.320  15.441  1.00  0.00     0.027 A 
HETATM   30  C16 UNL     1      19.990  31.619  15.954  1.00  0.00     0.142 A 
HETATM   31  O3  UNL     1      19.895  32.923  15.976  1.00  0.00    -0.327 OA
ENDBRANCH  26  27
ENDBRANCH  10  26
BRANCH   5  32
HETATM   32  C6  UNL     1      16.930  35.559  18.293  1.00  0.00     0.038 C 
BRANCH  32  33
HETATM   33  C7  UNL     1      16.626  34.813  17.008  1.00  0.00    -0.020 C 
HETATM   34  C8  UNL     1      16.010  35.679  15.946  1.00  0.00     0.009 C 
HETATM   35  C9  UNL     1      15.571  33.758  17.367  1.00  0.00     0.009 C 
ENDBRANCH  32  33
ENDBRANCH   5  32
BRANCH  15  36
HETATM   36  C19 UNL     1      22.219  38.854  15.106  1.00  0.00     0.038 C 
BRANCH  36  37
HETATM   37  C20 UNL     1      21.674  39.816  14.135  1.00  0.00    -0.020 C 
HETATM   38  C21 UNL     1      22.388  41.115  14.046  1.00  0.00     0.009 C 
HETATM   39  C22 UNL     1      21.656  39.234  12.705  1.00  0.00     0.009 C 
ENDBRANCH  36  37
ENDBRANCH  15  36
BRANCH   2  40
HETATM   40  O1  UNL     1      17.158  38.798  20.344  1.00  0.00    -0.348 OA
ATOM     41  H1  UNL     1      17.619  38.251  20.969  1.00  0.00     0.219 HD
ENDBRANCH   2  40
BRANCH   1  42
HETATM   42  C2  UNL     1      15.709  39.133  17.425  1.00  0.00     0.029 C 
HETATM   43  C1  UNL     1      14.692  40.269  17.632  1.00  0.00     0.007 C 
ENDBRANCH   1  42
BRANCH  21  44
HETATM   44  C26 UNL     1      19.101  42.177  19.668  1.00  0.00     0.018 C 
BRANCH  44  45
HETATM   45  C27 UNL     1      18.763  41.616  20.982  1.00  0.00    -0.022 C 
HETATM   46  C28 UNL     1      17.317  42.127  21.365  1.00  0.00     0.009 C 
HETATM   47  C29 UNL     1      19.605  42.130  22.134  1.00  0.00     0.009 C 
ENDBRANCH  44  45
ENDBRANCH  21  44
TORSDOF 10
ENDMDL
MODEL 2
REMARK VINA RESULT: -5.324773141      7.069     11.998
REMARK  10 active torsions:
REMARK  status: ('A' for Active; 'I' for Inactive)
REMARK    1  A    between atoms: C2_2  and  C3_3 
REMARK    2  A    between atoms: C4_4  and  O1_5 
REMARK    3  A    between atoms: C5_9  and  C6_10 
REMARK    4  A    between atoms: C6_10  and  C7_11 
REMARK    5  A    between atoms: C11_18  and  C12_19 
REMARK    6  A    between atoms: C12_19  and  C13_20 
REMARK    7  A    between atoms: C18_29  and  C19_30 
REMARK    8  A    between atoms: C19_30  and  C20_31 
REMARK    9  A    between atoms: C25_39  and  C26_40 
REMARK   10  A    between atoms: C26_40  and  C27_41 
ROOT
HETATM    1  C3  UNL     1      21.214  31.021  14.961  1.00  0.00     0.160 C 
HETATM    2  C4  UNL     1      21.593  31.209  13.558  1.00  0.00     0.135 C 
HETATM    3  N1  UNL     1      21.850  30.302  12.542  1.00  0.00    -0.359 N 
ATOM      4  H1  UNL     1      21.235  30.411  11.735  1.00  0.00     0.162 HD
HETATM    5  C5  UNL     1      22.803  29.244  12.394  1.00  0.00     0.176 C 
HETATM    6  C10 UNL     1      22.825  28.716  10.986  1.00  0.00     0.242 C 
HETATM    7  O2  UNL     1      23.464  29.395  10.091  1.00  0.00    -0.271 OA
HETATM    8  N2  UNL     1      22.210  27.538  10.533  1.00  0.00    -0.338 N 
ATOM      9  H2  UNL     1      22.410  27.280   9.566  1.00  0.00     0.164 HD
HETATM   10  C11 UNL     1      21.335  26.645  11.250  1.00  0.00     0.193 C 
HETATM   11  N3  UNL     1      20.020  26.724  10.654  1.00  0.00    -0.338 N 
ATOM     12  H3  UNL     1      19.872  26.163   9.814  1.00  0.00     0.164 HD
HETATM   13  C17 UNL     1      18.932  27.474  11.089  1.00  0.00     0.242 C 
HETATM   14  O4  UNL     1      18.423  28.299  10.247  1.00  0.00    -0.271 OA
HETATM   15  C18 UNL     1      18.282  27.426  12.443  1.00  0.00     0.177 C 
HETATM   16  N4  UNL     1      16.986  28.030  12.287  1.00  0.00    -0.348 N 
ATOM     17  H4  UNL     1      16.240  27.410  11.973  1.00  0.00     0.163 HD
HETATM   18  C23 UNL     1      16.618  29.375  12.514  1.00  0.00     0.219 C 
HETATM   19  O5  UNL     1      16.129  29.980  11.490  1.00  0.00    -0.274 OA
HETATM   20  C24 UNL     1      16.721  30.154  13.759  1.00  0.00     0.117 C 
HETATM   21  C25 UNL     1      17.966  30.935  13.976  1.00  0.00     0.087 C 
HETATM   22  C30 UNL     1      18.747  30.339  15.141  1.00  0.00     0.224 C 
HETATM   23  O6  UNL     1      17.959  30.014  16.110  1.00  0.00    -0.273 OA
HETATM   24  N5  UNL     1      20.118  30.135  15.238  1.00  0.00    -0.344 N 
HETATM   25  C31 UNL     1      20.543  28.803  15.728  1.00  0.00     0.153 C 
ENDROOT
BRANCH  10  26
HETATM   26  C12 UNL     1      21.790  25.216  11.253  1.00  0.00     0.112 C 
BRANCH  26  27
HETATM   27  C13 UNL     1      22.166  24.641   9.975  1.00  0.00     0.056 A 
HETATM   28  C14 UNL     1      23.471  24.391   9.597  1.00  0.00     0.035 A 
HETATM   29  C15 UNL     1      23.437  23.851   8.336  1.00  0.00     0.027 A 
HETATM   30  C16 UNL     1      22.119  23.785   7.979  1.00  0.00     0.142 A 
HETATM   31  O3  UNL     1      21.430  24.263   8.983  1.00  0.00    -0.327 OA
ENDBRANCH  26  27
ENDBRANCH  10  26
BRANCH   5  32
HETATM   32  C6  UNL     1      24.246  29.619  12.651  1.00  0.00     0.038 C 
BRANCH  32  33
HETATM   33  C7  UNL     1      24.956  28.436  13.280  1.00  0.00    -0.020 C 
HETATM   34  C8  UNL     1      26.333  28.767  13.784  1.00  0.00     0.009 C 
HETATM   35  C9  UNL     1      25.147  27.407  12.158  1.00  0.00     0.009 C 
ENDBRANCH  32  33
ENDBRANCH   5  32
BRANCH  15  36
HETATM   36  C19 UNL     1      18.230  26.057  12.988  1.00  0.00     0.038 C 
BRANCH  36  37
HETATM   37  C20 UNL     1      18.245  24.894  12.085  1.00  0.00    -0.020 C 
HETATM   38  C21 UNL     1      18.828  23.650  12.648  1.00  0.00     0.009 C 
HETATM   39  C22 UNL     1      16.824  24.528  11.606  1.00  0.00     0.009 C 
ENDBRANCH  36  37
ENDBRANCH  15  36
BRANCH   2  40
HETATM   40  O1  UNL     1      21.710  32.453  13.187  1.00  0.00    -0.348 OA
ATOM     41  H1  UNL     1      21.481  32.621  12.281  1.00  0.00     0.219 HD
ENDBRANCH   2  40
BRANCH   1  42
HETATM   42  C2  UNL     1      22.423  30.734  15.883  1.00  0.00     0.029 C 
HETATM   43  C1  UNL     1      22.626  32.046  16.660  1.00  0.00     0.007 C 
ENDBRANCH   1  42
BRANCH  21  44
HETATM   44  C26 UNL     1      17.900  32.372  14.251  1.00  0.00     0.018 C 
BRANCH  44  45
HETATM   45  C27 UNL     1      16.853  33.001  15.065  1.00  0.00    -0.022 C 
HETATM   46  C28 UNL     1      16.486  34.383  14.391  1.00  0.00     0.009 C 
HETATM   47  C29 UNL     1      17.288  33.422  16.455  1.00  0.00     0.009 C 
ENDBRANCH  44  45
ENDBRANCH  21  44
TORSDOF 10
ENDMDL
MODEL 3
REMARK VINA RESULT: -4.709587217     11.725     16.711
REMARK  10 active torsions:
REMARK  status: ('A' for Active; 'I' for Inactive)
REMARK    1  A    between atoms: C2_2  and  C3_3 
REMARK    2  A    between atoms: C4_4  and  O1_5 
REMARK    3  A    between atoms: C5_9  and  C6_10 
REMARK    4  A    between atoms: C6_10  and  C7_11 
REMARK    5  A    between atoms: C11_18  and  C12_19 
REMARK    6  A    between atoms: C12_19  and  C13_20 
REMARK    7  A    between atoms: C18_29  and  C19_30 
REMARK    8  A    between atoms: C19_30  and  C20_31 
REMARK    9  A    between atoms: C25_39  and  C26_40 
REMARK   10  A    between atoms: C26_40  and  C27_41 
ROOT
HETATM    1  C3  UNL     1      19.112  24.588   6.051  1.00  0.00     0.160 C 
HETATM    2  C4  UNL     1      19.878  23.456   6.579  1.00  0.00     0.135 C 
HETATM    3  N1  UNL     1      21.054  23.399   7.311  1.00  0.00    -0.359 N 
ATOM      4  H1  UNL     1      20.948  22.936   8.214  1.00  0.00     0.162 HD
HETATM    5  C5  UNL     1      22.387  23.857   7.057  1.00  0.00     0.176 C 
HETATM    6  C10 UNL     1      23.355  23.324   8.077  1.00  0.00     0.242 C 
HETATM    7  O2  UNL     1      23.767  22.105   7.947  1.00  0.00    -0.271 OA
HETATM    8  N2  UNL     1      23.869  24.026   9.178  1.00  0.00    -0.338 N 
ATOM      9  H2  UNL     1      24.592  23.543   9.711  1.00  0.00     0.164 HD
HETATM   10  C11 UNL     1      23.513  25.339   9.655  1.00  0.00     0.193 C 
HETATM   11  N3  UNL     1      22.871  25.193  10.944  1.00  0.00    -0.338 N 
ATOM     12  H3  UNL     1      23.492  25.090  11.747  1.00  0.00     0.164 HD
HETATM   13  C17 UNL     1      21.508  25.176  11.218  1.00  0.00     0.242 C 
HETATM   14  O4  UNL     1      21.053  24.146  11.835  1.00  0.00    -0.271 OA
HETATM   15  C18 UNL     1      20.500  26.235  10.869  1.00  0.00     0.177 C 
HETATM   16  N4  UNL     1      19.354  25.988  11.703  1.00  0.00    -0.348 N 
ATOM     17  H4  UNL     1      19.382  26.405  12.634  1.00  0.00     0.163 HD
HETATM   18  C23 UNL     1      18.196  25.241  11.394  1.00  0.00     0.219 C 
HETATM   19  O5  UNL     1      17.971  24.248  12.179  1.00  0.00    -0.274 OA
HETATM   20  C24 UNL     1      17.231  25.457  10.303  1.00  0.00     0.117 C 
HETATM   21  C25 UNL     1      17.477  24.748   9.022  1.00  0.00     0.087 C 
HETATM   22  C30 UNL     1      17.826  25.759   7.936  1.00  0.00     0.224 C 
HETATM   23  O6  UNL     1      17.069  26.802   8.014  1.00  0.00    -0.273 OA
HETATM   24  N5  UNL     1      18.804  25.660   6.955  1.00  0.00    -0.344 N 
HETATM   25  C31 UNL     1      19.670  26.850   6.779  1.00  0.00     0.153 C 
ENDROOT
BRANCH  10  26
HETATM   26  C12 UNL     1      24.675  26.277   9.788  1.00  0.00     0.112 C 
BRANCH  26  27
HETATM   27  C13 UNL     1      24.717  27.113  10.973  1.00  0.00     0.056 A 
HETATM   28  C14 UNL     1      24.480  28.474  10.963  1.00  0.00     0.035 A 
HETATM   29  C15 UNL     1      24.606  28.922  12.254  1.00  0.00     0.027 A 
HETATM   30  C16 UNL     1      24.915  27.828  13.014  1.00  0.00     0.142 A 
HETATM   31  O3  UNL     1      24.964  26.804  12.203  1.00  0.00    -0.327 OA
ENDBRANCH  26  27
ENDBRANCH  10  26
BRANCH   5  32
HETATM   32  C6  UNL     1      22.990  23.424   5.739  1.00  0.00     0.038 C 
BRANCH  32  33
HETATM   33  C7  UNL     1      24.036  24.439   5.320  1.00  0.00    -0.020 C 
HETATM   34  C8  UNL     1      23.770  25.046   3.971  1.00  0.00     0.009 C 
HETATM   35  C9  UNL     1      25.354  23.665   5.190  1.00  0.00     0.009 C 
ENDBRANCH  32  33
ENDBRANCH   5  32
BRANCH  15  36
HETATM   36  C19 UNL     1      21.049  27.596  11.014  1.00  0.00     0.038 C 
BRANCH  36  37
HETATM   37  C20 UNL     1      20.703  28.418  12.185  1.00  0.00    -0.020 C 
HETATM   38  C21 UNL     1      21.297  27.983  13.474  1.00  0.00     0.009 C 
HETATM   39  C22 UNL     1      21.123  29.891  11.990  1.00  0.00     0.009 C 
ENDBRANCH  36  37
ENDBRANCH  15  36
BRANCH   2  40
HETATM   40  O1  UNL     1      19.369  22.285   6.320  1.00  0.00    -0.348 OA
ATOM     41  H1  UNL     1      20.002  21.623   6.068  1.00  0.00     0.219 HD
ENDBRANCH   2  40
BRANCH   1  42
HETATM   42  C2  UNL     1      19.663  25.120   4.706  1.00  0.00     0.029 C 
HETATM   43  C1  UNL     1      18.418  25.640   3.967  1.00  0.00     0.007 C 
ENDBRANCH   1  42
BRANCH  21  44
HETATM   44  C26 UNL     1      16.440  23.896   8.436  1.00  0.00     0.018 C 
BRANCH  44  45
HETATM   45  C27 UNL     1      16.556  23.257   7.119  1.00  0.00    -0.022 C 
HETATM   46  C28 UNL     1      15.402  23.831   6.204  1.00  0.00     0.009 C 
HETATM   47  C29 UNL     1      16.272  21.767   7.103  1.00  0.00     0.009 C 
ENDBRANCH  44  45
ENDBRANCH  21  44
TORSDOF 10
ENDMDL
MODEL 4
REMARK VINA RESULT: -4.066973704      7.483     12.598
REMARK  10 active torsions:
REMARK  status: ('A' for Active; 'I' for Inactive)
REMARK    1  A    between atoms: C2_2  and  C3_3 
REMARK    2  A    between atoms: C4_4  and  O1_5 
REMARK    3  A    between atoms: C5_9  and  C6_10 
REMARK    4  A    between atoms: C6_10  and  C7_11 
REMARK    5  A    between atoms: C11_18  and  C12_19 
REMARK    6  A    between atoms: C12_19  and  C13_20 
REMARK    7  A    between atoms: C18_29  and  C19_30 
REMARK    8  A    between atoms: C19_30  and  C20_31 
REMARK    9  A    between atoms: C25_39  and  C26_40 
REMARK   10  A    between atoms: C26_40  and  C27_41 
ROOT
HETATM    1  C3  UNL     1      20.907  30.474  14.492  1.00  0.00     0.160 C 
HETATM    2  C4  UNL     1      21.429  30.745  13.150  1.00  0.00     0.135 C 
HETATM    3  N1  UNL     1      21.857  29.899  12.139  1.00  0.00    -0.359 N 
ATOM      4  H1  UNL     1      21.332  30.005  11.271  1.00  0.00     0.162 HD
HETATM    5  C5  UNL     1      22.888  28.907  12.065  1.00  0.00     0.176 C 
HETATM    6  C10 UNL     1      23.102  28.442  10.651  1.00  0.00     0.242 C 
HETATM    7  O2  UNL     1      23.793  29.196   9.860  1.00  0.00    -0.271 OA
HETATM    8  N2  UNL     1      22.620  27.250  10.088  1.00  0.00    -0.338 N 
ATOM      9  H2  UNL     1      22.944  27.045   9.143  1.00  0.00     0.164 HD
HETATM   10  C11 UNL     1      21.730  26.276  10.668  1.00  0.00     0.193 C 
HETATM   11  N3  UNL     1      20.487  26.301   9.926  1.00  0.00    -0.338 N 
ATOM     12  H3  UNL     1      20.473  25.769   9.055  1.00  0.00     0.164 HD
HETATM   13  C17 UNL     1      19.311  26.965  10.259  1.00  0.00     0.242 C 
HETATM   14  O4  UNL     1      18.848  27.793   9.393  1.00  0.00    -0.271 OA
HETATM   15  C18 UNL     1      18.517  26.821  11.526  1.00  0.00     0.177 C 
HETATM   16  N4  UNL     1      17.210  27.352  11.243  1.00  0.00    -0.348 N 
ATOM     17  H4  UNL     1      16.546  26.702  10.822  1.00  0.00     0.163 HD
HETATM   18  C23 UNL     1      16.733  28.661  11.474  1.00  0.00     0.219 C 
HETATM   19  O5  UNL     1      16.325  29.279  10.422  1.00  0.00    -0.274 OA
HETATM   20  C24 UNL     1      16.644  29.391  12.749  1.00  0.00     0.117 C 
HETATM   21  C25 UNL     1      17.803  30.235  13.136  1.00  0.00     0.087 C 
HETATM   22  C30 UNL     1      18.485  29.638  14.362  1.00  0.00     0.224 C 
HETATM   23  O6  UNL     1      17.614  29.225  15.221  1.00  0.00    -0.273 OA
HETATM   24  N5  UNL     1      19.846  29.513  14.609  1.00  0.00    -0.344 N 
HETATM   25  C31 UNL     1      20.298  28.189  15.097  1.00  0.00     0.153 C 
ENDROOT
BRANCH  10  26
HETATM   26  C12 UNL     1      22.272  24.878  10.672  1.00  0.00     0.112 C 
BRANCH  26  27
HETATM   27  C13 UNL     1      22.482  24.247   9.382  1.00  0.00     0.056 A 
HETATM   28  C14 UNL     1      23.728  23.958   8.860  1.00  0.00     0.035 A 
HETATM   29  C15 UNL     1      23.533  23.371   7.635  1.00  0.00     0.027 A 
HETATM   30  C16 UNL     1      22.180  23.318   7.442  1.00  0.00     0.142 A 
HETATM   31  O3  UNL     1      21.626  23.847   8.501  1.00  0.00    -0.327 OA
ENDBRANCH  26  27
ENDBRANCH  10  26
BRANCH   5  32
HETATM   32  C6  UNL     1      24.264  29.357  12.500  1.00  0.00     0.038 C 
BRANCH  32  33
HETATM   33  C7  UNL     1      24.958  28.206  13.202  1.00  0.00    -0.020 C 
HETATM   34  C8  UNL     1      26.277  28.588  13.813  1.00  0.00     0.009 C 
HETATM   35  C9  UNL     1      25.275  27.172  12.113  1.00  0.00     0.009 C 
ENDBRANCH  32  33
ENDBRANCH   5  32
BRANCH  15  36
HETATM   36  C19 UNL     1      18.492  25.429  12.013  1.00  0.00     0.038 C 
BRANCH  36  37
HETATM   37  C20 UNL     1      17.222  24.687  12.082  1.00  0.00    -0.020 C 
HETATM   38  C21 UNL     1      17.277  23.383  12.791  1.00  0.00     0.009 C 
HETATM   39  C22 UNL     1      16.119  25.512  12.779  1.00  0.00     0.009 C 
ENDBRANCH  36  37
ENDBRANCH  15  36
BRANCH   2  40
HETATM   40  O1  UNL     1      21.507  32.008  12.840  1.00  0.00    -0.348 OA
ATOM     41  H1  UNL     1      20.707  32.382  12.489  1.00  0.00     0.219 HD
ENDBRANCH   2  40
BRANCH   1  42
HETATM   42  C2  UNL     1      22.019  30.221  15.537  1.00  0.00     0.029 C 
HETATM   43  C1  UNL     1      22.305  31.612  16.129  1.00  0.00     0.007 C 
ENDBRANCH   1  42
BRANCH  21  44
HETATM   44  C26 UNL     1      17.614  31.653  13.452  1.00  0.00     0.018 C 
BRANCH  44  45
HETATM   45  C27 UNL     1      17.532  32.181  14.820  1.00  0.00    -0.022 C 
HETATM   46  C28 UNL     1      16.007  32.206  15.234  1.00  0.00     0.009 C 
HETATM   47  C29 UNL     1      17.935  33.635  14.970  1.00  0.00     0.009 C 
ENDBRANCH  44  45
ENDBRANCH  21  44
TORSDOF 10
ENDMDL
MODEL 5
REMARK VINA RESULT: -3.564926153      6.631     10.460
REMARK  10 active torsions:
REMARK  status: ('A' for Active; 'I' for Inactive)
REMARK    1  A    between atoms: C2_2  and  C3_3 
REMARK    2  A    between atoms: C4_4  and  O1_5 
REMARK    3  A    between atoms: C5_9  and  C6_10 
REMARK    4  A    between atoms: C6_10  and  C7_11 
REMARK    5  A    between atoms: C11_18  and  C12_19 
REMARK    6  A    between atoms: C12_19  and  C13_20 
REMARK    7  A    between atoms: C18_29  and  C19_30 
REMARK    8  A    between atoms: C19_30  and  C20_31 
REMARK    9  A    between atoms: C25_39  and  C26_40 
REMARK   10  A    between atoms: C26_40  and  C27_41 
ROOT
HETATM    1  C3  UNL     1      18.824  31.613  14.279  1.00  0.00     0.160 C 
HETATM    2  C4  UNL     1      18.571  30.257  14.772  1.00  0.00     0.135 C 
HETATM    3  N1  UNL     1      18.628  29.022  14.145  1.00  0.00    -0.359 N 
ATOM      4  H1  UNL     1      19.290  28.377  14.577  1.00  0.00     0.162 HD
HETATM    5  C5  UNL     1      17.945  28.466  13.016  1.00  0.00     0.176 C 
HETATM    6  C10 UNL     1      18.192  26.988  12.896  1.00  0.00     0.242 C 
HETATM    7  O2  UNL     1      17.526  26.194  13.668  1.00  0.00    -0.271 OA
HETATM    8  N2  UNL     1      19.090  26.366  12.014  1.00  0.00    -0.338 N 
ATOM      9  H2  UNL     1      19.058  25.347  11.997  1.00  0.00     0.164 HD
HETATM   10  C11 UNL     1      20.050  26.976  11.129  1.00  0.00     0.193 C 
HETATM   11  N3  UNL     1      21.377  26.639  11.599  1.00  0.00    -0.338 N 
ATOM     12  H3  UNL     1      21.732  25.723  11.323  1.00  0.00     0.164 HD
HETATM   13  C17 UNL     1      22.224  27.415  12.382  1.00  0.00     0.242 C 
HETATM   14  O4  UNL     1      22.636  26.895  13.482  1.00  0.00    -0.271 OA
HETATM   15  C18 UNL     1      22.715  28.804  12.084  1.00  0.00     0.177 C 
HETATM   16  N4  UNL     1      23.862  29.013  12.927  1.00  0.00    -0.348 N 
ATOM     17  H4  UNL     1      24.754  28.682  12.558  1.00  0.00     0.163 HD
HETATM   18  C23 UNL     1      23.907  29.619  14.202  1.00  0.00     0.219 C 
HETATM   19  O5  UNL     1      24.365  28.868  15.139  1.00  0.00    -0.274 OA
HETATM   20  C24 UNL     1      23.503  30.983  14.582  1.00  0.00     0.117 C 
HETATM   21  C25 UNL     1      22.104  31.179  15.041  1.00  0.00     0.087 C 
HETATM   22  C30 UNL     1      21.344  32.020  14.021  1.00  0.00     0.224 C 
HETATM   23  O6  UNL     1      22.072  32.995  13.590  1.00  0.00    -0.273 OA
HETATM   24  N5  UNL     1      20.047  31.840  13.560  1.00  0.00    -0.344 N 
HETATM   25  C31 UNL     1      19.864  31.913  12.091  1.00  0.00     0.153 C 
ENDROOT
BRANCH  10  26
HETATM   26  C12 UNL     1      19.914  26.555   9.696  1.00  0.00     0.112 C 
BRANCH  26  27
HETATM   27  C13 UNL     1      18.669  25.915   9.312  1.00  0.00     0.056 A 
HETATM   28  C14 UNL     1      17.919  26.288   8.214  1.00  0.00     0.035 A 
HETATM   29  C15 UNL     1      16.820  25.466   8.170  1.00  0.00     0.027 A 
HETATM   30  C16 UNL     1      16.929  24.617   9.236  1.00  0.00     0.142 A 
HETATM   31  O3  UNL     1      18.032  24.934   9.861  1.00  0.00    -0.327 OA
ENDBRANCH  26  27
ENDBRANCH  10  26
BRANCH   5  32
HETATM   32  C6  UNL     1      16.436  28.569  13.045  1.00  0.00     0.038 C 
BRANCH  32  33
HETATM   33  C7  UNL     1      15.925  28.703  11.624  1.00  0.00    -0.020 C 
HETATM   34  C8  UNL     1      15.318  27.437  11.087  1.00  0.00     0.009 C 
HETATM   35  C9  UNL     1      17.156  28.991  10.754  1.00  0.00     0.009 C 
ENDBRANCH  32  33
ENDBRANCH   5  32
BRANCH  15  36
HETATM   36  C19 UNL     1      22.998  28.998  10.649  1.00  0.00     0.038 C 
BRANCH  36  37
HETATM   37  C20 UNL     1      24.316  28.646  10.096  1.00  0.00    -0.020 C 
HETATM   38  C21 UNL     1      25.487  29.069  10.904  1.00  0.00     0.009 C 
HETATM   39  C22 UNL     1      24.459  27.123   9.892  1.00  0.00     0.009 C 
ENDBRANCH  36  37
ENDBRANCH  15  36
BRANCH   2  40
HETATM   40  O1  UNL     1      18.233  30.188  16.029  1.00  0.00    -0.348 OA
ATOM     41  H1  UNL     1      18.063  29.309  16.347  1.00  0.00     0.219 HD
ENDBRANCH   2  40
BRANCH   1  42
HETATM   42  C2  UNL     1      17.611  32.228  13.543  1.00  0.00     0.029 C 
HETATM   43  C1  UNL     1      17.239  33.459  14.387  1.00  0.00     0.007 C 
ENDBRANCH   1  42
BRANCH  21  44
HETATM   44  C26 UNL     1      21.831  31.804  16.337  1.00  0.00     0.018 C 
BRANCH  44  45
HETATM   45  C27 UNL     1      21.825  33.255  16.559  1.00  0.00    -0.022 C 
HETATM   46  C28 UNL     1      22.773  33.557  17.786  1.00  0.00     0.009 C 
HETATM   47  C29 UNL     1      20.499  33.827  17.024  1.00  0.00     0.009 C 
ENDBRANCH  44  45
ENDBRANCH  21  44
TORSDOF 10
ENDMDL
