MODEL 1
REMARK VINA RESULT: -10.880902790      0.000      0.000
REMARK  10 active torsions:
REMARK  status: ('A' for Active; 'I' for Inactive)
REMARK    1  A    between atoms: C2_2  and  N1_3 
REMARK    2  A    between atoms: N1_3  and  C3_4 
REMARK       I    between atoms: N1_3  and  C22_31 
REMARK    3  A    between atoms: C3_4  and  C4_5 
REMARK    4  A    between atoms: C9_10  and  C10_11 
REMARK    5  A    between atoms: C13_16  and  C14_17 
REMARK    6  A    between atoms: C22_31  and  C23_33 
REMARK    7  A    between atoms: C23_33  and  C24_34 
REMARK    8  A    between atoms: C27_37  and  C28_38 
REMARK    9  A    between atoms: C29_39  and  S1_40 
REMARK   10  A    between atoms: S1_40  and  N6_41 
ROOT
HETATM    1  C4  UNL     1       8.988  -5.046  17.011  1.00  0.00    -0.039 A 
HETATM    2  C5  UNL     1      10.160  -4.353  16.816  1.00  0.00     0.010 A 
HETATM    3  C6  UNL     1      10.202  -3.208  16.010  1.00  0.00     0.013 A 
HETATM    4  C7  UNL     1       9.057  -2.753  15.395  1.00  0.00    -0.025 A 
HETATM    5  C8  UNL     1       9.073  -1.612  14.585  1.00  0.00     0.027 A 
HETATM    6  C9  UNL     1       7.940  -1.148  13.965  1.00  0.00     0.009 A 
HETATM    7  C18 UNL     1       6.763  -1.838  14.156  1.00  0.00     0.016 A 
HETATM    8  C19 UNL     1       6.730  -2.972  14.958  1.00  0.00     0.013 A 
HETATM    9  C20 UNL     1       7.873  -3.427  15.574  1.00  0.00    -0.025 A 
HETATM   10  C21 UNL     1       7.856  -4.565  16.381  1.00  0.00     0.021 A 
ENDROOT
BRANCH   1  11
HETATM   11  C3  UNL     1       8.919  -6.256  17.855  1.00  0.00     0.164 C 
BRANCH  11  12
HETATM   12  N1  UNL     1       7.746  -7.063  17.650  1.00  0.00    -0.348 N 
HETATM   13  C22 UNL     1       6.542  -6.764  18.319  1.00  0.00     0.224 C 
HETATM   14  O1  UNL     1       6.504  -5.785  19.098  1.00  0.00    -0.273 OA
BRANCH  12  15
HETATM   15  C2  UNL     1       7.750  -8.223  16.744  1.00  0.00     0.121 C 
HETATM   16  C1  UNL     1       8.878  -9.164  17.052  1.00  0.00     0.026 C 
ENDBRANCH  12  15
BRANCH  13  17
HETATM   17  C23 UNL     1       5.302  -7.566  18.141  1.00  0.00     0.141 C 
BRANCH  17  18
HETATM   18  C24 UNL     1       4.317  -6.848  17.281  1.00  0.00    -0.049 A 
HETATM   19  C25 UNL     1       3.686  -5.722  17.728  1.00  0.00     0.008 A 
HETATM   20  C26 UNL     1       2.778  -5.040  16.970  1.00  0.00     0.012 A 
HETATM   21  C27 UNL     1       2.442  -5.471  15.668  1.00  0.00    -0.036 A 
HETATM   22  C30 UNL     1       3.101  -6.607  15.261  1.00  0.00     0.012 A 
HETATM   23  C31 UNL     1       4.028  -7.303  16.033  1.00  0.00     0.008 A 
BRANCH  21  24
HETATM   24  C28 UNL     1       1.487  -4.711  14.915  1.00  0.00     0.025 C 
HETATM   25  C29 UNL     1       1.457  -3.607  14.281  1.00  0.00     0.132 C 
BRANCH  25  26
HETATM   26  S1  UNL     1       2.639  -2.409  14.003  1.00  0.00     0.246 S 
HETATM   27  O2  UNL     1       1.959  -1.239  13.217  1.00  0.00    -0.202 OA
HETATM   28  O3  UNL     1       3.743  -2.842  13.114  1.00  0.00    -0.202 OA
BRANCH  26  29
HETATM   29  N6  UNL     1       3.247  -1.707  15.475  1.00  0.00    -0.325 N 
ATOM     30  H62 UNL     1       3.127  -2.147  16.387  1.00  0.00     0.169 HD
ATOM     31  H61 UNL     1       3.729  -0.821  15.321  1.00  0.00     0.169 HD
ENDBRANCH  26  29
ENDBRANCH  25  26
ENDBRANCH  21  24
ENDBRANCH  17  18
ENDBRANCH  13  17
ENDBRANCH  11  12
ENDBRANCH   1  11
BRANCH   6  32
HETATM   32  C10 UNL     1       7.969   0.058  13.107  1.00  0.00     0.116 A 
HETATM   33  N2  UNL     1       8.013   0.098  11.768  1.00  0.00    -0.340 N 
HETATM   34  C11 UNL     1       8.027   1.396  11.344  1.00  0.00     0.061 A 
ATOM     35  H2  UNL     1       8.033  -0.719  11.158  1.00  0.00     0.167 HD
HETATM   36  C12 UNL     1       8.068   1.981  10.101  1.00  0.00     0.046 A 
HETATM   37  C17 UNL     1       7.990   2.158  12.490  1.00  0.00     0.060 A 
HETATM   38  C13 UNL     1       8.073   3.372   9.969  1.00  0.00     0.007 A 
HETATM   39  C15 UNL     1       8.036   4.096  11.141  1.00  0.00     0.017 A 
HETATM   40  C16 UNL     1       7.994   3.556  12.391  1.00  0.00     0.033 A 
HETATM   41  N5  UNL     1       7.956   1.328  13.532  1.00  0.00    -0.340 N 
ATOM     42  H5  UNL     1       7.923   1.617  14.509  1.00  0.00     0.167 HD
BRANCH  38  43
HETATM   43  C14 UNL     1       8.117   3.986   8.658  1.00  0.00     0.120 C 
HETATM   44  N3  UNL     1       7.560   3.452   7.655  1.00  0.00    -0.387 N 
ATOM     45  H32 UNL     1       7.069   2.566   7.776  1.00  0.00     0.157 HD
ATOM     46  H31 UNL     1       7.590   3.884   6.731  1.00  0.00     0.157 HD
HETATM   47  N4  UNL     1       8.800   5.220   8.488  1.00  0.00    -0.082 NA
ENDBRANCH  38  43
ENDBRANCH   6  32
TORSDOF 10
ENDMDL
MODEL 2
REMARK VINA RESULT: -10.684908574      3.469      5.854
REMARK  10 active torsions:
REMARK  status: ('A' for Active; 'I' for Inactive)
REMARK    1  A    between atoms: C2_2  and  N1_3 
REMARK    2  A    between atoms: N1_3  and  C3_4 
REMARK       I    between atoms: N1_3  and  C22_31 
REMARK    3  A    between atoms: C3_4  and  C4_5 
REMARK    4  A    between atoms: C9_10  and  C10_11 
REMARK    5  A    between atoms: C13_16  and  C14_17 
REMARK    6  A    between atoms: C22_31  and  C23_33 
REMARK    7  A    between atoms: C23_33  and  C24_34 
REMARK    8  A    between atoms: C27_37  and  C28_38 
REMARK    9  A    between atoms: C29_39  and  S1_40 
REMARK   10  A    between atoms: S1_40  and  N6_41 
ROOT
HETATM    1  C4  UNL     1       2.562  -6.100  16.639  1.00  0.00    -0.039 A 
HETATM    2  C5  UNL     1       1.667  -6.194  15.599  1.00  0.00     0.010 A 
HETATM    3  C6  UNL     1       1.450  -5.119  14.727  1.00  0.00     0.013 A 
HETATM    4  C7  UNL     1       2.138  -3.938  14.901  1.00  0.00    -0.025 A 
HETATM    5  C8  UNL     1       1.938  -2.850  14.045  1.00  0.00     0.027 A 
HETATM    6  C9  UNL     1       2.616  -1.668  14.206  1.00  0.00     0.009 A 
HETATM    7  C18 UNL     1       3.513  -1.567  15.247  1.00  0.00     0.016 A 
HETATM    8  C19 UNL     1       3.724  -2.638  16.106  1.00  0.00     0.013 A 
HETATM    9  C20 UNL     1       3.038  -3.819  15.933  1.00  0.00    -0.025 A 
HETATM   10  C21 UNL     1       3.236  -4.903  16.788  1.00  0.00     0.021 A 
ENDROOT
BRANCH   1  11
HETATM   11  C3  UNL     1       2.806  -7.219  17.571  1.00  0.00     0.164 C 
BRANCH  11  12
HETATM   12  N1  UNL     1       4.145  -7.280  18.096  1.00  0.00    -0.348 N 
HETATM   13  C22 UNL     1       5.175  -7.905  17.365  1.00  0.00     0.224 C 
HETATM   14  O1  UNL     1       4.913  -8.409  16.249  1.00  0.00    -0.273 OA
BRANCH  12  15
HETATM   15  C2  UNL     1       4.493  -6.702  19.403  1.00  0.00     0.121 C 
HETATM   16  C1  UNL     1       3.272  -6.291  20.173  1.00  0.00     0.026 C 
ENDBRANCH  12  15
BRANCH  13  17
HETATM   17  C23 UNL     1       6.574  -7.994  17.862  1.00  0.00     0.141 C 
BRANCH  17  18
HETATM   18  C24 UNL     1       7.390  -6.841  17.380  1.00  0.00    -0.049 A 
HETATM   19  C25 UNL     1       8.719  -6.990  17.102  1.00  0.00     0.008 A 
HETATM   20  C26 UNL     1       9.496  -5.959  16.660  1.00  0.00     0.012 A 
HETATM   21  C27 UNL     1       8.956  -4.668  16.466  1.00  0.00    -0.036 A 
HETATM   22  C30 UNL     1       7.617  -4.565  16.759  1.00  0.00     0.012 A 
HETATM   23  C31 UNL     1       6.823  -5.617  17.209  1.00  0.00     0.008 A 
BRANCH  21  24
HETATM   24  C28 UNL     1       9.819  -3.624  15.994  1.00  0.00     0.025 C 
HETATM   25  C29 UNL     1       9.708  -2.545  15.327  1.00  0.00     0.132 C 
BRANCH  25  26
HETATM   26  S1  UNL     1       8.366  -1.765  14.620  1.00  0.00     0.246 S 
HETATM   27  O2  UNL     1       7.678  -2.782  13.649  1.00  0.00    -0.202 OA
HETATM   28  O3  UNL     1       8.721  -0.622  13.744  1.00  0.00    -0.202 OA
BRANCH  26  29
HETATM   29  N6  UNL     1       7.153  -1.318  15.785  1.00  0.00    -0.325 N 
ATOM     30  H62 UNL     1       6.659  -0.426  15.753  1.00  0.00     0.169 HD
ATOM     31  H61 UNL     1       6.996  -2.039  16.490  1.00  0.00     0.169 HD
ENDBRANCH  26  29
ENDBRANCH  25  26
ENDBRANCH  21  24
ENDBRANCH  17  18
ENDBRANCH  13  17
ENDBRANCH  11  12
ENDBRANCH   1  11
BRANCH   6  32
HETATM   32  C10 UNL     1       2.395  -0.521  13.296  1.00  0.00     0.116 A 
HETATM   33  N2  UNL     1       3.293   0.401  12.923  1.00  0.00    -0.340 N 
HETATM   34  C11 UNL     1       2.710   1.298  12.074  1.00  0.00     0.061 A 
ATOM     35  H2  UNL     1       4.266   0.428  13.228  1.00  0.00     0.167 HD
HETATM   36  C12 UNL     1       3.175   2.412  11.415  1.00  0.00     0.046 A 
HETATM   37  C17 UNL     1       1.404   0.884  11.941  1.00  0.00     0.060 A 
HETATM   38  C13 UNL     1       2.327   3.155  10.591  1.00  0.00     0.007 A 
HETATM   39  C15 UNL     1       1.029   2.707  10.487  1.00  0.00     0.017 A 
HETATM   40  C16 UNL     1       0.530   1.609  11.121  1.00  0.00     0.033 A 
HETATM   41  N5  UNL     1       1.245  -0.209  12.686  1.00  0.00    -0.340 N 
ATOM     42  H5  UNL     1       0.374  -0.733  12.777  1.00  0.00     0.167 HD
BRANCH  38  43
HETATM   43  C14 UNL     1       2.818   4.329   9.899  1.00  0.00     0.120 C 
HETATM   44  N3  UNL     1       2.031   5.153   9.347  1.00  0.00    -0.387 N 
ATOM     45  H32 UNL     1       1.027   4.983   9.393  1.00  0.00     0.157 HD
ATOM     46  H31 UNL     1       2.377   5.981   8.860  1.00  0.00     0.157 HD
HETATM   47  N4  UNL     1       4.218   4.567   9.834  1.00  0.00    -0.082 NA
ENDBRANCH  38  43
ENDBRANCH   6  32
TORSDOF 10
ENDMDL
MODEL 3
REMARK VINA RESULT: -10.503465547      3.463      5.818
REMARK  10 active torsions:
REMARK  status: ('A' for Active; 'I' for Inactive)
REMARK    1  A    between atoms: C2_2  and  N1_3 
REMARK    2  A    between atoms: N1_3  and  C3_4 
REMARK       I    between atoms: N1_3  and  C22_31 
REMARK    3  A    between atoms: C3_4  and  C4_5 
REMARK    4  A    between atoms: C9_10  and  C10_11 
REMARK    5  A    between atoms: C13_16  and  C14_17 
REMARK    6  A    between atoms: C22_31  and  C23_33 
REMARK    7  A    between atoms: C23_33  and  C24_34 
REMARK    8  A    between atoms: C27_37  and  C28_38 
REMARK    9  A    between atoms: C29_39  and  S1_40 
REMARK   10  A    between atoms: S1_40  and  N6_41 
ROOT
HETATM    1  C4  UNL     1       2.439  -6.310  16.391  1.00  0.00    -0.039 A 
HETATM    2  C5  UNL     1       1.426  -6.269  15.462  1.00  0.00     0.010 A 
HETATM    3  C6  UNL     1       1.198  -5.126  14.685  1.00  0.00     0.013 A 
HETATM    4  C7  UNL     1       1.994  -4.013  14.842  1.00  0.00    -0.025 A 
HETATM    5  C8  UNL     1       1.786  -2.859  14.079  1.00  0.00     0.027 A 
HETATM    6  C9  UNL     1       2.571  -1.743  14.225  1.00  0.00     0.009 A 
HETATM    7  C18 UNL     1       3.587  -1.778  15.155  1.00  0.00     0.016 A 
HETATM    8  C19 UNL     1       3.808  -2.915  15.920  1.00  0.00     0.013 A 
HETATM    9  C20 UNL     1       3.014  -4.029  15.764  1.00  0.00    -0.025 A 
HETATM   10  C21 UNL     1       3.221  -5.179  16.526  1.00  0.00     0.021 A 
ENDROOT
BRANCH   1  11
HETATM   11  C3  UNL     1       2.698  -7.503  17.222  1.00  0.00     0.164 C 
BRANCH  11  12
HETATM   12  N1  UNL     1       4.030  -8.035  17.108  1.00  0.00    -0.348 N 
HETATM   13  C22 UNL     1       4.938  -7.933  18.182  1.00  0.00     0.224 C 
HETATM   14  O1  UNL     1       4.574  -7.371  19.239  1.00  0.00    -0.273 OA
BRANCH  12  15
HETATM   15  C2  UNL     1       4.498  -8.700  15.883  1.00  0.00     0.121 C 
HETATM   16  C1  UNL     1       3.545  -9.768  15.431  1.00  0.00     0.026 C 
ENDBRANCH  12  15
BRANCH  13  17
HETATM   17  C23 UNL     1       6.325  -8.467  18.114  1.00  0.00     0.141 C 
BRANCH  17  18
HETATM   18  C24 UNL     1       7.281  -7.423  17.643  1.00  0.00    -0.049 A 
HETATM   19  C25 UNL     1       6.981  -6.095  17.757  1.00  0.00     0.008 A 
HETATM   20  C26 UNL     1       7.830  -5.112  17.336  1.00  0.00     0.012 A 
HETATM   21  C27 UNL     1       9.078  -5.424  16.753  1.00  0.00    -0.036 A 
HETATM   22  C30 UNL     1       9.336  -6.771  16.659  1.00  0.00     0.012 A 
HETATM   23  C31 UNL     1       8.471  -7.775  17.089  1.00  0.00     0.008 A 
BRANCH  21  24
HETATM   24  C28 UNL     1       9.932  -4.350  16.335  1.00  0.00     0.025 C 
HETATM   25  C29 UNL     1       9.813  -3.248  15.708  1.00  0.00     0.132 C 
BRANCH  25  26
HETATM   26  S1  UNL     1       8.471  -2.462  15.010  1.00  0.00     0.246 S 
HETATM   27  O2  UNL     1       7.762  -3.481  14.056  1.00  0.00    -0.202 OA
HETATM   28  O3  UNL     1       8.826  -1.329  14.120  1.00  0.00    -0.202 OA
BRANCH  26  29
HETATM   29  N6  UNL     1       7.275  -1.994  16.184  1.00  0.00    -0.325 N 
ATOM     30  H62 UNL     1       7.426  -2.081  17.189  1.00  0.00     0.169 HD
ATOM     31  H61 UNL     1       6.422  -1.630  15.759  1.00  0.00     0.169 HD
ENDBRANCH  26  29
ENDBRANCH  25  26
ENDBRANCH  21  24
ENDBRANCH  17  18
ENDBRANCH  13  17
ENDBRANCH  11  12
ENDBRANCH   1  11
BRANCH   6  32
HETATM   32  C10 UNL     1       2.340  -0.526  13.415  1.00  0.00     0.116 A 
HETATM   33  N2  UNL     1       3.264   0.221  12.796  1.00  0.00    -0.340 N 
HETATM   34  C11 UNL     1       2.660   1.262  12.149  1.00  0.00     0.061 A 
ATOM     35  H2  UNL     1       4.267   0.040  12.806  1.00  0.00     0.167 HD
HETATM   36  C12 UNL     1       3.136   2.299  11.381  1.00  0.00     0.046 A 
HETATM   37  C17 UNL     1       1.314   1.120  12.400  1.00  0.00     0.060 A 
HETATM   38  C13 UNL     1       2.260   3.239  10.835  1.00  0.00     0.007 A 
HETATM   39  C15 UNL     1       0.922   3.060  11.111  1.00  0.00     0.017 A 
HETATM   40  C16 UNL     1       0.410   2.048  11.866  1.00  0.00     0.033 A 
HETATM   41  N5  UNL     1       1.152   0.039  13.161  1.00  0.00    -0.340 N 
ATOM     42  H5  UNL     1       0.256  -0.308  13.502  1.00  0.00     0.167 HD
BRANCH  38  43
HETATM   43  C14 UNL     1       2.764   4.331  10.027  1.00  0.00     0.120 C 
HETATM   44  N3  UNL     1       1.986   5.098   9.387  1.00  0.00    -0.387 N 
ATOM     45  H32 UNL     1       0.980   4.940   9.444  1.00  0.00     0.157 HD
ATOM     46  H31 UNL     1       2.340   5.868   8.818  1.00  0.00     0.157 HD
HETATM   47  N4  UNL     1       4.165   4.552   9.948  1.00  0.00    -0.082 NA
ENDBRANCH  38  43
ENDBRANCH   6  32
TORSDOF 10
ENDMDL
MODEL 4
REMARK VINA RESULT: -10.475036490      2.911      9.833
REMARK  10 active torsions:
REMARK  status: ('A' for Active; 'I' for Inactive)
REMARK    1  A    between atoms: C2_2  and  N1_3 
REMARK    2  A    between atoms: N1_3  and  C3_4 
REMARK       I    between atoms: N1_3  and  C22_31 
REMARK    3  A    between atoms: C3_4  and  C4_5 
REMARK    4  A    between atoms: C9_10  and  C10_11 
REMARK    5  A    between atoms: C13_16  and  C14_17 
REMARK    6  A    between atoms: C22_31  and  C23_33 
REMARK    7  A    between atoms: C23_33  and  C24_34 
REMARK    8  A    between atoms: C27_37  and  C28_38 
REMARK    9  A    between atoms: C29_39  and  S1_40 
REMARK   10  A    between atoms: S1_40  and  N6_41 
ROOT
HETATM    1  C4  UNL     1       8.253  -1.276  15.045  1.00  0.00    -0.039 A 
HETATM    2  C5  UNL     1       9.545  -1.749  15.077  1.00  0.00     0.010 A 
HETATM    3  C6  UNL     1       9.832  -3.049  15.511  1.00  0.00     0.013 A 
HETATM    4  C7  UNL     1       8.814  -3.883  15.918  1.00  0.00    -0.025 A 
HETATM    5  C8  UNL     1       9.075  -5.185  16.357  1.00  0.00     0.027 A 
HETATM    6  C9  UNL     1       8.071  -6.027  16.765  1.00  0.00     0.009 A 
HETATM    7  C18 UNL     1       6.776  -5.559  16.736  1.00  0.00     0.016 A 
HETATM    8  C19 UNL     1       6.499  -4.269  16.302  1.00  0.00     0.013 A 
HETATM    9  C20 UNL     1       7.515  -3.434  15.895  1.00  0.00    -0.025 A 
HETATM   10  C21 UNL     1       7.254  -2.135  15.459  1.00  0.00     0.021 A 
ENDROOT
BRANCH   1  11
HETATM   11  C3  UNL     1       7.927   0.091  14.593  1.00  0.00     0.164 C 
BRANCH  11  12
HETATM   12  N1  UNL     1       6.749   0.185  13.771  1.00  0.00    -0.348 N 
HETATM   13  C22 UNL     1       5.503   0.522  14.338  1.00  0.00     0.224 C 
HETATM   14  O1  UNL     1       5.430   0.740  15.569  1.00  0.00    -0.273 OA
BRANCH  12  15
HETATM   15  C2  UNL     1       6.791  -0.065  12.322  1.00  0.00     0.121 C 
HETATM   16  C1  UNL     1       8.026   0.512  11.694  1.00  0.00     0.026 C 
ENDBRANCH  12  15
BRANCH  13  17
HETATM   17  C23 UNL     1       4.257   0.633  13.533  1.00  0.00     0.141 C 
BRANCH  17  18
HETATM   18  C24 UNL     1       3.392  -0.569  13.715  1.00  0.00    -0.049 A 
HETATM   19  C25 UNL     1       3.912  -1.828  13.621  1.00  0.00     0.008 A 
HETATM   20  C26 UNL     1       3.151  -2.950  13.781  1.00  0.00     0.012 A 
HETATM   21  C27 UNL     1       1.768  -2.862  14.054  1.00  0.00    -0.036 A 
HETATM   22  C30 UNL     1       1.289  -1.577  14.139  1.00  0.00     0.012 A 
HETATM   23  C31 UNL     1       2.065  -0.431  13.977  1.00  0.00     0.008 A 
BRANCH  21  24
HETATM   24  C28 UNL     1       1.019  -4.075  14.219  1.00  0.00     0.025 C 
HETATM   25  C29 UNL     1       1.179  -5.207  14.780  1.00  0.00     0.132 C 
BRANCH  25  26
HETATM   26  S1  UNL     1       2.468  -5.872  15.678  1.00  0.00     0.246 S 
HETATM   27  O2  UNL     1       1.934  -7.154  16.402  1.00  0.00    -0.202 OA
HETATM   28  O3  UNL     1       2.944  -5.010  16.786  1.00  0.00    -0.202 OA
BRANCH  26  29
HETATM   29  N6  UNL     1       3.787  -6.403  14.675  1.00  0.00    -0.325 N 
ATOM     30  H62 UNL     1       3.766  -6.339  13.657  1.00  0.00     0.169 HD
ATOM     31  H61 UNL     1       4.568  -6.778  15.213  1.00  0.00     0.169 HD
ENDBRANCH  26  29
ENDBRANCH  25  26
ENDBRANCH  21  24
ENDBRANCH  17  18
ENDBRANCH  13  17
ENDBRANCH  11  12
ENDBRANCH   1  11
BRANCH   6  32
HETATM   32  C10 UNL     1       8.359  -7.403  17.231  1.00  0.00     0.116 A 
HETATM   33  N2  UNL     1       8.309  -7.857  18.491  1.00  0.00    -0.340 N 
HETATM   34  C11 UNL     1       8.640  -9.182  18.518  1.00  0.00     0.061 A 
ATOM     35  H2  UNL     1       8.061  -7.297  19.306  1.00  0.00     0.167 HD
HETATM   36  C12 UNL     1       8.742 -10.107  19.530  1.00  0.00     0.046 A 
HETATM   37  C17 UNL     1       8.898  -9.524  17.210  1.00  0.00     0.060 A 
HETATM   38  C13 UNL     1       9.112 -11.425  19.253  1.00  0.00     0.007 A 
HETATM   39  C15 UNL     1       9.362 -11.724  17.931  1.00  0.00     0.017 A 
HETATM   40  C16 UNL     1       9.272 -10.838  16.901  1.00  0.00     0.033 A 
HETATM   41  N5  UNL     1       8.721  -8.436  16.461  1.00  0.00    -0.340 N 
ATOM     42  H5  UNL     1       8.843  -8.396  15.449  1.00  0.00     0.167 HD
BRANCH  38  43
HETATM   43  C14 UNL     1       9.220 -12.399  20.320  1.00  0.00     0.120 C 
HETATM   44  N3  UNL     1      10.167 -13.238  20.361  1.00  0.00    -0.387 N 
ATOM     45  H32 UNL     1      10.869 -13.226  19.622  1.00  0.00     0.157 HD
ATOM     46  H31 UNL     1      10.243 -13.924  21.112  1.00  0.00     0.157 HD
HETATM   47  N4  UNL     1       8.241 -12.417  21.349  1.00  0.00    -0.082 NA
ENDBRANCH  38  43
ENDBRANCH   6  32
TORSDOF 10
ENDMDL
MODEL 5
REMARK VINA RESULT: -10.469422641      3.132      9.580
REMARK  10 active torsions:
REMARK  status: ('A' for Active; 'I' for Inactive)
REMARK    1  A    between atoms: C2_2  and  N1_3 
REMARK    2  A    between atoms: N1_3  and  C3_4 
REMARK       I    between atoms: N1_3  and  C22_31 
REMARK    3  A    between atoms: C3_4  and  C4_5 
REMARK    4  A    between atoms: C9_10  and  C10_11 
REMARK    5  A    between atoms: C13_16  and  C14_17 
REMARK    6  A    between atoms: C22_31  and  C23_33 
REMARK    7  A    between atoms: C23_33  and  C24_34 
REMARK    8  A    between atoms: C27_37  and  C28_38 
REMARK    9  A    between atoms: C29_39  and  S1_40 
REMARK   10  A    between atoms: S1_40  and  N6_41 
ROOT
HETATM    1  C4  UNL     1       7.763   2.794  11.635  1.00  0.00    -0.039 A 
HETATM    2  C5  UNL     1       9.008   2.243  11.437  1.00  0.00     0.010 A 
HETATM    3  C6  UNL     1       9.385   1.053  12.072  1.00  0.00     0.013 A 
HETATM    4  C7  UNL     1       8.504   0.408  12.913  1.00  0.00    -0.025 A 
HETATM    5  C8  UNL     1       8.857  -0.781  13.559  1.00  0.00     0.027 A 
HETATM    6  C9  UNL     1       7.991  -1.434  14.399  1.00  0.00     0.009 A 
HETATM    7  C18 UNL     1       6.743  -0.887  14.601  1.00  0.00     0.016 A 
HETATM    8  C19 UNL     1       6.376   0.293  13.967  1.00  0.00     0.013 A 
HETATM    9  C20 UNL     1       7.254   0.938  13.126  1.00  0.00    -0.025 A 
HETATM   10  C21 UNL     1       6.902   2.124  12.483  1.00  0.00     0.021 A 
ENDROOT
BRANCH   1  11
HETATM   11  C3  UNL     1       7.344   4.048  10.978  1.00  0.00     0.164 C 
BRANCH  11  12
HETATM   12  N1  UNL     1       6.071   3.978  10.308  1.00  0.00    -0.348 N 
HETATM   13  C22 UNL     1       4.890   4.367  10.970  1.00  0.00     0.224 C 
HETATM   14  O1  UNL     1       4.957   4.775  12.152  1.00  0.00    -0.273 OA
BRANCH  12  15
HETATM   15  C2  UNL     1       5.949   3.502   8.922  1.00  0.00     0.121 C 
HETATM   16  C1  UNL     1       7.190   3.784   8.126  1.00  0.00     0.026 C 
ENDBRANCH  12  15
BRANCH  13  17
HETATM   17  C23 UNL     1       3.551   4.314  10.323  1.00  0.00     0.141 C 
BRANCH  17  18
HETATM   18  C24 UNL     1       2.700   3.252  10.935  1.00  0.00    -0.049 A 
HETATM   19  C25 UNL     1       3.205   2.008  11.187  1.00  0.00     0.008 A 
HETATM   20  C26 UNL     1       2.456   1.012  11.745  1.00  0.00     0.012 A 
HETATM   21  C27 UNL     1       1.103   1.222  12.092  1.00  0.00    -0.036 A 
HETATM   22  C30 UNL     1       0.639   2.487  11.820  1.00  0.00     0.012 A 
HETATM   23  C31 UNL     1       1.402   3.504  11.252  1.00  0.00     0.008 A 
BRANCH  21  24
HETATM   24  C28 UNL     1       0.367   0.140  12.681  1.00  0.00     0.025 C 
HETATM   25  C29 UNL     1       0.610  -0.863  13.426  1.00  0.00     0.132 C 
BRANCH  25  26
HETATM   26  S1  UNL     1       2.048  -1.446  14.136  1.00  0.00     0.246 S 
HETATM   27  O2  UNL     1       2.890  -2.138  13.012  1.00  0.00    -0.202 OA
HETATM   28  O3  UNL     1       1.837  -2.521  15.136  1.00  0.00    -0.202 OA
BRANCH  26  29
HETATM   29  N6  UNL     1       3.050  -0.175  14.773  1.00  0.00    -0.325 N 
ATOM     30  H62 UNL     1       3.685  -0.315  15.559  1.00  0.00     0.169 HD
ATOM     31  H61 UNL     1       2.931   0.709  14.278  1.00  0.00     0.169 HD
ENDBRANCH  26  29
ENDBRANCH  25  26
ENDBRANCH  21  24
ENDBRANCH  17  18
ENDBRANCH  13  17
ENDBRANCH  11  12
ENDBRANCH   1  11
BRANCH   6  32
HETATM   32  C10 UNL     1       8.376  -2.691  15.081  1.00  0.00     0.116 A 
HETATM   33  N2  UNL     1       7.622  -3.787  15.241  1.00  0.00    -0.340 N 
HETATM   34  C11 UNL     1       8.329  -4.738  15.922  1.00  0.00     0.061 A 
ATOM     35  H2  UNL     1       6.666  -3.895  14.906  1.00  0.00     0.167 HD
HETATM   36  C12 UNL     1       8.032  -6.014  16.339  1.00  0.00     0.046 A 
HETATM   37  C17 UNL     1       9.558  -4.173  16.174  1.00  0.00     0.060 A 
HETATM   38  C13 UNL     1       8.977  -6.772  17.034  1.00  0.00     0.007 A 
HETATM   39  C15 UNL     1      10.193  -6.168  17.266  1.00  0.00     0.017 A 
HETATM   40  C16 UNL     1      10.527  -4.908  16.869  1.00  0.00     0.033 A 
HETATM   41  N5  UNL     1       9.557  -2.945  15.657  1.00  0.00    -0.340 N 
ATOM     42  H5  UNL     1      10.341  -2.293  15.696  1.00  0.00     0.167 HD
BRANCH  38  43
HETATM   43  C14 UNL     1       8.662  -8.116  17.474  1.00  0.00     0.120 C 
HETATM   44  N3  UNL     1       8.429  -8.379  18.690  1.00  0.00    -0.387 N 
ATOM     45  H32 UNL     1       8.464  -7.624  19.374  1.00  0.00     0.157 HD
ATOM     46  H31 UNL     1       8.207  -9.326  19.001  1.00  0.00     0.157 HD
HETATM   47  N4  UNL     1       8.614  -9.169  16.521  1.00  0.00    -0.082 NA
ENDBRANCH  38  43
ENDBRANCH   6  32
TORSDOF 10
ENDMDL
