MODEL 1
REMARK VINA RESULT: -9.889127699      0.000      0.000
REMARK  10 active torsions:
REMARK  status: ('A' for Active; 'I' for Inactive)
REMARK    1  A    between atoms: C2_2  and  C3_3 
REMARK    2  A    between atoms: C3_3  and  C4_4 
REMARK    3  A    between atoms: C4_4  and  C5_5 
REMARK    4  A    between atoms: C5_5  and  C6_6 
REMARK    5  A    between atoms: C8_11  and  C9_12 
REMARK    6  A    between atoms: C9_12  and  C10_13 
REMARK    7  A    between atoms: C19_26  and  O2_27 
REMARK    8  A    between atoms: C20_29  and  C21_30 
REMARK    9  A    between atoms: C21_30  and  C22_31 
REMARK   10  A    between atoms: C29_41  and  C30_42 
ROOT
HETATM    1  C6  UNL     1       2.911  -1.158  13.619  1.00  0.00     0.176 C 
HETATM    2  N1  UNL     1       3.600  -0.558  14.776  1.00  0.00    -0.346 N 
ATOM      3  H1  UNL     1       3.013  -0.129  15.491  1.00  0.00     0.163 HD
HETATM    4  C7  UNL     1       4.978  -0.522  14.985  1.00  0.00     0.241 C 
HETATM    5  O1  UNL     1       5.424  -0.481  16.155  1.00  0.00    -0.271 OA
HETATM    6  C8  UNL     1       5.946  -0.524  13.865  1.00  0.00     0.179 C 
HETATM    7  N3  UNL     1       7.096  -1.360  14.054  1.00  0.00    -0.359 N 
ATOM      8  H3  UNL     1       7.862  -1.170  13.407  1.00  0.00     0.162 HD
HETATM    9  C19 UNL     1       7.358  -2.389  14.964  1.00  0.00     0.135 C 
HETATM   10  C20 UNL     1       6.715  -3.706  15.143  1.00  0.00     0.159 C 
HETATM   11  N4  UNL     1       6.199  -3.812  16.520  1.00  0.00    -0.349 N 
ATOM     12  H4  UNL     1       6.445  -3.037  17.135  1.00  0.00     0.163 HD
HETATM   13  C25 UNL     1       5.437  -4.796  17.099  1.00  0.00     0.222 C 
HETATM   14  O3  UNL     1       5.924  -5.338  18.176  1.00  0.00    -0.273 OA
HETATM   15  C26 UNL     1       4.113  -5.344  16.676  1.00  0.00     0.076 C 
HETATM   16  C27 UNL     1       4.282  -6.435  15.658  1.00  0.00     0.020 C 
HETATM   17  C28 UNL     1       3.072  -4.337  16.411  1.00  0.00     0.046 C 
HETATM   18  C29 UNL     1       2.647  -4.065  15.011  1.00  0.00     0.146 C 
HETATM   19  N5  UNL     1       1.756  -2.893  15.102  1.00  0.00    -0.348 N 
ATOM     20  H5  UNL     1       1.140  -2.840  15.913  1.00  0.00     0.163 HD
HETATM   21  C31 UNL     1       1.683  -1.846  14.173  1.00  0.00     0.241 C 
HETATM   22  O5  UNL     1       0.544  -1.475  13.799  1.00  0.00    -0.271 OA
ENDROOT
BRANCH   6  23
HETATM   23  C9  UNL     1       6.414   0.940  13.825  1.00  0.00     0.075 C 
BRANCH  23  24
HETATM   24  C10 UNL     1       6.767   1.457  12.514  1.00  0.00    -0.028 A 
HETATM   25  C11 UNL     1       7.815   1.302  11.667  1.00  0.00     0.096 A 
HETATM   26  N2  UNL     1       7.601   2.032  10.573  1.00  0.00    -0.364 N 
HETATM   27  C12 UNL     1       6.441   2.680  10.640  1.00  0.00     0.049 A 
ATOM     28  H2  UNL     1       8.245   2.087   9.783  1.00  0.00     0.165 HD
HETATM   29  C13 UNL     1       5.746   3.546   9.793  1.00  0.00    -0.034 A 
HETATM   30  C18 UNL     1       5.890   2.341  11.852  1.00  0.00    -0.001 A 
HETATM   31  C14 UNL     1       6.337   3.910   8.489  1.00  0.00     0.050 C 
HETATM   32  C15 UNL     1       4.518   4.076  10.127  1.00  0.00     0.009 A 
HETATM   33  C16 UNL     1       3.976   3.735  11.330  1.00  0.00     0.002 A 
HETATM   34  C17 UNL     1       4.661   2.882  12.165  1.00  0.00     0.014 A 
ENDBRANCH  23  24
ENDBRANCH   6  23
BRANCH   9  35
HETATM   35  O2  UNL     1       8.324  -2.198  15.817  1.00  0.00    -0.348 OA
ATOM     36  H2  UNL     1       8.254  -2.635  16.658  1.00  0.00     0.219 HD
ENDBRANCH   9  35
BRANCH   1  37
HETATM   37  C5  UNL     1       2.506   0.031  12.779  1.00  0.00     0.035 C 
BRANCH  37  38
HETATM   38  C4  UNL     1       2.939   0.038  11.367  1.00  0.00     0.002 C 
BRANCH  38  39
HETATM   39  C3  UNL     1       1.740   0.572  10.561  1.00  0.00    -0.000 C 
BRANCH  39  40
HETATM   40  C2  UNL     1       0.696   1.144  11.474  1.00  0.00    -0.005 C 
HETATM   41  C1  UNL     1       0.388   2.571  11.115  1.00  0.00     0.005 C 
ENDBRANCH  39  40
ENDBRANCH  38  39
ENDBRANCH  37  38
ENDBRANCH   1  37
BRANCH  10  42
HETATM   42  C21 UNL     1       7.695  -4.820  14.890  1.00  0.00     0.037 C 
BRANCH  42  43
HETATM   43  C22 UNL     1       8.720  -5.142  15.876  1.00  0.00    -0.020 C 
HETATM   44  C23 UNL     1       8.690  -6.421  16.609  1.00  0.00     0.009 C 
HETATM   45  C24 UNL     1      10.101  -4.901  15.245  1.00  0.00     0.009 C 
ENDBRANCH  42  43
ENDBRANCH  10  42
BRANCH  18  46
HETATM   46  C30 UNL     1       1.776  -5.128  14.418  1.00  0.00     0.256 C 
HETATM   47  O4  UNL     1       0.563  -5.130  14.668  1.00  0.00    -0.305 OA
ENDBRANCH  18  46
TORSDOF 10
ENDMDL
MODEL 2
REMARK VINA RESULT: -9.621869262      0.822      1.660
REMARK  10 active torsions:
REMARK  status: ('A' for Active; 'I' for Inactive)
REMARK    1  A    between atoms: C2_2  and  C3_3 
REMARK    2  A    between atoms: C3_3  and  C4_4 
REMARK    3  A    between atoms: C4_4  and  C5_5 
REMARK    4  A    between atoms: C5_5  and  C6_6 
REMARK    5  A    between atoms: C8_11  and  C9_12 
REMARK    6  A    between atoms: C9_12  and  C10_13 
REMARK    7  A    between atoms: C19_26  and  O2_27 
REMARK    8  A    between atoms: C20_29  and  C21_30 
REMARK    9  A    between atoms: C21_30  and  C22_31 
REMARK   10  A    between atoms: C29_41  and  C30_42 
ROOT
HETATM    1  C6  UNL     1       2.887  -1.162  13.745  1.00  0.00     0.176 C 
HETATM    2  N1  UNL     1       3.541  -0.617  14.948  1.00  0.00    -0.346 N 
ATOM      3  H1  UNL     1       2.933  -0.224  15.666  1.00  0.00     0.163 HD
HETATM    4  C7  UNL     1       4.912  -0.588  15.197  1.00  0.00     0.241 C 
HETATM    5  O1  UNL     1       5.325  -0.602  16.381  1.00  0.00    -0.271 OA
HETATM    6  C8  UNL     1       5.911  -0.535  14.106  1.00  0.00     0.179 C 
HETATM    7  N3  UNL     1       7.058  -1.378  14.288  1.00  0.00    -0.359 N 
ATOM      8  H3  UNL     1       7.842  -1.155  13.674  1.00  0.00     0.162 HD
HETATM    9  C19 UNL     1       7.297  -2.448  15.155  1.00  0.00     0.135 C 
HETATM   10  C20 UNL     1       6.654  -3.773  15.253  1.00  0.00     0.159 C 
HETATM   11  N4  UNL     1       6.099  -3.946  16.607  1.00  0.00    -0.349 N 
ATOM     12  H4  UNL     1       6.326  -3.201  17.266  1.00  0.00     0.163 HD
HETATM   13  C25 UNL     1       5.324  -4.958  17.117  1.00  0.00     0.222 C 
HETATM   14  O3  UNL     1       5.782  -5.550  18.180  1.00  0.00    -0.273 OA
HETATM   15  C26 UNL     1       4.014  -5.487  16.631  1.00  0.00     0.076 C 
HETATM   16  C27 UNL     1       4.216  -6.528  15.566  1.00  0.00     0.020 C 
HETATM   17  C28 UNL     1       2.979  -4.470  16.384  1.00  0.00     0.046 C 
HETATM   18  C29 UNL     1       2.593  -4.132  14.987  1.00  0.00     0.146 C 
HETATM   19  N5  UNL     1       1.696  -2.968  15.109  1.00  0.00    -0.348 N 
ATOM     20  H5  UNL     1       1.056  -2.955  15.904  1.00  0.00     0.163 HD
HETATM   21  C31 UNL     1       1.646  -1.877  14.229  1.00  0.00     0.241 C 
HETATM   22  O5  UNL     1       0.517  -1.490  13.841  1.00  0.00    -0.271 OA
ENDROOT
BRANCH   6  23
HETATM   23  C9  UNL     1       6.376   0.930  14.150  1.00  0.00     0.075 C 
BRANCH  23  24
HETATM   24  C10 UNL     1       6.338   1.646  12.886  1.00  0.00    -0.028 A 
HETATM   25  C11 UNL     1       5.406   2.366  12.214  1.00  0.00     0.096 A 
HETATM   26  N2  UNL     1       5.937   2.806  11.073  1.00  0.00    -0.364 N 
HETATM   27  C12 UNL     1       7.201   2.413  10.942  1.00  0.00     0.049 A 
ATOM     28  H2  UNL     1       5.437   3.372  10.387  1.00  0.00     0.165 HD
HETATM   29  C13 UNL     1       8.194   2.597   9.978  1.00  0.00    -0.034 A 
HETATM   30  C18 UNL     1       7.486   1.679  12.068  1.00  0.00    -0.001 A 
HETATM   31  C14 UNL     1       7.890   3.388   8.768  1.00  0.00     0.050 C 
HETATM   32  C15 UNL     1       9.459   2.067  10.113  1.00  0.00     0.009 A 
HETATM   33  C16 UNL     1       9.737   1.340  11.232  1.00  0.00     0.002 A 
HETATM   34  C17 UNL     1       8.757   1.158  12.182  1.00  0.00     0.014 A 
ENDBRANCH  23  24
ENDBRANCH   6  23
BRANCH   9  35
HETATM   35  O2  UNL     1       8.238  -2.296  16.044  1.00  0.00    -0.348 OA
ATOM     36  H2  UNL     1       8.113  -1.619  16.698  1.00  0.00     0.219 HD
ENDBRANCH   9  35
BRANCH   1  37
HETATM   37  C5  UNL     1       2.502   0.066  12.951  1.00  0.00     0.035 C 
BRANCH  37  38
HETATM   38  C4  UNL     1       2.922   0.113  11.536  1.00  0.00     0.002 C 
BRANCH  38  39
HETATM   39  C3  UNL     1       1.645   0.414  10.727  1.00  0.00    -0.000 C 
BRANCH  39  40
HETATM   40  C2  UNL     1       0.604   1.055  11.596  1.00  0.00    -0.005 C 
HETATM   41  C1  UNL     1       0.141   2.361  11.009  1.00  0.00     0.005 C 
ENDBRANCH  39  40
ENDBRANCH  38  39
ENDBRANCH  37  38
ENDBRANCH   1  37
BRANCH  10  42
HETATM   42  C21 UNL     1       7.644  -4.872  14.974  1.00  0.00     0.037 C 
BRANCH  42  43
HETATM   43  C22 UNL     1       8.713  -5.163  15.923  1.00  0.00    -0.020 C 
HETATM   44  C23 UNL     1       8.713  -6.414  16.703  1.00  0.00     0.009 C 
HETATM   45  C24 UNL     1      10.063  -4.951  15.220  1.00  0.00     0.009 C 
ENDBRANCH  42  43
ENDBRANCH  10  42
BRANCH  18  46
HETATM   46  C30 UNL     1       1.742  -5.167  14.320  1.00  0.00     0.256 C 
HETATM   47  O4  UNL     1       0.549  -5.269  14.634  1.00  0.00    -0.305 OA
ENDBRANCH  18  46
TORSDOF 10
ENDMDL
MODEL 3
REMARK VINA RESULT: -9.394236597      2.009      9.233
REMARK  10 active torsions:
REMARK  status: ('A' for Active; 'I' for Inactive)
REMARK    1  A    between atoms: C2_2  and  C3_3 
REMARK    2  A    between atoms: C3_3  and  C4_4 
REMARK    3  A    between atoms: C4_4  and  C5_5 
REMARK    4  A    between atoms: C5_5  and  C6_6 
REMARK    5  A    between atoms: C8_11  and  C9_12 
REMARK    6  A    between atoms: C9_12  and  C10_13 
REMARK    7  A    between atoms: C19_26  and  O2_27 
REMARK    8  A    between atoms: C20_29  and  C21_30 
REMARK    9  A    between atoms: C21_30  and  C22_31 
REMARK   10  A    between atoms: C29_41  and  C30_42 
ROOT
HETATM    1  C6  UNL     1       7.677  -1.787  14.442  1.00  0.00     0.176 C 
HETATM    2  N1  UNL     1       6.838  -1.026  15.386  1.00  0.00    -0.346 N 
ATOM      3  H1  UNL     1       7.322  -0.501  16.114  1.00  0.00     0.163 HD
HETATM    4  C7  UNL     1       5.446  -0.955  15.377  1.00  0.00     0.241 C 
HETATM    5  O1  UNL     1       4.876   0.062  15.837  1.00  0.00    -0.271 OA
HETATM    6  C8  UNL     1       4.604  -2.050  14.843  1.00  0.00     0.179 C 
HETATM    7  N3  UNL     1       3.486  -1.628  14.050  1.00  0.00    -0.359 N 
ATOM      8  H3  UNL     1       2.783  -2.353  13.898  1.00  0.00     0.162 HD
HETATM    9  C19 UNL     1       3.183  -0.404  13.446  1.00  0.00     0.135 C 
HETATM   10  C20 UNL     1       3.871   0.339  12.372  1.00  0.00     0.159 C 
HETATM   11  N4  UNL     1       4.243   1.677  12.867  1.00  0.00    -0.349 N 
ATOM     12  H4  UNL     1       3.892   1.908  13.797  1.00  0.00     0.163 HD
HETATM   13  C25 UNL     1       4.990   2.660  12.267  1.00  0.00     0.222 C 
HETATM   14  O3  UNL     1       4.420   3.823  12.154  1.00  0.00    -0.273 OA
HETATM   15  C26 UNL     1       6.378   2.596  11.719  1.00  0.00     0.076 C 
HETATM   16  C27 UNL     1       6.376   2.094  10.303  1.00  0.00     0.020 C 
HETATM   17  C28 UNL     1       7.387   2.027  12.628  1.00  0.00     0.046 C 
HETATM   18  C29 UNL     1       7.943   0.673  12.361  1.00  0.00     0.146 C 
HETATM   19  N5  UNL     1       8.757   0.353  13.549  1.00  0.00    -0.348 N 
ATOM     20  H5  UNL     1       9.280   1.118  13.974  1.00  0.00     0.163 HD
HETATM   21  C31 UNL     1       8.873  -0.911  14.144  1.00  0.00     0.241 C 
HETATM   22  O5  UNL     1      10.024  -1.315  14.439  1.00  0.00    -0.271 OA
ENDROOT
BRANCH   6  23
HETATM   23  C9  UNL     1       4.066  -2.712  16.123  1.00  0.00     0.075 C 
BRANCH  23  24
HETATM   24  C10 UNL     1       3.805  -4.138  16.037  1.00  0.00    -0.028 A 
HETATM   25  C11 UNL     1       2.842  -4.909  15.473  1.00  0.00     0.096 A 
HETATM   26  N2  UNL     1       3.117  -6.192  15.712  1.00  0.00    -0.364 N 
HETATM   27  C12 UNL     1       4.236  -6.324  16.419  1.00  0.00     0.049 A 
ATOM     28  H2  UNL     1       2.542  -6.972  15.393  1.00  0.00     0.165 HD
HETATM   29  C13 UNL     1       4.962  -7.408  16.919  1.00  0.00    -0.034 A 
HETATM   30  C18 UNL     1       4.695  -5.049  16.642  1.00  0.00    -0.001 A 
HETATM   31  C14 UNL     1       4.470  -8.781  16.679  1.00  0.00     0.050 C 
HETATM   32  C15 UNL     1       6.131  -7.246  17.631  1.00  0.00     0.009 A 
HETATM   33  C16 UNL     1       6.582  -5.979  17.848  1.00  0.00     0.002 A 
HETATM   34  C17 UNL     1       5.866  -4.911  17.356  1.00  0.00     0.014 A 
ENDBRANCH  23  24
ENDBRANCH   6  23
BRANCH   9  35
HETATM   35  O2  UNL     1       2.123   0.224  13.871  1.00  0.00    -0.348 OA
ATOM     36  H2  UNL     1       1.280  -0.180  13.698  1.00  0.00     0.219 HD
ENDBRANCH   9  35
BRANCH   1  37
HETATM   37  C5  UNL     1       8.105  -3.001  15.233  1.00  0.00     0.035 C 
BRANCH  37  38
HETATM   38  C4  UNL     1       8.072  -4.305  14.539  1.00  0.00     0.002 C 
BRANCH  38  39
HETATM   39  C3  UNL     1       9.350  -5.047  14.973  1.00  0.00    -0.000 C 
BRANCH  39  40
HETATM   40  C2  UNL     1       9.969  -4.386  16.169  1.00  0.00    -0.005 C 
HETATM   41  C1  UNL     1      10.303  -5.397  17.231  1.00  0.00     0.005 C 
ENDBRANCH  39  40
ENDBRANCH  38  39
ENDBRANCH  37  38
ENDBRANCH   1  37
BRANCH  10  42
HETATM   42  C21 UNL     1       2.984   0.482  11.164  1.00  0.00     0.037 C 
BRANCH  42  43
HETATM   43  C22 UNL     1       1.839   1.385  11.192  1.00  0.00    -0.020 C 
HETATM   44  C23 UNL     1       1.807   2.592  10.347  1.00  0.00     0.009 C 
HETATM   45  C24 UNL     1       0.556   0.555  11.016  1.00  0.00     0.009 C 
ENDBRANCH  42  43
ENDBRANCH  10  42
BRANCH  18  46
HETATM   46  C30 UNL     1       8.927   0.627  11.234  1.00  0.00     0.256 C 
HETATM   47  O4  UNL     1      10.111   0.920  11.447  1.00  0.00    -0.305 OA
ENDBRANCH  18  46
TORSDOF 10
ENDMDL
MODEL 4
REMARK VINA RESULT: -9.316354124      2.087      9.322
REMARK  10 active torsions:
REMARK  status: ('A' for Active; 'I' for Inactive)
REMARK    1  A    between atoms: C2_2  and  C3_3 
REMARK    2  A    between atoms: C3_3  and  C4_4 
REMARK    3  A    between atoms: C4_4  and  C5_5 
REMARK    4  A    between atoms: C5_5  and  C6_6 
REMARK    5  A    between atoms: C8_11  and  C9_12 
REMARK    6  A    between atoms: C9_12  and  C10_13 
REMARK    7  A    between atoms: C19_26  and  O2_27 
REMARK    8  A    between atoms: C20_29  and  C21_30 
REMARK    9  A    between atoms: C21_30  and  C22_31 
REMARK   10  A    between atoms: C29_41  and  C30_42 
ROOT
HETATM    1  C6  UNL     1       7.532  -1.929  14.369  1.00  0.00     0.176 C 
HETATM    2  N1  UNL     1       6.610  -1.282  15.320  1.00  0.00    -0.346 N 
ATOM      3  H1  UNL     1       7.031  -0.791  16.109  1.00  0.00     0.163 HD
HETATM    4  C7  UNL     1       5.218  -1.277  15.243  1.00  0.00     0.241 C 
HETATM    5  O1  UNL     1       4.576  -0.326  15.746  1.00  0.00    -0.271 OA
HETATM    6  C8  UNL     1       4.460  -2.368  14.589  1.00  0.00     0.179 C 
HETATM    7  N3  UNL     1       3.362  -1.941  13.771  1.00  0.00    -0.359 N 
ATOM      8  H3  UNL     1       2.706  -2.686  13.531  1.00  0.00     0.162 HD
HETATM    9  C19 UNL     1       3.027  -0.691  13.242  1.00  0.00     0.135 C 
HETATM   10  C20 UNL     1       3.727   0.162  12.263  1.00  0.00     0.159 C 
HETATM   11  N4  UNL     1       4.006   1.475  12.871  1.00  0.00    -0.349 N 
ATOM     12  H4  UNL     1       3.598   1.618  13.796  1.00  0.00     0.163 HD
HETATM   13  C25 UNL     1       4.729   2.535  12.384  1.00  0.00     0.222 C 
HETATM   14  O3  UNL     1       4.107   3.674  12.325  1.00  0.00    -0.273 OA
HETATM   15  C26 UNL     1       6.144   2.578  11.906  1.00  0.00     0.076 C 
HETATM   16  C27 UNL     1       6.236   2.183  10.459  1.00  0.00     0.020 C 
HETATM   17  C28 UNL     1       7.135   1.992  12.823  1.00  0.00     0.046 C 
HETATM   18  C29 UNL     1       7.772   0.689  12.488  1.00  0.00     0.146 C 
HETATM   19  N5  UNL     1       8.542   0.320  13.690  1.00  0.00    -0.348 N 
ATOM     20  H5  UNL     1       9.005   1.075  14.197  1.00  0.00     0.163 HD
HETATM   21  C31 UNL     1       8.695  -0.978  14.198  1.00  0.00     0.241 C 
HETATM   22  O5  UNL     1       9.849  -1.347  14.523  1.00  0.00    -0.271 OA
ENDROOT
BRANCH   6  23
HETATM   23  C9  UNL     1       3.896  -3.148  15.788  1.00  0.00     0.075 C 
BRANCH  23  24
HETATM   24  C10 UNL     1       3.722  -4.577  15.589  1.00  0.00    -0.028 A 
HETATM   25  C11 UNL     1       3.825  -5.422  14.534  1.00  0.00     0.096 A 
HETATM   26  N2  UNL     1       3.551  -6.662  14.941  1.00  0.00    -0.364 N 
HETATM   27  C12 UNL     1       3.265  -6.693  16.240  1.00  0.00     0.049 A 
ATOM     28  H2  UNL     1       3.559  -7.482  14.334  1.00  0.00     0.165 HD
HETATM   29  C13 UNL     1       2.926  -7.698  17.150  1.00  0.00    -0.034 A 
HETATM   30  C18 UNL     1       3.362  -5.395  16.679  1.00  0.00    -0.001 A 
HETATM   31  C14 UNL     1       2.823  -9.094  16.679  1.00  0.00     0.050 C 
HETATM   32  C15 UNL     1       2.687  -7.436  18.481  1.00  0.00     0.009 A 
HETATM   33  C16 UNL     1       2.786  -6.146  18.912  1.00  0.00     0.002 A 
HETATM   34  C17 UNL     1       3.119  -5.156  18.015  1.00  0.00     0.014 A 
ENDBRANCH  23  24
ENDBRANCH   6  23
BRANCH   9  35
HETATM   35  O2  UNL     1       1.916  -0.148  13.656  1.00  0.00    -0.348 OA
ATOM     36  H2  UNL     1       1.922   0.790  13.809  1.00  0.00     0.219 HD
ENDBRANCH   9  35
BRANCH   1  37
HETATM   37  C5  UNL     1       7.983  -3.177  15.091  1.00  0.00     0.035 C 
BRANCH  37  38
HETATM   38  C4  UNL     1       8.120  -4.410  14.288  1.00  0.00     0.002 C 
BRANCH  38  39
HETATM   39  C3  UNL     1       9.399  -5.104  14.795  1.00  0.00    -0.000 C 
BRANCH  39  40
HETATM   40  C2  UNL     1       9.896  -4.452  16.051  1.00  0.00    -0.005 C 
HETATM   41  C1  UNL     1      10.476  -5.470  16.994  1.00  0.00     0.005 C 
ENDBRANCH  39  40
ENDBRANCH  38  39
ENDBRANCH  37  38
ENDBRANCH   1  37
BRANCH  10  42
HETATM   42  C21 UNL     1       2.893   0.352  11.023  1.00  0.00     0.037 C 
BRANCH  42  43
HETATM   43  C22 UNL     1       1.769   1.282  11.025  1.00  0.00    -0.020 C 
HETATM   44  C23 UNL     1       1.769   2.471  10.154  1.00  0.00     0.009 C 
HETATM   45  C24 UNL     1       0.469   0.478  10.860  1.00  0.00     0.009 C 
ENDBRANCH  42  43
ENDBRANCH  10  42
BRANCH  18  46
HETATM   46  C30 UNL     1       8.811   0.775  11.414  1.00  0.00     0.256 C 
HETATM   47  O4  UNL     1       9.982   1.040  11.718  1.00  0.00    -0.305 OA
ENDBRANCH  18  46
TORSDOF 10
ENDMDL
MODEL 5
REMARK VINA RESULT: -9.283095797      1.388      1.976
REMARK  10 active torsions:
REMARK  status: ('A' for Active; 'I' for Inactive)
REMARK    1  A    between atoms: C2_2  and  C3_3 
REMARK    2  A    between atoms: C3_3  and  C4_4 
REMARK    3  A    between atoms: C4_4  and  C5_5 
REMARK    4  A    between atoms: C5_5  and  C6_6 
REMARK    5  A    between atoms: C8_11  and  C9_12 
REMARK    6  A    between atoms: C9_12  and  C10_13 
REMARK    7  A    between atoms: C19_26  and  O2_27 
REMARK    8  A    between atoms: C20_29  and  C21_30 
REMARK    9  A    between atoms: C21_30  and  C22_31 
REMARK   10  A    between atoms: C29_41  and  C30_42 
ROOT
HETATM    1  C6  UNL     1       2.816  -2.676  14.315  1.00  0.00     0.176 C 
HETATM    2  N1  UNL     1       3.340  -1.874  15.435  1.00  0.00    -0.346 N 
ATOM      3  H1  UNL     1       2.674  -1.604  16.159  1.00  0.00     0.163 HD
HETATM    4  C7  UNL     1       4.658  -1.451  15.600  1.00  0.00     0.241 C 
HETATM    5  O1  UNL     1       5.103  -1.253  16.754  1.00  0.00    -0.271 OA
HETATM    6  C8  UNL     1       5.561  -1.219  14.450  1.00  0.00     0.179 C 
HETATM    7  N3  UNL     1       6.902  -1.698  14.622  1.00  0.00    -0.359 N 
ATOM      8  H3  UNL     1       7.569  -1.322  13.947  1.00  0.00     0.162 HD
HETATM    9  C19 UNL     1       7.461  -2.586  15.545  1.00  0.00     0.135 C 
HETATM   10  C20 UNL     1       7.214  -4.023  15.774  1.00  0.00     0.159 C 
HETATM   11  N4  UNL     1       6.781  -4.227  17.168  1.00  0.00    -0.349 N 
ATOM     12  H4  UNL     1       6.818  -3.396  17.758  1.00  0.00     0.163 HD
HETATM   13  C25 UNL     1       6.337  -5.365  17.793  1.00  0.00     0.222 C 
HETATM   14  O3  UNL     1       6.982  -5.718  18.865  1.00  0.00    -0.273 OA
HETATM   15  C26 UNL     1       5.208  -6.271  17.424  1.00  0.00     0.076 C 
HETATM   16  C27 UNL     1       5.649  -7.302  16.425  1.00  0.00     0.020 C 
HETATM   17  C28 UNL     1       3.922  -5.600  17.169  1.00  0.00     0.046 C 
HETATM   18  C29 UNL     1       3.405  -5.499  15.777  1.00  0.00     0.146 C 
HETATM   19  N5  UNL     1       2.226  -4.618  15.871  1.00  0.00    -0.348 N 
ATOM     20  H5  UNL     1       1.639  -4.714  16.699  1.00  0.00     0.163 HD
HETATM   21  C31 UNL     1       1.842  -3.661  14.922  1.00  0.00     0.241 C 
HETATM   22  O5  UNL     1       0.636  -3.631  14.576  1.00  0.00    -0.271 OA
ENDROOT
BRANCH   6  23
HETATM   23  C9  UNL     1       5.602   0.316  14.363  1.00  0.00     0.075 C 
BRANCH  23  24
HETATM   24  C10 UNL     1       5.459   0.880  13.032  1.00  0.00    -0.028 A 
HETATM   25  C11 UNL     1       4.512   0.832  12.062  1.00  0.00     0.096 A 
HETATM   26  N2  UNL     1       4.918   1.560  11.022  1.00  0.00    -0.364 N 
HETATM   27  C12 UNL     1       6.110   2.106  11.248  1.00  0.00     0.049 A 
ATOM     28  H2  UNL     1       4.383   1.683  10.162  1.00  0.00     0.165 HD
HETATM   29  C13 UNL     1       6.964   2.940  10.523  1.00  0.00    -0.034 A 
HETATM   30  C18 UNL     1       6.480   1.697  12.506  1.00  0.00    -0.001 A 
HETATM   31  C14 UNL     1       6.567   3.383   9.170  1.00  0.00     0.050 C 
HETATM   32  C15 UNL     1       8.173   3.373  11.025  1.00  0.00     0.009 A 
HETATM   33  C16 UNL     1       8.534   2.965  12.273  1.00  0.00     0.002 A 
HETATM   34  C17 UNL     1       7.693   2.142  12.988  1.00  0.00     0.014 A 
ENDBRANCH  23  24
ENDBRANCH   6  23
BRANCH   9  35
HETATM   35  O2  UNL     1       8.357  -2.109  16.363  1.00  0.00    -0.348 OA
ATOM     36  H2  UNL     1       8.180  -1.261  16.755  1.00  0.00     0.219 HD
ENDBRANCH   9  35
BRANCH   1  37
HETATM   37  C5  UNL     1       2.077  -1.672  13.462  1.00  0.00     0.035 C 
BRANCH  37  38
HETATM   38  C4  UNL     1       1.543  -0.473  14.141  1.00  0.00     0.002 C 
BRANCH  38  39
HETATM   39  C3  UNL     1       0.319  -0.031  13.316  1.00  0.00    -0.000 C 
BRANCH  39  40
HETATM   40  C2  UNL     1       0.741   0.487  11.973  1.00  0.00    -0.005 C 
HETATM   41  C1  UNL     1       0.480   1.963  11.857  1.00  0.00     0.005 C 
ENDBRANCH  39  40
ENDBRANCH  38  39
ENDBRANCH  37  38
ENDBRANCH   1  37
BRANCH  10  42
HETATM   42  C21 UNL     1       8.459  -4.829  15.514  1.00  0.00     0.037 C 
BRANCH  42  43
HETATM   43  C22 UNL     1       9.080  -5.597  16.588  1.00  0.00    -0.020 C 
HETATM   44  C23 UNL     1       9.328  -7.042  16.440  1.00  0.00     0.009 C 
HETATM   45  C24 UNL     1      10.353  -4.862  17.042  1.00  0.00     0.009 C 
ENDBRANCH  42  43
ENDBRANCH  10  42
BRANCH  18  46
HETATM   46  C30 UNL     1       2.849  -6.779  15.236  1.00  0.00     0.256 C 
HETATM   47  O4  UNL     1       2.179  -7.513  15.976  1.00  0.00    -0.305 OA
ENDBRANCH  18  46
TORSDOF 10
ENDMDL
