MODEL 1
REMARK VINA RESULT: -5.999667756      0.000      0.000
REMARK  5 active torsions:
REMARK  status: ('A' for Active; 'I' for Inactive)
REMARK    1  A    between atoms: N1_1  and  C1_4 
REMARK    2  A    between atoms: C5_18  and  N8_19 
REMARK    3  A    between atoms: N8_19  and  C6_21 
REMARK    4  A    between atoms: C6_21  and  C7_22 
REMARK    5  A    between atoms: C7_22  and  N9_23 
ROOT
HETATM    1  C1  UNL     1      31.724   4.452  41.389  1.00  0.00     0.126 C 
HETATM    2  N2  UNL     1      32.597   5.510  41.180  1.00  0.00    -0.082 NA
HETATM    3  C2  UNL     1      31.897   3.037  41.239  1.00  0.00     0.079 A 
HETATM    4  C3  UNL     1      30.876   2.084  41.500  1.00  0.00     0.135 A 
HETATM    5 CL1  UNL     1      29.269   2.522  42.038  1.00  0.00    -0.062 Cl
HETATM    6  N3  UNL     1      31.361   0.874  41.269  1.00  0.00    -0.267 N 
ATOM      7  H3  UNL     1      30.845   0.000  41.375  1.00  0.00     0.190 HD
HETATM    8  N4  UNL     1      32.620   0.977  40.876  1.00  0.00    -0.189 N 
HETATM    9  N5  UNL     1      33.508   0.052  40.537  1.00  0.00    -0.251 N 
ATOM     10  H5  UNL     1      33.227  -0.927  40.562  1.00  0.00     0.192 HD
HETATM   11  C4  UNL     1      34.753   0.350  40.165  1.00  0.00     0.210 A 
HETATM   12  N6  UNL     1      35.699  -0.655  39.802  1.00  0.00    -0.062 NA
HETATM   13  N7  UNL     1      35.131   1.628  40.128  1.00  0.00    -0.314 N 
ATOM     14  H7  UNL     1      36.083   1.856  39.842  1.00  0.00     0.170 HD
HETATM   15  C5  UNL     1      34.276   2.639  40.462  1.00  0.00     0.135 A 
HETATM   16  C8  UNL     1      32.981   2.286  40.847  1.00  0.00     0.135 A 
ENDROOT
BRANCH  15  17
HETATM   17  N8  UNL     1      34.658   3.847  40.419  1.00  0.00    -0.373 N 
ATOM     18  H8  UNL     1      33.966   4.570  40.619  1.00  0.00     0.161 HD
BRANCH  17  19
HETATM   19  C6  UNL     1      35.971   4.264  40.115  1.00  0.00     0.148 C 
BRANCH  19  20
HETATM   20  C7  UNL     1      35.966   5.280  38.990  1.00  0.00     0.249 C 
BRANCH  20  21
HETATM   21  N9  UNL     1      35.936   4.550  37.744  1.00  0.00    -0.078 N 
ATOM     22  H93 UNL     1      36.325   3.610  37.824  1.00  0.00     0.274 HD
ATOM     23  H92 UNL     1      34.992   4.280  37.464  1.00  0.00     0.274 HD
ATOM     24  H91 UNL     1      36.411   5.118  37.043  1.00  0.00     0.274 HD
ENDBRANCH  20  21
ENDBRANCH  19  20
ENDBRANCH  17  19
ENDBRANCH  15  17
BRANCH   1  25
HETATM   25  N1  UNL     1      30.513   4.837  41.802  1.00  0.00    -0.387 N 
ATOM     26  H12 UNL     1      30.184   5.723  41.418  1.00  0.00     0.157 HD
ATOM     27  H11 UNL     1      30.079   4.182  42.453  1.00  0.00     0.157 HD
ENDBRANCH   1  25
TORSDOF 5
ENDMDL
MODEL 2
REMARK VINA RESULT: -5.854134212      4.364      6.749
REMARK  5 active torsions:
REMARK  status: ('A' for Active; 'I' for Inactive)
REMARK    1  A    between atoms: N1_1  and  C1_4 
REMARK    2  A    between atoms: C5_18  and  N8_19 
REMARK    3  A    between atoms: N8_19  and  C6_21 
REMARK    4  A    between atoms: C6_21  and  C7_22 
REMARK    5  A    between atoms: C7_22  and  N9_23 
ROOT
HETATM    1  C1  UNL     1      35.715  -1.081  40.596  1.00  0.00     0.126 C 
HETATM    2  N2  UNL     1      35.104  -0.026  39.935  1.00  0.00    -0.082 NA
HETATM    3  C2  UNL     1      35.365  -2.469  40.691  1.00  0.00     0.079 A 
HETATM    4  C3  UNL     1      36.117  -3.424  41.426  1.00  0.00     0.135 A 
HETATM    5 CL1  UNL     1      37.569  -3.023  42.318  1.00  0.00    -0.062 Cl
HETATM    6  N3  UNL     1      35.530  -4.605  41.305  1.00  0.00    -0.267 N 
ATOM      7  H3  UNL     1      35.855  -5.473  41.731  1.00  0.00     0.190 HD
HETATM    8  N4  UNL     1      34.454  -4.481  40.546  1.00  0.00    -0.189 N 
HETATM    9  N5  UNL     1      33.559  -5.373  40.146  1.00  0.00    -0.251 N 
ATOM     10  H5  UNL     1      33.667  -6.341  40.448  1.00  0.00     0.192 HD
HETATM   11  C4  UNL     1      32.525  -5.058  39.366  1.00  0.00     0.210 A 
HETATM   12  N6  UNL     1      31.568  -6.029  38.942  1.00  0.00    -0.062 NA
HETATM   13  N7  UNL     1      32.375  -3.795  38.966  1.00  0.00    -0.314 N 
ATOM     14  H7  UNL     1      31.583  -3.554  38.370  1.00  0.00     0.170 HD
HETATM   15  C5  UNL     1      33.253  -2.817  39.335  1.00  0.00     0.135 A 
HETATM   16  C8  UNL     1      34.323  -3.187  40.152  1.00  0.00     0.135 A 
ENDROOT
BRANCH  15  17
HETATM   17  N8  UNL     1      33.090  -1.622  38.943  1.00  0.00    -0.373 N 
ATOM     18  H8  UNL     1      33.909  -1.119  38.602  1.00  0.00     0.161 HD
BRANCH  17  19
HETATM   19  C6  UNL     1      31.856  -0.939  38.943  1.00  0.00     0.148 C 
BRANCH  19  20
HETATM   20  C7  UNL     1      31.538  -0.404  40.326  1.00  0.00     0.249 C 
BRANCH  20  21
HETATM   21  N9  UNL     1      32.154   0.897  40.443  1.00  0.00    -0.078 N 
ATOM     22  H93 UNL     1      33.012   0.882  40.995  1.00  0.00     0.274 HD
ATOM     23  H92 UNL     1      32.564   1.222  39.567  1.00  0.00     0.274 HD
ATOM     24  H91 UNL     1      31.453   1.537  40.815  1.00  0.00     0.274 HD
ENDBRANCH  20  21
ENDBRANCH  19  20
ENDBRANCH  17  19
ENDBRANCH  15  17
BRANCH   1  25
HETATM   25  N1  UNL     1      36.820  -0.726  41.258  1.00  0.00    -0.387 N 
ATOM     26  H12 UNL     1      37.134   0.230  41.096  1.00  0.00     0.157 HD
ATOM     27  H11 UNL     1      37.201  -1.472  41.840  1.00  0.00     0.157 HD
ENDBRANCH   1  25
TORSDOF 5
ENDMDL
MODEL 3
REMARK VINA RESULT: -5.807874498      2.332      5.458
REMARK  5 active torsions:
REMARK  status: ('A' for Active; 'I' for Inactive)
REMARK    1  A    between atoms: N1_1  and  C1_4 
REMARK    2  A    between atoms: C5_18  and  N8_19 
REMARK    3  A    between atoms: N8_19  and  C6_21 
REMARK    4  A    between atoms: C6_21  and  C7_22 
REMARK    5  A    between atoms: C7_22  and  N9_23 
ROOT
HETATM    1  C1  UNL     1      34.507   2.242  40.344  1.00  0.00     0.126 C 
HETATM    2  N2  UNL     1      34.323   0.922  39.957  1.00  0.00    -0.082 NA
HETATM    3  C2  UNL     1      33.576   3.233  40.801  1.00  0.00     0.079 A 
HETATM    4  C3  UNL     1      33.946   4.557  41.157  1.00  0.00     0.135 A 
HETATM    5 CL1  UNL     1      35.591   5.149  41.079  1.00  0.00    -0.062 Cl
HETATM    6  N3  UNL     1      32.858   5.210  41.537  1.00  0.00    -0.267 N 
ATOM      7  H3  UNL     1      32.829   6.181  41.847  1.00  0.00     0.190 HD
HETATM    8  N4  UNL     1      31.814   4.402  41.451  1.00  0.00    -0.189 N 
HETATM    9  N5  UNL     1      30.531   4.601  41.721  1.00  0.00    -0.251 N 
ATOM     10  H5  UNL     1      30.239   5.519  42.056  1.00  0.00     0.192 HD
HETATM   11  C4  UNL     1      29.607   3.651  41.574  1.00  0.00     0.210 A 
HETATM   12  N6  UNL     1      28.229   3.879  41.868  1.00  0.00    -0.062 NA
HETATM   13  N7  UNL     1      29.978   2.448  41.136  1.00  0.00    -0.314 N 
ATOM     14  H7  UNL     1      29.272   1.721  41.022  1.00  0.00     0.170 HD
HETATM   15  C5  UNL     1      31.279   2.163  40.836  1.00  0.00     0.135 A 
HETATM   16  C8  UNL     1      32.217   3.185  41.003  1.00  0.00     0.135 A 
ENDROOT
BRANCH  15  17
HETATM   17  N8  UNL     1      31.609   1.012  40.421  1.00  0.00    -0.373 N 
ATOM     18  H8  UNL     1      32.288   0.958  39.662  1.00  0.00     0.161 HD
BRANCH  17  19
HETATM   19  C6  UNL     1      31.104  -0.201  40.934  1.00  0.00     0.148 C 
BRANCH  19  20
HETATM   20  C7  UNL     1      31.721  -1.387  40.219  1.00  0.00     0.249 C 
BRANCH  20  21
HETATM   21  N9  UNL     1      32.098  -0.950  38.895  1.00  0.00    -0.078 N 
ATOM     22  H93 UNL     1      31.873  -1.634  38.171  1.00  0.00     0.274 HD
ATOM     23  H92 UNL     1      31.514  -0.189  38.546  1.00  0.00     0.274 HD
ATOM     24  H91 UNL     1      33.089  -0.710  38.920  1.00  0.00     0.274 HD
ENDBRANCH  20  21
ENDBRANCH  19  20
ENDBRANCH  17  19
ENDBRANCH  15  17
BRANCH   1  25
HETATM   25  N1  UNL     1      35.778   2.645  40.270  1.00  0.00    -0.387 N 
ATOM     26  H12 UNL     1      35.917   3.654  40.313  1.00  0.00     0.157 HD
ATOM     27  H11 UNL     1      36.443   1.876  40.179  1.00  0.00     0.157 HD
ENDBRANCH   1  25
TORSDOF 5
ENDMDL
MODEL 4
REMARK VINA RESULT: -5.742260323      2.165      4.403
REMARK  5 active torsions:
REMARK  status: ('A' for Active; 'I' for Inactive)
REMARK    1  A    between atoms: N1_1  and  C1_4 
REMARK    2  A    between atoms: C5_18  and  N8_19 
REMARK    3  A    between atoms: N8_19  and  C6_21 
REMARK    4  A    between atoms: C6_21  and  C7_22 
REMARK    5  A    between atoms: C7_22  and  N9_23 
ROOT
HETATM    1  C1  UNL     1      34.748  -0.858  39.743  1.00  0.00     0.126 C 
HETATM    2  N2  UNL     1      35.978  -0.333  40.109  1.00  0.00    -0.082 NA
HETATM    3  C2  UNL     1      33.415  -0.359  39.918  1.00  0.00     0.079 A 
HETATM    4  C3  UNL     1      32.251  -1.044  39.474  1.00  0.00     0.135 A 
HETATM    5 CL1  UNL     1      32.300  -2.591  38.659  1.00  0.00    -0.062 Cl
HETATM    6  N3  UNL     1      31.191  -0.314  39.785  1.00  0.00    -0.267 N 
ATOM      7  H3  UNL     1      30.222  -0.565  39.585  1.00  0.00     0.190 HD
HETATM    8  N4  UNL     1      31.585   0.790  40.397  1.00  0.00    -0.189 N 
HETATM    9  N5  UNL     1      30.896   1.811  40.887  1.00  0.00    -0.251 N 
ATOM     10  H5  UNL     1      29.880   1.797  40.809  1.00  0.00     0.192 HD
HETATM   11  C4  UNL     1      31.476   2.856  41.477  1.00  0.00     0.210 A 
HETATM   12  N6  UNL     1      30.723   3.950  42.001  1.00  0.00    -0.062 NA
HETATM   13  N7  UNL     1      32.806   2.885  41.586  1.00  0.00    -0.314 N 
ATOM     14  H7  UNL     1      33.250   3.683  42.038  1.00  0.00     0.170 HD
HETATM   15  C5  UNL     1      33.586   1.872  41.107  1.00  0.00     0.135 A 
HETATM   16  C8  UNL     1      32.940   0.795  40.495  1.00  0.00     0.135 A 
ENDROOT
BRANCH  15  17
HETATM   17  N8  UNL     1      34.848   1.920  41.221  1.00  0.00    -0.373 N 
ATOM     18  H8  UNL     1      35.328   1.077  41.534  1.00  0.00     0.161 HD
BRANCH  17  19
HETATM   19  C6  UNL     1      35.635   3.058  40.946  1.00  0.00     0.148 C 
BRANCH  19  20
HETATM   20  C7  UNL     1      35.710   3.312  39.454  1.00  0.00     0.249 C 
BRANCH  20  21
HETATM   21  N9  UNL     1      36.493   4.510  39.254  1.00  0.00    -0.078 N 
ATOM     22  H93 UNL     1      36.957   4.828  40.106  1.00  0.00     0.274 HD
ATOM     23  H92 UNL     1      37.332   4.348  38.697  1.00  0.00     0.274 HD
ATOM     24  H91 UNL     1      35.878   5.216  38.850  1.00  0.00     0.274 HD
ENDBRANCH  20  21
ENDBRANCH  19  20
ENDBRANCH  17  19
ENDBRANCH  15  17
BRANCH   1  25
HETATM   25  N1  UNL     1      34.838  -2.037  39.121  1.00  0.00    -0.387 N 
ATOM     26  H12 UNL     1      35.400  -2.038  38.271  1.00  0.00     0.157 HD
ATOM     27  H11 UNL     1      34.322  -2.783  39.590  1.00  0.00     0.157 HD
ENDBRANCH   1  25
TORSDOF 5
ENDMDL
MODEL 5
REMARK VINA RESULT: -5.698386710      1.461      3.870
REMARK  5 active torsions:
REMARK  status: ('A' for Active; 'I' for Inactive)
REMARK    1  A    between atoms: N1_1  and  C1_4 
REMARK    2  A    between atoms: C5_18  and  N8_19 
REMARK    3  A    between atoms: N8_19  and  C6_21 
REMARK    4  A    between atoms: C6_21  and  C7_22 
REMARK    5  A    between atoms: C7_22  and  N9_23 
ROOT
HETATM    1  C1  UNL     1      31.239   1.913  41.057  1.00  0.00     0.126 C 
HETATM    2  N2  UNL     1      31.498   0.567  40.844  1.00  0.00    -0.082 NA
HETATM    3  C2  UNL     1      32.107   3.054  41.072  1.00  0.00     0.079 A 
HETATM    4  C3  UNL     1      31.662   4.382  41.313  1.00  0.00     0.135 A 
HETATM    5 CL1  UNL     1      29.991   4.792  41.627  1.00  0.00    -0.062 Cl
HETATM    6  N3  UNL     1      32.708   5.193  41.253  1.00  0.00    -0.267 N 
ATOM      7  H3  UNL     1      32.680   6.203  41.388  1.00  0.00     0.190 HD
HETATM    8  N4  UNL     1      33.794   4.484  40.992  1.00  0.00    -0.189 N 
HETATM    9  N5  UNL     1      35.059   4.850  40.840  1.00  0.00    -0.251 N 
ATOM     10  H5  UNL     1      35.297   5.837  40.931  1.00  0.00     0.192 HD
HETATM   11  C4  UNL     1      36.034   3.981  40.572  1.00  0.00     0.210 A 
HETATM   12  N6  UNL     1      37.393   4.387  40.411  1.00  0.00    -0.062 NA
HETATM   13  N7  UNL     1      35.735   2.686  40.452  1.00  0.00    -0.314 N 
ATOM     14  H7  UNL     1      36.480   2.021  40.249  1.00  0.00     0.170 HD
HETATM   15  C5  UNL     1      34.456   2.230  40.596  1.00  0.00     0.135 A 
HETATM   16  C8  UNL     1      33.463   3.172  40.875  1.00  0.00     0.135 A 
ENDROOT
BRANCH  15  17
HETATM   17  N8  UNL     1      34.195   0.995  40.477  1.00  0.00    -0.373 N 
ATOM     18  H8  UNL     1      33.237   0.734  40.244  1.00  0.00     0.161 HD
BRANCH  17  19
HETATM   19  C6  UNL     1      35.134  -0.043  40.645  1.00  0.00     0.148 C 
BRANCH  19  20
HETATM   20  C7  UNL     1      34.846  -1.189  39.696  1.00  0.00     0.249 C 
BRANCH  20  21
HETATM   21  N9  UNL     1      33.473  -1.062  39.264  1.00  0.00    -0.078 N 
ATOM     22  H93 UNL     1      33.382  -0.605  38.356  1.00  0.00     0.274 HD
ATOM     23  H92 UNL     1      33.053  -1.956  39.006  1.00  0.00     0.274 HD
ATOM     24  H91 UNL     1      32.961  -0.582  40.004  1.00  0.00     0.274 HD
ENDBRANCH  20  21
ENDBRANCH  19  20
ENDBRANCH  17  19
ENDBRANCH  15  17
BRANCH   1  25
HETATM   25  N1  UNL     1      29.949   2.176  41.288  1.00  0.00    -0.387 N 
ATOM     26  H12 UNL     1      29.444   1.454  41.801  1.00  0.00     0.157 HD
ATOM     27  H11 UNL     1      29.645   3.074  40.913  1.00  0.00     0.157 HD
ENDBRANCH   1  25
TORSDOF 5
ENDMDL
