MODEL 1
REMARK VINA RESULT: -7.940523854      0.000      0.000
REMARK  8 active torsions:
REMARK  status: ('A' for Active; 'I' for Inactive)
REMARK    1  A    between atoms: C3_3  and  C4_4 
REMARK    2  A    between atoms: C4_4  and  C5_5 
REMARK    3  A    between atoms: C6_6  and  C7_7 
REMARK    4  A    between atoms: C10_10  and  S1_11 
REMARK    5  A    between atoms: S1_11  and  N1_14 
REMARK    6  A    between atoms: N1_14  and  C11_16 
REMARK    7  A    between atoms: C11_16  and  C14_19 
REMARK    8  A    between atoms: C14_19  and  N2_20 
ROOT
HETATM    1  C1  UNL     1       7.649  33.834  35.878  1.00  0.00     0.112 C 
HETATM    2  C2  UNL     1       8.942  34.507  35.808  1.00  0.00    -0.111 C 
HETATM    3  C3  UNL     1      10.016  35.051  35.763  1.00  0.00    -0.102 C 
ENDROOT
BRANCH   3   4
HETATM    4  C4  UNL     1      11.351  35.754  35.695  1.00  0.00     0.136 C 
BRANCH   4   5
HETATM    5  C5  UNL     1      11.259  37.062  36.325  1.00  0.00    -0.003 A 
HETATM    6  C6  UNL     1      10.497  38.130  35.922  1.00  0.00     0.054 A 
HETATM    7  N3  UNL     1      10.606  39.135  36.843  1.00  0.00    -0.335 N 
HETATM    8  C20 UNL     1      10.016  40.446  36.752  1.00  0.00     0.158 C 
HETATM    9  C21 UNL     1      11.428  38.743  37.845  1.00  0.00     0.123 A 
HETATM   10  C22 UNL     1      11.850  37.434  37.527  1.00  0.00     0.040 A 
HETATM   11  N5  UNL     1      11.837  39.359  38.967  1.00  0.00    -0.333 N 
HETATM   12  C23 UNL     1      12.702  36.780  38.386  1.00  0.00     0.020 A 
HETATM   13  C24 UNL     1      13.186  35.426  38.120  1.00  0.00     0.069 C 
HETATM   14  N4  UNL     1      13.096  37.442  39.518  1.00  0.00    -0.355 N 
HETATM   15  C25 UNL     1      12.684  38.661  39.785  1.00  0.00     0.184 A 
ATOM     16  H4  UNL     1      13.727  36.978  40.171  1.00  0.00     0.166 HD
HETATM   17  C26 UNL     1      11.421  40.676  39.361  1.00  0.00     0.158 C 
BRANCH   6  18
HETATM   18  C7  UNL     1       9.775  38.315  34.671  1.00  0.00    -0.009 A 
HETATM   19  C8  UNL     1      10.439  38.347  33.436  1.00  0.00     0.015 A 
HETATM   20  C9  UNL     1       9.794  38.408  32.225  1.00  0.00     0.026 A 
HETATM   21  C10 UNL     1       8.425  38.439  32.252  1.00  0.00     0.079 A 
HETATM   22  C18 UNL     1       7.729  38.408  33.437  1.00  0.00     0.026 A 
HETATM   23  C19 UNL     1       8.404  38.345  34.650  1.00  0.00     0.015 A 
BRANCH  21  24
HETATM   24  S1  UNL     1       7.472  38.510  30.761  1.00  0.00     0.259 S 
HETATM   25  O1  UNL     1       7.920  37.378  29.937  1.00  0.00    -0.201 OA
HETATM   26  O2  UNL     1       7.986  39.783  30.065  1.00  0.00    -0.201 OA
BRANCH  24  27
HETATM   27  N1  UNL     1       5.903  38.708  31.168  1.00  0.00    -0.305 N 
ATOM     28  H1  UNL     1       5.701  39.244  32.012  1.00  0.00     0.173 HD
BRANCH  27  29
HETATM   29  C11 UNL     1       4.794  38.191  30.436  1.00  0.00     0.057 C 
HETATM   30  C12 UNL     1       3.586  38.448  31.313  1.00  0.00     0.040 C 
HETATM   31  C13 UNL     1       4.837  36.710  30.176  1.00  0.00     0.040 C 
BRANCH  29  32
HETATM   32  C14 UNL     1       4.814  39.011  29.185  1.00  0.00     0.266 C 
BRANCH  32  33
HETATM   33  N2  UNL     1       3.694  39.352  28.466  1.00  0.00    -0.076 N 
HETATM   34  C15 UNL     1       4.195  40.034  27.236  1.00  0.00     0.271 C 
HETATM   35  C16 UNL     1       2.726  40.263  28.971  1.00  0.00     0.271 C 
HETATM   36  C17 UNL     1       2.974  38.193  27.887  1.00  0.00     0.271 C 
ENDBRANCH  32  33
ENDBRANCH  29  32
ENDBRANCH  27  29
ENDBRANCH  24  27
ENDBRANCH  21  24
ENDBRANCH   6  18
ENDBRANCH   4   5
ENDBRANCH   3   4
TORSDOF 8
ENDMDL
MODEL 2
REMARK VINA RESULT: -7.785018551      0.957      1.645
REMARK  8 active torsions:
REMARK  status: ('A' for Active; 'I' for Inactive)
REMARK    1  A    between atoms: C3_3  and  C4_4 
REMARK    2  A    between atoms: C4_4  and  C5_5 
REMARK    3  A    between atoms: C6_6  and  C7_7 
REMARK    4  A    between atoms: C10_10  and  S1_11 
REMARK    5  A    between atoms: S1_11  and  N1_14 
REMARK    6  A    between atoms: N1_14  and  C11_16 
REMARK    7  A    between atoms: C11_16  and  C14_19 
REMARK    8  A    between atoms: C14_19  and  N2_20 
ROOT
HETATM    1  C1  UNL     1       7.619  33.831  35.872  1.00  0.00     0.112 C 
HETATM    2  C2  UNL     1       8.915  34.501  35.841  1.00  0.00    -0.111 C 
HETATM    3  C3  UNL     1       9.980  35.062  35.798  1.00  0.00    -0.102 C 
ENDROOT
BRANCH   3   4
HETATM    4  C4  UNL     1      11.325  35.748  35.764  1.00  0.00     0.136 C 
BRANCH   4   5
HETATM    5  C5  UNL     1      11.218  37.085  36.326  1.00  0.00    -0.003 A 
HETATM    6  C6  UNL     1      10.485  38.139  35.840  1.00  0.00     0.054 A 
HETATM    7  N3  UNL     1      10.562  39.185  36.716  1.00  0.00    -0.335 N 
HETATM    8  C20 UNL     1       9.989  40.494  36.537  1.00  0.00     0.158 C 
HETATM    9  C21 UNL     1      11.335  38.835  37.772  1.00  0.00     0.123 A 
HETATM   10  C22 UNL     1      11.758  37.509  37.535  1.00  0.00     0.040 A 
HETATM   11  N5  UNL     1      11.700  39.500  38.881  1.00  0.00    -0.333 N 
HETATM   12  C23 UNL     1      12.565  36.891  38.461  1.00  0.00     0.020 A 
HETATM   13  C24 UNL     1      13.048  35.522  38.281  1.00  0.00     0.069 C 
HETATM   14  N4  UNL     1      12.915  37.603  39.577  1.00  0.00    -0.355 N 
HETATM   15  C25 UNL     1      12.502  38.835  39.768  1.00  0.00     0.184 A 
ATOM     16  H4  UNL     1      13.512  37.165  40.279  1.00  0.00     0.166 HD
HETATM   17  C26 UNL     1      11.279  40.838  39.193  1.00  0.00     0.158 C 
BRANCH   6  18
HETATM   18  C7  UNL     1       9.820  38.269  34.550  1.00  0.00    -0.009 A 
HETATM   19  C8  UNL     1      10.545  38.299  33.350  1.00  0.00     0.015 A 
HETATM   20  C9  UNL     1       9.960  38.309  32.107  1.00  0.00     0.026 A 
HETATM   21  C10 UNL     1       8.591  38.290  32.066  1.00  0.00     0.079 A 
HETATM   22  C18 UNL     1       7.838  38.260  33.214  1.00  0.00     0.026 A 
HETATM   23  C19 UNL     1       8.452  38.249  34.461  1.00  0.00     0.015 A 
BRANCH  21  24
HETATM   24  S1  UNL     1       7.713  38.294  30.528  1.00  0.00     0.259 S 
HETATM   25  O1  UNL     1       8.637  37.735  29.530  1.00  0.00    -0.201 OA
HETATM   26  O2  UNL     1       7.571  39.790  30.196  1.00  0.00    -0.201 OA
BRANCH  24  27
HETATM   27  N1  UNL     1       6.234  37.651  30.784  1.00  0.00    -0.305 N 
ATOM     28  H1  UNL     1       6.179  36.816  31.368  1.00  0.00     0.173 HD
BRANCH  27  29
HETATM   29  C11 UNL     1       5.013  38.164  30.254  1.00  0.00     0.057 C 
HETATM   30  C12 UNL     1       4.242  36.947  29.786  1.00  0.00     0.040 C 
HETATM   31  C13 UNL     1       5.166  39.069  29.063  1.00  0.00     0.040 C 
BRANCH  29  32
HETATM   32  C14 UNL     1       4.402  38.844  31.438  1.00  0.00     0.266 C 
BRANCH  32  33
HETATM   33  N2  UNL     1       3.049  38.949  31.655  1.00  0.00    -0.076 N 
HETATM   34  C15 UNL     1       2.903  39.614  32.984  1.00  0.00     0.271 C 
HETATM   35  C16 UNL     1       2.215  37.803  31.773  1.00  0.00     0.271 C 
HETATM   36  C17 UNL     1       2.370  39.920  30.765  1.00  0.00     0.271 C 
ENDBRANCH  32  33
ENDBRANCH  29  32
ENDBRANCH  27  29
ENDBRANCH  24  27
ENDBRANCH  21  24
ENDBRANCH   6  18
ENDBRANCH   4   5
ENDBRANCH   3   4
TORSDOF 8
ENDMDL
MODEL 3
REMARK VINA RESULT: -7.281855008      1.130      2.996
REMARK  8 active torsions:
REMARK  status: ('A' for Active; 'I' for Inactive)
REMARK    1  A    between atoms: C3_3  and  C4_4 
REMARK    2  A    between atoms: C4_4  and  C5_5 
REMARK    3  A    between atoms: C6_6  and  C7_7 
REMARK    4  A    between atoms: C10_10  and  S1_11 
REMARK    5  A    between atoms: S1_11  and  N1_14 
REMARK    6  A    between atoms: N1_14  and  C11_16 
REMARK    7  A    between atoms: C11_16  and  C14_19 
REMARK    8  A    between atoms: C14_19  and  N2_20 
ROOT
HETATM    1  C1  UNL     1       6.192  40.776  38.139  1.00  0.00     0.112 C 
HETATM    2  C2  UNL     1       7.565  40.725  37.647  1.00  0.00    -0.111 C 
HETATM    3  C3  UNL     1       8.702  40.670  37.253  1.00  0.00    -0.102 C 
ENDROOT
BRANCH   3   4
HETATM    4  C4  UNL     1      10.124  40.626  36.747  1.00  0.00     0.136 C 
BRANCH   4   5
HETATM    5  C5  UNL     1      10.651  39.274  36.854  1.00  0.00    -0.003 A 
HETATM    6  C6  UNL     1      10.586  38.277  35.914  1.00  0.00     0.054 A 
HETATM    7  N3  UNL     1      11.295  37.194  36.355  1.00  0.00    -0.335 N 
HETATM    8  C20 UNL     1      11.414  35.922  35.691  1.00  0.00     0.158 C 
HETATM    9  C21 UNL     1      11.826  37.466  37.571  1.00  0.00     0.123 A 
HETATM   10  C22 UNL     1      11.423  38.778  37.898  1.00  0.00     0.040 A 
HETATM   11  N5  UNL     1      12.596  36.741  38.399  1.00  0.00    -0.333 N 
HETATM   12  C23 UNL     1      11.827  39.321  39.096  1.00  0.00     0.020 A 
HETATM   13  C24 UNL     1      11.444  40.671  39.506  1.00  0.00     0.069 C 
HETATM   14  N4  UNL     1      12.610  38.550  39.912  1.00  0.00    -0.355 N 
HETATM   15  C25 UNL     1      12.969  37.332  39.576  1.00  0.00     0.184 A 
ATOM     16  H4  UNL     1      12.924  38.931  40.805  1.00  0.00     0.166 HD
HETATM   17  C26 UNL     1      13.064  35.413  38.110  1.00  0.00     0.158 C 
BRANCH   6  18
HETATM   18  C7  UNL     1       9.801  38.229  34.688  1.00  0.00    -0.009 A 
HETATM   19  C8  UNL     1       8.401  38.160  34.714  1.00  0.00     0.015 A 
HETATM   20  C9  UNL     1       7.614  38.224  33.590  1.00  0.00     0.026 A 
HETATM   21  C10 UNL     1       8.257  38.361  32.390  1.00  0.00     0.079 A 
HETATM   22  C18 UNL     1       9.627  38.434  32.312  1.00  0.00     0.026 A 
HETATM   23  C19 UNL     1      10.403  38.368  33.464  1.00  0.00     0.015 A 
BRANCH  21  24
HETATM   24  S1  UNL     1       7.359  38.463  30.866  1.00  0.00     0.259 S 
HETATM   25  O1  UNL     1       7.877  37.382  30.015  1.00  0.00    -0.201 OA
HETATM   26  O2  UNL     1       7.853  39.781  30.243  1.00  0.00    -0.201 OA
BRANCH  24  27
HETATM   27  N1  UNL     1       5.770  38.590  31.219  1.00  0.00    -0.305 N 
ATOM     28  H1  UNL     1       5.518  39.064  32.086  1.00  0.00     0.173 HD
BRANCH  27  29
HETATM   29  C11 UNL     1       4.706  38.091  30.409  1.00  0.00     0.057 C 
HETATM   30  C12 UNL     1       3.455  38.273  31.244  1.00  0.00     0.040 C 
HETATM   31  C13 UNL     1       4.797  36.629  30.071  1.00  0.00     0.040 C 
BRANCH  29  32
HETATM   32  C14 UNL     1       4.763  38.981  29.208  1.00  0.00     0.266 C 
BRANCH  32  33
HETATM   33  N2  UNL     1       3.663  39.366  28.480  1.00  0.00    -0.076 N 
HETATM   34  C15 UNL     1       4.201  39.996  27.238  1.00  0.00     0.271 C 
HETATM   35  C16 UNL     1       2.745  40.339  28.964  1.00  0.00     0.271 C 
HETATM   36  C17 UNL     1       2.883  38.236  27.924  1.00  0.00     0.271 C 
ENDBRANCH  32  33
ENDBRANCH  29  32
ENDBRANCH  27  29
ENDBRANCH  24  27
ENDBRANCH  21  24
ENDBRANCH   6  18
ENDBRANCH   4   5
ENDBRANCH   3   4
TORSDOF 8
ENDMDL
MODEL 4
REMARK VINA RESULT: -7.254377315      1.485      3.372
REMARK  8 active torsions:
REMARK  status: ('A' for Active; 'I' for Inactive)
REMARK    1  A    between atoms: C3_3  and  C4_4 
REMARK    2  A    between atoms: C4_4  and  C5_5 
REMARK    3  A    between atoms: C6_6  and  C7_7 
REMARK    4  A    between atoms: C10_10  and  S1_11 
REMARK    5  A    between atoms: S1_11  and  N1_14 
REMARK    6  A    between atoms: N1_14  and  C11_16 
REMARK    7  A    between atoms: C11_16  and  C14_19 
REMARK    8  A    between atoms: C14_19  and  N2_20 
ROOT
HETATM    1  C1  UNL     1       6.057  40.604  37.610  1.00  0.00     0.112 C 
HETATM    2  C2  UNL     1       7.469  40.578  37.243  1.00  0.00    -0.111 C 
HETATM    3  C3  UNL     1       8.639  40.547  36.957  1.00  0.00    -0.102 C 
ENDROOT
BRANCH   3   4
HETATM    4  C4  UNL     1      10.101  40.528  36.579  1.00  0.00     0.136 C 
BRANCH   4   5
HETATM    5  C5  UNL     1      10.641  39.187  36.737  1.00  0.00    -0.003 A 
HETATM    6  C6  UNL     1      10.641  38.173  35.811  1.00  0.00     0.054 A 
HETATM    7  N3  UNL     1      11.341  37.109  36.308  1.00  0.00    -0.335 N 
HETATM    8  C20 UNL     1      11.514  35.828  35.673  1.00  0.00     0.158 C 
HETATM    9  C21 UNL     1      11.801  37.408  37.546  1.00  0.00     0.123 A 
HETATM   10  C22 UNL     1      11.362  38.719  37.829  1.00  0.00     0.040 A 
HETATM   11  N5  UNL     1      12.537  36.709  38.427  1.00  0.00    -0.333 N 
HETATM   12  C23 UNL     1      11.694  39.287  39.037  1.00  0.00     0.020 A 
HETATM   13  C24 UNL     1      11.269  40.638  39.404  1.00  0.00     0.069 C 
HETATM   14  N4  UNL     1      12.443  38.542  39.907  1.00  0.00    -0.355 N 
HETATM   15  C25 UNL     1      12.837  37.324  39.612  1.00  0.00     0.184 A 
ATOM     16  H4  UNL     1      12.702  38.942  40.809  1.00  0.00     0.166 HD
HETATM   17  C26 UNL     1      13.038  35.384  38.186  1.00  0.00     0.158 C 
BRANCH   6  18
HETATM   18  C7  UNL     1       9.924  38.094  34.546  1.00  0.00    -0.009 A 
HETATM   19  C8  UNL     1       8.535  37.905  34.499  1.00  0.00     0.015 A 
HETATM   20  C9  UNL     1       7.802  37.933  33.338  1.00  0.00     0.026 A 
HETATM   21  C10 UNL     1       8.489  38.159  32.176  1.00  0.00     0.079 A 
HETATM   22  C18 UNL     1       9.849  38.350  32.171  1.00  0.00     0.026 A 
HETATM   23  C19 UNL     1      10.571  38.318  33.358  1.00  0.00     0.015 A 
BRANCH  21  24
HETATM   24  S1  UNL     1       7.661  38.227  30.611  1.00  0.00     0.259 S 
HETATM   25  O1  UNL     1       8.604  37.676  29.627  1.00  0.00    -0.201 OA
HETATM   26  O2  UNL     1       7.562  39.735  30.320  1.00  0.00    -0.201 OA
BRANCH  24  27
HETATM   27  N1  UNL     1       6.160  37.611  30.801  1.00  0.00    -0.305 N 
ATOM     28  H1  UNL     1       6.068  36.763  31.360  1.00  0.00     0.173 HD
BRANCH  27  29
HETATM   29  C11 UNL     1       4.969  38.166  30.246  1.00  0.00     0.057 C 
HETATM   30  C12 UNL     1       4.164  36.975  29.767  1.00  0.00     0.040 C 
HETATM   31  C13 UNL     1       5.178  39.059  29.055  1.00  0.00     0.040 C 
BRANCH  29  32
HETATM   32  C14 UNL     1       4.360  38.871  31.416  1.00  0.00     0.266 C 
BRANCH  32  33
HETATM   33  N2  UNL     1       3.008  38.985  31.632  1.00  0.00    -0.076 N 
HETATM   34  C15 UNL     1       2.865  39.676  32.948  1.00  0.00     0.271 C 
HETATM   35  C16 UNL     1       2.172  37.843  31.773  1.00  0.00     0.271 C 
HETATM   36  C17 UNL     1       2.331  39.939  30.723  1.00  0.00     0.271 C 
ENDBRANCH  32  33
ENDBRANCH  29  32
ENDBRANCH  27  29
ENDBRANCH  24  27
ENDBRANCH  21  24
ENDBRANCH   6  18
ENDBRANCH   4   5
ENDBRANCH   3   4
TORSDOF 8
ENDMDL
MODEL 5
REMARK VINA RESULT: -7.069298379      5.411      9.688
REMARK  8 active torsions:
REMARK  status: ('A' for Active; 'I' for Inactive)
REMARK    1  A    between atoms: C3_3  and  C4_4 
REMARK    2  A    between atoms: C4_4  and  C5_5 
REMARK    3  A    between atoms: C6_6  and  C7_7 
REMARK    4  A    between atoms: C10_10  and  S1_11 
REMARK    5  A    between atoms: S1_11  and  N1_14 
REMARK    6  A    between atoms: N1_14  and  C11_16 
REMARK    7  A    between atoms: C11_16  and  C14_19 
REMARK    8  A    between atoms: C14_19  and  N2_20 
ROOT
HETATM    1  C1  UNL     1       8.981  39.057  31.015  1.00  0.00     0.112 C 
HETATM    2  C2  UNL     1       7.663  38.570  30.624  1.00  0.00    -0.111 C 
HETATM    3  C3  UNL     1       6.578  38.173  30.283  1.00  0.00    -0.102 C 
ENDROOT
BRANCH   3   4
HETATM    4  C4  UNL     1       5.210  37.674  29.881  1.00  0.00     0.136 C 
BRANCH   4   5
HETATM    5  C5  UNL     1       4.185  38.330  30.679  1.00  0.00    -0.003 A 
HETATM    6  C6  UNL     1       3.956  38.186  32.024  1.00  0.00     0.054 A 
HETATM    7  N3  UNL     1       2.975  39.057  32.411  1.00  0.00    -0.335 N 
HETATM    8  C20 UNL     1       2.400  39.167  33.726  1.00  0.00     0.158 C 
HETATM    9  C21 UNL     1       2.557  39.771  31.339  1.00  0.00     0.123 A 
HETATM   10  C22 UNL     1       3.314  39.318  30.237  1.00  0.00     0.040 A 
HETATM   11  N5  UNL     1       1.635  40.740  31.207  1.00  0.00    -0.333 N 
HETATM   12  C23 UNL     1       3.095  39.882  29.001  1.00  0.00     0.020 A 
HETATM   13  C24 UNL     1       3.835  39.459  27.813  1.00  0.00     0.069 C 
HETATM   14  N4  UNL     1       2.147  40.864  28.908  1.00  0.00    -0.355 N 
HETATM   15  C25 UNL     1       1.461  41.264  29.955  1.00  0.00     0.184 A 
ATOM     16  H4  UNL     1       1.968  41.298  28.002  1.00  0.00     0.166 HD
HETATM   17  C26 UNL     1       0.856  41.264  32.294  1.00  0.00     0.158 C 
BRANCH   6  18
HETATM   18  C7  UNL     1       4.510  37.201  32.943  1.00  0.00    -0.009 A 
HETATM   19  C8  UNL     1       5.568  37.514  33.807  1.00  0.00     0.015 A 
HETATM   20  C9  UNL     1       6.050  36.655  34.765  1.00  0.00     0.026 A 
HETATM   21  C10 UNL     1       5.446  35.430  34.860  1.00  0.00     0.079 A 
HETATM   22  C18 UNL     1       4.405  35.077  34.036  1.00  0.00     0.026 A 
HETATM   23  C19 UNL     1       3.934  35.963  33.074  1.00  0.00     0.015 A 
BRANCH  21  24
HETATM   24  S1  UNL     1       5.966  34.234  36.057  1.00  0.00     0.259 S 
HETATM   25  O1  UNL     1       6.241  34.984  37.291  1.00  0.00    -0.201 OA
HETATM   26  O2  UNL     1       7.331  33.760  35.525  1.00  0.00    -0.201 OA
BRANCH  24  27
HETATM   27  N1  UNL     1       4.910  32.989  36.026  1.00  0.00    -0.305 N 
ATOM     28  H1  UNL     1       4.973  32.338  35.243  1.00  0.00     0.173 HD
BRANCH  27  29
HETATM   29  C11 UNL     1       3.905  32.740  37.008  1.00  0.00     0.057 C 
HETATM   30  C12 UNL     1       4.652  32.202  38.211  1.00  0.00     0.040 C 
HETATM   31  C13 UNL     1       2.886  31.703  36.627  1.00  0.00     0.040 C 
BRANCH  29  32
HETATM   32  C14 UNL     1       3.315  34.097  37.225  1.00  0.00     0.266 C 
BRANCH  32  33
HETATM   33  N2  UNL     1       2.134  34.330  37.889  1.00  0.00    -0.076 N 
HETATM   34  C15 UNL     1       2.218  35.736  38.384  1.00  0.00     0.271 C 
HETATM   35  C16 UNL     1       1.770  33.598  39.052  1.00  0.00     0.271 C 
HETATM   36  C17 UNL     1       0.949  34.400  37.002  1.00  0.00     0.271 C 
ENDBRANCH  32  33
ENDBRANCH  29  32
ENDBRANCH  27  29
ENDBRANCH  24  27
ENDBRANCH  21  24
ENDBRANCH   6  18
ENDBRANCH   4   5
ENDBRANCH   3   4
TORSDOF 8
ENDMDL
