MODEL 1
REMARK VINA RESULT: -6.631503878      0.000      0.000
REMARK  3 active torsions:
REMARK  status: ('A' for Active; 'I' for Inactive)
REMARK       I    between atoms: C1_2  and  N2_4 
REMARK    1  A    between atoms: N2_4  and  N3_6 
REMARK    2  A    between atoms: C2_9  and  C3_10 
REMARK    3  A    between atoms: C4_16  and  N7_17 
ROOT
HETATM    1  C3  UNL     1      -3.569  24.070  -8.521  1.00  0.00     0.129 A 
HETATM    2  N5  UNL     1      -3.563  25.072  -7.652  1.00  0.00    -0.288 N 
ATOM      3  H5  UNL     1      -4.263  25.811  -7.727  1.00  0.00     0.188 HD
HETATM    4  N6  UNL     1      -2.688  25.119  -6.724  1.00  0.00    -0.268 N 
ATOM      5  H6  UNL     1      -2.580  25.832  -6.002  1.00  0.00     0.195 HD
HETATM    6  S1  UNL     1      -1.762  23.750  -6.960  1.00  0.00     0.022 SA
HETATM    7  C4  UNL     1      -2.600  23.129  -8.347  1.00  0.00     0.122 A 
ENDROOT
BRANCH   1   8
HETATM    8  C2  UNL     1      -4.610  24.052  -9.593  1.00  0.00     0.155 A 
HETATM    9  N4  UNL     1      -5.085  25.143 -10.259  1.00  0.00    -0.259 N 
HETATM   10  N3  UNL     1      -5.996  24.798 -11.146  1.00  0.00    -0.163 N 
ATOM     11  H4  UNL     1      -4.774  26.100 -10.093  1.00  0.00     0.191 HD
HETATM   12  C9  UNL     1      -6.130  23.474 -11.074  1.00  0.00     0.216 A 
HETATM   13  N9  UNL     1      -5.268  23.033 -10.110  1.00  0.00    -0.313 N 
HETATM   14  S2  UNL     1      -7.148  22.588 -11.984  1.00  0.00    -0.037 SA
ATOM     15  H9  UNL     1      -5.151  22.059  -9.833  1.00  0.00     0.170 HD
BRANCH  10  16
HETATM   16  N2  UNL     1      -6.719  25.618 -12.025  1.00  0.00    -0.230 N 
HETATM   17  C1  UNL     1      -6.498  25.517 -13.414  1.00  0.00     0.348 C 
HETATM   18  N1  UNL     1      -7.214  26.329 -14.307  1.00  0.00    -0.038 NA
HETATM   19  O1  UNL     1      -5.662  24.702 -13.850  1.00  0.00    -0.249 OA
ATOM     20  H2  UNL     1      -7.402  26.283 -11.661  1.00  0.00     0.193 HD
ENDBRANCH  10  16
ENDBRANCH   1   8
BRANCH   7  21
HETATM   21  N7  UNL     1      -2.282  21.922  -9.061  1.00  0.00    -0.369 N 
HETATM   22  C5  UNL     1      -1.577  21.998 -10.338  1.00  0.00     0.151 C 
HETATM   23  C6  UNL     1      -0.633  20.818 -10.501  1.00  0.00     0.252 C 
HETATM   24  N8  UNL     1      -1.219  19.572 -10.116  1.00  0.00    -0.072 N 
HETATM   25  C7  UNL     1      -1.622  19.586  -8.729  1.00  0.00     0.252 C 
ATOM     26  H82 UNL     1      -1.994  19.317 -10.728  1.00  0.00     0.277 HD
ATOM     27  H81 UNL     1      -0.596  18.788 -10.315  1.00  0.00     0.277 HD
HETATM   28  C8  UNL     1      -2.652  20.664  -8.452  1.00  0.00     0.151 C 
ENDBRANCH   7  21
TORSDOF 3
ENDMDL
MODEL 2
REMARK VINA RESULT: -6.318131318      1.827      2.254
REMARK  3 active torsions:
REMARK  status: ('A' for Active; 'I' for Inactive)
REMARK       I    between atoms: C1_2  and  N2_4 
REMARK    1  A    between atoms: N2_4  and  N3_6 
REMARK    2  A    between atoms: C2_9  and  C3_10 
REMARK    3  A    between atoms: C4_16  and  N7_17 
ROOT
HETATM    1  C3  UNL     1      -3.495  23.956  -8.422  1.00  0.00     0.129 A 
HETATM    2  N5  UNL     1      -3.568  24.892  -7.486  1.00  0.00    -0.288 N 
ATOM      3  H5  UNL     1      -4.235  25.657  -7.587  1.00  0.00     0.188 HD
HETATM    4  N6  UNL     1      -2.811  24.842  -6.460  1.00  0.00    -0.268 N 
ATOM      5  H6  UNL     1      -2.773  25.498  -5.679  1.00  0.00     0.195 HD
HETATM    6  S1  UNL     1      -1.897  23.464  -6.686  1.00  0.00     0.022 SA
HETATM    7  C4  UNL     1      -2.577  22.972  -8.206  1.00  0.00     0.122 A 
ENDROOT
BRANCH   1   8
HETATM    8  C2  UNL     1      -4.398  24.049  -9.609  1.00  0.00     0.155 A 
HETATM    9  N4  UNL     1      -4.916  22.992 -10.299  1.00  0.00    -0.259 N 
HETATM   10  N3  UNL     1      -5.675  23.402 -11.294  1.00  0.00    -0.163 N 
ATOM     11  H4  UNL     1      -4.739  22.013 -10.073  1.00  0.00     0.191 HD
HETATM   12  C9  UNL     1      -5.666  24.735 -11.269  1.00  0.00     0.216 A 
HETATM   13  N9  UNL     1      -4.873  25.113 -10.224  1.00  0.00    -0.313 N 
HETATM   14  S2  UNL     1      -6.467  25.693 -12.314  1.00  0.00    -0.037 SA
ATOM     15  H9  UNL     1      -4.677  26.078  -9.959  1.00  0.00     0.170 HD
BRANCH  10  16
HETATM   16  N2  UNL     1      -6.383  22.635 -12.232  1.00  0.00    -0.230 N 
HETATM   17  C1  UNL     1      -7.383  21.743 -11.791  1.00  0.00     0.348 C 
HETATM   18  N1  UNL     1      -8.101  20.969 -12.715  1.00  0.00    -0.038 NA
HETATM   19  O1  UNL     1      -7.631  21.643 -10.574  1.00  0.00    -0.249 OA
ATOM     20  H2  UNL     1      -6.175  22.721 -13.226  1.00  0.00     0.193 HD
ENDBRANCH  10  16
ENDBRANCH   1   8
BRANCH   7  21
HETATM   21  N7  UNL     1      -2.205  21.810  -8.966  1.00  0.00    -0.369 N 
HETATM   22  C5  UNL     1      -1.416  21.962 -10.187  1.00  0.00     0.151 C 
HETATM   23  C6  UNL     1      -0.457  20.795 -10.355  1.00  0.00     0.252 C 
HETATM   24  N8  UNL     1      -1.060  19.527 -10.082  1.00  0.00    -0.072 N 
HETATM   25  C7  UNL     1      -1.555  19.460  -8.727  1.00  0.00     0.252 C 
ATOM     26  H82 UNL     1      -1.791  19.307 -10.759  1.00  0.00     0.277 HD
ATOM     27  H81 UNL     1      -0.421  18.758 -10.285  1.00  0.00     0.277 HD
HETATM   28  C8  UNL     1      -2.607  20.517  -8.457  1.00  0.00     0.151 C 
ENDBRANCH   7  21
TORSDOF 3
ENDMDL
MODEL 3
REMARK VINA RESULT: -6.184112790      1.761      2.118
REMARK  3 active torsions:
REMARK  status: ('A' for Active; 'I' for Inactive)
REMARK       I    between atoms: C1_2  and  N2_4 
REMARK    1  A    between atoms: N2_4  and  N3_6 
REMARK    2  A    between atoms: C2_9  and  C3_10 
REMARK    3  A    between atoms: C4_16  and  N7_17 
ROOT
HETATM    1  C3  UNL     1      -3.457  22.896  -8.114  1.00  0.00     0.129 A 
HETATM    2  N5  UNL     1      -4.065  23.681  -7.236  1.00  0.00    -0.288 N 
ATOM      3  H5  UNL     1      -4.905  24.192  -7.509  1.00  0.00     0.188 HD
HETATM    4  N6  UNL     1      -3.608  23.801  -6.050  1.00  0.00    -0.268 N 
ATOM      5  H6  UNL     1      -3.983  24.369  -5.290  1.00  0.00     0.195 HD
HETATM    6  S1  UNL     1      -2.259  22.819  -6.025  1.00  0.00     0.022 SA
HETATM    7  C4  UNL     1      -2.344  22.253  -7.664  1.00  0.00     0.122 A 
ENDROOT
BRANCH   1   8
HETATM    8  C2  UNL     1      -4.022  22.783  -9.493  1.00  0.00     0.155 A 
HETATM    9  N4  UNL     1      -5.236  23.257  -9.896  1.00  0.00    -0.259 N 
HETATM   10  N3  UNL     1      -5.446  22.999 -11.171  1.00  0.00    -0.163 N 
ATOM     11  H4  UNL     1      -5.894  23.747  -9.290  1.00  0.00     0.191 HD
HETATM   12  C9  UNL     1      -4.371  22.354 -11.622  1.00  0.00     0.216 A 
HETATM   13  N9  UNL     1      -3.506  22.229 -10.572  1.00  0.00    -0.313 N 
HETATM   14  S2  UNL     1      -4.170  21.827 -13.149  1.00  0.00    -0.037 SA
ATOM     15  H9  UNL     1      -2.594  21.775 -10.617  1.00  0.00     0.170 HD
BRANCH  10  16
HETATM   16  N2  UNL     1      -6.563  23.318 -11.958  1.00  0.00    -0.230 N 
HETATM   17  C1  UNL     1      -7.178  24.580 -11.818  1.00  0.00     0.348 C 
HETATM   18  N1  UNL     1      -8.295  24.915 -12.598  1.00  0.00    -0.038 NA
HETATM   19  O1  UNL     1      -6.725  25.401 -10.998  1.00  0.00    -0.249 OA
ATOM     20  H2  UNL     1      -6.928  22.641 -12.628  1.00  0.00     0.193 HD
ENDBRANCH  10  16
ENDBRANCH   1   8
BRANCH   7  21
HETATM   21  N7  UNL     1      -1.430  21.340  -8.295  1.00  0.00    -0.369 N 
HETATM   22  C5  UNL     1      -1.757  19.917  -8.367  1.00  0.00     0.151 C 
HETATM   23  C6  UNL     1      -1.242  19.313  -9.663  1.00  0.00     0.252 C 
HETATM   24  N8  UNL     1       0.088  19.727  -9.988  1.00  0.00    -0.072 N 
HETATM   25  C7  UNL     1       0.170  21.161 -10.143  1.00  0.00     0.252 C 
ATOM     26  H82 UNL     1       0.763  19.385  -9.305  1.00  0.00     0.277 HD
ATOM     27  H81 UNL     1       0.439  19.242 -10.814  1.00  0.00     0.277 HD
HETATM   28  C8  UNL     1      -0.223  21.890  -8.872  1.00  0.00     0.151 C 
ENDBRANCH   7  21
TORSDOF 3
ENDMDL
MODEL 4
REMARK VINA RESULT: -6.012773098      1.779      1.882
REMARK  3 active torsions:
REMARK  status: ('A' for Active; 'I' for Inactive)
REMARK       I    between atoms: C1_2  and  N2_4 
REMARK    1  A    between atoms: N2_4  and  N3_6 
REMARK    2  A    between atoms: C2_9  and  C3_10 
REMARK    3  A    between atoms: C4_16  and  N7_17 
ROOT
HETATM    1  C3  UNL     1      -3.388  22.842  -8.255  1.00  0.00     0.129 A 
HETATM    2  N5  UNL     1      -3.875  23.628  -7.305  1.00  0.00    -0.288 N 
ATOM      3  H5  UNL     1      -4.714  24.179  -7.484  1.00  0.00     0.188 HD
HETATM    4  N6  UNL     1      -3.301  23.700  -6.168  1.00  0.00    -0.268 N 
ATOM      5  H6  UNL     1      -3.576  24.264  -5.363  1.00  0.00     0.195 HD
HETATM    6  S1  UNL     1      -1.998  22.663  -6.295  1.00  0.00     0.022 SA
HETATM    7  C4  UNL     1      -2.266  22.142  -7.929  1.00  0.00     0.122 A 
ENDROOT
BRANCH   1   8
HETATM    8  C2  UNL     1      -4.089  22.785  -9.574  1.00  0.00     0.155 A 
HETATM    9  N4  UNL     1      -5.355  23.226  -9.821  1.00  0.00    -0.259 N 
HETATM   10  N3  UNL     1      -5.687  23.037 -11.082  1.00  0.00    -0.163 N 
ATOM     11  H4  UNL     1      -5.966  23.649  -9.121  1.00  0.00     0.191 HD
HETATM   12  C9  UNL     1      -4.639  22.469 -11.680  1.00  0.00     0.216 A 
HETATM   13  N9  UNL     1      -3.665  22.322 -10.733  1.00  0.00    -0.313 N 
HETATM   14  S2  UNL     1      -4.577  22.045 -13.250  1.00  0.00    -0.037 SA
ATOM     15  H9  UNL     1      -2.746  21.913 -10.899  1.00  0.00     0.170 HD
BRANCH  10  16
HETATM   16  N2  UNL     1      -6.890  23.351 -11.730  1.00  0.00    -0.230 N 
HETATM   17  C1  UNL     1      -7.370  24.678 -11.705  1.00  0.00     0.348 C 
HETATM   18  N1  UNL     1      -8.572  25.009 -12.349  1.00  0.00    -0.038 NA
HETATM   19  O1  UNL     1      -6.723  25.559 -11.109  1.00  0.00    -0.249 OA
ATOM     20  H2  UNL     1      -7.415  22.625 -12.216  1.00  0.00     0.193 HD
ENDBRANCH  10  16
ENDBRANCH   1   8
BRANCH   7  21
HETATM   21  N7  UNL     1      -1.457  21.208  -8.665  1.00  0.00    -0.369 N 
HETATM   22  C5  UNL     1      -0.178  21.637  -9.225  1.00  0.00     0.151 C 
HETATM   23  C6  UNL     1       0.835  20.505  -9.178  1.00  0.00     0.252 C 
HETATM   24  N8  UNL     1       0.294  19.248  -9.591  1.00  0.00    -0.072 N 
HETATM   25  C7  UNL     1      -0.809  18.847  -8.750  1.00  0.00     0.252 C 
ATOM     26  H82 UNL     1       0.028  19.261 -10.576  1.00  0.00     0.277 HD
ATOM     27  H81 UNL     1       1.014  18.526  -9.632  1.00  0.00     0.277 HD
HETATM   28  C8  UNL     1      -1.944  19.851  -8.789  1.00  0.00     0.151 C 
ENDBRANCH   7  21
TORSDOF 3
ENDMDL
MODEL 5
REMARK VINA RESULT: -5.923853872      1.336      1.345
REMARK  3 active torsions:
REMARK  status: ('A' for Active; 'I' for Inactive)
REMARK       I    between atoms: C1_2  and  N2_4 
REMARK    1  A    between atoms: N2_4  and  N3_6 
REMARK    2  A    between atoms: C2_9  and  C3_10 
REMARK    3  A    between atoms: C4_16  and  N7_17 
ROOT
HETATM    1  C3  UNL     1      -3.723  23.151  -7.867  1.00  0.00     0.129 A 
HETATM    2  N5  UNL     1      -4.089  23.936  -6.863  1.00  0.00    -0.288 N 
ATOM      3  H5  UNL     1      -4.945  24.486  -6.937  1.00  0.00     0.188 HD
HETATM    4  N6  UNL     1      -3.378  24.008  -5.806  1.00  0.00    -0.268 N 
ATOM      5  H6  UNL     1      -3.552  24.571  -4.973  1.00  0.00     0.195 HD
HETATM    6  S1  UNL     1      -2.101  22.973  -6.095  1.00  0.00     0.022 SA
HETATM    7  C4  UNL     1      -2.568  22.452  -7.683  1.00  0.00     0.122 A 
ENDROOT
BRANCH   1   8
HETATM    8  C2  UNL     1      -4.582  23.094  -9.089  1.00  0.00     0.155 A 
HETATM    9  N4  UNL     1      -4.482  23.919 -10.170  1.00  0.00    -0.259 N 
HETATM   10  N3  UNL     1      -5.381  23.616 -11.084  1.00  0.00    -0.163 N 
ATOM     11  H4  UNL     1      -3.800  24.673 -10.260  1.00  0.00     0.191 HD
HETATM   12  C9  UNL     1      -6.083  22.585 -10.613  1.00  0.00     0.216 A 
HETATM   13  N9  UNL     1      -5.576  22.279  -9.383  1.00  0.00    -0.313 N 
HETATM   14  S2  UNL     1      -7.312  21.858 -11.396  1.00  0.00    -0.037 SA
ATOM     15  H9  UNL     1      -5.916  21.530  -8.780  1.00  0.00     0.170 HD
BRANCH  10  16
HETATM   16  N2  UNL     1      -5.606  24.221 -12.329  1.00  0.00    -0.230 N 
HETATM   17  C1  UNL     1      -6.549  25.265 -12.437  1.00  0.00     0.348 C 
HETATM   18  N1  UNL     1      -6.785  25.881 -13.676  1.00  0.00    -0.038 NA
HETATM   19  O1  UNL     1      -7.175  25.640 -11.428  1.00  0.00    -0.249 OA
ATOM     20  H2  UNL     1      -5.090  23.909 -13.151  1.00  0.00     0.193 HD
ENDBRANCH  10  16
ENDBRANCH   1   8
BRANCH   7  21
HETATM   21  N7  UNL     1      -1.857  21.520  -8.515  1.00  0.00    -0.369 N 
HETATM   22  C5  UNL     1      -0.588  21.910  -9.125  1.00  0.00     0.151 C 
HETATM   23  C6  UNL     1       0.360  20.725  -9.198  1.00  0.00     0.252 C 
HETATM   24  N8  UNL     1      -0.274  19.524  -9.646  1.00  0.00    -0.072 N 
HETATM   25  C7  UNL     1      -1.350  19.135  -8.765  1.00  0.00     0.252 C 
ATOM     26  H82 UNL     1      -0.593  19.608 -10.611  1.00  0.00     0.277 HD
ATOM     27  H81 UNL     1       0.400  18.768  -9.768  1.00  0.00     0.277 HD
HETATM   28  C8  UNL     1      -2.426  20.200  -8.684  1.00  0.00     0.151 C 
ENDBRANCH   7  21
TORSDOF 3
ENDMDL
