MODEL 1
REMARK VINA RESULT: -7.841374990      0.000      0.000
REMARK  12 active torsions:
REMARK  status: ('A' for Active; 'I' for Inactive)
REMARK    1  A    between atoms: N2_3  and  C2_5 
REMARK    2  A    between atoms: C2_5  and  N3_6 
REMARK    3  A    between atoms: C2_5  and  C3_10 
REMARK    4  A    between atoms: C3_10  and  N8_30 
REMARK    5  A    between atoms: N4_11  and  N5_13 
REMARK    6  A    between atoms: N5_13  and  C4_15 
REMARK    7  A    between atoms: C7_18  and  C8_19 
REMARK    8  A    between atoms: C8_19  and  N6_20 
REMARK    9  A    between atoms: C8_19  and  N7_24 
REMARK   10  A    between atoms: N8_30  and  N9_32 
REMARK   11  A    between atoms: C11_34  and  C12_35 
REMARK   12  A    between atoms: C14_39  and  N11_40 
ROOT
HETATM    1  N1  UNL     1      11.890  -5.610  54.509  1.00  0.00    -0.172 NA
HETATM    2  C1  UNL     1      10.786  -5.458  54.888  1.00  0.00     0.179 C 
HETATM    3  N2  UNL     1       9.487  -5.255  55.322  1.00  0.00    -0.293 N 
ATOM      4  H2  UNL     1       9.213  -4.323  55.633  1.00  0.00     0.174 HD
ENDROOT
BRANCH   3   5
HETATM    5  C2  UNL     1       8.520  -6.302  55.348  1.00  0.00     0.361 C 
BRANCH   5   6
HETATM    6  N3  UNL     1       7.713  -6.141  56.558  1.00  0.00    -0.051 N 
ATOM      7  H33 UNL     1       8.201  -5.628  57.292  1.00  0.00     0.277 HD
ATOM      8  H32 UNL     1       6.937  -5.492  56.431  1.00  0.00     0.277 HD
ATOM      9  H31 UNL     1       7.409  -7.067  56.859  1.00  0.00     0.277 HD
ENDBRANCH   5   6
BRANCH   5  10
HETATM   10  C3  UNL     1       7.662  -6.414  54.168  1.00  0.00     0.162 C 
HETATM   11  N4  UNL     1       7.958  -7.274  53.254  1.00  0.00    -0.284 N 
ATOM     12  H4  UNL     1       7.369  -7.362  52.426  1.00  0.00     0.188 HD
BRANCH  11  13
HETATM   13  N5  UNL     1       9.067  -8.074  53.396  1.00  0.00    -0.299 N 
ATOM     14  H5  UNL     1       9.963  -7.712  53.068  1.00  0.00     0.187 HD
BRANCH  13  15
HETATM   15  C4  UNL     1       9.047  -9.374  53.972  1.00  0.00     0.048 A 
HETATM   16  C5  UNL     1      10.198 -10.010  54.344  1.00  0.00     0.031 A 
HETATM   17  C6  UNL     1      10.134 -11.281  54.903  1.00  0.00     0.013 A 
HETATM   18  C7  UNL     1       8.924 -11.934  55.098  1.00  0.00    -0.001 A 
HETATM   19  C9  UNL     1       7.770 -11.282  54.719  1.00  0.00     0.013 A 
HETATM   20  C10 UNL     1       7.862 -10.026  54.168  1.00  0.00     0.031 A 
BRANCH  18  21
HETATM   21  C8  UNL     1       8.842 -13.285  55.690  1.00  0.00     0.411 C 
BRANCH  21  22
HETATM   22  N6  UNL     1       7.655 -14.008  55.240  1.00  0.00    -0.046 N 
ATOM     23  H63 UNL     1       6.918 -13.366  54.950  1.00  0.00     0.277 HD
ATOM     24  H62 UNL     1       7.822 -14.474  54.348  1.00  0.00     0.277 HD
ATOM     25  H61 UNL     1       7.318 -14.665  55.943  1.00  0.00     0.277 HD
ENDBRANCH  21  22
BRANCH  21  26
HETATM   26  N7  UNL     1       8.847 -13.285  57.130  1.00  0.00    -0.046 N 
ATOM     27  H73 UNL     1       9.743 -12.952  57.487  1.00  0.00     0.277 HD
ATOM     28  H72 UNL     1       8.237 -12.553  57.493  1.00  0.00     0.277 HD
ATOM     29  H71 UNL     1       8.609 -14.188  57.540  1.00  0.00     0.277 HD
ENDBRANCH  21  26
ENDBRANCH  18  21
ENDBRANCH  13  15
ENDBRANCH  11  13
BRANCH  10  30
HETATM   30  N8  UNL     1       6.499  -5.642  53.922  1.00  0.00    -0.285 N 
ATOM     31  H8  UNL     1       5.966  -5.254  54.702  1.00  0.00     0.188 HD
BRANCH  30  32
HETATM   32  N9  UNL     1       6.090  -5.417  52.616  1.00  0.00    -0.306 N 
HETATM   33  C11 UNL     1       5.588  -4.313  52.242  1.00  0.00     0.163 C 
ATOM     34  H9  UNL     1       6.198  -6.166  51.932  1.00  0.00     0.186 HD
BRANCH  33  35
HETATM   35  C12 UNL     1       5.180  -4.162  50.831  1.00  0.00     0.165 A 
HETATM   36  N10 UNL     1       3.992  -4.473  50.294  1.00  0.00    -0.331 N 
HETATM   37  C13 UNL     1       4.038  -4.182  48.985  1.00  0.00     0.102 A 
ATOM     38  H10 UNL     1       3.193  -4.863  50.794  1.00  0.00     0.168 HD
HETATM   39  C14 UNL     1       3.138  -4.283  47.939  1.00  0.00     0.132 A 
HETATM   40  C18 UNL     1       5.289  -3.677  48.712  1.00  0.00     0.107 A 
HETATM   41  C15 UNL     1       3.455  -3.898  46.647  1.00  0.00     0.038 A 
HETATM   42  C16 UNL     1       4.707  -3.395  46.384  1.00  0.00     0.005 A 
HETATM   43  C17 UNL     1       5.619  -3.287  47.418  1.00  0.00     0.040 A 
HETATM   44  O3  UNL     1       5.917  -3.693  49.856  1.00  0.00    -0.290 OA
BRANCH  39  45
HETATM   45  N11 UNL     1       1.841  -4.797  48.173  1.00  0.00    -0.113 N 
HETATM   46  O1  UNL     1       1.389  -4.849  49.332  1.00  0.00    -0.532 OA
HETATM   47  O2  UNL     1       1.094  -5.230  47.122  1.00  0.00    -0.532 OA
ENDBRANCH  39  45
ENDBRANCH  33  35
ENDBRANCH  30  32
ENDBRANCH  10  30
ENDBRANCH   5  10
ENDBRANCH   3   5
TORSDOF 12
ENDMDL
MODEL 2
REMARK VINA RESULT: -7.519206389      1.316      1.930
REMARK  12 active torsions:
REMARK  status: ('A' for Active; 'I' for Inactive)
REMARK    1  A    between atoms: N2_3  and  C2_5 
REMARK    2  A    between atoms: C2_5  and  N3_6 
REMARK    3  A    between atoms: C2_5  and  C3_10 
REMARK    4  A    between atoms: C3_10  and  N8_30 
REMARK    5  A    between atoms: N4_11  and  N5_13 
REMARK    6  A    between atoms: N5_13  and  C4_15 
REMARK    7  A    between atoms: C7_18  and  C8_19 
REMARK    8  A    between atoms: C8_19  and  N6_20 
REMARK    9  A    between atoms: C8_19  and  N7_24 
REMARK   10  A    between atoms: N8_30  and  N9_32 
REMARK   11  A    between atoms: C11_34  and  C12_35 
REMARK   12  A    between atoms: C14_39  and  N11_40 
ROOT
HETATM    1  N1  UNL     1      11.780  -5.642  54.350  1.00  0.00    -0.172 NA
HETATM    2  C1  UNL     1      10.699  -5.510  54.796  1.00  0.00     0.179 C 
HETATM    3  N2  UNL     1       9.426  -5.329  55.309  1.00  0.00    -0.293 N 
ATOM      4  H2  UNL     1       9.164  -4.409  55.663  1.00  0.00     0.174 HD
ENDROOT
BRANCH   3   5
HETATM    5  C2  UNL     1       8.469  -6.385  55.360  1.00  0.00     0.361 C 
BRANCH   5   6
HETATM    6  N3  UNL     1       7.750  -6.280  56.631  1.00  0.00    -0.051 N 
ATOM      7  H33 UNL     1       8.162  -5.593  57.262  1.00  0.00     0.277 HD
ATOM      8  H32 UNL     1       6.834  -5.844  56.533  1.00  0.00     0.277 HD
ATOM      9  H31 UNL     1       7.701  -7.213  57.042  1.00  0.00     0.277 HD
ENDBRANCH   5   6
BRANCH   5  10
HETATM   10  C3  UNL     1       7.528  -6.453  54.242  1.00  0.00     0.162 C 
HETATM   11  N4  UNL     1       7.765  -7.266  53.270  1.00  0.00    -0.284 N 
ATOM     12  H4  UNL     1       7.118  -7.323  52.483  1.00  0.00     0.188 HD
BRANCH  11  13
HETATM   13  N5  UNL     1       8.891  -8.056  53.293  1.00  0.00    -0.299 N 
ATOM     14  H5  UNL     1       9.735  -7.698  52.845  1.00  0.00     0.187 HD
BRANCH  13  15
HETATM   15  C4  UNL     1       8.954  -9.339  53.901  1.00  0.00     0.048 A 
HETATM   16  C5  UNL     1      10.143  -9.891  54.285  1.00  0.00     0.031 A 
HETATM   17  C6  UNL     1      10.161 -11.149  54.876  1.00  0.00     0.013 A 
HETATM   18  C7  UNL     1       8.996 -11.873  55.090  1.00  0.00    -0.001 A 
HETATM   19  C9  UNL     1       7.802 -11.306  54.699  1.00  0.00     0.013 A 
HETATM   20  C10 UNL     1       7.813 -10.060  54.117  1.00  0.00     0.031 A 
BRANCH  18  21
HETATM   21  C8  UNL     1       9.000 -13.211  55.716  1.00  0.00     0.411 C 
BRANCH  21  22
HETATM   22  N6  UNL     1       7.898 -14.043  55.237  1.00  0.00    -0.046 N 
ATOM     23  H63 UNL     1       7.282 -13.519  54.616  1.00  0.00     0.277 HD
ATOM     24  H62 UNL     1       8.227 -14.750  54.580  1.00  0.00     0.277 HD
ATOM     25  H61 UNL     1       7.377 -14.466  56.005  1.00  0.00     0.277 HD
ENDBRANCH  21  22
BRANCH  21  26
HETATM   26  N7  UNL     1       8.943 -13.176  57.154  1.00  0.00    -0.046 N 
ATOM     27  H73 UNL     1       9.775 -12.727  57.537  1.00  0.00     0.277 HD
ATOM     28  H72 UNL     1       8.232 -12.516  57.470  1.00  0.00     0.277 HD
ATOM     29  H71 UNL     1       8.799 -14.091  57.581  1.00  0.00     0.277 HD
ENDBRANCH  21  26
ENDBRANCH  18  21
ENDBRANCH  13  15
ENDBRANCH  11  13
BRANCH  10  30
HETATM   30  N8  UNL     1       6.341  -5.687  54.118  1.00  0.00    -0.285 N 
ATOM     31  H8  UNL     1       5.946  -5.217  54.933  1.00  0.00     0.188 HD
BRANCH  30  32
HETATM   32  N9  UNL     1       5.721  -5.582  52.882  1.00  0.00    -0.306 N 
HETATM   33  C11 UNL     1       4.916  -4.641  52.604  1.00  0.00     0.163 C 
ATOM     34  H9  UNL     1       5.919  -6.286  52.171  1.00  0.00     0.186 HD
BRANCH  33  35
HETATM   35  C12 UNL     1       4.301  -4.607  51.262  1.00  0.00     0.165 A 
HETATM   36  N10 UNL     1       4.825  -4.080  50.145  1.00  0.00    -0.331 N 
HETATM   37  C13 UNL     1       3.944  -4.259  49.149  1.00  0.00     0.102 A 
ATOM     38  H10 UNL     1       5.734  -3.624  50.068  1.00  0.00     0.168 HD
HETATM   39  C14 UNL     1       3.927  -3.936  47.803  1.00  0.00     0.132 A 
HETATM   40  C18 UNL     1       2.851  -4.915  49.669  1.00  0.00     0.107 A 
HETATM   41  C15 UNL     1       2.859  -4.249  46.979  1.00  0.00     0.038 A 
HETATM   42  C16 UNL     1       1.771  -4.904  47.507  1.00  0.00     0.005 A 
HETATM   43  C17 UNL     1       1.772  -5.234  48.850  1.00  0.00     0.040 A 
HETATM   44  O3  UNL     1       3.131  -5.091  50.931  1.00  0.00    -0.290 OA
BRANCH  39  45
HETATM   45  N11 UNL     1       5.028  -3.262  47.227  1.00  0.00    -0.113 N 
HETATM   46  O1  UNL     1       6.029  -2.994  47.917  1.00  0.00    -0.532 OA
HETATM   47  O2  UNL     1       4.984  -2.912  45.913  1.00  0.00    -0.532 OA
ENDBRANCH  39  45
ENDBRANCH  33  35
ENDBRANCH  30  32
ENDBRANCH  10  30
ENDBRANCH   5  10
ENDBRANCH   3   5
TORSDOF 12
ENDMDL
MODEL 3
REMARK VINA RESULT: -7.409511967      3.638      9.485
REMARK  12 active torsions:
REMARK  status: ('A' for Active; 'I' for Inactive)
REMARK    1  A    between atoms: N2_3  and  C2_5 
REMARK    2  A    between atoms: C2_5  and  N3_6 
REMARK    3  A    between atoms: C2_5  and  C3_10 
REMARK    4  A    between atoms: C3_10  and  N8_30 
REMARK    5  A    between atoms: N4_11  and  N5_13 
REMARK    6  A    between atoms: N5_13  and  C4_15 
REMARK    7  A    between atoms: C7_18  and  C8_19 
REMARK    8  A    between atoms: C8_19  and  N6_20 
REMARK    9  A    between atoms: C8_19  and  N7_24 
REMARK   10  A    between atoms: N8_30  and  N9_32 
REMARK   11  A    between atoms: C11_34  and  C12_35 
REMARK   12  A    between atoms: C14_39  and  N11_40 
ROOT
HETATM    1  N1  UNL     1       0.903  -6.672  50.088  1.00  0.00    -0.172 NA
HETATM    2  C1  UNL     1       1.504  -6.010  50.854  1.00  0.00     0.179 C 
HETATM    3  N2  UNL     1       2.214  -5.254  51.770  1.00  0.00    -0.293 N 
ATOM      4  H2  UNL     1       2.120  -5.467  52.763  1.00  0.00     0.174 HD
ENDROOT
BRANCH   3   5
HETATM    5  C2  UNL     1       3.073  -4.187  51.375  1.00  0.00     0.361 C 
BRANCH   5   6
HETATM    6  N3  UNL     1       2.450  -2.929  51.786  1.00  0.00    -0.051 N 
ATOM      7  H33 UNL     1       1.638  -2.686  51.219  1.00  0.00     0.277 HD
ATOM      8  H32 UNL     1       1.971  -3.000  52.684  1.00  0.00     0.277 HD
ATOM      9  H31 UNL     1       3.168  -2.204  51.778  1.00  0.00     0.277 HD
ENDBRANCH   5   6
BRANCH   5  10
HETATM   10  C3  UNL     1       4.452  -4.260  51.858  1.00  0.00     0.162 C 
HETATM   11  N4  UNL     1       5.389  -3.698  51.173  1.00  0.00    -0.284 N 
ATOM     12  H4  UNL     1       6.356  -3.743  51.498  1.00  0.00     0.188 HD
BRANCH  11  13
HETATM   13  N5  UNL     1       5.087  -3.039  50.005  1.00  0.00    -0.299 N 
ATOM     14  H5  UNL     1       5.163  -2.022  49.997  1.00  0.00     0.187 HD
BRANCH  13  15
HETATM   15  C4  UNL     1       4.674  -3.684  48.807  1.00  0.00     0.048 A 
HETATM   16  C5  UNL     1       5.545  -3.909  47.779  1.00  0.00     0.031 A 
HETATM   17  C6  UNL     1       5.100  -4.542  46.624  1.00  0.00     0.013 A 
HETATM   18  C7  UNL     1       3.784  -4.959  46.480  1.00  0.00    -0.001 A 
HETATM   19  C9  UNL     1       2.914  -4.728  47.524  1.00  0.00     0.013 A 
HETATM   20  C10 UNL     1       3.381  -4.099  48.654  1.00  0.00     0.031 A 
BRANCH  18  21
HETATM   21  C8  UNL     1       3.298  -5.633  45.258  1.00  0.00     0.411 C 
BRANCH  21  22
HETATM   22  N6  UNL     1       4.070  -5.252  44.078  1.00  0.00    -0.046 N 
ATOM     23  H63 UNL     1       3.591  -4.531  43.539  1.00  0.00     0.277 HD
ATOM     24  H62 UNL     1       4.907  -4.730  44.337  1.00  0.00     0.277 HD
ATOM     25  H61 UNL     1       4.301  -6.057  43.496  1.00  0.00     0.277 HD
ENDBRANCH  21  22
BRANCH  21  26
HETATM   26  N7  UNL     1       1.906  -5.391  44.980  1.00  0.00    -0.046 N 
ATOM     27  H73 UNL     1       1.326  -6.133  45.372  1.00  0.00     0.277 HD
ATOM     28  H72 UNL     1       1.562  -4.600  45.525  1.00  0.00     0.277 HD
ATOM     29  H71 UNL     1       1.703  -5.261  43.989  1.00  0.00     0.277 HD
ENDBRANCH  21  26
ENDBRANCH  18  21
ENDBRANCH  13  15
ENDBRANCH  11  13
BRANCH  10  30
HETATM   30  N8  UNL     1       4.874  -4.911  53.045  1.00  0.00    -0.285 N 
ATOM     31  H8  UNL     1       4.470  -4.650  53.945  1.00  0.00     0.188 HD
BRANCH  30  32
HETATM   32  N9  UNL     1       5.838  -5.905  52.974  1.00  0.00    -0.306 N 
HETATM   33  C11 UNL     1       6.477  -6.305  53.996  1.00  0.00     0.163 C 
ATOM     34  H9  UNL     1       6.042  -6.330  52.070  1.00  0.00     0.186 HD
BRANCH  33  35
HETATM   35  C12 UNL     1       7.487  -7.369  53.828  1.00  0.00     0.165 A 
HETATM   36  N10 UNL     1       7.928  -7.892  52.675  1.00  0.00    -0.331 N 
HETATM   37  C13 UNL     1       8.841  -8.831  52.966  1.00  0.00     0.102 A 
ATOM     38  H10 UNL     1       7.622  -7.623  51.740  1.00  0.00     0.168 HD
HETATM   39  C14 UNL     1       9.623  -9.688  52.212  1.00  0.00     0.132 A 
HETATM   40  C18 UNL     1       8.965  -8.884  54.337  1.00  0.00     0.107 A 
HETATM   41  C15 UNL     1      10.510 -10.582  52.786  1.00  0.00     0.038 A 
HETATM   42  C16 UNL     1      10.627 -10.629  54.155  1.00  0.00     0.005 A 
HETATM   43  C17 UNL     1       9.853  -9.779  54.924  1.00  0.00     0.040 A 
HETATM   44  O3  UNL     1       8.130  -7.988  54.786  1.00  0.00    -0.290 OA
BRANCH  39  45
HETATM   45  N11 UNL     1       9.528  -9.668  50.800  1.00  0.00    -0.113 N 
HETATM   46  O1  UNL     1       8.416  -9.743  50.247  1.00  0.00    -0.532 OA
HETATM   47  O2  UNL     1      10.662  -9.565  50.057  1.00  0.00    -0.532 OA
ENDBRANCH  39  45
ENDBRANCH  33  35
ENDBRANCH  30  32
ENDBRANCH  10  30
ENDBRANCH   5  10
ENDBRANCH   3   5
TORSDOF 12
ENDMDL
MODEL 4
REMARK VINA RESULT: -7.354617590      3.585      9.897
REMARK  12 active torsions:
REMARK  status: ('A' for Active; 'I' for Inactive)
REMARK    1  A    between atoms: N2_3  and  C2_5 
REMARK    2  A    between atoms: C2_5  and  N3_6 
REMARK    3  A    between atoms: C2_5  and  C3_10 
REMARK    4  A    between atoms: C3_10  and  N8_30 
REMARK    5  A    between atoms: N4_11  and  N5_13 
REMARK    6  A    between atoms: N5_13  and  C4_15 
REMARK    7  A    between atoms: C7_18  and  C8_19 
REMARK    8  A    between atoms: C8_19  and  N6_20 
REMARK    9  A    between atoms: C8_19  and  N7_24 
REMARK   10  A    between atoms: N8_30  and  N9_32 
REMARK   11  A    between atoms: C11_34  and  C12_35 
REMARK   12  A    between atoms: C14_39  and  N11_40 
ROOT
HETATM    1  N1  UNL     1       0.719  -6.699  50.480  1.00  0.00    -0.172 NA
HETATM    2  C1  UNL     1       1.618  -6.109  50.961  1.00  0.00     0.179 C 
HETATM    3  N2  UNL     1       2.690  -5.439  51.524  1.00  0.00    -0.293 N 
ATOM      4  H2  UNL     1       3.324  -5.952  52.137  1.00  0.00     0.174 HD
ENDROOT
BRANCH   3   5
HETATM    5  C2  UNL     1       2.940  -4.058  51.275  1.00  0.00     0.361 C 
BRANCH   5   6
HETATM    6  N3  UNL     1       2.907  -3.355  52.559  1.00  0.00    -0.051 N 
ATOM      7  H33 UNL     1       2.030  -2.857  52.715  1.00  0.00     0.277 HD
ATOM      8  H32 UNL     1       2.846  -3.990  53.355  1.00  0.00     0.277 HD
ATOM      9  H31 UNL     1       3.722  -2.743  52.604  1.00  0.00     0.277 HD
ENDBRANCH   5   6
BRANCH   5  10
HETATM   10  C3  UNL     1       4.172  -3.748  50.551  1.00  0.00     0.162 C 
HETATM   11  N4  UNL     1       4.168  -3.774  49.262  1.00  0.00    -0.284 N 
ATOM     12  H4  UNL     1       5.021  -3.562  48.744  1.00  0.00     0.188 HD
BRANCH  11  13
HETATM   13  N5  UNL     1       3.014  -4.090  48.585  1.00  0.00    -0.299 N 
ATOM     14  H5  UNL     1       2.126  -3.981  49.077  1.00  0.00     0.187 HD
BRANCH  13  15
HETATM   15  C4  UNL     1       2.976  -4.557  47.243  1.00  0.00     0.048 A 
HETATM   16  C5  UNL     1       4.120  -4.796  46.535  1.00  0.00     0.031 A 
HETATM   17  C6  UNL     1       4.040  -5.252  45.225  1.00  0.00     0.013 A 
HETATM   18  C7  UNL     1       2.819  -5.475  44.603  1.00  0.00    -0.001 A 
HETATM   19  C9  UNL     1       1.671  -5.233  45.326  1.00  0.00     0.013 A 
HETATM   20  C10 UNL     1       1.780  -4.781  46.621  1.00  0.00     0.031 A 
BRANCH  18  21
HETATM   21  C8  UNL     1       2.718  -5.960  43.211  1.00  0.00     0.411 C 
BRANCH  21  22
HETATM   22  N6  UNL     1       3.570  -5.196  42.302  1.00  0.00    -0.046 N 
ATOM     23  H63 UNL     1       3.765  -4.266  42.672  1.00  0.00     0.277 HD
ATOM     24  H62 UNL     1       4.521  -5.566  42.289  1.00  0.00     0.277 HD
ATOM     25  H61 UNL     1       3.179  -5.147  41.362  1.00  0.00     0.277 HD
ENDBRANCH  21  22
BRANCH  21  26
HETATM   26  N7  UNL     1       1.376  -5.941  42.688  1.00  0.00    -0.046 N 
ATOM     27  H73 UNL     1       0.851  -6.751  43.017  1.00  0.00     0.277 HD
ATOM     28  H72 UNL     1       0.831  -5.197  43.124  1.00  0.00     0.277 HD
ATOM     29  H71 UNL     1       1.334  -5.871  41.672  1.00  0.00     0.277 HD
ENDBRANCH  21  26
ENDBRANCH  18  21
ENDBRANCH  13  15
ENDBRANCH  11  13
BRANCH  10  30
HETATM   30  N8  UNL     1       5.414  -3.411  51.148  1.00  0.00    -0.285 N 
ATOM     31  H8  UNL     1       5.678  -2.432  51.266  1.00  0.00     0.188 HD
BRANCH  30  32
HETATM   32  N9  UNL     1       6.267  -4.420  51.569  1.00  0.00    -0.306 N 
HETATM   33  C11 UNL     1       6.087  -5.051  52.656  1.00  0.00     0.163 C 
ATOM     34  H9  UNL     1       7.066  -4.664  50.985  1.00  0.00     0.186 HD
BRANCH  33  35
HETATM   35  C12 UNL     1       7.046  -6.111  53.027  1.00  0.00     0.165 A 
HETATM   36  N10 UNL     1       7.462  -7.129  52.260  1.00  0.00    -0.331 N 
HETATM   37  C13 UNL     1       8.329  -7.861  52.976  1.00  0.00     0.102 A 
ATOM     38  H10 UNL     1       7.170  -7.315  51.301  1.00  0.00     0.168 HD
HETATM   39  C14 UNL     1       9.069  -9.003  52.725  1.00  0.00     0.132 A 
HETATM   40  C18 UNL     1       8.449  -7.274  54.216  1.00  0.00     0.107 A 
HETATM   41  C15 UNL     1       9.912  -9.563  53.670  1.00  0.00     0.038 A 
HETATM   42  C16 UNL     1      10.026  -8.970  54.906  1.00  0.00     0.005 A 
HETATM   43  C17 UNL     1       9.293  -7.828  55.173  1.00  0.00     0.040 A 
HETATM   44  O3  UNL     1       7.658  -6.237  54.177  1.00  0.00    -0.290 OA
BRANCH  39  45
HETATM   45  N11 UNL     1       8.977  -9.640  51.466  1.00  0.00    -0.113 N 
HETATM   46  O1  UNL     1       7.904  -9.625  50.835  1.00  0.00    -0.532 OA
HETATM   47  O2  UNL     1      10.070 -10.265  50.952  1.00  0.00    -0.532 OA
ENDBRANCH  39  45
ENDBRANCH  33  35
ENDBRANCH  30  32
ENDBRANCH  10  30
ENDBRANCH   5  10
ENDBRANCH   3   5
TORSDOF 12
ENDMDL
MODEL 5
REMARK VINA RESULT: -7.337601026      1.643      2.289
REMARK  12 active torsions:
REMARK  status: ('A' for Active; 'I' for Inactive)
REMARK    1  A    between atoms: N2_3  and  C2_5 
REMARK    2  A    between atoms: C2_5  and  N3_6 
REMARK    3  A    between atoms: C2_5  and  C3_10 
REMARK    4  A    between atoms: C3_10  and  N8_30 
REMARK    5  A    between atoms: N4_11  and  N5_13 
REMARK    6  A    between atoms: N5_13  and  C4_15 
REMARK    7  A    between atoms: C7_18  and  C8_19 
REMARK    8  A    between atoms: C8_19  and  N6_20 
REMARK    9  A    between atoms: C8_19  and  N7_24 
REMARK   10  A    between atoms: N8_30  and  N9_32 
REMARK   11  A    between atoms: C11_34  and  C12_35 
REMARK   12  A    between atoms: C14_39  and  N11_40 
ROOT
HETATM    1  N1  UNL     1      12.933  -4.523  53.431  1.00  0.00    -0.172 NA
HETATM    2  C1  UNL     1      12.210  -4.894  54.283  1.00  0.00     0.179 C 
HETATM    3  N2  UNL     1      11.352  -5.303  55.289  1.00  0.00    -0.293 N 
ATOM      4  H2  UNL     1      11.264  -4.726  56.126  1.00  0.00     0.174 HD
ENDROOT
BRANCH   3   5
HETATM    5  C2  UNL     1      10.587  -6.502  55.197  1.00  0.00     0.361 C 
BRANCH   5   6
HETATM    6  N3  UNL     1      10.410  -7.030  56.550  1.00  0.00    -0.051 N 
ATOM      7  H33 UNL     1      10.973  -6.536  57.243  1.00  0.00     0.277 HD
ATOM      8  H32 UNL     1       9.493  -6.815  56.942  1.00  0.00     0.277 HD
ATOM      9  H31 UNL     1      10.604  -8.031  56.525  1.00  0.00     0.277 HD
ENDBRANCH   5   6
BRANCH   5  10
HETATM   10  C3  UNL     1       9.297  -6.390  54.516  1.00  0.00     0.162 C 
HETATM   11  N4  UNL     1       8.907  -7.348  53.745  1.00  0.00    -0.284 N 
ATOM     12  H4  UNL     1       8.010  -7.283  53.263  1.00  0.00     0.188 HD
BRANCH  11  13
HETATM   13  N5  UNL     1       9.701  -8.458  53.573  1.00  0.00    -0.299 N 
ATOM     14  H5  UNL     1      10.551  -8.356  53.018  1.00  0.00     0.187 HD
BRANCH  13  15
HETATM   15  C4  UNL     1       9.414  -9.739  54.119  1.00  0.00     0.048 A 
HETATM   16  C5  UNL     1       8.136 -10.216  54.191  1.00  0.00     0.031 A 
HETATM   17  C6  UNL     1       7.899 -11.474  54.734  1.00  0.00     0.013 A 
HETATM   18  C7  UNL     1       8.930 -12.270  55.211  1.00  0.00    -0.001 A 
HETATM   19  C9  UNL     1      10.216 -11.779  55.133  1.00  0.00     0.013 A 
HETATM   20  C10 UNL     1      10.422 -10.531  54.592  1.00  0.00     0.031 A 
BRANCH  18  21
HETATM   21  C8  UNL     1       8.693 -13.609  55.790  1.00  0.00     0.411 C 
BRANCH  21  22
HETATM   22  N6  UNL     1       7.487 -14.232  55.251  1.00  0.00    -0.046 N 
ATOM     23  H63 UNL     1       7.608 -15.239  55.142  1.00  0.00     0.277 HD
ATOM     24  H62 UNL     1       6.733 -14.235  55.939  1.00  0.00     0.277 HD
ATOM     25  H61 UNL     1       7.189 -13.798  54.378  1.00  0.00     0.277 HD
ENDBRANCH  21  22
BRANCH  21  26
HETATM   26  N7  UNL     1       8.593 -13.607  57.227  1.00  0.00    -0.046 N 
ATOM     27  H73 UNL     1       8.161 -14.469  57.559  1.00  0.00     0.277 HD
ATOM     28  H72 UNL     1       9.516 -13.704  57.652  1.00  0.00     0.277 HD
ATOM     29  H71 UNL     1       8.108 -12.793  57.602  1.00  0.00     0.277 HD
ENDBRANCH  21  26
ENDBRANCH  18  21
ENDBRANCH  13  15
ENDBRANCH  11  13
BRANCH  10  30
HETATM   30  N8  UNL     1       8.403  -5.295  54.623  1.00  0.00    -0.285 N 
ATOM     31  H8  UNL     1       8.449  -4.672  55.430  1.00  0.00     0.188 HD
BRANCH  30  32
HETATM   32  N9  UNL     1       7.467  -5.076  53.624  1.00  0.00    -0.306 N 
HETATM   33  C11 UNL     1       6.251  -5.422  53.744  1.00  0.00     0.163 C 
ATOM     34  H9  UNL     1       7.765  -4.621  52.761  1.00  0.00     0.186 HD
BRANCH  33  35
HETATM   35  C12 UNL     1       5.323  -5.149  52.629  1.00  0.00     0.165 A 
HETATM   36  N10 UNL     1       4.138  -5.734  52.401  1.00  0.00    -0.331 N 
HETATM   37  C13 UNL     1       3.618  -5.200  51.286  1.00  0.00     0.102 A 
ATOM     38  H10 UNL     1       3.708  -6.459  52.976  1.00  0.00     0.168 HD
HETATM   39  C14 UNL     1       2.449  -5.397  50.573  1.00  0.00     0.132 A 
HETATM   40  C18 UNL     1       4.508  -4.260  50.817  1.00  0.00     0.107 A 
HETATM   41  C15 UNL     1       2.154  -4.687  49.421  1.00  0.00     0.038 A 
HETATM   42  C16 UNL     1       3.049  -3.750  48.960  1.00  0.00     0.005 A 
HETATM   43  C17 UNL     1       4.223  -3.541  49.661  1.00  0.00     0.040 A 
HETATM   44  O3  UNL     1       5.500  -4.282  51.665  1.00  0.00    -0.290 OA
BRANCH  39  45
HETATM   45  N11 UNL     1       1.505  -6.353  51.017  1.00  0.00    -0.113 N 
HETATM   46  O1  UNL     1       0.635  -6.782  50.238  1.00  0.00    -0.532 OA
HETATM   47  O2  UNL     1       1.560  -6.797  52.301  1.00  0.00    -0.532 OA
ENDBRANCH  39  45
ENDBRANCH  33  35
ENDBRANCH  30  32
ENDBRANCH  10  30
ENDBRANCH   5  10
ENDBRANCH   3   5
TORSDOF 12
ENDMDL
