MODEL 1
REMARK VINA RESULT: -8.731387638      0.000      0.000
REMARK  11 active torsions:
REMARK  status: ('A' for Active; 'I' for Inactive)
REMARK    1  A    between atoms: C1_4  and  C2_5 
REMARK    2  A    between atoms: C1_4  and  N3_9 
REMARK    3  A    between atoms: C2_5  and  N2_6 
REMARK    4  A    between atoms: N3_9  and  S1_11 
REMARK    5  A    between atoms: S1_11  and  C3_12 
REMARK    6  A    between atoms: C5_18  and  C6_19 
REMARK       I    between atoms: C6_19  and  N5_21 
REMARK    7  A    between atoms: N5_21  and  N6_22 
REMARK    8  A    between atoms: C7_24  and  C8_25 
REMARK    9  A    between atoms: C11_28  and  O6_29 
REMARK   10  A    between atoms: C12_31  and  O7_32 
REMARK   11  A    between atoms: C13_34  and  N7_35 
ROOT
HETATM    1  C6  UNL     1       3.286  -4.488  51.655  1.00  0.00     0.354 C 
HETATM    2  O5  UNL     1       2.967  -3.328  51.967  1.00  0.00    -0.249 OA
HETATM    3  N5  UNL     1       4.412  -5.152  52.066  1.00  0.00    -0.281 NA
ENDROOT
BRANCH   1   4
HETATM    4  C5  UNL     1       2.384  -5.227  50.756  1.00  0.00     0.162 A 
HETATM    5  C3  UNL     1       2.300  -5.017  49.350  1.00  0.00     0.135 A 
HETATM    6  N4  UNL     1       1.380  -5.915  48.998  1.00  0.00    -0.248 N 
HETATM    7  O3  UNL     1       0.917  -6.602  49.981  1.00  0.00    -0.194 OA
ATOM      8  H4  UNL     1       1.072  -6.046  48.035  1.00  0.00     0.195 HD
HETATM    9  C4  UNL     1       1.496  -6.223  51.071  1.00  0.00     0.324 A 
HETATM   10  O4  UNL     1       1.338  -6.647  52.277  1.00  0.00    -0.257 OA
BRANCH   5  11
HETATM   11  S1  UNL     1       3.256  -3.845  48.425  1.00  0.00     0.008 SA
BRANCH  11  12
HETATM   12  N3  UNL     1       2.612  -3.776  46.756  1.00  0.00    -0.313 N 
ATOM     13  H3  UNL     1       2.158  -2.916  46.451  1.00  0.00     0.175 HD
BRANCH  12  14
HETATM   14  C1  UNL     1       2.696  -4.846  45.839  1.00  0.00     0.105 C 
HETATM   15  N1  UNL     1       1.644  -5.205  45.195  1.00  0.00    -0.387 N 
ATOM     16  H12 UNL     1       1.705  -5.978  44.532  1.00  0.00     0.157 HD
ATOM     17  H11 UNL     1       0.780  -4.699  45.386  1.00  0.00     0.157 HD
BRANCH  14  18
HETATM   18  C2  UNL     1       3.953  -5.583  45.561  1.00  0.00     0.277 C 
BRANCH  18  19
HETATM   19  N2  UNL     1       4.699  -4.945  44.496  1.00  0.00    -0.148 N 
HETATM   20  O1  UNL     1       5.196  -5.571  43.541  1.00  0.00    -0.536 OA
HETATM   21  O2  UNL     1       4.872  -3.584  44.527  1.00  0.00    -0.536 OA
ENDBRANCH  18  19
ENDBRANCH  14  18
ENDBRANCH  12  14
ENDBRANCH  11  12
ENDBRANCH   5  11
ENDBRANCH   1   4
BRANCH   3  22
HETATM   22  N6  UNL     1       5.468  -5.775  52.453  1.00  0.00    -0.242 N 
HETATM   23  C7  UNL     1       6.140  -5.986  53.521  1.00  0.00     0.135 C 
ATOM     24  H6  UNL     1       5.907  -6.248  51.663  1.00  0.00     0.201 HD
BRANCH  23  25
HETATM   25  C8  UNL     1       7.333  -6.801  53.480  1.00  0.00     0.018 A 
HETATM   26  C9  UNL     1       7.548  -7.550  52.333  1.00  0.00     0.018 A 
HETATM   27  C10 UNL     1       8.682  -8.301  52.182  1.00  0.00     0.040 A 
HETATM   28  C11 UNL     1       9.603  -8.295  53.205  1.00  0.00     0.101 A 
HETATM   29  C12 UNL     1       9.414  -7.569  54.348  1.00  0.00     0.133 A 
HETATM   30  C13 UNL     1       8.233  -6.799  54.484  1.00  0.00     0.150 A 
BRANCH  28  31
HETATM   31  O6  UNL     1      10.788  -9.050  53.093  1.00  0.00    -0.358 OA
ATOM     32  H6  UNL     1      11.479  -8.950  53.737  1.00  0.00     0.217 HD
ENDBRANCH  28  31
BRANCH  29  33
HETATM   33  O7  UNL     1      10.341  -7.579  55.338  1.00  0.00    -0.356 OA
ATOM     34  H7  UNL     1      10.385  -8.301  55.954  1.00  0.00     0.218 HD
ENDBRANCH  29  33
BRANCH  30  35
HETATM   35  N7  UNL     1       8.098  -6.110  55.714  1.00  0.00    -0.112 N 
HETATM   36  O8  UNL     1       8.906  -5.204  55.992  1.00  0.00    -0.532 OA
HETATM   37  O9  UNL     1       7.098  -6.405  56.578  1.00  0.00    -0.532 OA
ENDBRANCH  30  35
ENDBRANCH  23  25
ENDBRANCH   3  22
TORSDOF 11
ENDMDL
MODEL 2
REMARK VINA RESULT: -8.535722522      1.236      2.104
REMARK  11 active torsions:
REMARK  status: ('A' for Active; 'I' for Inactive)
REMARK    1  A    between atoms: C1_4  and  C2_5 
REMARK    2  A    between atoms: C1_4  and  N3_9 
REMARK    3  A    between atoms: C2_5  and  N2_6 
REMARK    4  A    between atoms: N3_9  and  S1_11 
REMARK    5  A    between atoms: S1_11  and  C3_12 
REMARK    6  A    between atoms: C5_18  and  C6_19 
REMARK       I    between atoms: C6_19  and  N5_21 
REMARK    7  A    between atoms: N5_21  and  N6_22 
REMARK    8  A    between atoms: C7_24  and  C8_25 
REMARK    9  A    between atoms: C11_28  and  O6_29 
REMARK   10  A    between atoms: C12_31  and  O7_32 
REMARK   11  A    between atoms: C13_34  and  N7_35 
ROOT
HETATM    1  C6  UNL     1       3.456  -4.159  51.546  1.00  0.00     0.354 C 
HETATM    2  O5  UNL     1       3.107  -2.971  51.641  1.00  0.00    -0.249 OA
HETATM    3  N5  UNL     1       4.534  -4.735  52.164  1.00  0.00    -0.281 NA
ENDROOT
BRANCH   1   4
HETATM    4  C5  UNL     1       2.649  -5.041  50.685  1.00  0.00     0.162 A 
HETATM    5  C3  UNL     1       2.571  -4.932  49.268  1.00  0.00     0.135 A 
HETATM    6  N4  UNL     1       1.753  -5.939  48.964  1.00  0.00    -0.248 N 
HETATM    7  O3  UNL     1       1.342  -6.604  49.983  1.00  0.00    -0.194 OA
ATOM      8  H4  UNL     1       1.477  -6.161  48.007  1.00  0.00     0.195 HD
HETATM    9  C4  UNL     1       1.859  -6.100  51.053  1.00  0.00     0.324 A 
HETATM   10  O4  UNL     1       1.722  -6.460  52.283  1.00  0.00    -0.257 OA
BRANCH   5  11
HETATM   11  S1  UNL     1       3.422  -3.730  48.280  1.00  0.00     0.008 SA
BRANCH  11  12
HETATM   12  N3  UNL     1       2.695  -3.720  46.645  1.00  0.00    -0.313 N 
ATOM     13  H3  UNL     1       2.236  -2.867  46.328  1.00  0.00     0.175 HD
BRANCH  12  14
HETATM   14  C1  UNL     1       2.721  -4.827  45.768  1.00  0.00     0.105 C 
HETATM   15  N1  UNL     1       1.636  -5.191  45.184  1.00  0.00    -0.387 N 
ATOM     16  H12 UNL     1       1.655  -5.991  44.551  1.00  0.00     0.157 HD
ATOM     17  H11 UNL     1       0.790  -4.661  45.390  1.00  0.00     0.157 HD
BRANCH  14  18
HETATM   18  C2  UNL     1       3.952  -5.598  45.468  1.00  0.00     0.277 C 
BRANCH  18  19
HETATM   19  N2  UNL     1       4.703  -4.973  44.398  1.00  0.00    -0.148 N 
HETATM   20  O1  UNL     1       5.154  -5.604  43.423  1.00  0.00    -0.536 OA
HETATM   21  O2  UNL     1       4.934  -3.622  44.449  1.00  0.00    -0.536 OA
ENDBRANCH  18  19
ENDBRANCH  14  18
ENDBRANCH  12  14
ENDBRANCH  11  12
ENDBRANCH   5  11
ENDBRANCH   1   4
BRANCH   3  22
HETATM   22  N6  UNL     1       5.546  -5.275  52.746  1.00  0.00    -0.242 N 
HETATM   23  C7  UNL     1       6.247  -6.344  52.692  1.00  0.00     0.135 C 
ATOM     24  H6  UNL     1       5.900  -4.660  53.478  1.00  0.00     0.201 HD
BRANCH  23  25
HETATM   25  C8  UNL     1       7.360  -6.529  53.595  1.00  0.00     0.018 A 
HETATM   26  C9  UNL     1       7.307  -5.862  54.809  1.00  0.00     0.018 A 
HETATM   27  C10 UNL     1       8.287  -6.030  55.750  1.00  0.00     0.040 A 
HETATM   28  C11 UNL     1       9.330  -6.879  55.455  1.00  0.00     0.101 A 
HETATM   29  C12 UNL     1       9.407  -7.546  54.263  1.00  0.00     0.133 A 
HETATM   30  C13 UNL     1       8.383  -7.357  53.303  1.00  0.00     0.150 A 
BRANCH  28  31
HETATM   31  O6  UNL     1      10.359  -7.085  56.394  1.00  0.00    -0.358 OA
ATOM     32  H6  UNL     1      11.100  -7.639  56.175  1.00  0.00     0.217 HD
ENDBRANCH  28  31
BRANCH  29  33
HETATM   33  O7  UNL     1      10.445  -8.379  54.002  1.00  0.00    -0.356 OA
ATOM     34  H7  UNL     1      10.858  -8.386  53.147  1.00  0.00     0.218 HD
ENDBRANCH  29  33
BRANCH  30  35
HETATM   35  N7  UNL     1       8.562  -8.054  52.084  1.00  0.00    -0.112 N 
HETATM   36  O8  UNL     1       9.454  -7.681  51.298  1.00  0.00    -0.532 OA
HETATM   37  O9  UNL     1       7.798  -9.126  51.769  1.00  0.00    -0.532 OA
ENDBRANCH  30  35
ENDBRANCH  23  25
ENDBRANCH   3  22
TORSDOF 11
ENDMDL
MODEL 3
REMARK VINA RESULT: -8.521647281      2.078      2.581
REMARK  11 active torsions:
REMARK  status: ('A' for Active; 'I' for Inactive)
REMARK    1  A    between atoms: C1_4  and  C2_5 
REMARK    2  A    between atoms: C1_4  and  N3_9 
REMARK    3  A    between atoms: C2_5  and  N2_6 
REMARK    4  A    between atoms: N3_9  and  S1_11 
REMARK    5  A    between atoms: S1_11  and  C3_12 
REMARK    6  A    between atoms: C5_18  and  C6_19 
REMARK       I    between atoms: C6_19  and  N5_21 
REMARK    7  A    between atoms: N5_21  and  N6_22 
REMARK    8  A    between atoms: C7_24  and  C8_25 
REMARK    9  A    between atoms: C11_28  and  O6_29 
REMARK   10  A    between atoms: C12_31  and  O7_32 
REMARK   11  A    between atoms: C13_34  and  N7_35 
ROOT
HETATM    1  C6  UNL     1       3.149  -4.510  51.661  1.00  0.00     0.354 C 
HETATM    2  O5  UNL     1       2.799  -3.364  51.988  1.00  0.00    -0.249 OA
HETATM    3  N5  UNL     1       4.288  -5.152  52.071  1.00  0.00    -0.281 NA
ENDROOT
BRANCH   1   4
HETATM    4  C5  UNL     1       2.273  -5.256  50.741  1.00  0.00     0.162 A 
HETATM    5  C3  UNL     1       2.167  -4.999  49.345  1.00  0.00     0.135 A 
HETATM    6  N4  UNL     1       1.287  -5.925  48.967  1.00  0.00    -0.248 N 
HETATM    7  O3  UNL     1       0.864  -6.667  49.927  1.00  0.00    -0.194 OA
ATOM      8  H4  UNL     1       0.976  -6.034  48.002  1.00  0.00     0.195 HD
HETATM    9  C4  UNL     1       1.434  -6.302  51.026  1.00  0.00     0.324 A 
HETATM   10  O4  UNL     1       1.308  -6.777  52.217  1.00  0.00    -0.257 OA
BRANCH   5  11
HETATM   11  S1  UNL     1       3.060  -3.751  48.456  1.00  0.00     0.008 SA
BRANCH  11  12
HETATM   12  N3  UNL     1       4.810  -4.100  48.589  1.00  0.00    -0.313 N 
ATOM     13  H3  UNL     1       5.195  -4.850  48.015  1.00  0.00     0.175 HD
BRANCH  12  14
HETATM   14  C1  UNL     1       5.688  -3.397  49.442  1.00  0.00     0.105 C 
HETATM   15  N1  UNL     1       5.200  -2.615  50.338  1.00  0.00    -0.387 N 
ATOM     16  H12 UNL     1       5.834  -2.106  50.954  1.00  0.00     0.157 HD
ATOM     17  H11 UNL     1       4.185  -2.529  50.385  1.00  0.00     0.157 HD
BRANCH  14  18
HETATM   18  C2  UNL     1       7.164  -3.521  49.372  1.00  0.00     0.277 C 
BRANCH  18  19
HETATM   19  N2  UNL     1       7.713  -2.598  48.400  1.00  0.00    -0.148 N 
HETATM   20  O1  UNL     1       8.935  -2.404  48.258  1.00  0.00    -0.536 OA
HETATM   21  O2  UNL     1       6.856  -1.900  47.587  1.00  0.00    -0.536 OA
ENDBRANCH  18  19
ENDBRANCH  14  18
ENDBRANCH  12  14
ENDBRANCH  11  12
ENDBRANCH   5  11
ENDBRANCH   1   4
BRANCH   3  22
HETATM   22  N6  UNL     1       5.356  -5.755  52.457  1.00  0.00    -0.242 N 
HETATM   23  C7  UNL     1       6.034  -5.951  53.524  1.00  0.00     0.135 C 
ATOM     24  H6  UNL     1       5.801  -6.222  51.667  1.00  0.00     0.201 HD
BRANCH  23  25
HETATM   25  C8  UNL     1       7.241  -6.745  53.482  1.00  0.00     0.018 A 
HETATM   26  C9  UNL     1       7.492  -7.453  52.318  1.00  0.00     0.018 A 
HETATM   27  C10 UNL     1       8.643  -8.180  52.167  1.00  0.00     0.040 A 
HETATM   28  C11 UNL     1       9.542  -8.191  53.209  1.00  0.00     0.101 A 
HETATM   29  C12 UNL     1       9.317  -7.504  54.369  1.00  0.00     0.133 A 
HETATM   30  C13 UNL     1       8.120  -6.759  54.505  1.00  0.00     0.150 A 
BRANCH  28  31
HETATM   31  O6  UNL     1      10.742  -8.922  53.097  1.00  0.00    -0.358 OA
ATOM     32  H6  UNL     1      10.857  -9.541  52.386  1.00  0.00     0.217 HD
ENDBRANCH  28  31
BRANCH  29  33
HETATM   33  O7  UNL     1      10.224  -7.530  55.378  1.00  0.00    -0.356 OA
ATOM     34  H7  UNL     1      11.156  -7.531  55.192  1.00  0.00     0.218 HD
ENDBRANCH  29  33
BRANCH  30  35
HETATM   35  N7  UNL     1       7.949  -6.112  55.752  1.00  0.00    -0.112 N 
HETATM   36  O8  UNL     1       8.747  -5.216  56.085  1.00  0.00    -0.532 OA
HETATM   37  O9  UNL     1       6.924  -6.435  56.576  1.00  0.00    -0.532 OA
ENDBRANCH  30  35
ENDBRANCH  23  25
ENDBRANCH   3  22
TORSDOF 11
ENDMDL
MODEL 4
REMARK VINA RESULT: -8.446945803      1.798      2.720
REMARK  11 active torsions:
REMARK  status: ('A' for Active; 'I' for Inactive)
REMARK    1  A    between atoms: C1_4  and  C2_5 
REMARK    2  A    between atoms: C1_4  and  N3_9 
REMARK    3  A    between atoms: C2_5  and  N2_6 
REMARK    4  A    between atoms: N3_9  and  S1_11 
REMARK    5  A    between atoms: S1_11  and  C3_12 
REMARK    6  A    between atoms: C5_18  and  C6_19 
REMARK       I    between atoms: C6_19  and  N5_21 
REMARK    7  A    between atoms: N5_21  and  N6_22 
REMARK    8  A    between atoms: C7_24  and  C8_25 
REMARK    9  A    between atoms: C11_28  and  O6_29 
REMARK   10  A    between atoms: C12_31  and  O7_32 
REMARK   11  A    between atoms: C13_34  and  N7_35 
ROOT
HETATM    1  C6  UNL     1       3.655  -4.179  51.735  1.00  0.00     0.354 C 
HETATM    2  O5  UNL     1       3.186  -3.055  51.981  1.00  0.00    -0.249 OA
HETATM    3  N5  UNL     1       4.731  -4.756  52.356  1.00  0.00    -0.281 NA
ENDROOT
BRANCH   1   4
HETATM    4  C5  UNL     1       3.008  -4.973  50.676  1.00  0.00     0.162 A 
HETATM    5  C3  UNL     1       3.315  -4.868  49.290  1.00  0.00     0.135 A 
HETATM    6  N4  UNL     1       2.499  -5.779  48.763  1.00  0.00    -0.248 N 
HETATM    7  O3  UNL     1       1.766  -6.386  49.626  1.00  0.00    -0.194 OA
ATOM      8  H4  UNL     1       2.460  -5.978  47.763  1.00  0.00     0.195 HD
HETATM    9  C4  UNL     1       2.038  -5.934  50.804  1.00  0.00     0.324 A 
HETATM   10  O4  UNL     1       1.546  -6.266  51.948  1.00  0.00    -0.257 OA
BRANCH   5  11
HETATM   11  S1  UNL     1       4.522  -3.777  48.583  1.00  0.00     0.008 SA
BRANCH  11  12
HETATM   12  N3  UNL     1       4.810  -4.270  46.887  1.00  0.00    -0.313 N 
ATOM     13  H3  UNL     1       5.607  -4.874  46.691  1.00  0.00     0.175 HD
BRANCH  12  14
HETATM   14  C1  UNL     1       3.995  -3.871  45.805  1.00  0.00     0.105 C 
HETATM   15  N1  UNL     1       4.390  -4.099  44.604  1.00  0.00    -0.387 N 
ATOM     16  H12 UNL     1       3.801  -3.810  43.822  1.00  0.00     0.157 HD
ATOM     17  H11 UNL     1       5.292  -4.558  44.485  1.00  0.00     0.157 HD
BRANCH  14  18
HETATM   18  C2  UNL     1       2.682  -3.203  45.978  1.00  0.00     0.277 C 
BRANCH  18  19
HETATM   19  N2  UNL     1       1.653  -4.168  46.307  1.00  0.00    -0.148 N 
HETATM   20  O1  UNL     1       0.635  -3.883  46.966  1.00  0.00    -0.536 OA
HETATM   21  O2  UNL     1       1.792  -5.462  45.873  1.00  0.00    -0.536 OA
ENDBRANCH  18  19
ENDBRANCH  14  18
ENDBRANCH  12  14
ENDBRANCH  11  12
ENDBRANCH   5  11
ENDBRANCH   1   4
BRANCH   3  22
HETATM   22  N6  UNL     1       5.740  -5.298  52.940  1.00  0.00    -0.242 N 
HETATM   23  C7  UNL     1       6.300  -6.442  53.059  1.00  0.00     0.135 C 
ATOM     24  H6  UNL     1       6.255  -4.598  53.474  1.00  0.00     0.201 HD
BRANCH  23  25
HETATM   25  C8  UNL     1       7.492  -6.587  53.864  1.00  0.00     0.018 A 
HETATM   26  C9  UNL     1       7.732  -5.613  54.820  1.00  0.00     0.018 A 
HETATM   27  C10 UNL     1       8.802  -5.705  55.669  1.00  0.00     0.040 A 
HETATM   28  C11 UNL     1       9.638  -6.792  55.542  1.00  0.00     0.101 A 
HETATM   29  C12 UNL     1       9.426  -7.764  54.604  1.00  0.00     0.133 A 
HETATM   30  C13 UNL     1       8.313  -7.650  53.736  1.00  0.00     0.150 A 
BRANCH  28  31
HETATM   31  O6  UNL     1      10.751  -6.930  56.396  1.00  0.00    -0.358 OA
ATOM     32  H6  UNL     1      11.191  -7.769  56.471  1.00  0.00     0.217 HD
ENDBRANCH  28  31
BRANCH  29  33
HETATM   33  O7  UNL     1      10.264  -8.826  54.505  1.00  0.00    -0.356 OA
ATOM     34  H7  UNL     1      11.099  -8.829  54.958  1.00  0.00     0.218 HD
ENDBRANCH  29  33
BRANCH  30  35
HETATM   35  N7  UNL     1       8.191  -8.678  52.770  1.00  0.00    -0.112 N 
HETATM   36  O8  UNL     1       8.305  -8.393  51.564  1.00  0.00    -0.532 OA
HETATM   37  O9  UNL     1       7.974  -9.963  53.137  1.00  0.00    -0.532 OA
ENDBRANCH  30  35
ENDBRANCH  23  25
ENDBRANCH   3  22
TORSDOF 11
ENDMDL
MODEL 5
REMARK VINA RESULT: -8.325772908      1.316      1.783
REMARK  11 active torsions:
REMARK  status: ('A' for Active; 'I' for Inactive)
REMARK    1  A    between atoms: C1_4  and  C2_5 
REMARK    2  A    between atoms: C1_4  and  N3_9 
REMARK    3  A    between atoms: C2_5  and  N2_6 
REMARK    4  A    between atoms: N3_9  and  S1_11 
REMARK    5  A    between atoms: S1_11  and  C3_12 
REMARK    6  A    between atoms: C5_18  and  C6_19 
REMARK       I    between atoms: C6_19  and  N5_21 
REMARK    7  A    between atoms: N5_21  and  N6_22 
REMARK    8  A    between atoms: C7_24  and  C8_25 
REMARK    9  A    between atoms: C11_28  and  O6_29 
REMARK   10  A    between atoms: C12_31  and  O7_32 
REMARK   11  A    between atoms: C13_34  and  N7_35 
ROOT
HETATM    1  C6  UNL     1       3.575  -4.548  51.882  1.00  0.00     0.354 C 
HETATM    2  O5  UNL     1       3.159  -3.503  52.408  1.00  0.00    -0.249 OA
HETATM    3  N5  UNL     1       4.721  -5.220  52.217  1.00  0.00    -0.281 NA
ENDROOT
BRANCH   1   4
HETATM    4  C5  UNL     1       2.775  -5.128  50.789  1.00  0.00     0.162 A 
HETATM    5  C3  UNL     1       2.978  -4.849  49.407  1.00  0.00     0.135 A 
HETATM    6  N4  UNL     1       2.042  -5.608  48.839  1.00  0.00    -0.248 N 
HETATM    7  O3  UNL     1       1.328  -6.272  49.675  1.00  0.00    -0.194 OA
ATOM      8  H4  UNL     1       1.905  -5.656  47.829  1.00  0.00     0.195 HD
HETATM    9  C4  UNL     1       1.734  -6.017  50.874  1.00  0.00     0.324 A 
HETATM   10  O4  UNL     1       1.308  -6.469  52.002  1.00  0.00    -0.257 OA
BRANCH   5  11
HETATM   11  S1  UNL     1       4.218  -3.768  48.747  1.00  0.00     0.008 SA
BRANCH  11  12
HETATM   12  N3  UNL     1       4.590  -4.282  47.074  1.00  0.00    -0.313 N 
ATOM     13  H3  UNL     1       5.376  -4.916  46.929  1.00  0.00     0.175 HD
BRANCH  12  14
HETATM   14  C1  UNL     1       3.857  -3.861  45.943  1.00  0.00     0.105 C 
HETATM   15  N1  UNL     1       4.342  -4.060  44.770  1.00  0.00    -0.387 N 
ATOM     16  H12 UNL     1       3.813  -3.756  43.953  1.00  0.00     0.157 HD
ATOM     17  H11 UNL     1       5.254  -4.512  44.709  1.00  0.00     0.157 HD
BRANCH  14  18
HETATM   18  C2  UNL     1       2.531  -3.204  46.032  1.00  0.00     0.277 C 
BRANCH  18  19
HETATM   19  N2  UNL     1       1.484  -4.182  46.250  1.00  0.00    -0.148 N 
HETATM   20  O1  UNL     1       0.375  -3.896  46.740  1.00  0.00    -0.536 OA
HETATM   21  O2  UNL     1       1.713  -5.489  45.902  1.00  0.00    -0.536 OA
ENDBRANCH  18  19
ENDBRANCH  14  18
ENDBRANCH  12  14
ENDBRANCH  11  12
ENDBRANCH   5  11
ENDBRANCH   1   4
BRANCH   3  22
HETATM   22  N6  UNL     1       5.796  -5.849  52.534  1.00  0.00    -0.242 N 
HETATM   23  C7  UNL     1       6.387  -6.312  53.570  1.00  0.00     0.135 C 
ATOM     24  H6  UNL     1       6.351  -6.039  51.699  1.00  0.00     0.201 HD
BRANCH  23  25
HETATM   25  C8  UNL     1       7.656  -6.991  53.440  1.00  0.00     0.018 A 
HETATM   26  C9  UNL     1       7.856  -7.745  52.295  1.00  0.00     0.018 A 
HETATM   27  C10 UNL     1       9.051  -8.370  52.060  1.00  0.00     0.040 A 
HETATM   28  C11 UNL     1      10.050  -8.230  52.997  1.00  0.00     0.101 A 
HETATM   29  C12 UNL     1       9.878  -7.495  54.137  1.00  0.00     0.133 A 
HETATM   30  C13 UNL     1       8.633  -6.858  54.360  1.00  0.00     0.150 A 
BRANCH  28  31
HETATM   31  O6  UNL     1      11.298  -8.853  52.796  1.00  0.00    -0.358 OA
ATOM     32  H6  UNL     1      11.966  -8.808  53.470  1.00  0.00     0.217 HD
ENDBRANCH  28  31
BRANCH  29  33
HETATM   33  O7  UNL     1      10.882  -7.372  55.040  1.00  0.00    -0.356 OA
ATOM     34  H7  UNL     1      10.740  -7.586  55.955  1.00  0.00     0.218 HD
ENDBRANCH  29  33
BRANCH  30  35
HETATM   35  N7  UNL     1       8.527  -6.151  55.583  1.00  0.00    -0.112 N 
HETATM   36  O8  UNL     1       9.243  -5.149  55.767  1.00  0.00    -0.532 OA
HETATM   37  O9  UNL     1       7.650  -6.532  56.541  1.00  0.00    -0.532 OA
ENDBRANCH  30  35
ENDBRANCH  23  25
ENDBRANCH   3  22
TORSDOF 11
ENDMDL
