MODEL 1
REMARK VINA RESULT: -7.970442523      0.000      0.000
REMARK  11 active torsions:
REMARK  status: ('A' for Active; 'I' for Inactive)
REMARK    1  A    between atoms: N1_1  and  C1_5 
REMARK    2  A    between atoms: C1_5  and  C2_6 
REMARK    3  A    between atoms: C3_8  and  O2_9 
REMARK    4  A    between atoms: O2_9  and  C4_10 
REMARK    5  A    between atoms: C4_10  and  C5_11 
REMARK    6  A    between atoms: C5_11  and  C6_12 
REMARK    7  A    between atoms: C6_12  and  C7_13 
REMARK    8  A    between atoms: C7_13  and  C8_14 
REMARK    9  A    between atoms: C8_14  and  N2_15 
REMARK   10  A    between atoms: C14_25  and  O4_26 
REMARK   11  A    between atoms: C15_28  and  O5_29 
ROOT
HETATM    1  C2  UNL     1      -3.910  -6.084  -5.036  1.00  0.00     0.182 C 
HETATM    2  O1  UNL     1      -4.609  -6.926  -5.891  1.00  0.00    -0.344 OA
HETATM    3  C3  UNL     1      -5.109  -6.290  -7.028  1.00  0.00     0.333 C 
HETATM    4  C13 UNL     1      -4.052  -5.645  -7.816  1.00  0.00     0.212 C 
HETATM    5  O3  UNL     1      -4.139  -5.549  -9.011  1.00  0.00    -0.290 OA
HETATM    6  C14 UNL     1      -2.865  -5.108  -7.113  1.00  0.00     0.224 C 
HETATM    7  C15 UNL     1      -3.300  -4.890  -5.674  1.00  0.00     0.185 C 
ENDROOT
BRANCH   3   8
HETATM    8  O2  UNL     1      -5.747  -7.267  -7.780  1.00  0.00    -0.354 OA
BRANCH   8   9
HETATM    9  C4  UNL     1      -7.100  -7.036  -7.978  1.00  0.00     0.171 C 
BRANCH   9  10
HETATM   10  C5  UNL     1      -7.457  -6.681  -9.396  1.00  0.00     0.027 C 
BRANCH  10  11
HETATM   11  C6  UNL     1      -6.919  -7.793 -10.279  1.00  0.00     0.007 C 
BRANCH  11  12
HETATM   12  C7  UNL     1      -7.801  -8.986 -10.332  1.00  0.00     0.044 C 
BRANCH  12  13
HETATM   13  C8  UNL     1      -9.254  -8.789 -10.480  1.00  0.00     0.058 C 
BRANCH  13  14
HETATM   14  N2  UNL     1     -10.120  -8.925  -9.418  1.00  0.00    -0.390 N 
HETATM   15  C9  UNL     1      -9.828  -9.518  -8.203  1.00  0.00     0.149 C 
HETATM   16  C10 UNL     1     -10.573  -8.725  -7.108  1.00  0.00     0.252 C 
HETATM   17  N3  UNL     1     -11.981  -9.030  -7.264  1.00  0.00    -0.072 N 
HETATM   18  C11 UNL     1     -12.376  -9.042  -8.661  1.00  0.00     0.252 C 
ATOM     19  H32 UNL     1     -12.225  -9.906  -6.802  1.00  0.00     0.277 HD
ATOM     20  H31 UNL     1     -12.562  -8.394  -6.719  1.00  0.00     0.277 HD
HETATM   21  C12 UNL     1     -11.395  -8.267  -9.520  1.00  0.00     0.149 C 
ENDBRANCH  13  14
ENDBRANCH  12  13
ENDBRANCH  11  12
ENDBRANCH  10  11
ENDBRANCH   9  10
ENDBRANCH   8   9
ENDBRANCH   3   8
BRANCH   1  22
HETATM   22  C1  UNL     1      -2.958  -6.946  -4.247  1.00  0.00     0.264 C 
BRANCH  22  23
HETATM   23  N1  UNL     1      -2.363  -8.015  -5.004  1.00  0.00    -0.077 N 
ATOM     24  H13 UNL     1      -2.145  -8.805  -4.395  1.00  0.00     0.274 HD
ATOM     25  H12 UNL     1      -3.057  -8.451  -5.611  1.00  0.00     0.274 HD
ATOM     26  H11 UNL     1      -1.540  -7.741  -5.540  1.00  0.00     0.274 HD
ENDBRANCH  22  23
ENDBRANCH   1  22
BRANCH   6  27
HETATM   27  O4  UNL     1      -1.761  -5.945  -7.201  1.00  0.00    -0.385 OA
ATOM     28  H4  UNL     1      -1.842  -6.720  -6.658  1.00  0.00     0.210 HD
ENDBRANCH   6  27
BRANCH   7  29
HETATM   29  O5  UNL     1      -2.305  -4.356  -4.896  1.00  0.00    -0.390 OA
ATOM     30  H5  UNL     1      -2.404  -3.416  -4.798  1.00  0.00     0.210 HD
ENDBRANCH   7  29
TORSDOF 11
ENDMDL
MODEL 2
REMARK VINA RESULT: -7.967309459      1.995      2.858
REMARK  11 active torsions:
REMARK  status: ('A' for Active; 'I' for Inactive)
REMARK    1  A    between atoms: N1_1  and  C1_5 
REMARK    2  A    between atoms: C1_5  and  C2_6 
REMARK    3  A    between atoms: C3_8  and  O2_9 
REMARK    4  A    between atoms: O2_9  and  C4_10 
REMARK    5  A    between atoms: C4_10  and  C5_11 
REMARK    6  A    between atoms: C5_11  and  C6_12 
REMARK    7  A    between atoms: C6_12  and  C7_13 
REMARK    8  A    between atoms: C7_13  and  C8_14 
REMARK    9  A    between atoms: C8_14  and  N2_15 
REMARK   10  A    between atoms: C14_25  and  O4_26 
REMARK   11  A    between atoms: C15_28  and  O5_29 
ROOT
HETATM    1  C2  UNL     1      -2.336  -4.317  -5.798  1.00  0.00     0.182 C 
HETATM    2  O1  UNL     1      -3.638  -4.784  -5.676  1.00  0.00    -0.344 OA
HETATM    3  C3  UNL     1      -3.792  -6.126  -6.025  1.00  0.00     0.333 C 
HETATM    4  C13 UNL     1      -2.932  -7.012  -5.233  1.00  0.00     0.212 C 
HETATM    5  O3  UNL     1      -3.273  -8.132  -4.965  1.00  0.00    -0.290 OA
HETATM    6  C14 UNL     1      -1.623  -6.502  -4.762  1.00  0.00     0.224 C 
HETATM    7  C15 UNL     1      -1.274  -5.347  -5.685  1.00  0.00     0.185 C 
ENDROOT
BRANCH   3   8
HETATM    8  O2  UNL     1      -5.129  -6.438  -5.820  1.00  0.00    -0.354 OA
BRANCH   8   9
HETATM    9  C4  UNL     1      -5.849  -6.643  -6.987  1.00  0.00     0.171 C 
BRANCH   9  10
HETATM   10  C5  UNL     1      -4.990  -6.847  -8.206  1.00  0.00     0.027 C 
BRANCH  10  11
HETATM   11  C6  UNL     1      -5.881  -6.638  -9.417  1.00  0.00     0.007 C 
BRANCH  11  12
HETATM   12  C7  UNL     1      -6.600  -7.864  -9.841  1.00  0.00     0.044 C 
BRANCH  12  13
HETATM   13  C8  UNL     1      -7.972  -7.737 -10.366  1.00  0.00     0.058 C 
BRANCH  13  14
HETATM   14  N2  UNL     1      -9.076  -8.041  -9.600  1.00  0.00    -0.390 N 
HETATM   15  C9  UNL     1     -10.381  -8.121 -10.053  1.00  0.00     0.149 C 
HETATM   16  C10 UNL     1     -11.071  -9.265  -9.281  1.00  0.00     0.252 C 
HETATM   17  N3  UNL     1     -11.250  -8.795  -7.922  1.00  0.00    -0.072 N 
HETATM   18  C11 UNL     1     -10.076  -8.090  -7.439  1.00  0.00     0.252 C 
ATOM     19  H32 UNL     1     -12.089  -8.224  -7.833  1.00  0.00     0.277 HD
ATOM     20  H31 UNL     1     -11.508  -9.558  -7.295  1.00  0.00     0.277 HD
HETATM   21  C12 UNL     1      -8.843  -8.454  -8.242  1.00  0.00     0.149 C 
ENDBRANCH  13  14
ENDBRANCH  12  13
ENDBRANCH  11  12
ENDBRANCH  10  11
ENDBRANCH   9  10
ENDBRANCH   8   9
ENDBRANCH   3   8
BRANCH   1  22
HETATM   22  C1  UNL     1      -2.196  -3.145  -4.860  1.00  0.00     0.264 C 
BRANCH  22  23
HETATM   23  N1  UNL     1      -1.700  -1.946  -5.481  1.00  0.00    -0.077 N 
ATOM     24  H13 UNL     1      -0.682  -1.973  -5.548  1.00  0.00     0.274 HD
ATOM     25  H12 UNL     1      -1.939  -1.933  -6.472  1.00  0.00     0.274 HD
ATOM     26  H11 UNL     1      -2.004  -1.084  -5.029  1.00  0.00     0.274 HD
ENDBRANCH  22  23
ENDBRANCH   1  22
BRANCH   6  27
HETATM   27  O4  UNL     1      -1.643  -6.114  -3.430  1.00  0.00    -0.385 OA
ATOM     28  H4  UNL     1      -0.840  -6.330  -2.970  1.00  0.00     0.210 HD
ENDBRANCH   6  27
BRANCH   7  29
HETATM   29  O5  UNL     1      -0.056  -4.787  -5.393  1.00  0.00    -0.390 OA
ATOM     30  H5  UNL     1       0.144  -4.849  -4.467  1.00  0.00     0.210 HD
ENDBRANCH   7  29
TORSDOF 11
ENDMDL
MODEL 3
REMARK VINA RESULT: -7.960063435      1.961      2.684
REMARK  11 active torsions:
REMARK  status: ('A' for Active; 'I' for Inactive)
REMARK    1  A    between atoms: N1_1  and  C1_5 
REMARK    2  A    between atoms: C1_5  and  C2_6 
REMARK    3  A    between atoms: C3_8  and  O2_9 
REMARK    4  A    between atoms: O2_9  and  C4_10 
REMARK    5  A    between atoms: C4_10  and  C5_11 
REMARK    6  A    between atoms: C5_11  and  C6_12 
REMARK    7  A    between atoms: C6_12  and  C7_13 
REMARK    8  A    between atoms: C7_13  and  C8_14 
REMARK    9  A    between atoms: C8_14  and  N2_15 
REMARK   10  A    between atoms: C14_25  and  O4_26 
REMARK   11  A    between atoms: C15_28  and  O5_29 
ROOT
HETATM    1  C2  UNL     1      -2.352  -4.496  -5.846  1.00  0.00     0.182 C 
HETATM    2  O1  UNL     1      -3.629  -5.023  -5.707  1.00  0.00    -0.344 OA
HETATM    3  C3  UNL     1      -3.721  -6.377  -6.028  1.00  0.00     0.333 C 
HETATM    4  C13 UNL     1      -2.816  -7.205  -5.222  1.00  0.00     0.212 C 
HETATM    5  O3  UNL     1      -3.103  -8.334  -4.930  1.00  0.00    -0.290 OA
HETATM    6  C14 UNL     1      -1.532  -6.624  -4.769  1.00  0.00     0.224 C 
HETATM    7  C15 UNL     1      -1.242  -5.473  -5.716  1.00  0.00     0.185 C 
ENDROOT
BRANCH   3   8
HETATM    8  O2  UNL     1      -5.041  -6.748  -5.811  1.00  0.00    -0.354 OA
BRANCH   8   9
HETATM    9  C4  UNL     1      -5.852  -6.643  -6.931  1.00  0.00     0.171 C 
BRANCH   9  10
HETATM   10  C5  UNL     1      -5.169  -7.027  -8.216  1.00  0.00     0.027 C 
BRANCH  10  11
HETATM   11  C6  UNL     1      -6.092  -6.614  -9.349  1.00  0.00     0.007 C 
BRANCH  11  12
HETATM   12  C7  UNL     1      -6.614  -7.760 -10.134  1.00  0.00     0.044 C 
BRANCH  12  13
HETATM   13  C8  UNL     1      -8.033  -7.757 -10.535  1.00  0.00     0.058 C 
BRANCH  13  14
HETATM   14  N2  UNL     1      -9.014  -8.322  -9.750  1.00  0.00    -0.390 N 
HETATM   15  C9  UNL     1      -8.851  -8.786  -8.457  1.00  0.00     0.149 C 
HETATM   16  C10 UNL     1     -10.149  -8.468  -7.684  1.00  0.00     0.252 C 
HETATM   17  N3  UNL     1     -11.166  -9.361  -8.201  1.00  0.00    -0.072 N 
HETATM   18  C11 UNL     1     -11.096  -9.473  -9.647  1.00  0.00     0.252 C 
ATOM     19  H32 UNL     1     -11.119 -10.276  -7.755  1.00  0.00     0.277 HD
ATOM     20  H31 UNL     1     -12.098  -9.081  -7.895  1.00  0.00     0.277 HD
HETATM   21  C12 UNL     1     -10.359  -8.298 -10.258  1.00  0.00     0.149 C 
ENDBRANCH  13  14
ENDBRANCH  12  13
ENDBRANCH  11  12
ENDBRANCH  10  11
ENDBRANCH   9  10
ENDBRANCH   8   9
ENDBRANCH   3   8
BRANCH   1  22
HETATM   22  C1  UNL     1      -2.264  -3.301  -4.931  1.00  0.00     0.264 C 
BRANCH  22  23
HETATM   23  N1  UNL     1      -1.773  -2.106  -5.566  1.00  0.00    -0.077 N 
ATOM     24  H13 UNL     1      -1.386  -1.466  -4.871  1.00  0.00     0.274 HD
ATOM     25  H12 UNL     1      -0.931  -2.309  -6.104  1.00  0.00     0.274 HD
ATOM     26  H11 UNL     1      -2.461  -1.627  -6.147  1.00  0.00     0.274 HD
ENDBRANCH  22  23
ENDBRANCH   1  22
BRANCH   6  27
HETATM   27  O4  UNL     1      -1.565  -6.210  -3.444  1.00  0.00    -0.385 OA
ATOM     28  H4  UNL     1      -0.755  -5.798  -3.166  1.00  0.00     0.210 HD
ENDBRANCH   6  27
BRANCH   7  29
HETATM   29  O5  UNL     1      -0.051  -4.849  -5.442  1.00  0.00    -0.390 OA
ATOM     30  H5  UNL     1       0.608  -5.467  -5.150  1.00  0.00     0.210 HD
ENDBRANCH   7  29
TORSDOF 11
ENDMDL
MODEL 4
REMARK VINA RESULT: -7.853197628      1.462      2.121
REMARK  11 active torsions:
REMARK  status: ('A' for Active; 'I' for Inactive)
REMARK    1  A    between atoms: N1_1  and  C1_5 
REMARK    2  A    between atoms: C1_5  and  C2_6 
REMARK    3  A    between atoms: C3_8  and  O2_9 
REMARK    4  A    between atoms: O2_9  and  C4_10 
REMARK    5  A    between atoms: C4_10  and  C5_11 
REMARK    6  A    between atoms: C5_11  and  C6_12 
REMARK    7  A    between atoms: C6_12  and  C7_13 
REMARK    8  A    between atoms: C7_13  and  C8_14 
REMARK    9  A    between atoms: C8_14  and  N2_15 
REMARK   10  A    between atoms: C14_25  and  O4_26 
REMARK   11  A    between atoms: C15_28  and  O5_29 
ROOT
HETATM    1  C2  UNL     1      -2.343  -6.405  -7.071  1.00  0.00     0.182 C 
HETATM    2  O1  UNL     1      -3.254  -6.010  -8.042  1.00  0.00    -0.344 OA
HETATM    3  C3  UNL     1      -4.496  -6.637  -7.941  1.00  0.00     0.333 C 
HETATM    4  C13 UNL     1      -5.127  -6.420  -6.634  1.00  0.00     0.212 C 
HETATM    5  O3  UNL     1      -6.322  -6.368  -6.522  1.00  0.00    -0.290 OA
HETATM    6  C14 UNL     1      -4.262  -6.265  -5.441  1.00  0.00     0.224 C 
HETATM    7  C15 UNL     1      -2.936  -6.908  -5.806  1.00  0.00     0.185 C 
ENDROOT
BRANCH   3   8
HETATM    8  O2  UNL     1      -5.287  -6.115  -8.954  1.00  0.00    -0.354 OA
BRANCH   8   9
HETATM    9  C4  UNL     1      -5.789  -7.066  -9.830  1.00  0.00     0.171 C 
BRANCH   9  10
HETATM   10  C5  UNL     1      -7.279  -7.256  -9.736  1.00  0.00     0.027 C 
BRANCH  10  11
HETATM   11  C6  UNL     1      -7.653  -8.331 -10.741  1.00  0.00     0.007 C 
BRANCH  11  12
HETATM   12  C7  UNL     1      -9.039  -8.203 -11.255  1.00  0.00     0.044 C 
BRANCH  12  13
HETATM   13  C8  UNL     1     -10.044  -9.199 -10.842  1.00  0.00     0.058 C 
BRANCH  13  14
HETATM   14  N2  UNL     1     -10.647  -9.155  -9.604  1.00  0.00    -0.390 N 
HETATM   15  C9  UNL     1     -10.076  -9.552  -8.408  1.00  0.00     0.149 C 
HETATM   16  C10 UNL     1     -10.575  -8.587  -7.312  1.00  0.00     0.252 C 
HETATM   17  N3  UNL     1     -11.975  -8.896  -7.097  1.00  0.00    -0.072 N 
HETATM   18  C11 UNL     1     -12.672  -9.124  -8.350  1.00  0.00     0.252 C 
ATOM     19  H32 UNL     1     -12.088  -9.684  -6.460  1.00  0.00     0.277 HD
ATOM     20  H31 UNL     1     -12.434  -8.175  -6.542  1.00  0.00     0.277 HD
HETATM   21  C12 UNL     1     -11.928  -8.506  -9.518  1.00  0.00     0.149 C 
ENDBRANCH  13  14
ENDBRANCH  12  13
ENDBRANCH  11  12
ENDBRANCH  10  11
ENDBRANCH   9  10
ENDBRANCH   8   9
ENDBRANCH   3   8
BRANCH   1  22
HETATM   22  C1  UNL     1      -1.351  -5.281  -6.911  1.00  0.00     0.264 C 
BRANCH  22  23
HETATM   23  N1  UNL     1      -1.939  -4.023  -6.531  1.00  0.00    -0.077 N 
ATOM     24  H13 UNL     1      -2.741  -4.175  -5.918  1.00  0.00     0.274 HD
ATOM     25  H12 UNL     1      -1.324  -3.521  -5.892  1.00  0.00     0.274 HD
ATOM     26  H11 UNL     1      -2.200  -3.428  -7.317  1.00  0.00     0.274 HD
ENDBRANCH  22  23
ENDBRANCH   1  22
BRANCH   6  27
HETATM   27  O4  UNL     1      -4.109  -4.941  -5.055  1.00  0.00    -0.385 OA
ATOM     28  H4  UNL     1      -3.832  -4.378  -5.769  1.00  0.00     0.210 HD
ENDBRANCH   6  27
BRANCH   7  29
HETATM   29  O5  UNL     1      -2.030  -6.874  -4.776  1.00  0.00    -0.390 OA
ATOM     30  H5  UNL     1      -2.451  -6.681  -3.947  1.00  0.00     0.210 HD
ENDBRANCH   7  29
TORSDOF 11
ENDMDL
MODEL 5
REMARK VINA RESULT: -7.692187851      1.220      1.700
REMARK  11 active torsions:
REMARK  status: ('A' for Active; 'I' for Inactive)
REMARK    1  A    between atoms: N1_1  and  C1_5 
REMARK    2  A    between atoms: C1_5  and  C2_6 
REMARK    3  A    between atoms: C3_8  and  O2_9 
REMARK    4  A    between atoms: O2_9  and  C4_10 
REMARK    5  A    between atoms: C4_10  and  C5_11 
REMARK    6  A    between atoms: C5_11  and  C6_12 
REMARK    7  A    between atoms: C6_12  and  C7_13 
REMARK    8  A    between atoms: C7_13  and  C8_14 
REMARK    9  A    between atoms: C8_14  and  N2_15 
REMARK   10  A    between atoms: C14_25  and  O4_26 
REMARK   11  A    between atoms: C15_28  and  O5_29 
ROOT
HETATM    1  C2  UNL     1      -3.420  -4.579  -4.569  1.00  0.00     0.182 C 
HETATM    2  O1  UNL     1      -4.113  -5.694  -5.022  1.00  0.00    -0.344 OA
HETATM    3  C3  UNL     1      -4.145  -5.815  -6.411  1.00  0.00     0.333 C 
HETATM    4  C13 UNL     1      -2.801  -5.866  -6.998  1.00  0.00     0.212 C 
HETATM    5  O3  UNL     1      -2.585  -6.491  -8.001  1.00  0.00    -0.290 OA
HETATM    6  C14 UNL     1      -1.703  -5.131  -6.330  1.00  0.00     0.224 C 
HETATM    7  C15 UNL     1      -2.375  -4.062  -5.486  1.00  0.00     0.185 C 
ENDROOT
BRANCH   3   8
HETATM    8  O2  UNL     1      -4.842  -6.982  -6.692  1.00  0.00    -0.354 OA
BRANCH   8   9
HETATM    9  C4  UNL     1      -6.018  -6.784  -7.400  1.00  0.00     0.171 C 
BRANCH   9  10
HETATM   10  C5  UNL     1      -5.901  -7.084  -8.870  1.00  0.00     0.027 C 
BRANCH  10  11
HETATM   11  C6  UNL     1      -7.313  -7.118  -9.429  1.00  0.00     0.007 C 
BRANCH  11  12
HETATM   12  C7  UNL     1      -7.722  -8.457  -9.919  1.00  0.00     0.044 C 
BRANCH  12  13
HETATM   13  C8  UNL     1      -9.140  -8.688 -10.251  1.00  0.00     0.058 C 
BRANCH  13  14
HETATM   14  N2  UNL     1     -10.116  -8.744  -9.280  1.00  0.00    -0.390 N 
HETATM   15  C9  UNL     1     -11.421  -8.306  -9.415  1.00  0.00     0.149 C 
HETATM   16  C10 UNL     1     -12.321  -9.279  -8.624  1.00  0.00     0.252 C 
HETATM   17  N3  UNL     1     -12.062  -9.030  -7.220  1.00  0.00    -0.072 N 
HETATM   18  C11 UNL     1     -10.644  -8.850  -6.960  1.00  0.00     0.252 C 
ATOM     19  H32 UNL     1     -12.606  -8.240  -6.875  1.00  0.00     0.277 HD
ATOM     20  H31 UNL     1     -12.457  -9.765  -6.632  1.00  0.00     0.277 HD
HETATM   21  C12 UNL     1      -9.799  -9.448  -8.067  1.00  0.00     0.149 C 
ENDBRANCH  13  14
ENDBRANCH  12  13
ENDBRANCH  11  12
ENDBRANCH  10  11
ENDBRANCH   9  10
ENDBRANCH   8   9
ENDBRANCH   3   8
BRANCH   1  22
HETATM   22  C1  UNL     1      -2.951  -4.888  -3.170  1.00  0.00     0.264 C 
BRANCH  22  23
HETATM   23  N1  UNL     1      -2.608  -6.269  -2.953  1.00  0.00    -0.077 N 
ATOM     24  H13 UNL     1      -3.440  -6.811  -2.716  1.00  0.00     0.274 HD
ATOM     25  H12 UNL     1      -2.355  -6.716  -3.834  1.00  0.00     0.274 HD
ATOM     26  H11 UNL     1      -1.877  -6.415  -2.257  1.00  0.00     0.274 HD
ENDBRANCH  22  23
ENDBRANCH   1  22
BRANCH   6  27
HETATM   27  O4  UNL     1      -0.885  -5.955  -5.570  1.00  0.00    -0.385 OA
ATOM     28  H4  UNL     1      -1.177  -6.036  -4.670  1.00  0.00     0.210 HD
ENDBRANCH   6  27
BRANCH   7  29
HETATM   29  O5  UNL     1      -1.474  -3.265  -4.826  1.00  0.00    -0.390 OA
ATOM     30  H5  UNL     1      -1.106  -2.603  -5.399  1.00  0.00     0.210 HD
ENDBRANCH   7  29
TORSDOF 11
ENDMDL
