MODEL 1
REMARK VINA RESULT: -7.529037847      0.000      0.000
REMARK  6 active torsions:
REMARK  status: ('A' for Active; 'I' for Inactive)
REMARK    1  A    between atoms: C3_3  and  O1_4 
REMARK    2  A    between atoms: C3_3  and  C4_6 
REMARK    3  A    between atoms: C4_6  and  C5_8 
REMARK    4  A    between atoms: C5_8  and  C6_9 
REMARK    5  A    between atoms: C5_8  and  C9_12 
REMARK    6  A    between atoms: C14_19  and  C16_21 
ROOT
HETATM    1  C1  UNL     1       2.818   1.407   2.210  1.00  0.00     0.015 C 
HETATM    2  C2  UNL     1       2.022   1.021   3.029  1.00  0.00    -0.078 C 
HETATM    3  C3  UNL     1       1.058   0.530   4.055  1.00  0.00     0.266 C 
ENDROOT
BRANCH   3   4
HETATM    4  O1  UNL     1       1.096   1.432   5.067  1.00  0.00    -0.376 OA
ATOM      5  H1  UNL     1       0.395   1.191   5.661  1.00  0.00     0.211 HD
ENDBRANCH   3   4
BRANCH   3   6
HETATM    6  C4  UNL     1       1.295  -0.880   4.362  1.00  0.00     0.175 C 
HETATM    7  O2  UNL     1       1.640  -1.029   5.565  1.00  0.00    -0.294 OA
BRANCH   6   8
HETATM    8  C5  UNL     1       1.198  -2.069   3.529  1.00  0.00     0.121 C 
BRANCH   8   9
HETATM    9  C6  UNL     1       0.012  -2.231   2.656  1.00  0.00    -0.007 C 
HETATM   10  C7  UNL     1       0.344  -1.747   1.263  1.00  0.00     0.010 C 
HETATM   11  C8  UNL     1      -1.311  -1.812   3.165  1.00  0.00     0.010 C 
ENDBRANCH   8   9
BRANCH   8  12
HETATM   12  C9  UNL     1       1.468  -3.294   4.393  1.00  0.00     0.370 C 
HETATM   13  O3  UNL     1       2.845  -3.507   4.352  1.00  0.00    -0.350 OA
HETATM   14  C10 UNL     1       3.175  -4.842   4.230  1.00  0.00     0.136 C 
HETATM   15  C11 UNL     1       2.767  -5.306   2.842  1.00  0.00     0.063 C 
HETATM   16  C14 UNL     1       2.403  -5.704   5.210  1.00  0.00     0.012 C 
HETATM   17  C12 UNL     1       1.287  -5.014   2.709  1.00  0.00     0.278 C 
HETATM   18  N1  UNL     1       0.777  -4.470   3.924  1.00  0.00     0.118 N 
HETATM   19  C13 UNL     1       0.952  -5.474   4.990  1.00  0.00     0.287 C 
HETATM   20  C15 UNL     1       2.700  -7.164   4.939  1.00  0.00     0.020 C 
BRANCH  16  21
HETATM   21  C16 UNL     1       2.878  -5.372   6.598  1.00  0.00    -0.010 C 
HETATM   22  C17 UNL     1       4.108  -6.170   6.979  1.00  0.00     0.010 C 
HETATM   23  C18 UNL     1       1.830  -5.653   7.650  1.00  0.00     0.010 C 
ENDBRANCH  16  21
ENDBRANCH   8  12
ENDBRANCH   6   8
ENDBRANCH   3   6
TORSDOF 6
ENDMDL
MODEL 2
REMARK VINA RESULT: -6.666197594      1.479      5.905
REMARK  6 active torsions:
REMARK  status: ('A' for Active; 'I' for Inactive)
REMARK    1  A    between atoms: C3_3  and  O1_4 
REMARK    2  A    between atoms: C3_3  and  C4_6 
REMARK    3  A    between atoms: C4_6  and  C5_8 
REMARK    4  A    between atoms: C5_8  and  C6_9 
REMARK    5  A    between atoms: C5_8  and  C9_12 
REMARK    6  A    between atoms: C14_19  and  C16_21 
ROOT
HETATM    1  C1  UNL     1       3.227  -6.933   6.747  1.00  0.00     0.015 C 
HETATM    2  C2  UNL     1       2.712  -5.862   6.542  1.00  0.00    -0.078 C 
HETATM    3  C3  UNL     1       2.066  -4.548   6.266  1.00  0.00     0.266 C 
ENDROOT
BRANCH   3   4
HETATM    4  O1  UNL     1       0.804  -4.639   6.757  1.00  0.00    -0.376 OA
ATOM      5  H1  UNL     1       0.294  -3.985   6.295  1.00  0.00     0.211 HD
ENDBRANCH   3   4
BRANCH   3   6
HETATM    6  C4  UNL     1       2.248  -4.159   4.868  1.00  0.00     0.175 C 
HETATM    7  O2  UNL     1       3.462  -3.927   4.619  1.00  0.00    -0.294 OA
BRANCH   6   8
HETATM    8  C5  UNL     1       1.288  -4.006   3.785  1.00  0.00     0.121 C 
BRANCH   8   9
HETATM    9  C6  UNL     1       1.193  -5.075   2.763  1.00  0.00    -0.007 C 
HETATM   10  C7  UNL     1       0.486  -6.273   3.354  1.00  0.00     0.010 C 
HETATM   11  C8  UNL     1       2.386  -5.391   1.949  1.00  0.00     0.010 C 
ENDBRANCH   8   9
BRANCH   8  12
HETATM   12  C9  UNL     1       1.455  -2.619   3.177  1.00  0.00     0.370 C 
HETATM   13  O3  UNL     1       0.910  -1.722   4.094  1.00  0.00    -0.350 OA
HETATM   14  C10 UNL     1       0.164  -0.729   3.491  1.00  0.00     0.136 C 
HETATM   15  C11 UNL     1      -1.094  -1.362   2.922  1.00  0.00     0.063 C 
HETATM   16  C14 UNL     1       0.897  -0.110   2.316  1.00  0.00     0.012 C 
HETATM   17  C12 UNL     1      -0.636  -2.458   1.982  1.00  0.00     0.278 C 
HETATM   18  N1  UNL     1       0.787  -2.485   1.906  1.00  0.00     0.118 N 
HETATM   19  C13 UNL     1       1.246  -1.193   1.361  1.00  0.00     0.287 C 
HETATM   20  C15 UNL     1      -0.018   0.869   1.612  1.00  0.00     0.020 C 
BRANCH  16  21
HETATM   21  C16 UNL     1       2.081   0.647   2.852  1.00  0.00    -0.010 C 
HETATM   22  C17 UNL     1       1.671   1.682   3.879  1.00  0.00     0.010 C 
HETATM   23  C18 UNL     1       2.836   1.380   1.767  1.00  0.00     0.010 C 
ENDBRANCH  16  21
ENDBRANCH   8  12
ENDBRANCH   6   8
ENDBRANCH   3   6
TORSDOF 6
ENDMDL
MODEL 3
REMARK VINA RESULT: -6.558923839      1.535      5.831
REMARK  6 active torsions:
REMARK  status: ('A' for Active; 'I' for Inactive)
REMARK    1  A    between atoms: C3_3  and  O1_4 
REMARK    2  A    between atoms: C3_3  and  C4_6 
REMARK    3  A    between atoms: C4_6  and  C5_8 
REMARK    4  A    between atoms: C5_8  and  C6_9 
REMARK    5  A    between atoms: C5_8  and  C9_12 
REMARK    6  A    between atoms: C14_19  and  C16_21 
ROOT
HETATM    1  C1  UNL     1       1.142  -5.294   7.167  1.00  0.00     0.015 C 
HETATM    2  C2  UNL     1       1.959  -5.442   6.293  1.00  0.00    -0.078 C 
HETATM    3  C3  UNL     1       2.974  -5.597   5.212  1.00  0.00     0.266 C 
ENDROOT
BRANCH   3   4
HETATM    4  O1  UNL     1       4.174  -5.699   5.836  1.00  0.00    -0.376 OA
ATOM      5  H1  UNL     1       4.018  -5.474   6.745  1.00  0.00     0.211 HD
ENDBRANCH   3   4
BRANCH   3   6
HETATM    6  C4  UNL     1       2.802  -4.572   4.183  1.00  0.00     0.175 C 
HETATM    7  O2  UNL     1       3.818  -3.828   4.113  1.00  0.00    -0.294 OA
BRANCH   6   8
HETATM    8  C5  UNL     1       1.694  -4.300   3.281  1.00  0.00     0.121 C 
BRANCH   8   9
HETATM    9  C6  UNL     1       1.559  -5.117   2.053  1.00  0.00    -0.007 C 
HETATM   10  C7  UNL     1       0.899  -6.432   2.395  1.00  0.00     0.010 C 
HETATM   11  C8  UNL     1       2.711  -5.216   1.131  1.00  0.00     0.010 C 
ENDBRANCH   8   9
BRANCH   8  12
HETATM   12  C9  UNL     1       1.648  -2.802   3.004  1.00  0.00     0.370 C 
HETATM   13  O3  UNL     1       1.020  -2.219   4.104  1.00  0.00    -0.350 OA
HETATM   14  C10 UNL     1       0.124  -1.232   3.745  1.00  0.00     0.136 C 
HETATM   15  C11 UNL     1      -1.056  -1.892   3.054  1.00  0.00     0.063 C 
HETATM   16  C14 UNL     1       0.722  -0.268   2.738  1.00  0.00     0.012 C 
HETATM   17  C12 UNL     1      -0.489  -2.673   1.887  1.00  0.00     0.278 C 
HETATM   18  N1  UNL     1       0.921  -2.481   1.799  1.00  0.00     0.118 N 
HETATM   19  C13 UNL     1       1.179  -1.049   1.560  1.00  0.00     0.287 C 
HETATM   20  C15 UNL     1      -0.343   0.705   2.280  1.00  0.00     0.020 C 
BRANCH  16  21
HETATM   21  C16 UNL     1       1.811   0.509   3.426  1.00  0.00    -0.010 C 
HETATM   22  C17 UNL     1       1.252   1.508   4.417  1.00  0.00     0.010 C 
HETATM   23  C18 UNL     1       2.668   1.286   2.453  1.00  0.00     0.010 C 
ENDBRANCH  16  21
ENDBRANCH   8  12
ENDBRANCH   6   8
ENDBRANCH   3   6
TORSDOF 6
ENDMDL
MODEL 4
REMARK VINA RESULT: -6.402158947      3.885      6.228
REMARK  6 active torsions:
REMARK  status: ('A' for Active; 'I' for Inactive)
REMARK    1  A    between atoms: C3_3  and  O1_4 
REMARK    2  A    between atoms: C3_3  and  C4_6 
REMARK    3  A    between atoms: C4_6  and  C5_8 
REMARK    4  A    between atoms: C5_8  and  C6_9 
REMARK    5  A    between atoms: C5_8  and  C9_12 
REMARK    6  A    between atoms: C14_19  and  C16_21 
ROOT
HETATM    1  C1  UNL     1       3.469  -6.936   8.788  1.00  0.00     0.015 C 
HETATM    2  C2  UNL     1       3.788  -7.078   7.634  1.00  0.00    -0.078 C 
HETATM    3  C3  UNL     1       4.180  -7.226   6.204  1.00  0.00     0.266 C 
ENDROOT
BRANCH   3   4
HETATM    4  O1  UNL     1       5.524  -7.046   6.162  1.00  0.00    -0.376 OA
ATOM      5  H1  UNL     1       5.860  -7.710   5.572  1.00  0.00     0.211 HD
ENDBRANCH   3   4
BRANCH   3   6
HETATM    6  C4  UNL     1       3.334  -6.402   5.342  1.00  0.00     0.175 C 
HETATM    7  O2  UNL     1       3.905  -5.315   5.055  1.00  0.00    -0.294 OA
BRANCH   6   8
HETATM    8  C5  UNL     1       2.005  -6.638   4.799  1.00  0.00     0.121 C 
BRANCH   8   9
HETATM    9  C6  UNL     1       0.851  -5.946   5.419  1.00  0.00    -0.007 C 
HETATM   10  C7  UNL     1       0.150  -5.106   4.377  1.00  0.00     0.010 C 
HETATM   11  C8  UNL     1       1.033  -5.291   6.732  1.00  0.00     0.010 C 
ENDBRANCH   8   9
BRANCH   8  12
HETATM   12  C9  UNL     1       1.792  -8.141   4.665  1.00  0.00     0.370 C 
HETATM   13  O3  UNL     1       2.942  -8.647   4.060  1.00  0.00    -0.350 OA
HETATM   14  C10 UNL     1       2.664  -9.600   3.101  1.00  0.00     0.136 C 
HETATM   15  C11 UNL     1       1.998  -8.907   1.925  1.00  0.00     0.063 C 
HETATM   16  C14 UNL     1       1.673 -10.632   3.603  1.00  0.00     0.012 C 
HETATM   17  C12 UNL     1       0.776  -8.203   2.476  1.00  0.00     0.278 C 
HETATM   18  N1  UNL     1       0.635  -8.471   3.870  1.00  0.00     0.118 N 
HETATM   19  C13 UNL     1       0.445  -9.922   4.045  1.00  0.00     0.287 C 
HETATM   20  C15 UNL     1       1.302 -11.566   2.471  1.00  0.00     0.020 C 
BRANCH  16  21
HETATM   21  C16 UNL     1       2.345 -11.436   4.682  1.00  0.00    -0.010 C 
HETATM   22  C17 UNL     1       3.112 -12.612   4.114  1.00  0.00     0.010 C 
HETATM   23  C18 UNL     1       1.360 -11.996   5.682  1.00  0.00     0.010 C 
ENDBRANCH  16  21
ENDBRANCH   8  12
ENDBRANCH   6   8
ENDBRANCH   3   6
TORSDOF 6
ENDMDL
MODEL 5
REMARK VINA RESULT: -6.324168652      4.087      7.335
REMARK  6 active torsions:
REMARK  status: ('A' for Active; 'I' for Inactive)
REMARK    1  A    between atoms: C3_3  and  O1_4 
REMARK    2  A    between atoms: C3_3  and  C4_6 
REMARK    3  A    between atoms: C4_6  and  C5_8 
REMARK    4  A    between atoms: C5_8  and  C6_9 
REMARK    5  A    between atoms: C5_8  and  C9_12 
REMARK    6  A    between atoms: C14_19  and  C16_21 
ROOT
HETATM    1  C1  UNL     1      -0.477 -12.165   1.414  1.00  0.00     0.015 C 
HETATM    2  C2  UNL     1       0.067 -11.854   2.445  1.00  0.00    -0.078 C 
HETATM    3  C3  UNL     1       0.734 -11.445   3.713  1.00  0.00     0.266 C 
ENDROOT
BRANCH   3   4
HETATM    4  O1  UNL     1      -0.255 -11.312   4.632  1.00  0.00    -0.376 OA
ATOM      5  H1  UNL     1      -0.027 -10.552   5.154  1.00  0.00     0.211 HD
ENDBRANCH   3   4
BRANCH   3   6
HETATM    6  C4  UNL     1       1.640 -10.319   3.487  1.00  0.00     0.175 C 
HETATM    7  O2  UNL     1       2.809 -10.595   3.869  1.00  0.00    -0.294 OA
BRANCH   6   8
HETATM    8  C5  UNL     1       1.401  -9.000   2.921  1.00  0.00     0.121 C 
BRANCH   8   9
HETATM    9  C6  UNL     1       1.719  -8.771   1.493  1.00  0.00    -0.007 C 
HETATM   10  C7  UNL     1       0.435  -8.614   0.711  1.00  0.00     0.010 C 
HETATM   11  C8  UNL     1       2.746  -9.616   0.846  1.00  0.00     0.010 C 
ENDBRANCH   8   9
BRANCH   8  12
HETATM   12  C9  UNL     1       2.021  -7.955   3.841  1.00  0.00     0.370 C 
HETATM   13  O3  UNL     1       1.174  -7.850   4.943  1.00  0.00    -0.350 OA
HETATM   14  C10 UNL     1       0.985  -6.544   5.348  1.00  0.00     0.136 C 
HETATM   15  C11 UNL     1       0.167  -5.833   4.284  1.00  0.00     0.063 C 
HETATM   16  C14 UNL     1       2.297  -5.791   5.450  1.00  0.00     0.012 C 
HETATM   17  C12 UNL     1       0.931  -5.978   2.985  1.00  0.00     0.278 C 
HETATM   18  N1  UNL     1       2.159  -6.667   3.206  1.00  0.00     0.118 N 
HETATM   19  C13 UNL     1       2.979  -5.864   4.132  1.00  0.00     0.287 C 
HETATM   20  C15 UNL     1       2.018  -4.336   5.761  1.00  0.00     0.020 C 
BRANCH  16  21
HETATM   21  C16 UNL     1       3.084  -6.378   6.588  1.00  0.00    -0.010 C 
HETATM   22  C17 UNL     1       2.859  -5.620   7.880  1.00  0.00     0.010 C 
HETATM   23  C18 UNL     1       4.573  -6.367   6.327  1.00  0.00     0.010 C 
ENDBRANCH  16  21
ENDBRANCH   8  12
ENDBRANCH   6   8
ENDBRANCH   3   6
TORSDOF 6
ENDMDL
