MODEL 1
REMARK VINA RESULT: -6.908016969      0.000      0.000
REMARK  8 active torsions:
REMARK  status: ('A' for Active; 'I' for Inactive)
REMARK    1  A    between atoms: O1_2  and  C2_3 
REMARK    2  A    between atoms: C2_3  and  C3_4 
REMARK    3  A    between atoms: C3_4  and  N1_5 
REMARK    4  A    between atoms: N1_5  and  C4_7 
REMARK    5  A    between atoms: C5_14  and  N5_15 
REMARK    6  A    between atoms: N5_15  and  C6_17 
REMARK    7  A    between atoms: C6_17  and  C7_18 
REMARK    8  A    between atoms: C7_18  and  C8_19 
ROOT
HETATM    1  C4  UNL     1      -6.605  -7.411 -14.796  1.00  0.00     0.708 A 
HETATM    2  N2  UNL     1      -5.615  -7.465 -15.706  1.00  0.00    -0.117 N 
ATOM      3  H2  UNL     1      -4.667  -7.701 -15.411  1.00  0.00     0.207 HD
HETATM    4  N3  UNL     1      -5.864  -7.215 -16.979  1.00  0.00    -0.214 N 
ATOM      5  H3  UNL     1      -5.116  -7.255 -17.672  1.00  0.00     0.209 HD
HETATM    6  N4  UNL     1      -7.095  -6.914 -17.336  1.00  0.00    -0.117 N 
ATOM      7  H4  UNL     1      -7.280  -6.721 -18.321  1.00  0.00     0.207 HD
HETATM    8  C5  UNL     1      -8.116  -6.848 -16.469  1.00  0.00     0.712 A 
HETATM    9  N6  UNL     1      -7.857  -7.105 -15.158  1.00  0.00    -0.020 N 
ATOM     10  H6  UNL     1      -8.603  -7.067 -14.464  1.00  0.00     0.203 HD
ENDROOT
BRANCH   1  11
HETATM   11  N1  UNL     1      -6.325  -7.664 -13.537  1.00  0.00    -0.222 N 
ATOM     12  H1  UNL     1      -6.529  -6.969 -12.818  1.00  0.00     0.177 HD
BRANCH  11  13
HETATM   13  C3  UNL     1      -5.727  -8.933 -13.173  1.00  0.00     0.164 C 
BRANCH  13  14
HETATM   14  C2  UNL     1      -4.294  -8.659 -12.800  1.00  0.00     0.187 C 
BRANCH  14  15
HETATM   15  O1  UNL     1      -3.434  -8.618 -13.876  1.00  0.00    -0.394 OA
HETATM   16  C1  UNL     1      -3.294  -9.831 -14.524  1.00  0.00     0.201 C 
ENDBRANCH  14  15
ENDBRANCH  13  14
ENDBRANCH  11  13
ENDBRANCH   1  11
BRANCH   8  17
HETATM   17  N5  UNL     1      -9.300  -6.557 -16.822  1.00  0.00    -0.203 N 
ATOM     18  H5  UNL     1      -9.499  -6.721 -17.809  1.00  0.00     0.183 HD
BRANCH  17  19
HETATM   19  C6  UNL     1     -10.385  -6.047 -16.084  1.00  0.00     0.080 C 
BRANCH  19  20
HETATM   20  C7  UNL     1     -11.718  -6.689 -16.289  1.00  0.00     0.056 C 
BRANCH  20  21
HETATM   21  C8  UNL     1     -12.703  -5.567 -16.672  1.00  0.00     0.090 C 
HETATM   22 BR1  UNL     1     -13.207  -5.832 -18.518  1.00  0.00    -0.096 Br
ENDBRANCH  20  21
ENDBRANCH  19  20
ENDBRANCH  17  19
ENDBRANCH   8  17
TORSDOF 8
ENDMDL
MODEL 2
REMARK VINA RESULT: -6.873609652      4.269      7.402
REMARK  8 active torsions:
REMARK  status: ('A' for Active; 'I' for Inactive)
REMARK    1  A    between atoms: O1_2  and  C2_3 
REMARK    2  A    between atoms: C2_3  and  C3_4 
REMARK    3  A    between atoms: C3_4  and  N1_5 
REMARK    4  A    between atoms: N1_5  and  C4_7 
REMARK    5  A    between atoms: C5_14  and  N5_15 
REMARK    6  A    between atoms: N5_15  and  C6_17 
REMARK    7  A    between atoms: C6_17  and  C7_18 
REMARK    8  A    between atoms: C7_18  and  C8_19 
ROOT
HETATM    1  C4  UNL     1      -9.540  -6.344 -17.655  1.00  0.00     0.708 A 
HETATM    2  N2  UNL     1     -10.159  -6.246 -16.463  1.00  0.00    -0.117 N 
ATOM      3  H2  UNL     1     -11.137  -5.956 -16.422  1.00  0.00     0.207 HD
HETATM    4  N3  UNL     1      -9.508  -6.522 -15.348  1.00  0.00    -0.214 N 
ATOM      5  H3  UNL     1      -9.974  -6.448 -14.443  1.00  0.00     0.209 HD
HETATM    6  N4  UNL     1      -8.248  -6.894 -15.426  1.00  0.00    -0.117 N 
ATOM      7  H4  UNL     1      -7.750  -7.105 -14.561  1.00  0.00     0.207 HD
HETATM    8  C5  UNL     1      -7.586  -7.008 -16.587  1.00  0.00     0.712 A 
HETATM    9  N6  UNL     1      -8.258  -6.723 -17.736  1.00  0.00    -0.020 N 
ATOM     10  H6  UNL     1      -7.795  -6.796 -18.641  1.00  0.00     0.203 HD
ENDROOT
BRANCH   1  11
HETATM   11  N1  UNL     1     -10.215  -6.061 -18.747  1.00  0.00    -0.222 N 
ATOM     12  H1  UNL     1      -9.757  -6.110 -19.657  1.00  0.00     0.177 HD
BRANCH  11  13
HETATM   13  C3  UNL     1     -11.610  -5.681 -18.653  1.00  0.00     0.164 C 
BRANCH  13  14
HETATM   14  C2  UNL     1     -11.699  -4.221 -19.015  1.00  0.00     0.187 C 
BRANCH  14  15
HETATM   15  O1  UNL     1     -10.938  -3.868 -20.107  1.00  0.00    -0.394 OA
HETATM   16  C1  UNL     1     -11.565  -4.094 -21.319  1.00  0.00     0.201 C 
ENDBRANCH  14  15
ENDBRANCH  13  14
ENDBRANCH  11  13
ENDBRANCH   1  11
BRANCH   8  17
HETATM   17  N5  UNL     1      -6.370  -7.368 -16.653  1.00  0.00    -0.203 N 
ATOM     18  H5  UNL     1      -5.906  -7.130 -17.530  1.00  0.00     0.183 HD
BRANCH  17  19
HETATM   19  C6  UNL     1      -5.554  -8.039 -15.723  1.00  0.00     0.080 C 
BRANCH  19  20
HETATM   20  C7  UNL     1      -4.206  -8.484 -16.187  1.00  0.00     0.056 C 
BRANCH  20  21
HETATM   21  C8  UNL     1      -3.313  -8.591 -14.935  1.00  0.00     0.090 C 
HETATM   22 BR1  UNL     1      -4.461  -8.953 -13.423  1.00  0.00    -0.096 Br
ENDBRANCH  20  21
ENDBRANCH  19  20
ENDBRANCH  17  19
ENDBRANCH   8  17
TORSDOF 8
ENDMDL
MODEL 3
REMARK VINA RESULT: -6.816851392      3.818      6.911
REMARK  8 active torsions:
REMARK  status: ('A' for Active; 'I' for Inactive)
REMARK    1  A    between atoms: O1_2  and  C2_3 
REMARK    2  A    between atoms: C2_3  and  C3_4 
REMARK    3  A    between atoms: C3_4  and  N1_5 
REMARK    4  A    between atoms: N1_5  and  C4_7 
REMARK    5  A    between atoms: C5_14  and  N5_15 
REMARK    6  A    between atoms: N5_15  and  C6_17 
REMARK    7  A    between atoms: C6_17  and  C7_18 
REMARK    8  A    between atoms: C7_18  and  C8_19 
ROOT
HETATM    1  C4  UNL     1      -8.129  -6.958 -16.329  1.00  0.00     0.708 A 
HETATM    2  N2  UNL     1      -7.233  -6.858 -17.329  1.00  0.00    -0.117 N 
ATOM      3  H2  UNL     1      -7.538  -6.558 -18.255  1.00  0.00     0.207 HD
HETATM    4  N3  UNL     1      -5.962  -7.147 -17.117  1.00  0.00    -0.214 N 
ATOM      5  H3  UNL     1      -5.280  -7.074 -17.873  1.00  0.00     0.209 HD
HETATM    6  N4  UNL     1      -5.592  -7.532 -15.914  1.00  0.00    -0.117 N 
ATOM      7  H4  UNL     1      -4.609  -7.755 -15.758  1.00  0.00     0.207 HD
HETATM    8  C5  UNL     1      -6.444  -7.646 -14.884  1.00  0.00     0.712 A 
HETATM    9  N6  UNL     1      -7.754  -7.348 -15.104  1.00  0.00    -0.020 N 
ATOM     10  H6  UNL     1      -8.437  -7.420 -14.351  1.00  0.00     0.203 HD
ENDROOT
BRANCH   1  11
HETATM   11  N1  UNL     1      -9.387  -6.663 -16.571  1.00  0.00    -0.222 N 
ATOM     12  H1  UNL     1     -10.066  -6.658 -15.810  1.00  0.00     0.177 HD
BRANCH  11  13
HETATM   13  C3  UNL     1      -9.806  -6.346 -17.922  1.00  0.00     0.164 C 
BRANCH  13  14
HETATM   14  C2  UNL     1     -11.216  -6.850 -18.081  1.00  0.00     0.187 C 
BRANCH  14  15
HETATM   15  O1  UNL     1     -12.061  -6.479 -17.058  1.00  0.00    -0.394 OA
HETATM   16  C1  UNL     1     -12.915  -5.443 -17.390  1.00  0.00     0.201 C 
ENDBRANCH  14  15
ENDBRANCH  13  14
ENDBRANCH  11  13
ENDBRANCH   1  11
BRANCH   8  17
HETATM   17  N5  UNL     1      -6.079  -8.018 -13.727  1.00  0.00    -0.203 N 
ATOM     18  H5  UNL     1      -6.495  -7.487 -12.962  1.00  0.00     0.183 HD
BRANCH  17  19
HETATM   19  C6  UNL     1      -5.197  -9.037 -13.320  1.00  0.00     0.080 C 
BRANCH  19  20
HETATM   20  C7  UNL     1      -3.880  -8.620 -12.751  1.00  0.00     0.056 C 
BRANCH  20  21
HETATM   21  C8  UNL     1      -2.879  -8.577 -13.922  1.00  0.00     0.090 C 
HETATM   22 BR1  UNL     1      -3.132 -10.179 -14.972  1.00  0.00    -0.096 Br
ENDBRANCH  20  21
ENDBRANCH  19  20
ENDBRANCH  17  19
ENDBRANCH   8  17
TORSDOF 8
ENDMDL
MODEL 4
REMARK VINA RESULT: -6.816845248      1.487      2.363
REMARK  8 active torsions:
REMARK  status: ('A' for Active; 'I' for Inactive)
REMARK    1  A    between atoms: O1_2  and  C2_3 
REMARK    2  A    between atoms: C2_3  and  C3_4 
REMARK    3  A    between atoms: C3_4  and  N1_5 
REMARK    4  A    between atoms: N1_5  and  C4_7 
REMARK    5  A    between atoms: C5_14  and  N5_15 
REMARK    6  A    between atoms: N5_15  and  C6_17 
REMARK    7  A    between atoms: C6_17  and  C7_18 
REMARK    8  A    between atoms: C7_18  and  C8_19 
ROOT
HETATM    1  C4  UNL     1      -4.897  -9.278 -16.272  1.00  0.00     0.708 A 
HETATM    2  N2  UNL     1      -4.294  -8.510 -17.199  1.00  0.00    -0.117 N 
ATOM      3  H2  UNL     1      -3.389  -8.790 -17.578  1.00  0.00     0.207 HD
HETATM    4  N3  UNL     1      -4.867  -7.397 -17.619  1.00  0.00    -0.214 N 
ATOM      5  H3  UNL     1      -4.412  -6.812 -18.321  1.00  0.00     0.209 HD
HETATM    6  N4  UNL     1      -6.034  -7.057 -17.115  1.00  0.00    -0.117 N 
ATOM      7  H4  UNL     1      -6.471  -6.195 -17.443  1.00  0.00     0.207 HD
HETATM    8  C5  UNL     1      -6.678  -7.787 -16.192  1.00  0.00     0.712 A 
HETATM    9  N6  UNL     1      -6.085  -8.934 -15.759  1.00  0.00    -0.020 N 
ATOM     10  H6  UNL     1      -6.538  -9.520 -15.059  1.00  0.00     0.203 HD
ENDROOT
BRANCH   1  11
HETATM   11  N1  UNL     1      -4.302 -10.380 -15.874  1.00  0.00    -0.222 N 
ATOM     12  H1  UNL     1      -4.798 -11.271 -15.909  1.00  0.00     0.177 HD
BRANCH  11  13
HETATM   13  C3  UNL     1      -2.938 -10.326 -15.384  1.00  0.00     0.164 C 
BRANCH  13  14
HETATM   14  C2  UNL     1      -2.956  -9.527 -14.107  1.00  0.00     0.187 C 
BRANCH  14  15
HETATM   15  O1  UNL     1      -4.092  -9.706 -13.350  1.00  0.00    -0.394 OA
HETATM   16  C1  UNL     1      -4.477  -8.579 -12.648  1.00  0.00     0.201 C 
ENDBRANCH  14  15
ENDBRANCH  13  14
ENDBRANCH  11  13
ENDBRANCH   1  11
BRANCH   8  17
HETATM   17  N5  UNL     1      -7.804  -7.451 -15.712  1.00  0.00    -0.203 N 
ATOM     18  H5  UNL     1      -7.944  -7.717 -14.737  1.00  0.00     0.183 HD
BRANCH  17  19
HETATM   19  C6  UNL     1      -8.892  -6.775 -16.295  1.00  0.00     0.080 C 
BRANCH  19  20
HETATM   20  C7  UNL     1      -9.991  -6.329 -15.387  1.00  0.00     0.056 C 
BRANCH  20  21
HETATM   21  C8  UNL     1     -11.286  -6.998 -15.888  1.00  0.00     0.090 C 
HETATM   22 BR1  UNL     1     -12.227  -5.713 -16.982  1.00  0.00    -0.096 Br
ENDBRANCH  20  21
ENDBRANCH  19  20
ENDBRANCH  17  19
ENDBRANCH   8  17
TORSDOF 8
ENDMDL
MODEL 5
REMARK VINA RESULT: -6.813758198      4.372      7.278
REMARK  8 active torsions:
REMARK  status: ('A' for Active; 'I' for Inactive)
REMARK    1  A    between atoms: O1_2  and  C2_3 
REMARK    2  A    between atoms: C2_3  and  C3_4 
REMARK    3  A    between atoms: C3_4  and  N1_5 
REMARK    4  A    between atoms: N1_5  and  C4_7 
REMARK    5  A    between atoms: C5_14  and  N5_15 
REMARK    6  A    between atoms: N5_15  and  C6_17 
REMARK    7  A    between atoms: C6_17  and  C7_18 
REMARK    8  A    between atoms: C7_18  and  C8_19 
ROOT
HETATM    1  C4  UNL     1     -10.658  -5.710 -17.195  1.00  0.00     0.708 A 
HETATM    2  N2  UNL     1      -9.949  -5.964 -18.311  1.00  0.00    -0.117 N 
ATOM      3  H2  UNL     1     -10.323  -5.695 -19.221  1.00  0.00     0.207 HD
HETATM    4  N3  UNL     1      -8.773  -6.559 -18.233  1.00  0.00    -0.214 N 
ATOM      5  H3  UNL     1      -8.232  -6.754 -19.077  1.00  0.00     0.209 HD
HETATM    6  N4  UNL     1      -8.311  -6.896 -17.047  1.00  0.00    -0.117 N 
ATOM      7  H4  UNL     1      -7.402  -7.355 -16.994  1.00  0.00     0.207 HD
HETATM    8  C5  UNL     1      -8.977  -6.664 -15.906  1.00  0.00     0.712 A 
HETATM    9  N6  UNL     1     -10.189  -6.051 -15.988  1.00  0.00    -0.020 N 
ATOM     10  H6  UNL     1     -10.731  -5.855 -15.147  1.00  0.00     0.203 HD
ENDROOT
BRANCH   1  11
HETATM   11  N1  UNL     1     -11.826  -5.117 -17.306  1.00  0.00    -0.222 N 
ATOM     12  H1  UNL     1     -12.281  -4.727 -16.480  1.00  0.00     0.177 HD
BRANCH  11  13
HETATM   13  C3  UNL     1     -12.465  -5.019 -18.603  1.00  0.00     0.164 C 
BRANCH  13  14
HETATM   14  C2  UNL     1     -12.198  -3.633 -19.127  1.00  0.00     0.187 C 
BRANCH  14  15
HETATM   15  O1  UNL     1     -11.177  -3.569 -20.049  1.00  0.00    -0.394 OA
HETATM   16  C1  UNL     1     -11.438  -4.261 -21.218  1.00  0.00     0.201 C 
ENDBRANCH  14  15
ENDBRANCH  13  14
ENDBRANCH  11  13
ENDBRANCH   1  11
BRANCH   8  17
HETATM   17  N5  UNL     1      -8.524  -6.991 -14.767  1.00  0.00    -0.203 N 
ATOM     18  H5  UNL     1      -9.233  -7.078 -14.039  1.00  0.00     0.183 HD
BRANCH  17  19
HETATM   19  C6  UNL     1      -7.209  -7.255 -14.336  1.00  0.00     0.080 C 
BRANCH  19  20
HETATM   20  C7  UNL     1      -6.795  -8.686 -14.230  1.00  0.00     0.056 C 
BRANCH  20  21
HETATM   21  C8  UNL     1      -5.336  -8.769 -14.720  1.00  0.00     0.090 C 
HETATM   22 BR1  UNL     1      -4.198  -8.878 -13.162  1.00  0.00    -0.096 Br
ENDBRANCH  20  21
ENDBRANCH  19  20
ENDBRANCH  17  19
ENDBRANCH   8  17
TORSDOF 8
ENDMDL
