MODEL 1
REMARK VINA RESULT: -6.364578891      0.000      0.000
REMARK  3 active torsions:
REMARK  status: ('A' for Active; 'I' for Inactive)
REMARK    1  A    between atoms: C2_2  and  C4_4 
REMARK    2  A    between atoms: C4_4  and  N1_5 
REMARK    3  A    between atoms: C4_4  and  C5_9 
ROOT
HETATM    1  C4  UNL     1      33.736   0.770  35.660  1.00  0.00     0.215 C 
ENDROOT
BRANCH   1   2
HETATM    2  C2  UNL     1      33.456  -0.268  36.632  1.00  0.00    -0.063 C 
HETATM    3  C1  UNL     1      32.230  -0.461  37.081  1.00  0.00     0.016 C 
HETATM    4  C3  UNL     1      34.508  -1.156  37.167  1.00  0.00     0.044 C 
ENDBRANCH   1   2
BRANCH   1   5
HETATM    5  N1  UNL     1      32.574   1.021  34.776  1.00  0.00    -0.071 N 
ATOM      6  H13 UNL     1      32.379   0.216  34.180  1.00  0.00     0.275 HD
ATOM      7  H12 UNL     1      31.701   1.041  35.304  1.00  0.00     0.275 HD
ATOM      8  H11 UNL     1      32.695   1.871  34.225  1.00  0.00     0.275 HD
ENDBRANCH   1   5
BRANCH   1   9
HETATM    9  C5  UNL     1      34.889   0.626  34.754  1.00  0.00     0.020 C 
HETATM   10  C6  UNL     1      36.182   1.179  35.261  1.00  0.00     0.007 C 
HETATM   11  C7  UNL     1      37.281   0.367  34.621  1.00  0.00     0.000 C 
HETATM   12  C8  UNL     1      37.091   0.214  33.169  1.00  0.00     0.000 C 
HETATM   13  C9  UNL     1      35.951   0.876  32.505  1.00  0.00     0.000 C 
HETATM   14  C10 UNL     1      34.723   1.079  33.341  1.00  0.00     0.007 C 
ENDBRANCH   1   9
TORSDOF 3
ENDMDL
MODEL 2
REMARK VINA RESULT: -6.360529887      1.627      4.278
REMARK  3 active torsions:
REMARK  status: ('A' for Active; 'I' for Inactive)
REMARK    1  A    between atoms: C2_2  and  C4_4 
REMARK    2  A    between atoms: C4_4  and  N1_5 
REMARK    3  A    between atoms: C4_4  and  C5_9 
ROOT
HETATM    1  C4  UNL     1      35.670  -0.766  33.732  1.00  0.00     0.215 C 
ENDROOT
BRANCH   1   2
HETATM    2  C2  UNL     1      36.636   0.276  33.448  1.00  0.00    -0.063 C 
HETATM    3  C1  UNL     1      37.081   0.471  32.220  1.00  0.00     0.016 C 
HETATM    4  C3  UNL     1      37.172   1.168  34.497  1.00  0.00     0.044 C 
ENDBRANCH   1   2
BRANCH   1   5
HETATM    5  N1  UNL     1      34.788  -1.026  32.570  1.00  0.00    -0.071 N 
ATOM      6  H13 UNL     1      34.797  -0.246  31.914  1.00  0.00     0.275 HD
ATOM      7  H12 UNL     1      35.175  -1.749  31.964  1.00  0.00     0.275 HD
ATOM      8  H11 UNL     1      33.838  -1.255  32.862  1.00  0.00     0.275 HD
ENDBRANCH   1   5
BRANCH   1   9
HETATM    9  C5  UNL     1      34.764  -0.622  34.884  1.00  0.00     0.020 C 
HETATM   10  C6  UNL     1      35.265  -1.185  36.175  1.00  0.00     0.007 C 
HETATM   11  C7  UNL     1      34.628  -0.374  37.277  1.00  0.00     0.000 C 
HETATM   12  C8  UNL     1      33.177  -0.210  37.085  1.00  0.00     0.000 C 
HETATM   13  C9  UNL     1      32.511  -0.862  35.941  1.00  0.00     0.000 C 
HETATM   14  C10 UNL     1      33.348  -1.065  34.713  1.00  0.00     0.007 C 
ENDBRANCH   1   9
TORSDOF 3
ENDMDL
MODEL 3
REMARK VINA RESULT: -6.334541291      0.070      1.016
REMARK  3 active torsions:
REMARK  status: ('A' for Active; 'I' for Inactive)
REMARK    1  A    between atoms: C2_2  and  C4_4 
REMARK    2  A    between atoms: C4_4  and  N1_5 
REMARK    3  A    between atoms: C4_4  and  C5_9 
ROOT
HETATM    1  C4  UNL     1      33.773   0.752  35.674  1.00  0.00     0.215 C 
ENDROOT
BRANCH   1   2
HETATM    2  C2  UNL     1      33.487  -0.292  36.636  1.00  0.00    -0.063 C 
HETATM    3  C1  UNL     1      34.445  -1.080  37.086  1.00  0.00     0.016 C 
HETATM    4  C3  UNL     1      32.127  -0.533  37.163  1.00  0.00     0.044 C 
ENDBRANCH   1   2
BRANCH   1   5
HETATM    5  N1  UNL     1      32.609   1.027  34.800  1.00  0.00    -0.071 N 
ATOM      6  H13 UNL     1      32.834   0.869  33.818  1.00  0.00     0.275 HD
ATOM      7  H12 UNL     1      31.884   0.318  34.912  1.00  0.00     0.275 HD
ATOM      8  H11 UNL     1      32.238   1.966  34.950  1.00  0.00     0.275 HD
ENDBRANCH   1   5
BRANCH   1   9
HETATM    9  C5  UNL     1      34.918   0.603  34.759  1.00  0.00     0.020 C 
HETATM   10  C6  UNL     1      36.212   1.174  35.244  1.00  0.00     0.007 C 
HETATM   11  C7  UNL     1      37.311   0.360  34.605  1.00  0.00     0.000 C 
HETATM   12  C8  UNL     1      37.107   0.183  33.158  1.00  0.00     0.000 C 
HETATM   13  C9  UNL     1      35.956   0.826  32.496  1.00  0.00     0.000 C 
HETATM   14  C10 UNL     1      34.735   1.032  33.340  1.00  0.00     0.007 C 
ENDBRANCH   1   9
TORSDOF 3
ENDMDL
MODEL 4
REMARK VINA RESULT: -6.329732751      1.625      4.284
REMARK  3 active torsions:
REMARK  status: ('A' for Active; 'I' for Inactive)
REMARK    1  A    between atoms: C2_2  and  C4_4 
REMARK    2  A    between atoms: C4_4  and  N1_5 
REMARK    3  A    between atoms: C4_4  and  C5_9 
ROOT
HETATM    1  C4  UNL     1      35.686  -0.737  33.791  1.00  0.00     0.215 C 
ENDROOT
BRANCH   1   2
HETATM    2  C2  UNL     1      36.642   0.316  33.513  1.00  0.00    -0.063 C 
HETATM    3  C1  UNL     1      37.080   1.104  34.477  1.00  0.00     0.016 C 
HETATM    4  C3  UNL     1      37.175   0.566  32.158  1.00  0.00     0.044 C 
ENDBRANCH   1   2
BRANCH   1   5
HETATM    5  N1  UNL     1      34.821  -1.013  32.620  1.00  0.00    -0.071 N 
ATOM      6  H13 UNL     1      35.371  -1.126  31.769  1.00  0.00     0.275 HD
ATOM      7  H12 UNL     1      34.413  -1.947  32.671  1.00  0.00     0.275 HD
ATOM      8  H11 UNL     1      34.102  -0.299  32.505  1.00  0.00     0.275 HD
ENDBRANCH   1   5
BRANCH   1   9
HETATM    9  C5  UNL     1      34.764  -0.599  34.931  1.00  0.00     0.020 C 
HETATM   10  C6  UNL     1      35.242  -1.181  36.223  1.00  0.00     0.007 C 
HETATM   11  C7  UNL     1      34.595  -0.378  37.325  1.00  0.00     0.000 C 
HETATM   12  C8  UNL     1      33.149  -0.202  37.114  1.00  0.00     0.000 C 
HETATM   13  C9  UNL     1      32.495  -0.836  35.953  1.00  0.00     0.000 C 
HETATM   14  C10 UNL     1      33.347  -1.030  34.735  1.00  0.00     0.007 C 
ENDBRANCH   1   9
TORSDOF 3
ENDMDL
MODEL 5
REMARK VINA RESULT: -6.296580662      1.830      4.542
REMARK  3 active torsions:
REMARK  status: ('A' for Active; 'I' for Inactive)
REMARK    1  A    between atoms: C2_2  and  C4_4 
REMARK    2  A    between atoms: C4_4  and  N1_5 
REMARK    3  A    between atoms: C4_4  and  C5_9 
ROOT
HETATM    1  C4  UNL     1      36.669   0.142  34.365  1.00  0.00     0.215 C 
ENDROOT
BRANCH   1   2
HETATM    2  C2  UNL     1      36.375   0.632  33.034  1.00  0.00    -0.063 C 
HETATM    3  C1  UNL     1      37.261   0.521  32.061  1.00  0.00     0.016 C 
HETATM    4  C3  UNL     1      35.089   1.273  32.691  1.00  0.00     0.044 C 
ENDBRANCH   1   2
BRANCH   1   5
HETATM    5  N1  UNL     1      37.267  -1.213  34.331  1.00  0.00    -0.071 N 
ATOM      6  H13 UNL     1      36.725  -1.845  33.742  1.00  0.00     0.275 HD
ATOM      7  H12 UNL     1      38.143  -1.220  33.808  1.00  0.00     0.275 HD
ATOM      8  H11 UNL     1      37.391  -1.595  35.269  1.00  0.00     0.275 HD
ENDBRANCH   1   5
BRANCH   1   9
HETATM    9  C5  UNL     1      35.590   0.065  35.365  1.00  0.00     0.020 C 
HETATM   10  C6  UNL     1      35.516   1.209  36.325  1.00  0.00     0.007 C 
HETATM   11  C7  UNL     1      34.069   1.334  36.738  1.00  0.00     0.000 C 
HETATM   12  C8  UNL     1      33.484   0.039  37.125  1.00  0.00     0.000 C 
HETATM   13  C9  UNL     1      34.325  -1.173  37.130  1.00  0.00     0.000 C 
HETATM   14  C10 UNL     1      35.461  -1.198  36.152  1.00  0.00     0.007 C 
ENDBRANCH   1   9
TORSDOF 3
ENDMDL
