MODEL 1
REMARK VINA RESULT: -4.391984420      0.000      0.000
REMARK  3 active torsions:
REMARK  status: ('A' for Active; 'I' for Inactive)
REMARK    1  A    between atoms: C1_2  and  C2_3 
REMARK    2  A    between atoms: C2_3  and  C3_4 
REMARK    3  A    between atoms: C3_4  and  N1_5 
ROOT
HETATM    1  N1  UNL     1      28.001  33.488  22.124  1.00  0.00     0.090 N 
HETATM    2  C4  UNL     1      26.941  32.556  21.831  1.00  0.00     0.274 C 
HETATM    3  C5  UNL     1      27.664  31.205  21.696  1.00  0.00     0.057 C 
HETATM    4  C6  UNL     1      27.991  30.935  20.268  1.00  0.00     0.234 C 
HETATM    5  N2  UNL     1      28.456  32.061  19.510  1.00  0.00    -0.073 N 
ATOM      6  H21 UNL     1      27.666  32.576  19.121  1.00  0.00     0.277 HD
ATOM      7  H22 UNL     1      28.904  31.748  18.649  1.00  0.00     0.277 HD
HETATM    8  C7  UNL     1      29.327  32.952  20.232  1.00  0.00     0.262 C 
HETATM    9  C8  UNL     1      28.556  34.061  20.909  1.00  0.00     0.299 C 
ENDROOT
BRANCH   1  10
HETATM   10  C3  UNL     1      27.689  34.483  23.106  1.00  0.00     0.273 C 
BRANCH  10  11
HETATM   11  C2  UNL     1      28.762  35.556  23.216  1.00  0.00     0.045 C 
BRANCH  11  12
HETATM   12  C1  UNL     1      29.086  35.707  24.696  1.00  0.00     0.116 C 
HETATM   13 CL1  UNL     1      29.627  34.116  25.276  1.00  0.00    -0.130 Cl
ENDBRANCH  11  12
ENDBRANCH  10  11
ENDBRANCH   1  10
TORSDOF 3
ENDMDL
MODEL 2
REMARK VINA RESULT: -4.299473443      3.297      4.999
REMARK  3 active torsions:
REMARK  status: ('A' for Active; 'I' for Inactive)
REMARK    1  A    between atoms: C1_2  and  C2_3 
REMARK    2  A    between atoms: C2_3  and  C3_4 
REMARK    3  A    between atoms: C3_4  and  N1_5 
ROOT
HETATM    1  N1  UNL     1      28.273  32.474  20.892  1.00  0.00     0.090 N 
HETATM    2  C4  UNL     1      29.409  31.884  21.554  1.00  0.00     0.274 C 
HETATM    3  C5  UNL     1      28.842  31.404  22.901  1.00  0.00     0.057 C 
HETATM    4  C6  UNL     1      29.055  32.441  23.949  1.00  0.00     0.234 C 
HETATM    5  N2  UNL     1      28.838  33.798  23.539  1.00  0.00    -0.073 N 
ATOM      6  H21 UNL     1      29.691  34.186  23.133  1.00  0.00     0.277 HD
ATOM      7  H22 UNL     1      28.739  34.403  24.353  1.00  0.00     0.277 HD
HETATM    8  C7  UNL     1      27.728  33.983  22.639  1.00  0.00     0.262 C 
HETATM    9  C8  UNL     1      28.158  33.891  21.194  1.00  0.00     0.299 C 
ENDROOT
BRANCH   1  10
HETATM   10  C3  UNL     1      28.171  32.204  19.489  1.00  0.00     0.273 C 
BRANCH  10  11
HETATM   11  C2  UNL     1      26.806  31.662  19.092  1.00  0.00     0.045 C 
BRANCH  11  12
HETATM   12  C1  UNL     1      27.032  30.270  18.520  1.00  0.00     0.116 C 
HETATM   13 CL1  UNL     1      25.447  29.658  17.997  1.00  0.00    -0.130 Cl
ENDBRANCH  11  12
ENDBRANCH  10  11
ENDBRANCH   1  10
TORSDOF 3
ENDMDL
MODEL 3
REMARK VINA RESULT: -4.287780911      3.163      5.021
REMARK  3 active torsions:
REMARK  status: ('A' for Active; 'I' for Inactive)
REMARK    1  A    between atoms: C1_2  and  C2_3 
REMARK    2  A    between atoms: C2_3  and  C3_4 
REMARK    3  A    between atoms: C3_4  and  N1_5 
ROOT
HETATM    1  N1  UNL     1      27.662  32.269  21.059  1.00  0.00     0.090 N 
HETATM    2  C4  UNL     1      26.935  32.955  22.097  1.00  0.00     0.274 C 
HETATM    3  C5  UNL     1      27.880  34.093  22.519  1.00  0.00     0.057 C 
HETATM    4  C6  UNL     1      28.704  33.672  23.687  1.00  0.00     0.234 C 
HETATM    5  N2  UNL     1      29.196  32.326  23.651  1.00  0.00    -0.073 N 
ATOM      6  H21 UNL     1      28.506  31.686  24.045  1.00  0.00     0.277 HD
ATOM      7  H22 UNL     1      29.952  32.207  24.326  1.00  0.00     0.277 HD
HETATM    8  C7  UNL     1      29.614  31.873  22.349  1.00  0.00     0.262 C 
HETATM    9  C8  UNL     1      28.484  31.201  21.603  1.00  0.00     0.299 C 
ENDROOT
BRANCH   1  10
HETATM   10  C3  UNL     1      26.878  31.840  19.940  1.00  0.00     0.273 C 
BRANCH  10  11
HETATM   11  C2  UNL     1      27.722  31.538  18.711  1.00  0.00     0.045 C 
BRANCH  11  12
HETATM   12  C1  UNL     1      27.430  30.097  18.317  1.00  0.00     0.116 C 
HETATM   13 CL1  UNL     1      25.664  29.938  18.195  1.00  0.00    -0.130 Cl
ENDBRANCH  11  12
ENDBRANCH  10  11
ENDBRANCH   1  10
TORSDOF 3
ENDMDL
MODEL 4
REMARK VINA RESULT: -4.245338582      2.941      4.732
REMARK  3 active torsions:
REMARK  status: ('A' for Active; 'I' for Inactive)
REMARK    1  A    between atoms: C1_2  and  C2_3 
REMARK    2  A    between atoms: C2_3  and  C3_4 
REMARK    3  A    between atoms: C3_4  and  N1_5 
ROOT
HETATM    1  N1  UNL     1      28.083  32.676  21.460  1.00  0.00     0.090 N 
HETATM    2  C4  UNL     1      28.261  33.177  22.799  1.00  0.00     0.274 C 
HETATM    3  C5  UNL     1      27.461  34.490  22.812  1.00  0.00     0.057 C 
HETATM    4  C6  UNL     1      28.356  35.642  22.504  1.00  0.00     0.234 C 
HETATM    5  N2  UNL     1      29.328  35.419  21.474  1.00  0.00    -0.073 N 
ATOM      6  H21 UNL     1      30.173  35.006  21.867  1.00  0.00     0.277 HD
ATOM      7  H22 UNL     1      29.703  36.308  21.143  1.00  0.00     0.277 HD
HETATM    8  C7  UNL     1      28.856  34.632  20.363  1.00  0.00     0.262 C 
HETATM    9  C8  UNL     1      29.124  33.159  20.569  1.00  0.00     0.299 C 
ENDROOT
BRANCH   1  10
HETATM   10  C3  UNL     1      27.885  31.261  21.354  1.00  0.00     0.273 C 
BRANCH  10  11
HETATM   11  C2  UNL     1      27.900  30.771  19.914  1.00  0.00     0.045 C 
BRANCH  11  12
HETATM   12  C1  UNL     1      26.638  31.307  19.252  1.00  0.00     0.116 C 
HETATM   13 CL1  UNL     1      25.964  29.986  18.271  1.00  0.00    -0.130 Cl
ENDBRANCH  11  12
ENDBRANCH  10  11
ENDBRANCH   1  10
TORSDOF 3
ENDMDL
MODEL 5
REMARK VINA RESULT: -4.139240630      3.087      5.164
REMARK  3 active torsions:
REMARK  status: ('A' for Active; 'I' for Inactive)
REMARK    1  A    between atoms: C1_2  and  C2_3 
REMARK    2  A    between atoms: C2_3  and  C3_4 
REMARK    3  A    between atoms: C3_4  and  N1_5 
ROOT
HETATM    1  N1  UNL     1      28.312  32.336  21.149  1.00  0.00     0.090 N 
HETATM    2  C4  UNL     1      27.871  33.548  20.505  1.00  0.00     0.274 C 
HETATM    3  C5  UNL     1      28.947  34.579  20.883  1.00  0.00     0.057 C 
HETATM    4  C6  UNL     1      28.529  35.340  22.095  1.00  0.00     0.234 C 
HETATM    5  N2  UNL     1      27.898  34.571  23.127  1.00  0.00    -0.073 N 
ATOM      6  H21 UNL     1      26.894  34.503  22.955  1.00  0.00     0.277 HD
ATOM      7  H22 UNL     1      27.891  35.092  24.003  1.00  0.00     0.277 HD
HETATM    8  C7  UNL     1      28.460  33.260  23.329  1.00  0.00     0.262 C 
HETATM    9  C8  UNL     1      27.761  32.217  22.489  1.00  0.00     0.299 C 
ENDROOT
BRANCH   1  10
HETATM   10  C3  UNL     1      28.149  31.138  20.382  1.00  0.00     0.273 C 
BRANCH  10  11
HETATM   11  C2  UNL     1      27.723  31.412  18.947  1.00  0.00     0.045 C 
BRANCH  11  12
HETATM   12  C1  UNL     1      27.413  30.063  18.313  1.00  0.00     0.116 C 
HETATM   13 CL1  UNL     1      25.643  29.927  18.217  1.00  0.00    -0.130 Cl
ENDBRANCH  11  12
ENDBRANCH  10  11
ENDBRANCH   1  10
TORSDOF 3
ENDMDL
