MODEL 1
REMARK VINA RESULT: -8.916697912      0.000      0.000
REMARK  8 active torsions:
REMARK  status: ('A' for Active; 'I' for Inactive)
REMARK       I    between atoms: N1_2  and  C2_3 
REMARK       I    between atoms: N1_2  and  C3_6 
REMARK       I    between atoms: C3_6  and  N3_7 
REMARK       I    between atoms: C3_6  and  N4_11 
REMARK    1  A    between atoms: N4_11  and  N5_13 
REMARK    2  A    between atoms: N6_15  and  C4_17 
REMARK    3  A    between atoms: C5_20  and  N8_21 
REMARK    4  A    between atoms: N8_21  and  O2_23 
REMARK    5  A    between atoms: O2_23  and  C6_24 
REMARK    6  A    between atoms: C7_27  and  O3_28 
REMARK    7  A    between atoms: C8_30  and  O4_31 
REMARK    8  A    between atoms: C9_35  and  N11_36 
ROOT
HETATM    1  C4  UNL     1       2.051  -0.480  39.461  1.00  0.00     0.727 A 
HETATM    2  N7  UNL     1       2.885   0.315  38.771  1.00  0.00    -0.018 N 
ATOM      3  H7  UNL     1       3.074   0.110  37.789  1.00  0.00     0.203 HD
HETATM    4  C5  UNL     1       3.471   1.367  39.344  1.00  0.00     0.731 A 
HETATM    5  N10 UNL     1       3.254   1.674  40.630  1.00  0.00    -0.020 N 
ATOM      6  H10 UNL     1       3.710   2.482  41.056  1.00  0.00     0.203 HD
HETATM    7  C9  UNL     1       2.428   0.902  41.347  1.00  0.00     0.705 A 
HETATM    8  N12 UNL     1       1.843  -0.158  40.752  1.00  0.00    -0.020 N 
ATOM      9  H12 UNL     1       1.215  -0.742  41.304  1.00  0.00     0.203 HD
ENDROOT
BRANCH   1  10
HETATM   10  N6  UNL     1       1.434  -1.599  38.835  1.00  0.00    -0.117 N 
HETATM   11  N5  UNL     1       0.576  -1.444  37.930  1.00  0.00    -0.230 N 
ATOM     12  H5  UNL     1       0.171  -2.286  37.522  1.00  0.00     0.208 HD
ATOM     13  H6  UNL     1       1.691  -2.542  39.125  1.00  0.00     0.207 HD
BRANCH  11  14
HETATM   14  N4  UNL     1       0.135  -0.225  37.439  1.00  0.00    -0.275 N 
HETATM   15  C3  UNL     1      -0.737   0.564  38.301  1.00  0.00     0.407 C 
HETATM   16  N1  UNL     1      -1.941  -0.209  38.590  1.00  0.00    -0.296 N 
HETATM   17  N3  UNL     1      -1.098   1.827  37.702  1.00  0.00    -0.039 N 
HETATM   18  C1  UNL     1      -2.840  -0.556  37.507  1.00  0.00     0.158 C 
HETATM   19  C2  UNL     1      -2.226  -0.612  39.911  1.00  0.00     0.333 C 
HETATM   20  N2  UNL     1      -1.348  -0.274  40.978  1.00  0.00    -0.040 NA
HETATM   21  O1  UNL     1      -3.261  -1.276  40.159  1.00  0.00    -0.251 OA
ATOM     22  H33 UNL     1      -1.683   1.706  36.876  1.00  0.00     0.279 HD
ATOM     23  H32 UNL     1      -1.758   2.349  38.278  1.00  0.00     0.279 HD
ATOM     24  H31 UNL     1      -0.257   2.367  37.499  1.00  0.00     0.279 HD
ATOM     25  H4  UNL     1       0.409   0.106  36.514  1.00  0.00     0.185 HD
ENDBRANCH  11  14
ENDBRANCH   1  10
BRANCH   4  26
HETATM   26  N8  UNL     1       4.265   2.099  38.634  1.00  0.00    -0.088 N 
ATOM     27  H8  UNL     1       4.123   3.109  38.628  1.00  0.00     0.213 HD
BRANCH  26  28
HETATM   28  O2  UNL     1       5.290   1.574  37.886  1.00  0.00    -0.207 OA
BRANCH  28  29
HETATM   29  C6  UNL     1       5.190   1.469  36.485  1.00  0.00     0.178 A 
HETATM   30  N9  UNL     1       4.820   2.247  35.587  1.00  0.00    -0.341 N 
HETATM   31  C7  UNL     1       5.045   1.342  34.541  1.00  0.00     0.256 A 
ATOM     32  H9  UNL     1       4.475   3.206  35.607  1.00  0.00     0.164 HD
HETATM   33  C8  UNL     1       5.490   0.391  35.559  1.00  0.00     0.243 A 
BRANCH  31  34
HETATM   34  O3  UNL     1       3.903   0.986  33.804  1.00  0.00    -0.374 OA
ATOM     35  H3  UNL     1       3.922   1.230  32.886  1.00  0.00     0.212 HD
ENDBRANCH  31  34
BRANCH  33  36
HETATM   36  O4  UNL     1       6.849   0.035  35.481  1.00  0.00    -0.383 OA
ATOM     37  H4  UNL     1       7.460   0.758  35.571  1.00  0.00     0.210 HD
ENDBRANCH  33  36
ENDBRANCH  28  29
ENDBRANCH  26  28
ENDBRANCH   4  26
BRANCH   7  38
HETATM   38  N11 UNL     1       2.188   1.165  42.603  1.00  0.00    -0.234 N 
ATOM     39 2H11 UNL     1       2.174   2.131  42.931  1.00  0.00     0.174 HD
ATOM     40 1H11 UNL     1       2.014   0.414  43.270  1.00  0.00     0.174 HD
ENDBRANCH   7  38
TORSDOF 8
ENDMDL
MODEL 2
REMARK VINA RESULT: -8.869483403      1.539      2.426
REMARK  8 active torsions:
REMARK  status: ('A' for Active; 'I' for Inactive)
REMARK       I    between atoms: N1_2  and  C2_3 
REMARK       I    between atoms: N1_2  and  C3_6 
REMARK       I    between atoms: C3_6  and  N3_7 
REMARK       I    between atoms: C3_6  and  N4_11 
REMARK    1  A    between atoms: N4_11  and  N5_13 
REMARK    2  A    between atoms: N6_15  and  C4_17 
REMARK    3  A    between atoms: C5_20  and  N8_21 
REMARK    4  A    between atoms: N8_21  and  O2_23 
REMARK    5  A    between atoms: O2_23  and  C6_24 
REMARK    6  A    between atoms: C7_27  and  O3_28 
REMARK    7  A    between atoms: C8_30  and  O4_31 
REMARK    8  A    between atoms: C9_35  and  N11_36 
ROOT
HETATM    1  C4  UNL     1       2.837   1.080  41.673  1.00  0.00     0.727 A 
HETATM    2  N7  UNL     1       3.322   1.420  40.468  1.00  0.00    -0.018 N 
ATOM      3  H7  UNL     1       2.677   1.563  39.691  1.00  0.00     0.203 HD
HETATM    4  C5  UNL     1       4.632   1.575  40.267  1.00  0.00     0.731 A 
HETATM    5  N10 UNL     1       5.517   1.397  41.258  1.00  0.00    -0.020 N 
ATOM      6  H10 UNL     1       6.516   1.519  41.089  1.00  0.00     0.203 HD
HETATM    7  C9  UNL     1       5.067   1.057  42.471  1.00  0.00     0.705 A 
HETATM    8  N12 UNL     1       3.739   0.904  42.658  1.00  0.00    -0.020 N 
ATOM      9  H12 UNL     1       3.404   0.645  43.585  1.00  0.00     0.203 HD
ENDROOT
BRANCH   1  10
HETATM   10  N6  UNL     1       1.438   0.918  41.870  1.00  0.00    -0.117 N 
HETATM   11  N5  UNL     1       0.778   0.093  41.190  1.00  0.00    -0.230 N 
ATOM     12  H5  UNL     1      -0.223   0.026  41.380  1.00  0.00     0.208 HD
ATOM     13  H6  UNL     1       0.962   1.481  42.575  1.00  0.00     0.207 HD
BRANCH  11  14
HETATM   14  N4  UNL     1       1.294  -0.733  40.204  1.00  0.00    -0.275 N 
HETATM   15  C3  UNL     1       0.782  -0.556  38.851  1.00  0.00     0.407 C 
HETATM   16  N1  UNL     1      -0.658  -0.791  38.855  1.00  0.00    -0.296 N 
HETATM   17  N3  UNL     1       1.420  -1.440  37.906  1.00  0.00    -0.039 N 
HETATM   18  C1  UNL     1      -1.161  -2.111  39.185  1.00  0.00     0.158 C 
HETATM   19  C2  UNL     1      -1.551   0.254  38.540  1.00  0.00     0.333 C 
HETATM   20  N2  UNL     1      -1.064   1.550  38.215  1.00  0.00    -0.040 NA
HETATM   21  O1  UNL     1      -2.789   0.050  38.544  1.00  0.00    -0.251 OA
ATOM     22  H33 UNL     1       1.193  -2.419  38.082  1.00  0.00     0.279 HD
ATOM     23  H32 UNL     1       1.017  -1.360  36.972  1.00  0.00     0.279 HD
ATOM     24  H31 UNL     1       2.427  -1.276  37.903  1.00  0.00     0.279 HD
ATOM     25  H4  UNL     1       2.002  -1.435  40.417  1.00  0.00     0.185 HD
ENDBRANCH  11  14
ENDBRANCH   1  10
BRANCH   4  26
HETATM   26  N8  UNL     1       5.045   1.904  39.088  1.00  0.00    -0.088 N 
ATOM     27  H8  UNL     1       6.019   1.726  38.843  1.00  0.00     0.213 HD
BRANCH  26  28
HETATM   28  O2  UNL     1       4.227   2.485  38.149  1.00  0.00    -0.207 OA
BRANCH  28  29
HETATM   29  C6  UNL     1       4.360   2.181  36.780  1.00  0.00     0.178 A 
HETATM   30  N9  UNL     1       4.100   2.800  35.732  1.00  0.00    -0.341 N 
HETATM   31  C7  UNL     1       4.536   1.778  34.877  1.00  0.00     0.256 A 
ATOM     32  H9  UNL     1       3.708   3.724  35.557  1.00  0.00     0.164 HD
HETATM   33  C8  UNL     1       4.859   1.012  36.080  1.00  0.00     0.243 A 
BRANCH  31  34
HETATM   34  O3  UNL     1       3.548   1.241  34.035  1.00  0.00    -0.374 OA
ATOM     35  H3  UNL     1       3.169   0.421  34.329  1.00  0.00     0.212 HD
ENDBRANCH  31  34
BRANCH  33  36
HETATM   36  O4  UNL     1       6.230   0.749  36.263  1.00  0.00    -0.383 OA
ATOM     37  H4  UNL     1       6.590   0.079  35.694  1.00  0.00     0.210 HD
ENDBRANCH  33  36
ENDBRANCH  28  29
ENDBRANCH  26  28
ENDBRANCH   4  26
BRANCH   7  38
HETATM   38  N11 UNL     1       5.895   0.874  43.465  1.00  0.00    -0.234 N 
ATOM     39 2H11 UNL     1       6.761   0.354  43.322  1.00  0.00     0.174 HD
ATOM     40 1H11 UNL     1       5.687   1.246  44.392  1.00  0.00     0.174 HD
ENDBRANCH   7  38
TORSDOF 8
ENDMDL
MODEL 3
REMARK VINA RESULT: -8.712752401      1.604      2.418
REMARK  8 active torsions:
REMARK  status: ('A' for Active; 'I' for Inactive)
REMARK       I    between atoms: N1_2  and  C2_3 
REMARK       I    between atoms: N1_2  and  C3_6 
REMARK       I    between atoms: C3_6  and  N3_7 
REMARK       I    between atoms: C3_6  and  N4_11 
REMARK    1  A    between atoms: N4_11  and  N5_13 
REMARK    2  A    between atoms: N6_15  and  C4_17 
REMARK    3  A    between atoms: C5_20  and  N8_21 
REMARK    4  A    between atoms: N8_21  and  O2_23 
REMARK    5  A    between atoms: O2_23  and  C6_24 
REMARK    6  A    between atoms: C7_27  and  O3_28 
REMARK    7  A    between atoms: C8_30  and  O4_31 
REMARK    8  A    between atoms: C9_35  and  N11_36 
ROOT
HETATM    1  C4  UNL     1       2.609   0.928  41.206  1.00  0.00     0.727 A 
HETATM    2  N7  UNL     1       2.797   1.445  39.982  1.00  0.00    -0.018 N 
ATOM      3  H7  UNL     1       1.990   1.611  39.379  1.00  0.00     0.203 HD
HETATM    4  C5  UNL     1       4.018   1.747  39.537  1.00  0.00     0.731 A 
HETATM    5  N10 UNL     1       5.107   1.546  40.292  1.00  0.00    -0.020 N 
ATOM      6  H10 UNL     1       6.035   1.781  39.939  1.00  0.00     0.203 HD
HETATM    7  C9  UNL     1       4.954   1.031  41.518  1.00  0.00     0.705 A 
HETATM    8  N12 UNL     1       3.713   0.732  41.953  1.00  0.00    -0.020 N 
ATOM      9  H12 UNL     1       3.605   0.340  42.888  1.00  0.00     0.203 HD
ENDROOT
BRANCH   1  10
HETATM   10  N6  UNL     1       1.300   0.612  41.666  1.00  0.00    -0.117 N 
HETATM   11  N5  UNL     1       0.650  -0.341  41.167  1.00  0.00    -0.230 N 
ATOM     12  H5  UNL     1      -0.283  -0.515  41.540  1.00  0.00     0.208 HD
ATOM     13  H6  UNL     1       0.882   1.168  42.411  1.00  0.00     0.207 HD
BRANCH  11  14
HETATM   14  N4  UNL     1       1.095  -1.175  40.154  1.00  0.00    -0.275 N 
HETATM   15  C3  UNL     1       0.573  -0.933  38.814  1.00  0.00     0.407 C 
HETATM   16  N1  UNL     1      -0.879  -1.075  38.839  1.00  0.00    -0.296 N 
HETATM   17  N3  UNL     1       1.137  -1.834  37.838  1.00  0.00    -0.039 N 
HETATM   18  C1  UNL     1      -1.461  -2.366  39.148  1.00  0.00     0.158 C 
HETATM   19  C2  UNL     1      -1.706   0.033  38.564  1.00  0.00     0.333 C 
HETATM   20  N2  UNL     1      -1.141   1.302  38.260  1.00  0.00    -0.040 NA
HETATM   21  O1  UNL     1      -2.955  -0.089  38.586  1.00  0.00    -0.251 OA
ATOM     22  H33 UNL     1       0.849  -2.800  37.996  1.00  0.00     0.279 HD
ATOM     23  H32 UNL     1       0.724  -1.706  36.914  1.00  0.00     0.279 HD
ATOM     24  H31 UNL     1       2.152  -1.735  37.820  1.00  0.00     0.279 HD
ATOM     25  H4  UNL     1       1.760  -1.927  40.337  1.00  0.00     0.185 HD
ENDBRANCH  11  14
ENDBRANCH   1  10
BRANCH   4  26
HETATM   26  N8  UNL     1       4.142   2.243  38.350  1.00  0.00    -0.088 N 
ATOM     27  H8  UNL     1       3.371   2.789  37.966  1.00  0.00     0.213 HD
BRANCH  26  28
HETATM   28  O2  UNL     1       5.268   2.065  37.585  1.00  0.00    -0.207 OA
BRANCH  28  29
HETATM   29  C6  UNL     1       5.326   1.064  36.595  1.00  0.00     0.178 A 
HETATM   30  N9  UNL     1       6.207   0.689  35.801  1.00  0.00    -0.341 N 
HETATM   31  C7  UNL     1       5.425  -0.318  35.220  1.00  0.00     0.256 A 
ATOM     32  H9  UNL     1       7.163   1.004  35.633  1.00  0.00     0.164 HD
HETATM   33  C8  UNL     1       4.358   0.086  36.134  1.00  0.00     0.243 A 
BRANCH  31  34
HETATM   34  O3  UNL     1       5.172  -0.159  33.847  1.00  0.00    -0.374 OA
ATOM     35  H3  UNL     1       5.122  -0.967  33.349  1.00  0.00     0.212 HD
ENDBRANCH  31  34
BRANCH  33  36
HETATM   36  O4  UNL     1       3.995  -0.886  37.085  1.00  0.00    -0.383 OA
ATOM     37  H4  UNL     1       3.076  -1.126  37.084  1.00  0.00     0.210 HD
ENDBRANCH  33  36
ENDBRANCH  28  29
ENDBRANCH  26  28
ENDBRANCH   4  26
BRANCH   7  38
HETATM   38  N11 UNL     1       5.988   0.819  42.288  1.00  0.00    -0.234 N 
ATOM     39 2H11 UNL     1       6.931   0.857  41.901  1.00  0.00     0.174 HD
ATOM     40 1H11 UNL     1       5.867   0.614  43.280  1.00  0.00     0.174 HD
ENDBRANCH   7  38
TORSDOF 8
ENDMDL
MODEL 4
REMARK VINA RESULT: -8.671623762      1.961      5.642
REMARK  8 active torsions:
REMARK  status: ('A' for Active; 'I' for Inactive)
REMARK       I    between atoms: N1_2  and  C2_3 
REMARK       I    between atoms: N1_2  and  C3_6 
REMARK       I    between atoms: C3_6  and  N3_7 
REMARK       I    between atoms: C3_6  and  N4_11 
REMARK    1  A    between atoms: N4_11  and  N5_13 
REMARK    2  A    between atoms: N6_15  and  C4_17 
REMARK    3  A    between atoms: C5_20  and  N8_21 
REMARK    4  A    between atoms: N8_21  and  O2_23 
REMARK    5  A    between atoms: O2_23  and  C6_24 
REMARK    6  A    between atoms: C7_27  and  O3_28 
REMARK    7  A    between atoms: C8_30  and  O4_31 
REMARK    8  A    between atoms: C9_35  and  N11_36 
ROOT
HETATM    1  C4  UNL     1       3.759   0.907  41.193  1.00  0.00     0.727 A 
HETATM    2  N7  UNL     1       2.742   0.274  40.587  1.00  0.00    -0.018 N 
ATOM      3  H7  UNL     1       2.883  -0.129  39.661  1.00  0.00     0.203 HD
HETATM    4  C5  UNL     1       1.549   0.163  41.173  1.00  0.00     0.731 A 
HETATM    5  N10 UNL     1       1.315   0.678  42.389  1.00  0.00    -0.020 N 
ATOM      6  H10 UNL     1       0.398   0.586  42.825  1.00  0.00     0.203 HD
HETATM    7  C9  UNL     1       2.309   1.316  43.019  1.00  0.00     0.705 A 
HETATM    8  N12 UNL     1       3.510   1.419  42.413  1.00  0.00    -0.020 N 
ATOM      9  H12 UNL     1       4.262   1.906  42.900  1.00  0.00     0.203 HD
ENDROOT
BRANCH   1  10
HETATM   10  N6  UNL     1       5.026   1.017  40.553  1.00  0.00    -0.117 N 
HETATM   11  N5  UNL     1       5.174   1.720  39.523  1.00  0.00    -0.230 N 
ATOM     12  H5  UNL     1       6.107   1.756  39.112  1.00  0.00     0.208 HD
ATOM     13  H6  UNL     1       5.827   0.516  40.938  1.00  0.00     0.207 HD
BRANCH  11  14
HETATM   14  N4  UNL     1       4.176   2.451  38.897  1.00  0.00    -0.275 N 
HETATM   15  C3  UNL     1       3.269   1.722  38.018  1.00  0.00     0.407 C 
HETATM   16  N1  UNL     1       4.042   1.105  36.946  1.00  0.00    -0.296 N 
HETATM   17  N3  UNL     1       2.250   2.577  37.457  1.00  0.00    -0.039 N 
HETATM   18  C1  UNL     1       4.747   1.949  36.001  1.00  0.00     0.158 C 
HETATM   19  C2  UNL     1       4.102  -0.299  36.831  1.00  0.00     0.333 C 
HETATM   20  N2  UNL     1       3.414  -1.133  37.755  1.00  0.00    -0.040 NA
HETATM   21  O1  UNL     1       4.768  -0.830  35.909  1.00  0.00    -0.251 OA
ATOM     22  H33 UNL     1       2.640   3.270  36.818  1.00  0.00     0.279 HD
ATOM     23  H32 UNL     1       1.656   2.081  36.793  1.00  0.00     0.279 HD
ATOM     24  H31 UNL     1       1.709   3.010  38.206  1.00  0.00     0.279 HD
ATOM     25  H4  UNL     1       4.081   3.455  39.046  1.00  0.00     0.185 HD
ENDBRANCH  11  14
ENDBRANCH   1  10
BRANCH   4  26
HETATM   26  N8  UNL     1       0.603  -0.456  40.546  1.00  0.00    -0.088 N 
ATOM     27  H8  UNL     1       0.762  -1.420  40.252  1.00  0.00     0.213 HD
BRANCH  26  28
HETATM   28  O2  UNL     1      -0.606   0.129  40.260  1.00  0.00    -0.207 OA
BRANCH  28  29
HETATM   29  C6  UNL     1      -1.117   0.139  38.947  1.00  0.00     0.178 A 
HETATM   30  N9  UNL     1      -2.061   0.734  38.396  1.00  0.00    -0.341 N 
HETATM   31  C7  UNL     1      -1.839   0.168  37.133  1.00  0.00     0.256 A 
ATOM     32  H9  UNL     1      -2.752   1.399  38.742  1.00  0.00     0.164 HD
HETATM   33  C8  UNL     1      -0.718  -0.552  37.735  1.00  0.00     0.243 A 
BRANCH  31  34
HETATM   34  O3  UNL     1      -2.896  -0.613  36.635  1.00  0.00    -0.374 OA
ATOM     35  H3  UNL     1      -2.657  -1.495  36.375  1.00  0.00     0.212 HD
ENDBRANCH  31  34
BRANCH  33  36
HETATM   36  O4  UNL     1       0.549  -0.196  37.236  1.00  0.00    -0.383 OA
ATOM     37  H4  UNL     1       1.280  -0.649  37.638  1.00  0.00     0.210 HD
ENDBRANCH  33  36
ENDBRANCH  28  29
ENDBRANCH  26  28
ENDBRANCH   4  26
BRANCH   7  38
HETATM   38  N11 UNL     1       2.126   1.832  44.205  1.00  0.00    -0.234 N 
ATOM     39 2H11 UNL     1       2.896   1.868  44.874  1.00  0.00     0.174 HD
ATOM     40 1H11 UNL     1       1.216   2.203  44.477  1.00  0.00     0.174 HD
ENDBRANCH   7  38
TORSDOF 8
ENDMDL
MODEL 5
REMARK VINA RESULT: -8.650273294      1.753      6.355
REMARK  8 active torsions:
REMARK  status: ('A' for Active; 'I' for Inactive)
REMARK       I    between atoms: N1_2  and  C2_3 
REMARK       I    between atoms: N1_2  and  C3_6 
REMARK       I    between atoms: C3_6  and  N3_7 
REMARK       I    between atoms: C3_6  and  N4_11 
REMARK    1  A    between atoms: N4_11  and  N5_13 
REMARK    2  A    between atoms: N6_15  and  C4_17 
REMARK    3  A    between atoms: C5_20  and  N8_21 
REMARK    4  A    between atoms: N8_21  and  O2_23 
REMARK    5  A    between atoms: O2_23  and  C6_24 
REMARK    6  A    between atoms: C7_27  and  O3_28 
REMARK    7  A    between atoms: C8_30  and  O4_31 
REMARK    8  A    between atoms: C9_35  and  N11_36 
ROOT
HETATM    1  C4  UNL     1       2.384  -0.762  39.655  1.00  0.00     0.727 A 
HETATM    2  N7  UNL     1       1.091  -0.925  39.977  1.00  0.00    -0.018 N 
ATOM      3  H7  UNL     1       0.522  -1.585  39.446  1.00  0.00     0.203 HD
HETATM    4  C5  UNL     1       0.535  -0.241  40.978  1.00  0.00     0.731 A 
HETATM    5  N10 UNL     1       1.243   0.637  41.703  1.00  0.00    -0.020 N 
ATOM      6  H10 UNL     1       0.804   1.154  42.466  1.00  0.00     0.203 HD
HETATM    7  C9  UNL     1       2.535   0.824  41.407  1.00  0.00     0.705 A 
HETATM    8  N12 UNL     1       3.082   0.124  40.392  1.00  0.00    -0.020 N 
ATOM      9  H12 UNL     1       4.066   0.271  40.173  1.00  0.00     0.203 HD
ENDROOT
BRANCH   1  10
HETATM   10  N6  UNL     1       2.962  -1.499  38.584  1.00  0.00    -0.117 N 
HETATM   11  N5  UNL     1       3.187  -0.960  37.472  1.00  0.00    -0.230 N 
ATOM     12  H5  UNL     1       3.602  -1.544  36.745  1.00  0.00     0.208 HD
ATOM     13  H6  UNL     1       3.196  -2.482  38.721  1.00  0.00     0.207 HD
BRANCH  11  14
HETATM   14  N4  UNL     1       2.920   0.362  37.150  1.00  0.00    -0.275 N 
HETATM   15  C3  UNL     1       3.615   0.919  35.996  1.00  0.00     0.407 C 
HETATM   16  N1  UNL     1       5.053   0.849  36.230  1.00  0.00    -0.296 N 
HETATM   17  N3  UNL     1       3.227   2.285  35.733  1.00  0.00    -0.039 N 
HETATM   18  C1  UNL     1       5.635   1.614  37.316  1.00  0.00     0.158 C 
HETATM   19  C2  UNL     1       5.869   0.046  35.407  1.00  0.00     0.333 C 
HETATM   20  N2  UNL     1       5.305  -0.706  34.340  1.00  0.00    -0.040 NA
HETATM   21  O1  UNL     1       7.106  -0.014  35.608  1.00  0.00    -0.251 OA
ATOM     22  H33 UNL     1       3.526   2.918  36.476  1.00  0.00     0.279 HD
ATOM     23  H32 UNL     1       3.760   2.694  34.966  1.00  0.00     0.279 HD
ATOM     24  H31 UNL     1       2.222   2.334  35.570  1.00  0.00     0.279 HD
ATOM     25  H4  UNL     1       2.265   0.920  37.697  1.00  0.00     0.185 HD
ENDBRANCH  11  14
ENDBRANCH   1  10
BRANCH   4  26
HETATM   26  N8  UNL     1      -0.714  -0.437  41.247  1.00  0.00    -0.088 N 
ATOM     27  H8  UNL     1      -0.956  -1.035  42.037  1.00  0.00     0.213 HD
BRANCH  26  28
HETATM   28  O2  UNL     1      -1.728   0.128  40.513  1.00  0.00    -0.207 OA
BRANCH  28  29
HETATM   29  C6  UNL     1      -1.871  -0.143  39.138  1.00  0.00     0.178 A 
HETATM   30  N9  UNL     1      -1.810   0.558  38.112  1.00  0.00    -0.341 N 
HETATM   31  C7  UNL     1      -2.064  -0.499  37.228  1.00  0.00     0.256 A 
ATOM     32  H9  UNL     1      -1.638   1.553  37.967  1.00  0.00     0.164 HD
HETATM   33  C8  UNL     1      -2.143  -1.365  38.403  1.00  0.00     0.243 A 
BRANCH  31  34
HETATM   34  O3  UNL     1      -3.234  -0.369  36.461  1.00  0.00    -0.374 OA
ATOM     35  H3  UNL     1      -3.343  -1.019  35.777  1.00  0.00     0.212 HD
ENDBRANCH  31  34
BRANCH  33  36
HETATM   36  O4  UNL     1      -1.136  -2.345  38.484  1.00  0.00    -0.383 OA
ATOM     37  H4  UNL     1      -1.104  -2.821  39.305  1.00  0.00     0.210 HD
ENDBRANCH  33  36
ENDBRANCH  28  29
ENDBRANCH  26  28
ENDBRANCH   4  26
BRANCH   7  38
HETATM   38  N11 UNL     1       3.261   1.669  42.088  1.00  0.00    -0.234 N 
ATOM     39 2H11 UNL     1       3.958   1.329  42.751  1.00  0.00     0.174 HD
ATOM     40 1H11 UNL     1       3.142   2.675  41.968  1.00  0.00     0.174 HD
ENDBRANCH   7  38
TORSDOF 8
ENDMDL
