MODEL 1
REMARK VINA RESULT: -8.706757521      0.000      0.000
REMARK  9 active torsions:
REMARK  status: ('A' for Active; 'I' for Inactive)
REMARK    1  A    between atoms: N1_1  and  C1_4 
REMARK    2  A    between atoms: N3_8  and  C3_9 
REMARK    3  A    between atoms: C4_10  and  N4_11 
REMARK    4  A    between atoms: C5_15  and  O1_16 
REMARK    5  A    between atoms: C6_18  and  O2_19 
REMARK    6  A    between atoms: C7_21  and  N5_22 
REMARK    7  A    between atoms: C8_25  and  C9_26 
REMARK       I    between atoms: C9_26  and  N6_28 
REMARK    8  A    between atoms: N6_28  and  C10_30 
REMARK    9  A    between atoms: C10_30  and  C11_31 
ROOT
HETATM    1  C1  UNL     1       5.550   2.103  41.150  1.00  0.00     0.707 A 
HETATM    2  N2  UNL     1       5.543   1.994  39.818  1.00  0.00    -0.018 N 
ATOM      3  H2  UNL     1       6.322   2.232  39.204  1.00  0.00     0.203 HD
HETATM    4  C2  UNL     1       4.362   1.528  39.417  1.00  0.00     0.738 A 
HETATM    5  N3  UNL     1       3.892   1.253  38.191  1.00  0.00    -0.153 N 
HETATM    6  C7  UNL     1       2.630   0.778  38.140  1.00  0.00     0.152 A 
HETATM    7  C8  UNL     1       1.889   0.597  39.293  1.00  0.00     0.162 A 
HETATM    8  N8  UNL     1       2.397   0.886  40.505  1.00  0.00    -0.256 N 
ATOM      9  H8  UNL     1       1.854   0.753  41.358  1.00  0.00     0.190 HD
HETATM   10  N9  UNL     1       3.636   1.349  40.534  1.00  0.00    -0.004 N 
HETATM   11  N10 UNL     1       4.353   1.698  41.599  1.00  0.00    -0.096 N 
ATOM     12  H10 UNL     1       4.051   1.664  42.572  1.00  0.00     0.208 HD
ENDROOT
BRANCH   5  13
HETATM   13  C3  UNL     1       4.586   1.415  36.974  1.00  0.00     0.174 C 
HETATM   14  C4  UNL     1       3.852   1.494  35.678  1.00  0.00     0.240 C 
HETATM   15  C5  UNL     1       5.149   0.911  35.053  1.00  0.00     0.181 C 
HETATM   16  C6  UNL     1       5.256   0.153  36.395  1.00  0.00     0.175 C 
BRANCH  14  17
HETATM   17  N4  UNL     1       3.613   2.790  35.127  1.00  0.00    -0.070 N 
ATOM     18  H43 UNL     1       3.193   3.387  35.839  1.00  0.00     0.274 HD
ATOM     19  H42 UNL     1       4.505   3.263  34.982  1.00  0.00     0.274 HD
ATOM     20  H41 UNL     1       3.060   2.848  34.272  1.00  0.00     0.274 HD
ENDBRANCH  14  17
BRANCH  15  21
HETATM   21  O1  UNL     1       4.937   0.114  33.960  1.00  0.00    -0.391 OA
ATOM     22  H1  UNL     1       5.576  -0.581  33.855  1.00  0.00     0.210 HD
ENDBRANCH  15  21
BRANCH  16  23
HETATM   23  O2  UNL     1       4.404  -0.946  36.467  1.00  0.00    -0.391 OA
ATOM     24  H2  UNL     1       4.417  -1.443  35.658  1.00  0.00     0.210 HD
ENDBRANCH  16  23
ENDBRANCH   5  13
BRANCH   6  25
HETATM   25  N5  UNL     1       2.044   0.450  37.046  1.00  0.00    -0.383 N 
ATOM     26  H52 UNL     1       1.785   1.224  36.435  1.00  0.00     0.157 HD
ATOM     27  H51 UNL     1       1.830  -0.514  36.793  1.00  0.00     0.157 HD
ENDBRANCH   6  25
BRANCH   7  28
HETATM   28  C9  UNL     1       0.512   0.080  39.248  1.00  0.00     0.273 C 
HETATM   29  O3  UNL     1      -0.398   0.892  38.940  1.00  0.00    -0.266 OA
HETATM   30  N6  UNL     1       0.214  -1.265  39.535  1.00  0.00    -0.347 N 
ATOM     31  H6  UNL     1       0.965  -1.910  39.782  1.00  0.00     0.163 HD
BRANCH  30  32
HETATM   32  C10 UNL     1      -1.135  -1.731  39.482  1.00  0.00     0.222 C 
BRANCH  32  33
HETATM   33  C11 UNL     1      -1.535  -2.198  38.134  1.00  0.00     0.248 C 
HETATM   34  N7  UNL     1      -2.322  -1.395  37.282  1.00  0.00    -0.061 NA
HETATM   35  O4  UNL     1      -1.178  -3.318  37.728  1.00  0.00    -0.275 OA
ENDBRANCH  32  33
ENDBRANCH  30  32
ENDBRANCH   7  28
BRANCH   1  36
HETATM   36  N1  UNL     1       6.499   2.515  41.930  1.00  0.00    -0.233 N 
ATOM     37  H12 UNL     1       6.706   3.501  42.088  1.00  0.00     0.174 HD
ATOM     38  H11 UNL     1       7.158   1.967  42.484  1.00  0.00     0.174 HD
ENDBRANCH   1  36
TORSDOF 9
ENDMDL
MODEL 2
REMARK VINA RESULT: -8.704546724      1.370      1.370
REMARK  9 active torsions:
REMARK  status: ('A' for Active; 'I' for Inactive)
REMARK    1  A    between atoms: N1_1  and  C1_4 
REMARK    2  A    between atoms: N3_8  and  C3_9 
REMARK    3  A    between atoms: C4_10  and  N4_11 
REMARK    4  A    between atoms: C5_15  and  O1_16 
REMARK    5  A    between atoms: C6_18  and  O2_19 
REMARK    6  A    between atoms: C7_21  and  N5_22 
REMARK    7  A    between atoms: C8_25  and  C9_26 
REMARK       I    between atoms: C9_26  and  N6_28 
REMARK    8  A    between atoms: N6_28  and  C10_30 
REMARK    9  A    between atoms: C10_30  and  C11_31 
ROOT
HETATM    1  C1  UNL     1       5.389   2.088  41.010  1.00  0.00     0.707 A 
HETATM    2  N2  UNL     1       5.436   2.011  39.677  1.00  0.00    -0.018 N 
ATOM      3  H2  UNL     1       6.208   2.339  39.096  1.00  0.00     0.203 HD
HETATM    4  C2  UNL     1       4.321   1.440  39.225  1.00  0.00     0.738 A 
HETATM    5  N3  UNL     1       3.921   1.150  37.978  1.00  0.00    -0.153 N 
HETATM    6  C7  UNL     1       2.715   0.554  37.874  1.00  0.00     0.152 A 
HETATM    7  C8  UNL     1       1.958   0.273  38.996  1.00  0.00     0.162 A 
HETATM    8  N8  UNL     1       2.395   0.581  40.230  1.00  0.00    -0.256 N 
ATOM      9  H8  UNL     1       1.840   0.376  41.061  1.00  0.00     0.190 HD
HETATM   10  N9  UNL     1       3.580   1.164  40.312  1.00  0.00    -0.004 N 
HETATM   11  N10 UNL     1       4.224   1.556  41.409  1.00  0.00    -0.096 N 
ATOM     12  H10 UNL     1       3.895   1.469  42.370  1.00  0.00     0.208 HD
ENDROOT
BRANCH   5  13
HETATM   13  C3  UNL     1       4.635   1.410  36.790  1.00  0.00     0.174 C 
HETATM   14  C4  UNL     1       3.939   1.447  35.471  1.00  0.00     0.240 C 
HETATM   15  C5  UNL     1       5.307   1.010  34.879  1.00  0.00     0.181 C 
HETATM   16  C6  UNL     1       5.445   0.233  36.208  1.00  0.00     0.175 C 
BRANCH  14  17
HETATM   17  N4  UNL     1       3.592   2.727  34.939  1.00  0.00    -0.070 N 
ATOM     18  H43 UNL     1       3.070   3.252  35.641  1.00  0.00     0.274 HD
ATOM     19  H42 UNL     1       4.433   3.297  34.859  1.00  0.00     0.274 HD
ATOM     20  H41 UNL     1       3.083   2.751  34.055  1.00  0.00     0.274 HD
ENDBRANCH  14  17
BRANCH  15  21
HETATM   21  O1  UNL     1       5.211   0.223  33.763  1.00  0.00    -0.391 OA
ATOM     22  H1  UNL     1       4.917   0.683  32.986  1.00  0.00     0.210 HD
ENDBRANCH  15  21
BRANCH  16  23
HETATM   23  O2  UNL     1       4.704  -0.945  36.228  1.00  0.00    -0.391 OA
ATOM     24  H2  UNL     1       5.141  -1.633  35.740  1.00  0.00     0.210 HD
ENDBRANCH  16  23
ENDBRANCH   5  13
BRANCH   6  25
HETATM   25  N5  UNL     1       2.200   0.197  36.753  1.00  0.00    -0.383 N 
ATOM     26  H52 UNL     1       2.200   0.907  36.021  1.00  0.00     0.157 HD
ATOM     27  H51 UNL     1       1.800  -0.727  36.591  1.00  0.00     0.157 HD
ENDBRANCH   6  25
BRANCH   7  28
HETATM   28  C9  UNL     1       0.641  -0.375  38.892  1.00  0.00     0.273 C 
HETATM   29  O3  UNL     1       0.618  -1.632  38.870  1.00  0.00    -0.266 OA
HETATM   30  N6  UNL     1      -0.550   0.372  38.818  1.00  0.00    -0.347 N 
ATOM     31  H6  UNL     1      -0.513   1.391  38.838  1.00  0.00     0.163 HD
BRANCH  30  32
HETATM   32  C10 UNL     1      -1.811  -0.292  38.717  1.00  0.00     0.222 C 
BRANCH  32  33
HETATM   33  C11 UNL     1      -2.683   0.276  37.662  1.00  0.00     0.248 C 
HETATM   34  N7  UNL     1      -2.826   1.671  37.500  1.00  0.00    -0.061 NA
HETATM   35  O4  UNL     1      -3.309  -0.476  36.895  1.00  0.00    -0.275 OA
ENDBRANCH  32  33
ENDBRANCH  30  32
ENDBRANCH   7  28
BRANCH   1  36
HETATM   36  N1  UNL     1       6.266   2.572  41.832  1.00  0.00    -0.233 N 
ATOM     37  H12 UNL     1       6.891   3.341  41.592  1.00  0.00     0.174 HD
ATOM     38  H11 UNL     1       6.472   2.292  42.791  1.00  0.00     0.174 HD
ENDBRANCH   1  36
TORSDOF 9
ENDMDL
MODEL 3
REMARK VINA RESULT: -8.620209605      2.685      5.196
REMARK  9 active torsions:
REMARK  status: ('A' for Active; 'I' for Inactive)
REMARK    1  A    between atoms: N1_1  and  C1_4 
REMARK    2  A    between atoms: N3_8  and  C3_9 
REMARK    3  A    between atoms: C4_10  and  N4_11 
REMARK    4  A    between atoms: C5_15  and  O1_16 
REMARK    5  A    between atoms: C6_18  and  O2_19 
REMARK    6  A    between atoms: C7_21  and  N5_22 
REMARK    7  A    between atoms: C8_25  and  C9_26 
REMARK       I    between atoms: C9_26  and  N6_28 
REMARK    8  A    between atoms: N6_28  and  C10_30 
REMARK    9  A    between atoms: C10_30  and  C11_31 
ROOT
HETATM    1  C1  UNL     1       0.488  -0.197  37.768  1.00  0.00     0.707 A 
HETATM    2  N2  UNL     1       1.632   0.229  37.224  1.00  0.00    -0.018 N 
ATOM      3  H2  UNL     1       1.840   0.242  36.226  1.00  0.00     0.203 HD
HETATM    4  C2  UNL     1       2.458   0.633  38.188  1.00  0.00     0.738 A 
HETATM    5  N3  UNL     1       3.699   1.138  38.131  1.00  0.00    -0.153 N 
HETATM    6  C7  UNL     1       4.257   1.456  39.319  1.00  0.00     0.152 A 
HETATM    7  C8  UNL     1       3.571   1.262  40.503  1.00  0.00     0.162 A 
HETATM    8  N8  UNL     1       2.327   0.753  40.517  1.00  0.00    -0.256 N 
ATOM      9  H8  UNL     1       1.817   0.609  41.389  1.00  0.00     0.190 HD
HETATM   10  N9  UNL     1       1.797   0.448  39.344  1.00  0.00    -0.004 N 
HETATM   11  N10 UNL     1       0.591  -0.059  39.098  1.00  0.00    -0.096 N 
ATOM     12  H10 UNL     1      -0.119  -0.297  39.790  1.00  0.00     0.208 HD
ENDROOT
BRANCH   5  13
HETATM   13  C3  UNL     1       4.459   1.358  36.964  1.00  0.00     0.174 C 
HETATM   14  C4  UNL     1       3.799   1.488  35.633  1.00  0.00     0.240 C 
HETATM   15  C5  UNL     1       5.135   0.942  35.058  1.00  0.00     0.181 C 
HETATM   16  C6  UNL     1       5.172   0.127  36.370  1.00  0.00     0.175 C 
BRANCH  14  17
HETATM   17  N4  UNL     1       3.580   2.806  35.126  1.00  0.00    -0.070 N 
ATOM     18  H43 UNL     1       2.657   2.851  34.693  1.00  0.00     0.274 HD
ATOM     19  H42 UNL     1       3.458   3.451  35.906  1.00  0.00     0.274 HD
ATOM     20  H41 UNL     1       4.272   3.186  34.480  1.00  0.00     0.274 HD
ENDBRANCH  14  17
BRANCH  15  21
HETATM   21  O1  UNL     1       4.993   0.193  33.921  1.00  0.00    -0.391 OA
ATOM     22  H1  UNL     1       5.193  -0.728  34.035  1.00  0.00     0.210 HD
ENDBRANCH  15  21
BRANCH  16  23
HETATM   23  O2  UNL     1       4.328  -0.979  36.346  1.00  0.00    -0.391 OA
ATOM     24  H2  UNL     1       4.765  -1.752  36.685  1.00  0.00     0.210 HD
ENDBRANCH  16  23
ENDBRANCH   5  13
BRANCH   6  25
HETATM   25  N5  UNL     1       5.430   1.965  39.432  1.00  0.00    -0.383 N 
ATOM     26  H52 UNL     1       5.483   2.978  39.325  1.00  0.00     0.157 HD
ATOM     27  H51 UNL     1       6.267   1.409  39.605  1.00  0.00     0.157 HD
ENDBRANCH   6  25
BRANCH   7  28
HETATM   28  C9  UNL     1       4.172   1.606  41.802  1.00  0.00     0.273 C 
HETATM   29  O3  UNL     1       4.560   2.790  41.963  1.00  0.00    -0.266 OA
HETATM   30  N6  UNL     1       4.311   0.653  42.830  1.00  0.00    -0.347 N 
ATOM     31  H6  UNL     1       3.991  -0.303  42.683  1.00  0.00     0.163 HD
BRANCH  30  32
HETATM   32  C10 UNL     1       4.900   1.022  44.078  1.00  0.00     0.222 C 
BRANCH  32  33
HETATM   33  C11 UNL     1       4.015   0.760  45.237  1.00  0.00     0.248 C 
HETATM   34  N7  UNL     1       2.857  -0.037  45.112  1.00  0.00    -0.061 NA
HETATM   35  O4  UNL     1       4.283   1.244  46.351  1.00  0.00    -0.275 OA
ENDBRANCH  32  33
ENDBRANCH  30  32
ENDBRANCH   7  28
BRANCH   1  36
HETATM   36  N1  UNL     1      -0.568  -0.668  37.183  1.00  0.00    -0.233 N 
ATOM     37  H12 UNL     1      -0.675  -0.708  36.170  1.00  0.00     0.174 HD
ATOM     38  H11 UNL     1      -1.416  -1.052  37.600  1.00  0.00     0.174 HD
ENDBRANCH   1  36
TORSDOF 9
ENDMDL
MODEL 4
REMARK VINA RESULT: -8.243283185      2.077      5.945
REMARK  9 active torsions:
REMARK  status: ('A' for Active; 'I' for Inactive)
REMARK    1  A    between atoms: N1_1  and  C1_4 
REMARK    2  A    between atoms: N3_8  and  C3_9 
REMARK    3  A    between atoms: C4_10  and  N4_11 
REMARK    4  A    between atoms: C5_15  and  O1_16 
REMARK    5  A    between atoms: C6_18  and  O2_19 
REMARK    6  A    between atoms: C7_21  and  N5_22 
REMARK    7  A    between atoms: C8_25  and  C9_26 
REMARK       I    between atoms: C9_26  and  N6_28 
REMARK    8  A    between atoms: N6_28  and  C10_30 
REMARK    9  A    between atoms: C10_30  and  C11_31 
ROOT
HETATM    1  C1  UNL     1       0.713   0.324  42.958  1.00  0.00     0.707 A 
HETATM    2  N2  UNL     1      -0.102  -0.024  41.958  1.00  0.00    -0.018 N 
ATOM      3  H2  UNL     1      -1.093  -0.242  42.055  1.00  0.00     0.203 HD
HETATM    4  C2  UNL     1       0.582  -0.041  40.814  1.00  0.00     0.738 A 
HETATM    5  N3  UNL     1       0.197  -0.322  39.561  1.00  0.00    -0.153 N 
HETATM    6  C7  UNL     1       1.160  -0.236  38.619  1.00  0.00     0.152 A 
HETATM    7  C8  UNL     1       2.453   0.121  38.952  1.00  0.00     0.162 A 
HETATM    8  N8  UNL     1       2.799   0.396  40.222  1.00  0.00    -0.256 N 
ATOM      9  H8  UNL     1       3.752   0.660  40.472  1.00  0.00     0.190 HD
HETATM   10  N9  UNL     1       1.842   0.306  41.131  1.00  0.00    -0.004 N 
HETATM   11  N10 UNL     1       1.932   0.532  42.439  1.00  0.00    -0.096 N 
ATOM     12  H10 UNL     1       2.769   0.810  42.950  1.00  0.00     0.208 HD
ENDROOT
BRANCH   5  13
HETATM   13  C3  UNL     1      -1.099  -0.697  39.149  1.00  0.00     0.174 C 
HETATM   14  C4  UNL     1      -1.321  -1.366  37.834  1.00  0.00     0.240 C 
HETATM   15  C5  UNL     1      -2.733  -0.721  37.887  1.00  0.00     0.181 C 
HETATM   16  C6  UNL     1      -1.996   0.433  38.604  1.00  0.00     0.175 C 
BRANCH  14  17
HETATM   17  N4  UNL     1      -1.460  -2.788  37.827  1.00  0.00    -0.070 N 
ATOM     18  H43 UNL     1      -2.004  -3.076  38.640  1.00  0.00     0.274 HD
ATOM     19  H42 UNL     1      -2.088  -3.060  37.071  1.00  0.00     0.274 HD
ATOM     20  H41 UNL     1      -0.609  -3.348  37.776  1.00  0.00     0.274 HD
ENDBRANCH  14  17
BRANCH  15  21
HETATM   21  O1  UNL     1      -3.250  -0.397  36.662  1.00  0.00    -0.391 OA
ATOM     22  H1  UNL     1      -3.784   0.388  36.659  1.00  0.00     0.210 HD
ENDBRANCH  15  21
BRANCH  16  23
HETATM   23  O2  UNL     1      -1.293   1.255  37.728  1.00  0.00    -0.391 OA
ATOM     24  H2  UNL     1      -1.305   0.905  36.845  1.00  0.00     0.210 HD
ENDBRANCH  16  23
ENDBRANCH   5  13
BRANCH   6  25
HETATM   25  N5  UNL     1       0.948  -0.456  37.373  1.00  0.00    -0.383 N 
ATOM     26  H52 UNL     1       0.325  -1.236  37.162  1.00  0.00     0.157 HD
ATOM     27  H51 UNL     1       1.375   0.093  36.627  1.00  0.00     0.157 HD
ENDBRANCH   6  25
BRANCH   7  28
HETATM   28  C9  UNL     1       3.510   0.218  37.932  1.00  0.00     0.273 C 
HETATM   29  O3  UNL     1       3.875  -0.850  37.378  1.00  0.00    -0.266 OA
HETATM   30  N6  UNL     1       4.094   1.450  37.584  1.00  0.00    -0.347 N 
ATOM     31  H6  UNL     1       3.786   2.307  38.043  1.00  0.00     0.163 HD
BRANCH  30  32
HETATM   32  C10 UNL     1       5.118   1.505  36.589  1.00  0.00     0.222 C 
BRANCH  32  33
HETATM   33  C11 UNL     1       4.618   1.942  35.265  1.00  0.00     0.248 C 
HETATM   34  N7  UNL     1       4.369   1.014  34.231  1.00  0.00    -0.061 NA
HETATM   35  O4  UNL     1       4.409   3.147  35.041  1.00  0.00    -0.275 OA
ENDBRANCH  32  33
ENDBRANCH  30  32
ENDBRANCH   7  28
BRANCH   1  36
HETATM   36  N1  UNL     1       0.446   0.458  44.219  1.00  0.00    -0.233 N 
ATOM     37  H12 UNL     1      -0.496   0.615  44.577  1.00  0.00     0.174 HD
ATOM     38  H11 UNL     1       1.081   0.432  45.017  1.00  0.00     0.174 HD
ENDBRANCH   1  36
TORSDOF 9
ENDMDL
MODEL 5
REMARK VINA RESULT: -8.112505930      3.118      6.348
REMARK  9 active torsions:
REMARK  status: ('A' for Active; 'I' for Inactive)
REMARK    1  A    between atoms: N1_1  and  C1_4 
REMARK    2  A    between atoms: N3_8  and  C3_9 
REMARK    3  A    between atoms: C4_10  and  N4_11 
REMARK    4  A    between atoms: C5_15  and  O1_16 
REMARK    5  A    between atoms: C6_18  and  O2_19 
REMARK    6  A    between atoms: C7_21  and  N5_22 
REMARK    7  A    between atoms: C8_25  and  C9_26 
REMARK       I    between atoms: C9_26  and  N6_28 
REMARK    8  A    between atoms: N6_28  and  C10_30 
REMARK    9  A    between atoms: C10_30  and  C11_31 
ROOT
HETATM    1  C1  UNL     1       2.798   0.568  37.367  1.00  0.00     0.707 A 
HETATM    2  N2  UNL     1       1.541   0.180  37.601  1.00  0.00    -0.018 N 
ATOM      3  H2  UNL     1       0.852  -0.050  36.885  1.00  0.00     0.203 HD
HETATM    4  C2  UNL     1       1.327   0.140  38.916  1.00  0.00     0.738 A 
HETATM    5  N3  UNL     1       0.235  -0.191  39.621  1.00  0.00    -0.153 N 
HETATM    6  C7  UNL     1       0.365  -0.130  40.963  1.00  0.00     0.152 A 
HETATM    7  C8  UNL     1       1.557   0.254  41.548  1.00  0.00     0.162 A 
HETATM    8  N8  UNL     1       2.629   0.579  40.804  1.00  0.00    -0.256 N 
ATOM      9  H8  UNL     1       3.511   0.862  41.231  1.00  0.00     0.190 HD
HETATM   10  N9  UNL     1       2.483   0.512  39.491  1.00  0.00    -0.004 N 
HETATM   11  N10 UNL     1       3.389   0.776  38.552  1.00  0.00    -0.096 N 
ATOM     12  H10 UNL     1       4.351   1.079  38.706  1.00  0.00     0.208 HD
ENDROOT
BRANCH   5  13
HETATM   13  C3  UNL     1      -1.012  -0.587  39.095  1.00  0.00     0.174 C 
HETATM   14  C4  UNL     1      -1.109  -1.224  37.750  1.00  0.00     0.240 C 
HETATM   15  C5  UNL     1      -2.539  -0.617  37.705  1.00  0.00     0.181 C 
HETATM   16  C6  UNL     1      -1.894   0.535  38.510  1.00  0.00     0.175 C 
BRANCH  14  17
HETATM   17  N4  UNL     1      -1.208  -2.648  37.694  1.00  0.00    -0.070 N 
ATOM     18  H43 UNL     1      -0.401  -3.022  37.196  1.00  0.00     0.274 HD
ATOM     19  H42 UNL     1      -1.053  -3.032  38.626  1.00  0.00     0.274 HD
ATOM     20  H41 UNL     1      -2.061  -3.049  37.302  1.00  0.00     0.274 HD
ENDBRANCH  14  17
BRANCH  15  21
HETATM   21  O1  UNL     1      -2.964  -0.272  36.451  1.00  0.00    -0.391 OA
ATOM     22  H1  UNL     1      -3.787   0.201  36.435  1.00  0.00     0.210 HD
ENDBRANCH  15  21
BRANCH  16  23
HETATM   23  O2  UNL     1      -1.145   1.398  37.716  1.00  0.00    -0.391 OA
ATOM     24  H2  UNL     1      -1.675   2.122  37.401  1.00  0.00     0.210 HD
ENDBRANCH  16  23
ENDBRANCH   5  13
BRANCH   6  25
HETATM   25  N5  UNL     1      -0.581  -0.433  41.777  1.00  0.00    -0.383 N 
ATOM     26  H52 UNL     1      -1.478   0.018  41.599  1.00  0.00     0.157 HD
ATOM     27  H51 UNL     1      -0.459  -1.070  42.564  1.00  0.00     0.157 HD
ENDBRANCH   6  25
BRANCH   7  28
HETATM   28  C9  UNL     1       1.707   0.324  43.010  1.00  0.00     0.273 C 
HETATM   29  O3  UNL     1       1.485  -0.726  43.664  1.00  0.00    -0.266 OA
HETATM   30  N6  UNL     1       2.083   1.515  43.661  1.00  0.00    -0.347 N 
ATOM     31  H6  UNL     1       2.260   2.358  43.115  1.00  0.00     0.163 HD
BRANCH  30  32
HETATM   32  C10 UNL     1       2.219   1.547  45.083  1.00  0.00     0.222 C 
BRANCH  32  33
HETATM   33  C11 UNL     1       3.581   1.190  45.544  1.00  0.00     0.248 C 
HETATM   34  N7  UNL     1       3.930   1.239  46.910  1.00  0.00    -0.061 NA
HETATM   35  O4  UNL     1       4.448   0.839  44.724  1.00  0.00    -0.275 OA
ENDBRANCH  32  33
ENDBRANCH  30  32
ENDBRANCH   7  28
BRANCH   1  36
HETATM   36  N1  UNL     1       3.403   0.734  36.233  1.00  0.00    -0.233 N 
ATOM     37  H12 UNL     1       3.703   1.645  35.888  1.00  0.00     0.174 HD
ATOM     38  H11 UNL     1       3.668   0.036  35.538  1.00  0.00     0.174 HD
ENDBRANCH   1  36
TORSDOF 9
ENDMDL
