MODEL 1
REMARK VINA RESULT: -8.596425425      0.000      0.000
REMARK  9 active torsions:
REMARK  status: ('A' for Active; 'I' for Inactive)
REMARK    1  A    between atoms: C4_5  and  C5_6 
REMARK    2  A    between atoms: N1_8  and  C7_9 
REMARK    3  A    between atoms: C7_9  and  C8_10 
REMARK    4  A    between atoms: C8_10  and  N2_11 
REMARK    5  A    between atoms: N2_11  and  C9_13 
REMARK    6  A    between atoms: C10_16  and  N4_17 
REMARK    7  A    between atoms: N4_17  and  C11_19 
REMARK    8  A    between atoms: C11_19  and  C12_20 
REMARK    9  A    between atoms: C12_20  and  C13_21 
ROOT
HETATM    1  C9  UNL     1      12.434 -13.456  21.613  1.00  0.00     0.680 A 
HETATM    2  N3  UNL     1      13.286 -12.761  20.820  1.00  0.00    -0.176 N 
ATOM      3  H3  UNL     1      13.785 -13.218  20.057  1.00  0.00     0.186 HD
HETATM    4  C10 UNL     1      13.454 -11.463  21.066  1.00  0.00     0.129 A 
HETATM    5  C19 UNL     1      12.782 -10.842  22.097  1.00  0.00     0.035 A 
HETATM    6  C20 UNL     1      12.941  -9.510  22.364  1.00  0.00     0.017 A 
HETATM    7  C21 UNL     1      12.247  -8.912  23.411  1.00  0.00     0.001 A 
HETATM    8  C22 UNL     1      11.387  -9.686  24.186  1.00  0.00     0.002 A 
HETATM    9  C23 UNL     1      11.228 -11.013  23.919  1.00  0.00     0.031 A 
HETATM   10  C24 UNL     1      11.928 -11.574  22.878  1.00  0.00     0.063 A 
HETATM   11  N5  UNL     1      11.773 -12.885  22.612  1.00  0.00    -0.191 N 
ATOM     12  H5  UNL     1      11.141 -13.445  23.183  1.00  0.00     0.184 HD
ENDROOT
BRANCH   1  13
HETATM   13  N2  UNL     1      12.282 -14.694  21.373  1.00  0.00    -0.224 N 
ATOM     14  H2  UNL     1      11.509 -15.177  21.829  1.00  0.00     0.177 HD
BRANCH  13  15
HETATM   15  C8  UNL     1      13.134 -15.461  20.498  1.00  0.00     0.168 C 
BRANCH  15  16
HETATM   16  C7  UNL     1      13.851 -16.472  21.366  1.00  0.00     0.292 C 
BRANCH  16  17
HETATM   17  N1  UNL     1      15.208 -16.079  21.534  1.00  0.00     0.091 N 
HETATM   18  C6  UNL     1      16.237 -17.015  21.174  1.00  0.00     0.283 C 
HETATM   19  C5  UNL     1      17.088 -15.863  20.726  1.00  0.00     0.075 C 
HETATM   20  C25 UNL     1      15.766 -15.136  20.611  1.00  0.00     0.283 C 
BRANCH  19  21
HETATM   21  C4  UNL     1      17.956 -15.224  21.726  1.00  0.00    -0.050 A 
HETATM   22  C3  UNL     1      19.338 -15.274  21.575  1.00  0.00     0.011 A 
HETATM   23  C2  UNL     1      20.220 -14.711  22.467  1.00  0.00     0.043 A 
HETATM   24  C1  UNL     1      19.734 -14.059  23.574  1.00  0.00     0.116 A 
HETATM   25  F1  UNL     1      20.587 -13.490  24.476  1.00  0.00    -0.206 F 
HETATM   26  C27 UNL     1      18.378 -13.987  23.758  1.00  0.00     0.043 A 
HETATM   27  C26 UNL     1      17.500 -14.568  22.835  1.00  0.00     0.011 A 
ENDBRANCH  19  21
ENDBRANCH  16  17
ENDBRANCH  15  16
ENDBRANCH  13  15
ENDBRANCH   1  13
BRANCH   4  28
HETATM   28  N4  UNL     1      14.233 -10.742  20.367  1.00  0.00    -0.375 N 
ATOM     29  H4  UNL     1      13.926  -9.797  20.135  1.00  0.00     0.161 HD
BRANCH  28  30
HETATM   30  C11 UNL     1      15.508 -11.166  19.887  1.00  0.00     0.126 C 
BRANCH  30  31
HETATM   31  C12 UNL     1      16.442 -11.506  21.024  1.00  0.00     0.058 C 
BRANCH  31  32
HETATM   32  C13 UNL     1      17.779 -11.757  20.413  1.00  0.00    -0.057 A 
HETATM   33  C14 UNL     1      18.956 -11.496  21.081  1.00  0.00     0.007 A 
HETATM   34  C15 UNL     1      20.167 -11.747  20.464  1.00  0.00     0.001 A 
HETATM   35  C16 UNL     1      20.216 -12.253  19.196  1.00  0.00     0.000 A 
HETATM   36  C17 UNL     1      19.017 -12.507  18.544  1.00  0.00     0.001 A 
HETATM   37  C18 UNL     1      17.807 -12.268  19.133  1.00  0.00     0.007 A 
ENDBRANCH  31  32
ENDBRANCH  30  31
ENDBRANCH  28  30
ENDBRANCH   4  28
TORSDOF 9
ENDMDL
MODEL 2
REMARK VINA RESULT: -8.310313822      1.853      5.600
REMARK  9 active torsions:
REMARK  status: ('A' for Active; 'I' for Inactive)
REMARK    1  A    between atoms: C4_5  and  C5_6 
REMARK    2  A    between atoms: N1_8  and  C7_9 
REMARK    3  A    between atoms: C7_9  and  C8_10 
REMARK    4  A    between atoms: C8_10  and  N2_11 
REMARK    5  A    between atoms: N2_11  and  C9_13 
REMARK    6  A    between atoms: C10_16  and  N4_17 
REMARK    7  A    between atoms: N4_17  and  C11_19 
REMARK    8  A    between atoms: C11_19  and  C12_20 
REMARK    9  A    between atoms: C12_20  and  C13_21 
ROOT
HETATM    1  C9  UNL     1      15.923 -14.890  21.476  1.00  0.00     0.680 A 
HETATM    2  N3  UNL     1      15.318 -13.681  21.582  1.00  0.00    -0.176 N 
ATOM      3  H3  UNL     1      14.343 -13.606  21.869  1.00  0.00     0.186 HD
HETATM    4  C10 UNL     1      16.035 -12.595  21.302  1.00  0.00     0.129 A 
HETATM    5  C19 UNL     1      17.354 -12.694  20.915  1.00  0.00     0.035 A 
HETATM    6  C20 UNL     1      18.107 -11.589  20.623  1.00  0.00     0.017 A 
HETATM    7  C21 UNL     1      19.436 -11.723  20.236  1.00  0.00     0.001 A 
HETATM    8  C22 UNL     1      19.993 -12.996  20.148  1.00  0.00     0.002 A 
HETATM    9  C23 UNL     1      19.244 -14.096  20.439  1.00  0.00     0.031 A 
HETATM   10  C24 UNL     1      17.934 -13.931  20.818  1.00  0.00     0.063 A 
HETATM   11  N5  UNL     1      17.190 -15.016  21.107  1.00  0.00    -0.191 N 
ATOM     12  H5  UNL     1      17.606 -15.945  21.040  1.00  0.00     0.184 HD
ENDROOT
BRANCH   1  13
HETATM   13  N2  UNL     1      15.230 -15.921  21.743  1.00  0.00    -0.224 N 
ATOM     14  H2  UNL     1      14.216 -15.818  21.781  1.00  0.00     0.177 HD
BRANCH  13  15
HETATM   15  C8  UNL     1      15.784 -17.228  21.997  1.00  0.00     0.168 C 
BRANCH  15  16
HETATM   16  C7  UNL     1      15.776 -17.420  23.498  1.00  0.00     0.292 C 
BRANCH  16  17
HETATM   17  N1  UNL     1      16.913 -16.781  24.066  1.00  0.00     0.091 N 
HETATM   18  C6  UNL     1      17.278 -17.116  25.416  1.00  0.00     0.283 C 
HETATM   19  C5  UNL     1      18.720 -16.948  25.037  1.00  0.00     0.075 C 
HETATM   20  C25 UNL     1      18.215 -17.190  23.631  1.00  0.00     0.283 C 
BRANCH  19  21
HETATM   21  C4  UNL     1      19.308 -15.605  25.162  1.00  0.00    -0.050 A 
HETATM   22  C3  UNL     1      19.707 -15.140  26.411  1.00  0.00     0.011 A 
HETATM   23  C2  UNL     1      20.257 -13.897  26.617  1.00  0.00     0.043 A 
HETATM   24  C1  UNL     1      20.431 -13.052  25.547  1.00  0.00     0.116 A 
HETATM   25  F1  UNL     1      20.975 -11.812  25.724  1.00  0.00    -0.206 F 
HETATM   26  C27 UNL     1      20.052 -13.474  24.301  1.00  0.00     0.043 A 
HETATM   27  C26 UNL     1      19.494 -14.745  24.117  1.00  0.00     0.011 A 
ENDBRANCH  19  21
ENDBRANCH  16  17
ENDBRANCH  15  16
ENDBRANCH  13  15
ENDBRANCH   1  13
BRANCH   4  28
HETATM   28  N4  UNL     1      15.542 -11.426  21.379  1.00  0.00    -0.375 N 
ATOM     29  H4  UNL     1      16.052 -10.730  21.924  1.00  0.00     0.161 HD
BRANCH  28  30
HETATM   30  C11 UNL     1      14.324 -11.023  20.756  1.00  0.00     0.126 C 
BRANCH  30  31
HETATM   31  C12 UNL     1      13.834  -9.703  21.300  1.00  0.00     0.058 C 
BRANCH  31  32
HETATM   32  C13 UNL     1      12.830 -10.025  22.354  1.00  0.00    -0.057 A 
HETATM   33  C14 UNL     1      12.477  -9.124  23.336  1.00  0.00     0.007 A 
HETATM   34  C15 UNL     1      11.541  -9.478  24.290  1.00  0.00     0.001 A 
HETATM   35  C16 UNL     1      10.957 -10.713  24.273  1.00  0.00     0.000 A 
HETATM   36  C17 UNL     1      11.330 -11.603  23.275  1.00  0.00     0.001 A 
HETATM   37  C18 UNL     1      12.253 -11.276  22.321  1.00  0.00     0.007 A 
ENDBRANCH  31  32
ENDBRANCH  30  31
ENDBRANCH  28  30
ENDBRANCH   4  28
TORSDOF 9
ENDMDL
MODEL 3
REMARK VINA RESULT: -8.234019920      2.675      7.002
REMARK  9 active torsions:
REMARK  status: ('A' for Active; 'I' for Inactive)
REMARK    1  A    between atoms: C4_5  and  C5_6 
REMARK    2  A    between atoms: N1_8  and  C7_9 
REMARK    3  A    between atoms: C7_9  and  C8_10 
REMARK    4  A    between atoms: C8_10  and  N2_11 
REMARK    5  A    between atoms: N2_11  and  C9_13 
REMARK    6  A    between atoms: C10_16  and  N4_17 
REMARK    7  A    between atoms: N4_17  and  C11_19 
REMARK    8  A    between atoms: C11_19  and  C12_20 
REMARK    9  A    between atoms: C12_20  and  C13_21 
ROOT
HETATM    1  C9  UNL     1      16.310 -15.321  21.343  1.00  0.00     0.680 A 
HETATM    2  N3  UNL     1      16.476 -15.366  22.688  1.00  0.00    -0.176 N 
ATOM      3  H3  UNL     1      15.798 -15.838  23.285  1.00  0.00     0.186 HD
HETATM    4  C10 UNL     1      17.551 -14.776  23.206  1.00  0.00     0.129 A 
HETATM    5  C19 UNL     1      18.469 -14.137  22.401  1.00  0.00     0.035 A 
HETATM    6  C20 UNL     1      19.580 -13.525  22.916  1.00  0.00     0.017 A 
HETATM    7  C21 UNL     1      20.488 -12.890  22.077  1.00  0.00     0.001 A 
HETATM    8  C22 UNL     1      20.256 -12.882  20.704  1.00  0.00     0.002 A 
HETATM    9  C23 UNL     1      19.149 -13.492  20.191  1.00  0.00     0.031 A 
HETATM   10  C24 UNL     1      18.271 -14.111  21.046  1.00  0.00     0.063 A 
HETATM   11  N5  UNL     1      17.177 -14.714  20.544  1.00  0.00    -0.191 N 
ATOM     12  H5  UNL     1      17.014 -14.704  19.537  1.00  0.00     0.184 HD
ENDROOT
BRANCH   1  13
HETATM   13  N2  UNL     1      15.280 -15.884  20.857  1.00  0.00    -0.224 N 
ATOM     14  H2  UNL     1      15.257 -16.904  20.840  1.00  0.00     0.177 HD
BRANCH  13  15
HETATM   15  C8  UNL     1      14.140 -15.176  20.328  1.00  0.00     0.168 C 
BRANCH  15  16
HETATM   16  C7  UNL     1      13.179 -14.978  21.480  1.00  0.00     0.292 C 
BRANCH  16  17
HETATM   17  N1  UNL     1      12.974 -13.587  21.697  1.00  0.00     0.091 N 
HETATM   18  C6  UNL     1      13.924 -12.664  21.139  1.00  0.00     0.283 C 
HETATM   19  C5  UNL     1      12.804 -11.693  20.911  1.00  0.00     0.075 C 
HETATM   20  C25 UNL     1      11.932 -12.928  20.968  1.00  0.00     0.283 C 
BRANCH  19  21
HETATM   21  C4  UNL     1      12.473 -10.763  22.002  1.00  0.00    -0.050 A 
HETATM   22  C3  UNL     1      13.137  -9.545  22.097  1.00  0.00     0.011 A 
HETATM   23  C2  UNL     1      12.895  -8.624  23.088  1.00  0.00     0.043 A 
HETATM   24  C1  UNL     1      11.951  -8.900  24.048  1.00  0.00     0.116 A 
HETATM   25  F1  UNL     1      11.690  -8.002  25.044  1.00  0.00    -0.206 F 
HETATM   26  C27 UNL     1      11.274 -10.089  23.989  1.00  0.00     0.043 A 
HETATM   27  C26 UNL     1      11.539 -11.011  22.968  1.00  0.00     0.011 A 
ENDBRANCH  19  21
ENDBRANCH  16  17
ENDBRANCH  15  16
ENDBRANCH  13  15
ENDBRANCH   1  13
BRANCH   4  28
HETATM   28  N4  UNL     1      17.780 -14.775  24.456  1.00  0.00    -0.375 N 
ATOM     29  H4  UNL     1      17.831 -13.873  24.930  1.00  0.00     0.161 HD
BRANCH  28  30
HETATM   30  C11 UNL     1      17.970 -15.952  25.240  1.00  0.00     0.126 C 
BRANCH  30  31
HETATM   31  C12 UNL     1      18.582 -15.630  26.583  1.00  0.00     0.058 C 
BRANCH  31  32
HETATM   32  C13 UNL     1      19.888 -14.967  26.305  1.00  0.00    -0.057 A 
HETATM   33  C14 UNL     1      20.138 -13.657  26.652  1.00  0.00     0.007 A 
HETATM   34  C15 UNL     1      21.369 -13.094  26.368  1.00  0.00     0.001 A 
HETATM   35  C16 UNL     1      22.345 -13.820  25.748  1.00  0.00     0.000 A 
HETATM   36  C17 UNL     1      22.069 -15.137  25.408  1.00  0.00     0.001 A 
HETATM   37  C18 UNL     1      20.860 -15.716  25.678  1.00  0.00     0.007 A 
ENDBRANCH  31  32
ENDBRANCH  30  31
ENDBRANCH  28  30
ENDBRANCH   4  28
TORSDOF 9
ENDMDL
MODEL 4
REMARK VINA RESULT: -8.180911934      2.221      5.531
REMARK  9 active torsions:
REMARK  status: ('A' for Active; 'I' for Inactive)
REMARK    1  A    between atoms: C4_5  and  C5_6 
REMARK    2  A    between atoms: N1_8  and  C7_9 
REMARK    3  A    between atoms: C7_9  and  C8_10 
REMARK    4  A    between atoms: C8_10  and  N2_11 
REMARK    5  A    between atoms: N2_11  and  C9_13 
REMARK    6  A    between atoms: C10_16  and  N4_17 
REMARK    7  A    between atoms: N4_17  and  C11_19 
REMARK    8  A    between atoms: C11_19  and  C12_20 
REMARK    9  A    between atoms: C12_20  and  C13_21 
ROOT
HETATM    1  C9  UNL     1      15.004 -11.598  20.460  1.00  0.00     0.680 A 
HETATM    2  N3  UNL     1      14.428 -12.802  20.699  1.00  0.00    -0.176 N 
ATOM      3  H3  UNL     1      14.790 -13.653  20.268  1.00  0.00     0.186 HD
HETATM    4  C10 UNL     1      13.375 -12.843  21.513  1.00  0.00     0.129 A 
HETATM    5  C19 UNL     1      12.884 -11.695  22.096  1.00  0.00     0.035 A 
HETATM    6  C20 UNL     1      11.803 -11.717  22.936  1.00  0.00     0.017 A 
HETATM    7  C21 UNL     1      11.332 -10.541  23.510  1.00  0.00     0.001 A 
HETATM    8  C22 UNL     1      11.972  -9.339  23.220  1.00  0.00     0.002 A 
HETATM    9  C23 UNL     1      13.048  -9.317  22.385  1.00  0.00     0.031 A 
HETATM   10  C24 UNL     1      13.490 -10.495  21.834  1.00  0.00     0.063 A 
HETATM   11  N5  UNL     1      14.553 -10.478  21.007  1.00  0.00    -0.191 N 
ATOM     12  H5  UNL     1      15.017  -9.594  20.801  1.00  0.00     0.184 HD
ENDROOT
BRANCH   1  13
HETATM   13  N2  UNL     1      16.007 -11.569  19.679  1.00  0.00    -0.224 N 
ATOM     14  H2  UNL     1      15.978 -10.923  18.890  1.00  0.00     0.177 HD
BRANCH  13  15
HETATM   15  C8  UNL     1      17.181 -12.391  19.836  1.00  0.00     0.168 C 
BRANCH  15  16
HETATM   16  C7  UNL     1      18.218 -11.537  20.533  1.00  0.00     0.292 C 
BRANCH  16  17
HETATM   17  N1  UNL     1      18.806 -12.275  21.598  1.00  0.00     0.091 N 
HETATM   18  C6  UNL     1      18.097 -13.418  22.105  1.00  0.00     0.283 C 
HETATM   19  C5  UNL     1      19.416 -14.091  22.350  1.00  0.00     0.075 C 
HETATM   20  C25 UNL     1      19.926 -13.119  21.307  1.00  0.00     0.283 C 
BRANCH  19  21
HETATM   21  C4  UNL     1      20.070 -13.862  23.648  1.00  0.00    -0.050 A 
HETATM   22  C3  UNL     1      19.371 -14.105  24.825  1.00  0.00     0.011 A 
HETATM   23  C2  UNL     1      19.904 -13.910  26.077  1.00  0.00     0.043 A 
HETATM   24  C1  UNL     1      21.193 -13.450  26.197  1.00  0.00     0.116 A 
HETATM   25  F1  UNL     1      21.747 -13.248  27.429  1.00  0.00    -0.206 F 
HETATM   26  C27 UNL     1      21.915 -13.200  25.060  1.00  0.00     0.043 A 
HETATM   27  C26 UNL     1      21.350 -13.407  23.796  1.00  0.00     0.011 A 
ENDBRANCH  19  21
ENDBRANCH  16  17
ENDBRANCH  15  16
ENDBRANCH  13  15
ENDBRANCH   1  13
BRANCH   4  28
HETATM   28  N4  UNL     1      12.781 -13.932  21.789  1.00  0.00    -0.375 N 
ATOM     29  H4  UNL     1      12.222 -13.965  22.642  1.00  0.00     0.161 HD
BRANCH  28  30
HETATM   30  C11 UNL     1      12.844 -15.109  20.986  1.00  0.00     0.126 C 
BRANCH  30  31
HETATM   31  C12 UNL     1      12.128 -14.920  19.671  1.00  0.00     0.058 C 
BRANCH  31  32
HETATM   32  C13 UNL     1      11.370 -16.180  19.415  1.00  0.00    -0.057 A 
HETATM   33  C14 UNL     1      10.497 -16.313  18.358  1.00  0.00     0.007 A 
HETATM   34  C15 UNL     1       9.820 -17.504  18.171  1.00  0.00     0.001 A 
HETATM   35  C16 UNL     1      10.007 -18.556  19.023  1.00  0.00     0.000 A 
HETATM   36  C17 UNL     1      10.891 -18.397  20.081  1.00  0.00     0.001 A 
HETATM   37  C18 UNL     1      11.572 -17.229  20.286  1.00  0.00     0.007 A 
ENDBRANCH  31  32
ENDBRANCH  30  31
ENDBRANCH  28  30
ENDBRANCH   4  28
TORSDOF 9
ENDMDL
MODEL 5
REMARK VINA RESULT: -8.163120008      2.062      4.684
REMARK  9 active torsions:
REMARK  status: ('A' for Active; 'I' for Inactive)
REMARK    1  A    between atoms: C4_5  and  C5_6 
REMARK    2  A    between atoms: N1_8  and  C7_9 
REMARK    3  A    between atoms: C7_9  and  C8_10 
REMARK    4  A    between atoms: C8_10  and  N2_11 
REMARK    5  A    between atoms: N2_11  and  C9_13 
REMARK    6  A    between atoms: C10_16  and  N4_17 
REMARK    7  A    between atoms: N4_17  and  C11_19 
REMARK    8  A    between atoms: C11_19  and  C12_20 
REMARK    9  A    between atoms: C12_20  and  C13_21 
ROOT
HETATM    1  C9  UNL     1      14.970 -11.604  20.468  1.00  0.00     0.680 A 
HETATM    2  N3  UNL     1      14.375 -12.794  20.728  1.00  0.00    -0.176 N 
ATOM      3  H3  UNL     1      14.717 -13.656  20.305  1.00  0.00     0.186 HD
HETATM    4  C10 UNL     1      13.330 -12.805  21.554  1.00  0.00     0.129 A 
HETATM    5  C19 UNL     1      12.865 -11.641  22.127  1.00  0.00     0.035 A 
HETATM    6  C20 UNL     1      11.793 -11.633  22.977  1.00  0.00     0.017 A 
HETATM    7  C21 UNL     1      11.349 -10.442  23.541  1.00  0.00     0.001 A 
HETATM    8  C22 UNL     1      12.008  -9.255  23.230  1.00  0.00     0.002 A 
HETATM    9  C23 UNL     1      13.077  -9.264  22.383  1.00  0.00     0.031 A 
HETATM   10  C24 UNL     1      13.491 -10.456  21.843  1.00  0.00     0.063 A 
HETATM   11  N5  UNL     1      14.546 -10.469  21.006  1.00  0.00    -0.191 N 
ATOM     12  H5  UNL     1      15.023  -9.596  20.784  1.00  0.00     0.184 HD
ENDROOT
BRANCH   1  13
HETATM   13  N2  UNL     1      15.965 -11.604  19.677  1.00  0.00    -0.224 N 
ATOM     14  H2  UNL     1      15.919 -11.005  18.853  1.00  0.00     0.177 HD
BRANCH  13  15
HETATM   15  C8  UNL     1      17.155 -12.395  19.869  1.00  0.00     0.168 C 
BRANCH  15  16
HETATM   16  C7  UNL     1      18.150 -11.514  20.594  1.00  0.00     0.292 C 
BRANCH  16  17
HETATM   17  N1  UNL     1      18.769 -12.254  21.640  1.00  0.00     0.091 N 
HETATM   18  C6  UNL     1      18.116 -13.446  22.109  1.00  0.00     0.283 C 
HETATM   19  C5  UNL     1      19.465 -14.059  22.341  1.00  0.00     0.075 C 
HETATM   20  C25 UNL     1      19.931 -13.033  21.331  1.00  0.00     0.283 C 
BRANCH  19  21
HETATM   21  C4  UNL     1      20.101 -13.838  23.649  1.00  0.00    -0.050 A 
HETATM   22  C3  UNL     1      19.385 -14.083  24.815  1.00  0.00     0.011 A 
HETATM   23  C2  UNL     1      19.900 -13.894  26.076  1.00  0.00     0.043 A 
HETATM   24  C1  UNL     1      21.189 -13.439  26.216  1.00  0.00     0.116 A 
HETATM   25  F1  UNL     1      21.726 -13.243  27.456  1.00  0.00    -0.206 F 
HETATM   26  C27 UNL     1      21.927 -13.187  25.090  1.00  0.00     0.043 A 
HETATM   27  C26 UNL     1      21.380 -13.387  23.817  1.00  0.00     0.011 A 
ENDBRANCH  19  21
ENDBRANCH  16  17
ENDBRANCH  15  16
ENDBRANCH  13  15
ENDBRANCH   1  13
BRANCH   4  28
HETATM   28  N4  UNL     1      12.719 -13.879  21.849  1.00  0.00    -0.375 N 
ATOM     29  H4  UNL     1      11.969 -13.825  22.539  1.00  0.00     0.161 HD
BRANCH  28  30
HETATM   30  C11 UNL     1      13.012 -15.155  21.282  1.00  0.00     0.126 C 
BRANCH  30  31
HETATM   31  C12 UNL     1      12.032 -15.514  20.190  1.00  0.00     0.058 C 
BRANCH  31  32
HETATM   32  C13 UNL     1      12.833 -16.094  19.075  1.00  0.00    -0.057 A 
HETATM   33  C14 UNL     1      14.163 -15.790  18.886  1.00  0.00     0.007 A 
HETATM   34  C15 UNL     1      14.856 -16.357  17.832  1.00  0.00     0.001 A 
HETATM   35  C16 UNL     1      14.238 -17.221  16.973  1.00  0.00     0.000 A 
HETATM   36  C17 UNL     1      12.898 -17.512  17.184  1.00  0.00     0.001 A 
HETATM   37  C18 UNL     1      12.192 -16.964  18.218  1.00  0.00     0.007 A 
ENDBRANCH  31  32
ENDBRANCH  30  31
ENDBRANCH  28  30
ENDBRANCH   4  28
TORSDOF 9
ENDMDL
