MODEL 1
REMARK VINA RESULT: -8.461077153      0.000      0.000
REMARK  8 active torsions:
REMARK  status: ('A' for Active; 'I' for Inactive)
REMARK    1  A    between atoms: N1_2  and  C2_3 
REMARK    2  A    between atoms: N1_2  and  C20_29 
REMARK    3  A    between atoms: C2_3  and  C3_4 
REMARK       I    between atoms: C3_4  and  N2_6 
REMARK    4  A    between atoms: N2_6  and  C4_8 
REMARK    5  A    between atoms: C10_14  and  C11_15 
REMARK    6  A    between atoms: C11_15  and  C12_16 
REMARK    7  A    between atoms: C12_16  and  N3_17 
REMARK    8  A    between atoms: C20_29  and  C21_30 
ROOT
HETATM    1  C4  UNL     1      17.530 -13.951  22.076  1.00  0.00     0.035 A 
HETATM    2  C5  UNL     1      17.841 -14.853  21.071  1.00  0.00     0.032 A 
HETATM    3  C6  UNL     1      18.856 -15.733  21.227  1.00  0.00     0.033 A 
HETATM    4  C7  UNL     1      19.593 -15.733  22.405  1.00  0.00     0.045 A 
HETATM    5  C8  UNL     1      19.302 -14.849  23.414  1.00  0.00     0.000 A 
HETATM    6  C9  UNL     1      18.267 -13.969  23.227  1.00  0.00     0.043 A 
HETATM    7  C10 UNL     1      20.082 -14.899  24.551  1.00  0.00    -0.032 A 
HETATM    8  C13 UNL     1      21.123 -15.794  24.697  1.00  0.00    -0.002 A 
HETATM    9  C14 UNL     1      21.872 -15.810  25.847  1.00  0.00     0.014 A 
HETATM   10  C15 UNL     1      22.913 -16.709  25.986  1.00  0.00     0.001 A 
HETATM   11  C16 UNL     1      23.177 -17.576  24.961  1.00  0.00     0.002 A 
HETATM   12  C17 UNL     1      22.407 -17.554  23.790  1.00  0.00     0.030 A 
HETATM   13  C18 UNL     1      21.370 -16.669  23.636  1.00  0.00     0.045 A 
HETATM   14  N4  UNL     1      20.616 -16.638  22.509  1.00  0.00    -0.350 N 
HETATM   15  C19 UNL     1      20.842 -17.534  21.422  1.00  0.00     0.156 C 
ENDROOT
BRANCH   1  16
HETATM   16  N2  UNL     1      16.453 -13.084  21.842  1.00  0.00    -0.323 N 
HETATM   17  C3  UNL     1      16.567 -11.910  21.092  1.00  0.00     0.261 C 
HETATM   18  O1  UNL     1      17.664 -11.585  20.581  1.00  0.00    -0.267 OA
ATOM     19  H2  UNL     1      15.543 -13.321  22.238  1.00  0.00     0.169 HD
BRANCH  17  20
HETATM   20  C2  UNL     1      15.457 -10.956  20.823  1.00  0.00     0.160 C 
BRANCH  20  21
HETATM   21  N1  UNL     1      14.385 -11.438  20.062  1.00  0.00    -0.386 N 
HETATM   22  C1  UNL     1      14.620 -12.402  19.060  1.00  0.00     0.149 C 
BRANCH  21  23
HETATM   23  C20 UNL     1      13.178 -10.708  20.024  1.00  0.00     0.160 C 
BRANCH  23  24
HETATM   24  C21 UNL     1      12.540 -10.711  21.381  1.00  0.00    -0.040 A 
HETATM   25  C22 UNL     1      12.568  -9.563  22.169  1.00  0.00     0.012 A 
HETATM   26  C23 UNL     1      12.000  -9.508  23.418  1.00  0.00     0.043 A 
HETATM   27  C24 UNL     1      11.371 -10.621  23.933  1.00  0.00     0.116 A 
HETATM   28  F1  UNL     1      10.809 -10.550  25.182  1.00  0.00    -0.206 F 
HETATM   29  C25 UNL     1      11.331 -11.771  23.167  1.00  0.00     0.043 A 
HETATM   30  C26 UNL     1      11.906 -11.810  21.915  1.00  0.00     0.012 A 
ENDBRANCH  23  24
ENDBRANCH  21  23
ENDBRANCH  20  21
ENDBRANCH  17  20
ENDBRANCH   1  16
BRANCH   7  31
HETATM   31  C11 UNL     1      19.760 -13.964  25.633  1.00  0.00     0.067 C 
BRANCH  31  32
HETATM   32  C12 UNL     1      20.757 -12.797  25.586  1.00  0.00     0.234 C 
BRANCH  32  33
HETATM   33  N3  UNL     1      21.057 -12.455  26.964  1.00  0.00    -0.079 N 
ATOM     34  H33 UNL     1      20.472 -12.947  27.639  1.00  0.00     0.274 HD
ATOM     35  H32 UNL     1      21.954 -12.820  27.284  1.00  0.00     0.274 HD
ATOM     36  H31 UNL     1      20.987 -11.440  27.033  1.00  0.00     0.274 HD
ENDBRANCH  32  33
ENDBRANCH  31  32
ENDBRANCH   7  31
TORSDOF 8
ENDMDL
MODEL 2
REMARK VINA RESULT: -8.374475729      0.576      1.043
REMARK  8 active torsions:
REMARK  status: ('A' for Active; 'I' for Inactive)
REMARK    1  A    between atoms: N1_2  and  C2_3 
REMARK    2  A    between atoms: N1_2  and  C20_29 
REMARK    3  A    between atoms: C2_3  and  C3_4 
REMARK       I    between atoms: C3_4  and  N2_6 
REMARK    4  A    between atoms: N2_6  and  C4_8 
REMARK    5  A    between atoms: C10_14  and  C11_15 
REMARK    6  A    between atoms: C11_15  and  C12_16 
REMARK    7  A    between atoms: C12_16  and  N3_17 
REMARK    8  A    between atoms: C20_29  and  C21_30 
ROOT
HETATM    1  C4  UNL     1      17.633 -13.930  22.134  1.00  0.00     0.035 A 
HETATM    2  C5  UNL     1      17.596 -15.112  21.413  1.00  0.00     0.032 A 
HETATM    3  C6  UNL     1      18.578 -16.032  21.551  1.00  0.00     0.033 A 
HETATM    4  C7  UNL     1      19.631 -15.790  22.425  1.00  0.00     0.045 A 
HETATM    5  C8  UNL     1      19.687 -14.625  23.150  1.00  0.00     0.000 A 
HETATM    6  C9  UNL     1      18.677 -13.711  22.988  1.00  0.00     0.043 A 
HETATM    7  C10 UNL     1      20.766 -14.448  23.990  1.00  0.00    -0.032 A 
HETATM    8  C13 UNL     1      21.769 -15.389  24.117  1.00  0.00    -0.002 A 
HETATM    9  C14 UNL     1      22.825 -15.171  24.967  1.00  0.00     0.014 A 
HETATM   10  C15 UNL     1      23.826 -16.117  25.089  1.00  0.00     0.001 A 
HETATM   11  C16 UNL     1      23.741 -17.265  24.351  1.00  0.00     0.002 A 
HETATM   12  C17 UNL     1      22.659 -17.481  23.486  1.00  0.00     0.030 A 
HETATM   13  C18 UNL     1      21.657 -16.553  23.353  1.00  0.00     0.045 A 
HETATM   14  N4  UNL     1      20.603 -16.749  22.521  1.00  0.00    -0.350 N 
HETATM   15  C19 UNL     1      20.463 -17.939  21.746  1.00  0.00     0.156 C 
ENDROOT
BRANCH   1  16
HETATM   16  N2  UNL     1      16.568 -13.036  21.945  1.00  0.00    -0.323 N 
HETATM   17  C3  UNL     1      16.595 -12.005  21.001  1.00  0.00     0.261 C 
HETATM   18  O1  UNL     1      17.596 -11.843  20.264  1.00  0.00    -0.267 OA
ATOM     19  H2  UNL     1      15.735 -13.144  22.524  1.00  0.00     0.169 HD
BRANCH  17  20
HETATM   20  C2  UNL     1      15.496 -11.029  20.769  1.00  0.00     0.160 C 
BRANCH  20  21
HETATM   21  N1  UNL     1      14.380 -11.495  20.063  1.00  0.00    -0.386 N 
HETATM   22  C1  UNL     1      14.539 -12.522  19.109  1.00  0.00     0.149 C 
BRANCH  21  23
HETATM   23  C20 UNL     1      13.210 -10.709  20.017  1.00  0.00     0.160 C 
BRANCH  23  24
HETATM   24  C21 UNL     1      12.593 -10.636  21.382  1.00  0.00    -0.040 A 
HETATM   25  C22 UNL     1      11.932 -11.742  21.910  1.00  0.00     0.012 A 
HETATM   26  C23 UNL     1      11.349 -11.733  23.153  1.00  0.00     0.043 A 
HETATM   27  C24 UNL     1      11.408 -10.594  23.927  1.00  0.00     0.116 A 
HETATM   28  F1  UNL     1      10.821 -10.600  25.167  1.00  0.00    -0.206 F 
HETATM   29  C25 UNL     1      12.060  -9.484  23.422  1.00  0.00     0.043 A 
HETATM   30  C26 UNL     1      12.639  -9.510  22.172  1.00  0.00     0.012 A 
ENDBRANCH  23  24
ENDBRANCH  21  23
ENDBRANCH  20  21
ENDBRANCH  17  20
ENDBRANCH   1  16
BRANCH   7  31
HETATM   31  C11 UNL     1      20.817 -13.210  24.774  1.00  0.00     0.067 C 
BRANCH  31  32
HETATM   32  C12 UNL     1      20.309 -13.505  26.192  1.00  0.00     0.234 C 
BRANCH  32  33
HETATM   33  N3  UNL     1      21.069 -12.653  27.088  1.00  0.00    -0.079 N 
ATOM     34  H33 UNL     1      21.706 -12.022  26.601  1.00  0.00     0.274 HD
ATOM     35  H32 UNL     1      20.503 -11.937  27.542  1.00  0.00     0.274 HD
ATOM     36  H31 UNL     1      21.541 -13.272  27.747  1.00  0.00     0.274 HD
ENDBRANCH  32  33
ENDBRANCH  31  32
ENDBRANCH   7  31
TORSDOF 8
ENDMDL
MODEL 3
REMARK VINA RESULT: -8.361250787      3.472      8.585
REMARK  8 active torsions:
REMARK  status: ('A' for Active; 'I' for Inactive)
REMARK    1  A    between atoms: N1_2  and  C2_3 
REMARK    2  A    between atoms: N1_2  and  C20_29 
REMARK    3  A    between atoms: C2_3  and  C3_4 
REMARK       I    between atoms: C3_4  and  N2_6 
REMARK    4  A    between atoms: N2_6  and  C4_8 
REMARK    5  A    between atoms: C10_14  and  C11_15 
REMARK    6  A    between atoms: C11_15  and  C12_16 
REMARK    7  A    between atoms: C12_16  and  N3_17 
REMARK    8  A    between atoms: C20_29  and  C21_30 
ROOT
HETATM    1  C4  UNL     1      17.597 -14.094  22.484  1.00  0.00     0.035 A 
HETATM    2  C5  UNL     1      18.880 -13.830  22.031  1.00  0.00     0.032 A 
HETATM    3  C6  UNL     1      19.077 -13.236  20.833  1.00  0.00     0.033 A 
HETATM    4  C7  UNL     1      17.984 -12.887  20.049  1.00  0.00     0.045 A 
HETATM    5  C8  UNL     1      16.705 -13.138  20.478  1.00  0.00     0.000 A 
HETATM    6  C9  UNL     1      16.536 -13.742  21.698  1.00  0.00     0.043 A 
HETATM    7  C10 UNL     1      15.668 -12.773  19.644  1.00  0.00    -0.032 A 
HETATM    8  C13 UNL     1      15.880 -12.176  18.417  1.00  0.00    -0.002 A 
HETATM    9  C14 UNL     1      14.819 -11.828  17.619  1.00  0.00     0.014 A 
HETATM   10  C15 UNL     1      15.037 -11.231  16.392  1.00  0.00     0.001 A 
HETATM   11  C16 UNL     1      16.325 -10.995  15.994  1.00  0.00     0.002 A 
HETATM   12  C17 UNL     1      17.403 -11.353  16.814  1.00  0.00     0.030 A 
HETATM   13  C18 UNL     1      17.204 -11.946  18.036  1.00  0.00     0.045 A 
HETATM   14  N4  UNL     1      18.239 -12.296  18.840  1.00  0.00    -0.350 N 
HETATM   15  C19 UNL     1      19.596 -12.053  18.475  1.00  0.00     0.156 C 
ENDROOT
BRANCH   1  16
HETATM   16  N2  UNL     1      17.479 -14.697  23.745  1.00  0.00    -0.323 N 
HETATM   17  C3  UNL     1      17.442 -16.084  23.927  1.00  0.00     0.261 C 
HETATM   18  O1  UNL     1      17.523 -16.857  22.945  1.00  0.00    -0.267 OA
ATOM     19  H2  UNL     1      17.417 -14.097  24.567  1.00  0.00     0.169 HD
BRANCH  17  20
HETATM   20  C2  UNL     1      17.310 -16.769  25.242  1.00  0.00     0.160 C 
BRANCH  20  21
HETATM   21  N1  UNL     1      18.459 -16.824  26.040  1.00  0.00    -0.386 N 
HETATM   22  C1  UNL     1      19.077 -18.068  26.286  1.00  0.00     0.149 C 
BRANCH  21  23
HETATM   23  C20 UNL     1      18.767 -15.740  26.888  1.00  0.00     0.160 C 
BRANCH  23  24
HETATM   24  C21 UNL     1      19.921 -14.966  26.325  1.00  0.00    -0.040 A 
HETATM   25  C22 UNL     1      20.258 -13.725  26.861  1.00  0.00     0.012 A 
HETATM   26  C23 UNL     1      21.303 -12.973  26.386  1.00  0.00     0.043 A 
HETATM   27  C24 UNL     1      22.064 -13.443  25.339  1.00  0.00     0.116 A 
HETATM   28  F1  UNL     1      23.105 -12.680  24.875  1.00  0.00    -0.206 F 
HETATM   29  C25 UNL     1      21.747 -14.673  24.791  1.00  0.00     0.043 A 
HETATM   30  C26 UNL     1      20.694 -15.415  25.280  1.00  0.00     0.012 A 
ENDBRANCH  23  24
ENDBRANCH  21  23
ENDBRANCH  20  21
ENDBRANCH  17  20
ENDBRANCH   1  16
BRANCH   7  31
HETATM   31  C11 UNL     1      14.302 -13.030  20.110  1.00  0.00     0.067 C 
BRANCH  31  32
HETATM   32  C12 UNL     1      13.912 -11.938  21.116  1.00  0.00     0.234 C 
BRANCH  32  33
HETATM   33  N3  UNL     1      13.137 -12.591  22.154  1.00  0.00    -0.079 N 
ATOM     34  H33 UNL     1      12.701 -13.460  21.845  1.00  0.00     0.274 HD
ATOM     35  H32 UNL     1      13.712 -12.993  22.894  1.00  0.00     0.274 HD
ATOM     36  H31 UNL     1      12.466 -11.902  22.492  1.00  0.00     0.274 HD
ENDBRANCH  32  33
ENDBRANCH  31  32
ENDBRANCH   7  31
TORSDOF 8
ENDMDL
MODEL 4
REMARK VINA RESULT: -8.346369748      3.316      4.656
REMARK  8 active torsions:
REMARK  status: ('A' for Active; 'I' for Inactive)
REMARK    1  A    between atoms: N1_2  and  C2_3 
REMARK    2  A    between atoms: N1_2  and  C20_29 
REMARK    3  A    between atoms: C2_3  and  C3_4 
REMARK       I    between atoms: C3_4  and  N2_6 
REMARK    4  A    between atoms: N2_6  and  C4_8 
REMARK    5  A    between atoms: C10_14  and  C11_15 
REMARK    6  A    between atoms: C11_15  and  C12_16 
REMARK    7  A    between atoms: C12_16  and  N3_17 
REMARK    8  A    between atoms: C20_29  and  C21_30 
ROOT
HETATM    1  C4  UNL     1      16.086 -16.898  22.540  1.00  0.00     0.035 A 
HETATM    2  C5  UNL     1      16.084 -17.668  23.692  1.00  0.00     0.032 A 
HETATM    3  C6  UNL     1      16.877 -17.343  24.738  1.00  0.00     0.033 A 
HETATM    4  C7  UNL     1      17.700 -16.226  24.656  1.00  0.00     0.045 A 
HETATM    5  C8  UNL     1      17.718 -15.448  23.525  1.00  0.00     0.000 A 
HETATM    6  C9  UNL     1      16.902 -15.803  22.481  1.00  0.00     0.043 A 
HETATM    7  C10 UNL     1      18.566 -14.361  23.512  1.00  0.00    -0.032 A 
HETATM    8  C13 UNL     1      19.380 -14.042  24.581  1.00  0.00    -0.002 A 
HETATM    9  C14 UNL     1      20.209 -12.950  24.524  1.00  0.00     0.014 A 
HETATM   10  C15 UNL     1      21.021 -12.636  25.597  1.00  0.00     0.001 A 
HETATM   11  C16 UNL     1      20.981 -13.433  26.709  1.00  0.00     0.002 A 
HETATM   12  C17 UNL     1      20.132 -14.547  26.759  1.00  0.00     0.030 A 
HETATM   13  C18 UNL     1      19.318 -14.871  25.703  1.00  0.00     0.045 A 
HETATM   14  N4  UNL     1      18.490 -15.945  25.739  1.00  0.00    -0.350 N 
HETATM   15  C19 UNL     1      18.401 -16.794  26.883  1.00  0.00     0.156 C 
ENDROOT
BRANCH   1  16
HETATM   16  N2  UNL     1      15.222 -17.293  21.508  1.00  0.00    -0.323 N 
HETATM   17  C3  UNL     1      13.908 -16.827  21.392  1.00  0.00     0.261 C 
HETATM   18  O1  UNL     1      13.447 -16.011  22.223  1.00  0.00    -0.267 OA
ATOM     19  H2  UNL     1      15.567 -17.952  20.810  1.00  0.00     0.169 HD
BRANCH  17  20
HETATM   20  C2  UNL     1      12.953 -17.222  20.321  1.00  0.00     0.160 C 
BRANCH  20  21
HETATM   21  N1  UNL     1      12.664 -16.257  19.348  1.00  0.00    -0.386 N 
HETATM   22  C1  UNL     1      11.350 -16.145  18.848  1.00  0.00     0.149 C 
BRANCH  21  23
HETATM   23  C20 UNL     1      13.718 -15.680  18.610  1.00  0.00     0.160 C 
BRANCH  23  24
HETATM   24  C21 UNL     1      14.109 -14.368  19.223  1.00  0.00    -0.040 A 
HETATM   25  C22 UNL     1      15.453 -14.070  19.437  1.00  0.00     0.012 A 
HETATM   26  C23 UNL     1      15.869 -12.886  19.994  1.00  0.00     0.043 A 
HETATM   27  C24 UNL     1      14.938 -11.939  20.361  1.00  0.00     0.116 A 
HETATM   28  F1  UNL     1      15.369 -10.761  20.916  1.00  0.00    -0.206 F 
HETATM   29  C25 UNL     1      13.598 -12.214  20.157  1.00  0.00     0.043 A 
HETATM   30  C26 UNL     1      13.197 -13.408  19.597  1.00  0.00     0.012 A 
ENDBRANCH  23  24
ENDBRANCH  21  23
ENDBRANCH  20  21
ENDBRANCH  17  20
ENDBRANCH   1  16
BRANCH   7  31
HETATM   31  C11 UNL     1      18.573 -13.523  22.308  1.00  0.00     0.067 C 
BRANCH  31  32
HETATM   32  C12 UNL     1      19.571 -14.115  21.303  1.00  0.00     0.234 C 
BRANCH  32  33
HETATM   33  N3  UNL     1      20.276 -12.993  20.712  1.00  0.00    -0.079 N 
ATOM     34  H33 UNL     1      19.827 -12.631  19.871  1.00  0.00     0.274 HD
ATOM     35  H32 UNL     1      20.213 -12.139  21.267  1.00  0.00     0.274 HD
ATOM     36  H31 UNL     1      21.235 -13.302  20.556  1.00  0.00     0.274 HD
ENDBRANCH  32  33
ENDBRANCH  31  32
ENDBRANCH   7  31
TORSDOF 8
ENDMDL
MODEL 5
REMARK VINA RESULT: -7.980890102      3.701      4.888
REMARK  8 active torsions:
REMARK  status: ('A' for Active; 'I' for Inactive)
REMARK    1  A    between atoms: N1_2  and  C2_3 
REMARK    2  A    between atoms: N1_2  and  C20_29 
REMARK    3  A    between atoms: C2_3  and  C3_4 
REMARK       I    between atoms: C3_4  and  N2_6 
REMARK    4  A    between atoms: N2_6  and  C4_8 
REMARK    5  A    between atoms: C10_14  and  C11_15 
REMARK    6  A    between atoms: C11_15  and  C12_16 
REMARK    7  A    between atoms: C12_16  and  N3_17 
REMARK    8  A    between atoms: C20_29  and  C21_30 
ROOT
HETATM    1  C4  UNL     1      16.647 -16.521  21.908  1.00  0.00     0.035 A 
HETATM    2  C5  UNL     1      17.341 -15.793  20.955  1.00  0.00     0.032 A 
HETATM    3  C6  UNL     1      18.332 -14.949  21.321  1.00  0.00     0.033 A 
HETATM    4  C7  UNL     1      18.659 -14.813  22.665  1.00  0.00     0.045 A 
HETATM    5  C8  UNL     1      17.986 -15.525  23.627  1.00  0.00     0.000 A 
HETATM    6  C9  UNL     1      16.985 -16.372  23.225  1.00  0.00     0.043 A 
HETATM    7  C10 UNL     1      18.357 -15.332  24.941  1.00  0.00    -0.032 A 
HETATM    8  C13 UNL     1      19.364 -14.461  25.306  1.00  0.00    -0.002 A 
HETATM    9  C14 UNL     1      19.702 -14.301  26.627  1.00  0.00     0.014 A 
HETATM   10  C15 UNL     1      20.711 -13.428  26.986  1.00  0.00     0.001 A 
HETATM   11  C16 UNL     1      21.361 -12.732  26.004  1.00  0.00     0.002 A 
HETATM   12  C17 UNL     1      21.011 -12.901  24.657  1.00  0.00     0.030 A 
HETATM   13  C18 UNL     1      20.012 -13.765  24.283  1.00  0.00     0.045 A 
HETATM   14  N4  UNL     1      19.664 -13.939  22.984  1.00  0.00    -0.350 N 
HETATM   15  C19 UNL     1      20.326 -13.250  21.924  1.00  0.00     0.156 C 
ENDROOT
BRANCH   1  16
HETATM   16  N2  UNL     1      15.645 -17.385  21.444  1.00  0.00    -0.323 N 
HETATM   17  C3  UNL     1      14.286 -17.191  21.711  1.00  0.00     0.261 C 
HETATM   18  O1  UNL     1      13.904 -16.208  22.386  1.00  0.00    -0.267 OA
ATOM     19  H2  UNL     1      15.920 -18.193  20.885  1.00  0.00     0.169 HD
BRANCH  17  20
HETATM   20  C2  UNL     1      13.188 -18.083  21.248  1.00  0.00     0.160 C 
BRANCH  20  21
HETATM   21  N1  UNL     1      12.301 -17.550  20.304  1.00  0.00    -0.386 N 
HETATM   22  C1  UNL     1      10.911 -17.705  20.490  1.00  0.00     0.149 C 
BRANCH  21  23
HETATM   23  C20 UNL     1      12.775 -17.213  19.020  1.00  0.00     0.160 C 
BRANCH  23  24
HETATM   24  C21 UNL     1      13.316 -15.815  19.028  1.00  0.00    -0.040 A 
HETATM   25  C22 UNL     1      14.570 -15.548  18.484  1.00  0.00     0.012 A 
HETATM   26  C23 UNL     1      15.115 -14.288  18.464  1.00  0.00     0.043 A 
HETATM   27  C24 UNL     1      14.411 -13.230  18.996  1.00  0.00     0.116 A 
HETATM   28  F1  UNL     1      14.969 -11.977  18.968  1.00  0.00    -0.206 F 
HETATM   29  C25 UNL     1      13.164 -13.473  19.541  1.00  0.00     0.043 A 
HETATM   30  C26 UNL     1      12.632 -14.744  19.554  1.00  0.00     0.012 A 
ENDBRANCH  23  24
ENDBRANCH  21  23
ENDBRANCH  20  21
ENDBRANCH  17  20
ENDBRANCH   1  16
BRANCH   7  31
HETATM   31  C11 UNL     1      17.646 -16.105  25.965  1.00  0.00     0.067 C 
BRANCH  31  32
HETATM   32  C12 UNL     1      18.496 -17.329  26.336  1.00  0.00     0.234 C 
BRANCH  32  33
HETATM   33  N3  UNL     1      18.362 -17.504  27.770  1.00  0.00    -0.079 N 
ATOM     34  H33 UNL     1      17.429 -17.283  28.118  1.00  0.00     0.274 HD
ATOM     35  H32 UNL     1      18.378 -18.481  28.060  1.00  0.00     0.274 HD
ATOM     36  H31 UNL     1      19.096 -16.943  28.201  1.00  0.00     0.274 HD
ENDBRANCH  32  33
ENDBRANCH  31  32
ENDBRANCH   7  31
TORSDOF 8
ENDMDL
