MODEL 1
REMARK VINA RESULT: -9.062150604      0.000      0.000
REMARK  8 active torsions:
REMARK  status: ('A' for Active; 'I' for Inactive)
REMARK    1  A    between atoms: C2_2  and  C3_3 
REMARK    2  A    between atoms: C3_3  and  C4_4 
REMARK    3  A    between atoms: C7_7  and  C8_8 
REMARK    4  A    between atoms: C10_10  and  N1_11 
REMARK    5  A    between atoms: N1_11  and  C11_13 
REMARK    6  A    between atoms: C11_13  and  C12_14 
REMARK    7  A    between atoms: C14_18  and  C15_19 
REMARK    8  A    between atoms: C15_19  and  C16_21 
ROOT
HETATM    1  N1  UNL     1      17.025 -12.263  18.491  1.00  0.00    -0.369 N 
ATOM      2  H1  UNL     1      17.013 -11.584  17.729  1.00  0.00     0.161 HD
ENDROOT
BRANCH   1   3
HETATM    3  C10 UNL     1      18.067 -12.389  19.230  1.00  0.00     0.104 A 
HETATM    4  C9  UNL     1      17.987 -12.864  20.523  1.00  0.00     0.078 A 
HETATM    5  C8  UNL     1      19.119 -12.995  21.305  1.00  0.00     0.046 A 
HETATM    6  N5  UNL     1      20.319 -12.639  20.757  1.00  0.00    -0.352 N 
HETATM    7  C23 UNL     1      20.396 -12.181  19.512  1.00  0.00     0.182 A 
ATOM      8  H5  UNL     1      21.170 -12.727  21.313  1.00  0.00     0.166 HD
HETATM    9  N4  UNL     1      19.274 -12.055  18.749  1.00  0.00    -0.339 N 
ATOM     10  H4  UNL     1      19.353 -11.702  17.796  1.00  0.00     0.168 HD
BRANCH   5  11
HETATM   11  C7  UNL     1      19.098 -13.498  22.674  1.00  0.00    -0.009 A 
HETATM   12  C6  UNL     1      20.223 -13.393  23.455  1.00  0.00     0.014 A 
HETATM   13  C5  UNL     1      20.267 -13.856  24.764  1.00  0.00     0.008 A 
HETATM   14  C4  UNL     1      19.138 -14.440  25.291  1.00  0.00    -0.058 A 
HETATM   15  C25 UNL     1      18.013 -14.542  24.504  1.00  0.00     0.008 A 
HETATM   16  C24 UNL     1      17.972 -14.075  23.186  1.00  0.00     0.014 A 
BRANCH  14  17
HETATM   17  C3  UNL     1      19.150 -14.954  26.699  1.00  0.00     0.038 C 
BRANCH  17  18
HETATM   18  C2  UNL     1      18.715 -16.392  26.703  1.00  0.00     0.000 C 
HETATM   19  C1  UNL     1      19.895 -17.272  26.328  1.00  0.00     0.005 C 
ENDBRANCH  17  18
ENDBRANCH  14  17
ENDBRANCH   5  11
ENDBRANCH   1   3
BRANCH   1  20
HETATM   20  C11 UNL     1      15.877 -13.085  18.746  1.00  0.00     0.197 C 
BRANCH  20  21
HETATM   21  C12 UNL     1      14.734 -12.363  19.362  1.00  0.00     0.101 A 
HETATM   22  N2  UNL     1      14.118 -11.292  18.781  1.00  0.00    -0.352 N 
HETATM   23  C13 UNL     1      13.140 -10.874  19.592  1.00  0.00     0.123 A 
ATOM     24  H2  UNL     1      14.362 -10.880  17.881  1.00  0.00     0.166 HD
HETATM   25  C14 UNL     1      13.120 -11.688  20.724  1.00  0.00     0.102 A 
HETATM   26  N3  UNL     1      14.106 -12.569  20.525  1.00  0.00    -0.335 N 
HETATM   27  C22 UNL     1      14.421 -13.637  21.438  1.00  0.00     0.158 C 
BRANCH  25  28
HETATM   28  C15 UNL     1      12.166 -11.496  21.789  1.00  0.00     0.210 C 
HETATM   29  O1  UNL     1      11.267 -12.398  21.972  1.00  0.00    -0.285 OA
BRANCH  28  30
HETATM   30  C16 UNL     1      12.095 -10.381  22.698  1.00  0.00     0.017 A 
HETATM   31  C17 UNL     1      12.920  -9.279  22.542  1.00  0.00     0.018 A 
HETATM   32  C18 UNL     1      12.890  -8.213  23.414  1.00  0.00     0.043 A 
HETATM   33  C19 UNL     1      12.021  -8.224  24.479  1.00  0.00     0.116 A 
HETATM   34  F1  UNL     1      11.960  -7.190  25.365  1.00  0.00    -0.206 F 
HETATM   35  C20 UNL     1      11.184  -9.307  24.665  1.00  0.00     0.043 A 
HETATM   36  C21 UNL     1      11.242 -10.345  23.781  1.00  0.00     0.018 A 
ENDBRANCH  28  30
ENDBRANCH  25  28
ENDBRANCH  20  21
ENDBRANCH   1  20
TORSDOF 8
ENDMDL
MODEL 2
REMARK VINA RESULT: -9.024914576      2.510      3.731
REMARK  8 active torsions:
REMARK  status: ('A' for Active; 'I' for Inactive)
REMARK    1  A    between atoms: C2_2  and  C3_3 
REMARK    2  A    between atoms: C3_3  and  C4_4 
REMARK    3  A    between atoms: C7_7  and  C8_8 
REMARK    4  A    between atoms: C10_10  and  N1_11 
REMARK    5  A    between atoms: N1_11  and  C11_13 
REMARK    6  A    between atoms: C11_13  and  C12_14 
REMARK    7  A    between atoms: C14_18  and  C15_19 
REMARK    8  A    between atoms: C15_19  and  C16_21 
ROOT
HETATM    1  N1  UNL     1      16.098 -16.625  19.707  1.00  0.00    -0.369 N 
ATOM      2  H1  UNL     1      16.900 -16.966  19.177  1.00  0.00     0.161 HD
ENDROOT
BRANCH   1   3
HETATM    3  C10 UNL     1      16.059 -16.761  20.984  1.00  0.00     0.104 A 
HETATM    4  C9  UNL     1      16.952 -16.112  21.810  1.00  0.00     0.078 A 
HETATM    5  C8  UNL     1      16.896 -16.268  23.183  1.00  0.00     0.046 A 
HETATM    6  N5  UNL     1      15.927 -17.085  23.693  1.00  0.00    -0.352 N 
HETATM    7  C23 UNL     1      15.066 -17.711  22.896  1.00  0.00     0.182 A 
ATOM      8  H5  UNL     1      15.862 -17.217  24.703  1.00  0.00     0.166 HD
HETATM    9  N4  UNL     1      15.131 -17.550  21.545  1.00  0.00    -0.339 N 
ATOM     10  H4  UNL     1      14.461 -18.038  20.949  1.00  0.00     0.168 HD
BRANCH   5  11
HETATM   11  C7  UNL     1      17.807 -15.604  24.107  1.00  0.00    -0.009 A 
HETATM   12  C6  UNL     1      18.382 -14.408  23.753  1.00  0.00     0.014 A 
HETATM   13  C5  UNL     1      19.262 -13.728  24.587  1.00  0.00     0.008 A 
HETATM   14  C4  UNL     1      19.562 -14.280  25.811  1.00  0.00    -0.058 A 
HETATM   15  C25 UNL     1      18.983 -15.479  26.161  1.00  0.00     0.008 A 
HETATM   16  C24 UNL     1      18.098 -16.160  25.319  1.00  0.00     0.014 A 
BRANCH  14  17
HETATM   17  C3  UNL     1      20.509 -13.577  26.737  1.00  0.00     0.038 C 
BRANCH  17  18
HETATM   18  C2  UNL     1      21.279 -12.545  25.962  1.00  0.00     0.000 C 
HETATM   19  C1  UNL     1      22.457 -13.213  25.274  1.00  0.00     0.005 C 
ENDBRANCH  17  18
ENDBRANCH  14  17
ENDBRANCH   5  11
ENDBRANCH   1   3
BRANCH   1  20
HETATM   20  C11 UNL     1      15.004 -15.987  19.033  1.00  0.00     0.197 C 
BRANCH  20  21
HETATM   21  C12 UNL     1      14.935 -14.518  19.237  1.00  0.00     0.101 A 
HETATM   22  N2  UNL     1      16.023 -13.696  19.180  1.00  0.00    -0.352 N 
HETATM   23  C13 UNL     1      15.622 -12.442  19.414  1.00  0.00     0.123 A 
ATOM     24  H2  UNL     1      16.982 -13.990  18.991  1.00  0.00     0.166 HD
HETATM   25  C14 UNL     1      14.245 -12.447  19.629  1.00  0.00     0.102 A 
HETATM   26  N3  UNL     1      13.887 -13.730  19.508  1.00  0.00    -0.335 N 
HETATM   27  C22 UNL     1      12.530 -14.195  19.615  1.00  0.00     0.158 C 
BRANCH  25  28
HETATM   28  C15 UNL     1      13.508 -11.237  19.901  1.00  0.00     0.210 C 
HETATM   29  O1  UNL     1      13.330 -10.402  18.938  1.00  0.00    -0.285 OA
BRANCH  28  30
HETATM   30  C16 UNL     1      12.932 -10.837  21.160  1.00  0.00     0.017 A 
HETATM   31  C17 UNL     1      12.020 -11.647  21.817  1.00  0.00     0.018 A 
HETATM   32  C18 UNL     1      11.435 -11.276  23.007  1.00  0.00     0.043 A 
HETATM   33  C19 UNL     1      11.751 -10.065  23.576  1.00  0.00     0.116 A 
HETATM   34  F1  UNL     1      11.195  -9.658  24.752  1.00  0.00    -0.206 F 
HETATM   35  C20 UNL     1      12.656  -9.231  22.948  1.00  0.00     0.043 A 
HETATM   36  C21 UNL     1      13.216  -9.634  21.769  1.00  0.00     0.018 A 
ENDBRANCH  28  30
ENDBRANCH  25  28
ENDBRANCH  20  21
ENDBRANCH   1  20
TORSDOF 8
ENDMDL
MODEL 3
REMARK VINA RESULT: -8.980966999      2.866      4.332
REMARK  8 active torsions:
REMARK  status: ('A' for Active; 'I' for Inactive)
REMARK    1  A    between atoms: C2_2  and  C3_3 
REMARK    2  A    between atoms: C3_3  and  C4_4 
REMARK    3  A    between atoms: C7_7  and  C8_8 
REMARK    4  A    between atoms: C10_10  and  N1_11 
REMARK    5  A    between atoms: N1_11  and  C11_13 
REMARK    6  A    between atoms: C11_13  and  C12_14 
REMARK    7  A    between atoms: C14_18  and  C15_19 
REMARK    8  A    between atoms: C15_19  and  C16_21 
ROOT
HETATM    1  N1  UNL     1      14.677 -17.490  21.268  1.00  0.00    -0.369 N 
ATOM      2  H1  UNL     1      13.875 -18.044  20.964  1.00  0.00     0.161 HD
ENDROOT
BRANCH   1   3
HETATM    3  C10 UNL     1      15.200 -17.688  22.424  1.00  0.00     0.104 A 
HETATM    4  C9  UNL     1      16.121 -16.814  22.961  1.00  0.00     0.078 A 
HETATM    5  C8  UNL     1      16.674 -17.040  24.209  1.00  0.00     0.046 A 
HETATM    6  N5  UNL     1      16.278 -18.156  24.890  1.00  0.00    -0.352 N 
HETATM    7  C23 UNL     1      15.391 -18.999  24.371  1.00  0.00     0.182 A 
ATOM      8  H5  UNL     1      16.670 -18.346  25.812  1.00  0.00     0.166 HD
HETATM    9  N4  UNL     1      14.852 -18.766  23.141  1.00  0.00    -0.339 N 
ATOM     10  H4  UNL     1      14.172 -19.424  22.759  1.00  0.00     0.168 HD
BRANCH   5  11
HETATM   11  C7  UNL     1      17.646 -16.149  24.832  1.00  0.00    -0.009 A 
HETATM   12  C6  UNL     1      18.203 -16.488  26.041  1.00  0.00     0.014 A 
HETATM   13  C5  UNL     1      19.130 -15.681  26.687  1.00  0.00     0.008 A 
HETATM   14  C4  UNL     1      19.500 -14.499  26.087  1.00  0.00    -0.058 A 
HETATM   15  C25 UNL     1      18.940 -14.164  24.875  1.00  0.00     0.008 A 
HETATM   16  C24 UNL     1      18.006 -14.979  24.228  1.00  0.00     0.014 A 
BRANCH  14  17
HETATM   17  C3  UNL     1      20.497 -13.600  26.757  1.00  0.00     0.038 C 
BRANCH  17  18
HETATM   18  C2  UNL     1      20.991 -12.587  25.764  1.00  0.00     0.000 C 
HETATM   19  C1  UNL     1      22.343 -13.028  25.231  1.00  0.00     0.005 C 
ENDBRANCH  17  18
ENDBRANCH  14  17
ENDBRANCH   5  11
ENDBRANCH   1   3
BRANCH   1  20
HETATM   20  C11 UNL     1      15.230 -16.485  20.407  1.00  0.00     0.197 C 
BRANCH  20  21
HETATM   21  C12 UNL     1      14.354 -15.301  20.210  1.00  0.00     0.101 A 
HETATM   22  N2  UNL     1      13.133 -15.359  19.604  1.00  0.00    -0.352 N 
HETATM   23  C13 UNL     1      12.612 -14.128  19.580  1.00  0.00     0.123 A 
ATOM     24  H2  UNL     1      12.692 -16.200  19.232  1.00  0.00     0.166 HD
HETATM   25  C14 UNL     1      13.513 -13.250  20.181  1.00  0.00     0.102 A 
HETATM   26  N3  UNL     1      14.545 -14.019  20.543  1.00  0.00    -0.335 N 
HETATM   27  C22 UNL     1      15.702 -13.527  21.244  1.00  0.00     0.158 C 
BRANCH  25  28
HETATM   28  C15 UNL     1      13.234 -11.842  20.318  1.00  0.00     0.210 C 
HETATM   29  O1  UNL     1      13.451 -11.075  19.308  1.00  0.00    -0.285 OA
BRANCH  28  30
HETATM   30  C16 UNL     1      12.727 -11.168  21.487  1.00  0.00     0.017 A 
HETATM   31  C17 UNL     1      11.811 -11.783  22.324  1.00  0.00     0.018 A 
HETATM   32  C18 UNL     1      11.291 -11.151  23.432  1.00  0.00     0.043 A 
HETATM   33  C19 UNL     1      11.681  -9.867  23.733  1.00  0.00     0.116 A 
HETATM   34  F1  UNL     1      11.192  -9.204  24.819  1.00  0.00    -0.206 F 
HETATM   35  C20 UNL     1      12.594  -9.223  22.919  1.00  0.00     0.043 A 
HETATM   36  C21 UNL     1      13.087  -9.882  21.830  1.00  0.00     0.018 A 
ENDBRANCH  28  30
ENDBRANCH  25  28
ENDBRANCH  20  21
ENDBRANCH   1  20
TORSDOF 8
ENDMDL
MODEL 4
REMARK VINA RESULT: -8.858889961      0.885      1.958
REMARK  8 active torsions:
REMARK  status: ('A' for Active; 'I' for Inactive)
REMARK    1  A    between atoms: C2_2  and  C3_3 
REMARK    2  A    between atoms: C3_3  and  C4_4 
REMARK    3  A    between atoms: C7_7  and  C8_8 
REMARK    4  A    between atoms: C10_10  and  N1_11 
REMARK    5  A    between atoms: N1_11  and  C11_13 
REMARK    6  A    between atoms: C11_13  and  C12_14 
REMARK    7  A    between atoms: C14_18  and  C15_19 
REMARK    8  A    between atoms: C15_19  and  C16_21 
ROOT
HETATM    1  N1  UNL     1      16.495 -11.608  18.658  1.00  0.00    -0.369 N 
ATOM      2  H1  UNL     1      16.342 -10.633  18.400  1.00  0.00     0.161 HD
ENDROOT
BRANCH   1   3
HETATM    3  C10 UNL     1      17.641 -11.992  19.093  1.00  0.00     0.104 A 
HETATM    4  C9  UNL     1      17.815 -12.428  20.389  1.00  0.00     0.078 A 
HETATM    5  C8  UNL     1      19.055 -12.840  20.842  1.00  0.00     0.046 A 
HETATM    6  N5  UNL     1      20.101 -12.800  19.963  1.00  0.00    -0.352 N 
HETATM    7  C23 UNL     1      19.933 -12.378  18.714  1.00  0.00     0.182 A 
ATOM      8  H5  UNL     1      21.027 -13.098  20.271  1.00  0.00     0.166 HD
HETATM    9  N4  UNL     1      18.706 -11.975  18.278  1.00  0.00    -0.339 N 
ATOM     10  H4  UNL     1      18.596 -11.655  17.316  1.00  0.00     0.168 HD
BRANCH   5  11
HETATM   11  C7  UNL     1      19.300 -13.318  22.197  1.00  0.00    -0.009 A 
HETATM   12  C6  UNL     1      18.239 -13.636  23.009  1.00  0.00     0.014 A 
HETATM   13  C5  UNL     1      18.406 -14.091  24.310  1.00  0.00     0.008 A 
HETATM   14  C4  UNL     1      19.686 -14.227  24.797  1.00  0.00    -0.058 A 
HETATM   15  C25 UNL     1      20.746 -13.907  23.980  1.00  0.00     0.008 A 
HETATM   16  C24 UNL     1      20.574 -13.448  22.670  1.00  0.00     0.014 A 
BRANCH  14  17
HETATM   17  C3  UNL     1      19.905 -14.714  26.199  1.00  0.00     0.038 C 
BRANCH  17  18
HETATM   18  C2  UNL     1      21.191 -14.143  26.723  1.00  0.00     0.000 C 
HETATM   19  C1  UNL     1      20.972 -12.692  27.115  1.00  0.00     0.005 C 
ENDBRANCH  17  18
ENDBRANCH  14  17
ENDBRANCH   5  11
ENDBRANCH   1   3
BRANCH   1  20
HETATM   20  C11 UNL     1      15.432 -12.563  18.538  1.00  0.00     0.197 C 
BRANCH  20  21
HETATM   21  C12 UNL     1      14.537 -12.632  19.722  1.00  0.00     0.101 A 
HETATM   22  N2  UNL     1      14.553 -13.661  20.619  1.00  0.00    -0.352 N 
HETATM   23  C13 UNL     1      13.627 -13.423  21.554  1.00  0.00     0.123 A 
ATOM     24  H2  UNL     1      15.168 -14.474  20.583  1.00  0.00     0.166 HD
HETATM   25  C14 UNL     1      12.994 -12.216  21.258  1.00  0.00     0.102 A 
HETATM   26  N3  UNL     1      13.589 -11.786  20.141  1.00  0.00    -0.335 N 
HETATM   27  C22 UNL     1      13.272 -10.540  19.495  1.00  0.00     0.158 C 
BRANCH  25  28
HETATM   28  C15 UNL     1      11.946 -11.677  22.091  1.00  0.00     0.210 C 
HETATM   29  O1  UNL     1      10.819 -12.296  22.130  1.00  0.00    -0.285 OA
BRANCH  28  30
HETATM   30  C16 UNL     1      12.012 -10.492  22.908  1.00  0.00     0.017 A 
HETATM   31  C17 UNL     1      11.229 -10.364  24.044  1.00  0.00     0.018 A 
HETATM   32  C18 UNL     1      11.254  -9.230  24.826  1.00  0.00     0.043 A 
HETATM   33  C19 UNL     1      12.074  -8.181  24.484  1.00  0.00     0.116 A 
HETATM   34  F1  UNL     1      12.129  -7.040  25.229  1.00  0.00    -0.206 F 
HETATM   35  C20 UNL     1      12.868  -8.274  23.357  1.00  0.00     0.043 A 
HETATM   36  C21 UNL     1      12.816  -9.414  22.606  1.00  0.00     0.018 A 
ENDBRANCH  28  30
ENDBRANCH  25  28
ENDBRANCH  20  21
ENDBRANCH   1  20
TORSDOF 8
ENDMDL
MODEL 5
REMARK VINA RESULT: -8.760949549      2.143      2.958
REMARK  8 active torsions:
REMARK  status: ('A' for Active; 'I' for Inactive)
REMARK    1  A    between atoms: C2_2  and  C3_3 
REMARK    2  A    between atoms: C3_3  and  C4_4 
REMARK    3  A    between atoms: C7_7  and  C8_8 
REMARK    4  A    between atoms: C10_10  and  N1_11 
REMARK    5  A    between atoms: N1_11  and  C11_13 
REMARK    6  A    between atoms: C11_13  and  C12_14 
REMARK    7  A    between atoms: C14_18  and  C15_19 
REMARK    8  A    between atoms: C15_19  and  C16_21 
ROOT
HETATM    1  N1  UNL     1      16.146 -14.724  19.296  1.00  0.00    -0.369 N 
ATOM      2  H1  UNL     1      15.836 -15.280  18.499  1.00  0.00     0.161 HD
ENDROOT
BRANCH   1   3
HETATM    3  C10 UNL     1      16.218 -15.250  20.465  1.00  0.00     0.104 A 
HETATM    4  C9  UNL     1      17.080 -14.766  21.427  1.00  0.00     0.078 A 
HETATM    5  C8  UNL     1      17.144 -15.343  22.682  1.00  0.00     0.046 A 
HETATM    6  N5  UNL     1      16.326 -16.407  22.938  1.00  0.00    -0.352 N 
HETATM    7  C23 UNL     1      15.496 -16.874  22.011  1.00  0.00     0.182 A 
ATOM      8  H5  UNL     1      16.354 -16.851  23.856  1.00  0.00     0.166 HD
HETATM    9  N4  UNL     1      15.441 -16.298  20.777  1.00  0.00    -0.339 N 
ATOM     10  H4  UNL     1      14.797 -16.670  20.078  1.00  0.00     0.168 HD
BRANCH   5  11
HETATM   11  C7  UNL     1      18.029 -14.871  23.741  1.00  0.00    -0.009 A 
HETATM   12  C6  UNL     1      18.949 -13.888  23.471  1.00  0.00     0.014 A 
HETATM   13  C5  UNL     1      19.823 -13.400  24.434  1.00  0.00     0.008 A 
HETATM   14  C4  UNL     1      19.757 -13.926  25.705  1.00  0.00    -0.058 A 
HETATM   15  C25 UNL     1      18.833 -14.911  25.970  1.00  0.00     0.008 A 
HETATM   16  C24 UNL     1      17.955 -15.400  24.997  1.00  0.00     0.014 A 
BRANCH  14  17
HETATM   17  C3  UNL     1      20.686 -13.426  26.770  1.00  0.00     0.038 C 
BRANCH  17  18
HETATM   18  C2  UNL     1      22.099 -13.770  26.393  1.00  0.00     0.000 C 
HETATM   19  C1  UNL     1      22.201 -15.266  26.151  1.00  0.00     0.005 C 
ENDBRANCH  17  18
ENDBRANCH  14  17
ENDBRANCH   5  11
ENDBRANCH   1   3
BRANCH   1  20
HETATM   20  C11 UNL     1      16.506 -13.346  19.121  1.00  0.00     0.197 C 
BRANCH  20  21
HETATM   21  C12 UNL     1      15.358 -12.405  19.171  1.00  0.00     0.101 A 
HETATM   22  N2  UNL     1      14.579 -12.107  18.091  1.00  0.00    -0.352 N 
HETATM   23  C13 UNL     1      13.646 -11.227  18.469  1.00  0.00     0.123 A 
ATOM     24  H2  UNL     1      14.691 -12.490  17.152  1.00  0.00     0.166 HD
HETATM   25  C14 UNL     1      13.821 -10.945  19.823  1.00  0.00     0.102 A 
HETATM   26  N3  UNL     1      14.870 -11.689  20.191  1.00  0.00    -0.335 N 
HETATM   27  C22 UNL     1      15.382 -11.739  21.535  1.00  0.00     0.158 C 
BRANCH  25  28
HETATM   28  C15 UNL     1      12.959 -10.032  20.533  1.00  0.00     0.210 C 
HETATM   29  O1  UNL     1      12.682  -8.902  19.983  1.00  0.00    -0.285 OA
BRANCH  28  30
HETATM   30  C16 UNL     1      12.354 -10.238  21.824  1.00  0.00     0.017 A 
HETATM   31  C17 UNL     1      12.394  -9.252  22.797  1.00  0.00     0.018 A 
HETATM   32  C18 UNL     1      11.847  -9.435  24.048  1.00  0.00     0.043 A 
HETATM   33  C19 UNL     1      11.239 -10.628  24.361  1.00  0.00     0.116 A 
HETATM   34  F1  UNL     1      10.685 -10.851  25.587  1.00  0.00    -0.206 F 
HETATM   35  C20 UNL     1      11.181 -11.634  23.415  1.00  0.00     0.043 A 
HETATM   36  C21 UNL     1      11.734 -11.415  22.186  1.00  0.00     0.018 A 
ENDBRANCH  28  30
ENDBRANCH  25  28
ENDBRANCH  20  21
ENDBRANCH   1  20
TORSDOF 8
ENDMDL
