MODEL 1
REMARK VINA RESULT: -6.405549863      0.000      0.000
REMARK  10 active torsions:
REMARK  status: ('A' for Active; 'I' for Inactive)
REMARK    1  A    between atoms: C3_3  and  N1_4 
REMARK    2  A    between atoms: N1_4  and  C4_5 
REMARK    3  A    between atoms: N1_4  and  C12_19 
REMARK    4  A    between atoms: C4_5  and  C5_6 
REMARK    5  A    between atoms: C5_6  and  C6_7 
REMARK    6  A    between atoms: C6_7  and  C7_8 
REMARK    7  A    between atoms: C12_19  and  C13_20 
REMARK    8  A    between atoms: C13_20  and  C14_21 
REMARK    9  A    between atoms: C14_21  and  C15_22 
REMARK   10  A    between atoms: C14_21  and  C18_25 
ROOT
HETATM    1  C1  UNL     1      25.658  45.792   1.919  1.00  0.00     0.013 C 
HETATM    2  C2  UNL     1      24.790  45.461   1.129  1.00  0.00    -0.087 C 
HETATM    3  C3  UNL     1      23.733  45.091   0.195  1.00  0.00     0.364 C 
ENDROOT
BRANCH   3   4
HETATM    4  N1  UNL     1      24.220  43.952  -0.592  1.00  0.00     0.099 N 
BRANCH   4   5
HETATM    5  C4  UNL     1      23.841  42.717   0.118  1.00  0.00     0.274 C 
BRANCH   5   6
HETATM    6  C5  UNL     1      22.399  42.644   0.470  1.00  0.00     0.035 C 
BRANCH   6   7
HETATM    7  C6  UNL     1      22.278  42.141   1.906  1.00  0.00     0.048 C 
BRANCH   7   8
HETATM    8  C7  UNL     1      22.378  43.207   2.909  1.00  0.00     0.032 A 
HETATM    9  C8  UNL     1      23.484  43.281   3.731  1.00  0.00     0.021 A 
HETATM   10  C9  UNL     1      24.594  42.299   3.648  1.00  0.00     0.069 C 
HETATM   11  N2  UNL     1      23.590  44.271   4.656  1.00  0.00    -0.312 N 
HETATM   12  C10 UNL     1      22.617  45.172   4.768  1.00  0.00     0.327 A 
ATOM     13  H2  UNL     1      24.409  44.322   5.261  1.00  0.00     0.170 HD
HETATM   14  O1  UNL     1      22.737  46.091   5.644  1.00  0.00    -0.247 OA
HETATM   15  N3  UNL     1      21.539  45.106   3.974  1.00  0.00    -0.275 N 
HETATM   16  C11 UNL     1      21.380  44.153   3.042  1.00  0.00     0.257 A 
ATOM     17  H3  UNL     1      20.809  45.809   4.082  1.00  0.00     0.173 HD
HETATM   18  O2  UNL     1      20.336  44.130   2.307  1.00  0.00    -0.267 OA
ENDBRANCH   7   8
ENDBRANCH   6   7
ENDBRANCH   5   6
ENDBRANCH   4   5
BRANCH   4  19
HETATM   19  C12 UNL     1      23.607  43.963  -1.908  1.00  0.00     0.275 C 
BRANCH  19  20
HETATM   20  C13 UNL     1      23.345  45.315  -2.437  1.00  0.00     0.053 C 
BRANCH  20  21
HETATM   21  C14 UNL     1      21.997  45.652  -2.952  1.00  0.00     0.118 C 
BRANCH  21  22
HETATM   22  C15 UNL     1      20.915  45.005  -2.226  1.00  0.00    -0.096 C 
HETATM   23  C16 UNL     1      20.016  44.472  -1.582  1.00  0.00    -0.110 C 
HETATM   24  C17 UNL     1      18.951  43.849  -0.791  1.00  0.00     0.112 C 
ENDBRANCH  21  22
BRANCH  21  25
HETATM   25  C18 UNL     1      21.854  45.492  -4.414  1.00  0.00     0.044 A 
HETATM   26  C19 UNL     1      21.785  44.233  -4.962  1.00  0.00     0.117 A 
HETATM   27  N4  UNL     1      21.660  44.007  -6.271  1.00  0.00    -0.356 N 
HETATM   28  C20 UNL     1      21.586  42.664  -6.813  1.00  0.00     0.156 C 
HETATM   29  C21 UNL     1      21.596  45.061  -7.108  1.00  0.00     0.078 A 
HETATM   30  C22 UNL     1      21.663  46.347  -6.598  1.00  0.00     0.135 A 
HETATM   31  C27 UNL     1      21.458  44.823  -8.548  1.00  0.00     0.036 A 
HETATM   32  N5  UNL     1      21.792  46.535  -5.244  1.00  0.00    -0.337 N 
HETATM   33  N6  UNL     1      21.598  47.459  -7.456  1.00  0.00    -0.341 N 
HETATM   34  C23 UNL     1      21.868  47.887  -4.806  1.00  0.00     0.158 C 
HETATM   35  C24 UNL     1      21.463  47.225  -8.869  1.00  0.00     0.024 A 
ATOM     36  H6  UNL     1      21.645  48.408  -7.086  1.00  0.00     0.167 HD
HETATM   37  C25 UNL     1      21.405  48.272  -9.651  1.00  0.00     0.043 C 
HETATM   38  C26 UNL     1      21.395  45.853  -9.372  1.00  0.00     0.031 A 
ENDBRANCH  21  25
ENDBRANCH  20  21
ENDBRANCH  19  20
ENDBRANCH   4  19
ENDBRANCH   3   4
TORSDOF 10
ENDMDL
MODEL 2
REMARK VINA RESULT: -6.354263906      2.088      2.886
REMARK  10 active torsions:
REMARK  status: ('A' for Active; 'I' for Inactive)
REMARK    1  A    between atoms: C3_3  and  N1_4 
REMARK    2  A    between atoms: N1_4  and  C4_5 
REMARK    3  A    between atoms: N1_4  and  C12_19 
REMARK    4  A    between atoms: C4_5  and  C5_6 
REMARK    5  A    between atoms: C5_6  and  C6_7 
REMARK    6  A    between atoms: C6_7  and  C7_8 
REMARK    7  A    between atoms: C12_19  and  C13_20 
REMARK    8  A    between atoms: C13_20  and  C14_21 
REMARK    9  A    between atoms: C14_21  and  C15_22 
REMARK   10  A    between atoms: C14_21  and  C18_25 
ROOT
HETATM    1  C1  UNL     1      22.202  40.964  -2.461  1.00  0.00     0.013 C 
HETATM    2  C2  UNL     1      22.990  41.858  -2.202  1.00  0.00    -0.087 C 
HETATM    3  C3  UNL     1      23.946  42.922  -1.922  1.00  0.00     0.364 C 
ENDROOT
BRANCH   3   4
HETATM    4  N1  UNL     1      23.533  43.569  -0.671  1.00  0.00     0.099 N 
BRANCH   4   5
HETATM    5  C4  UNL     1      24.534  43.241   0.360  1.00  0.00     0.274 C 
BRANCH   5   6
HETATM    6  C5  UNL     1      24.386  44.027   1.613  1.00  0.00     0.035 C 
BRANCH   6   7
HETATM    7  C6  UNL     1      25.778  44.331   2.158  1.00  0.00     0.048 C 
BRANCH   7   8
HETATM    8  C7  UNL     1      25.827  45.533   2.998  1.00  0.00     0.032 A 
HETATM    9  C8  UNL     1      25.963  45.415   4.366  1.00  0.00     0.021 A 
HETATM   10  C9  UNL     1      26.052  44.094   5.037  1.00  0.00     0.069 C 
HETATM   11  N2  UNL     1      26.018  46.523   5.152  1.00  0.00    -0.312 N 
HETATM   12  C10 UNL     1      25.939  47.728   4.594  1.00  0.00     0.327 A 
ATOM     13  H2  UNL     1      26.119  46.431   6.162  1.00  0.00     0.170 HD
HETATM   14  O1  UNL     1      25.993  48.753   5.350  1.00  0.00    -0.247 OA
HETATM   15  N3  UNL     1      25.806  47.851   3.265  1.00  0.00    -0.275 N 
HETATM   16  C11 UNL     1      25.747  46.794   2.440  1.00  0.00     0.257 A 
ATOM     17  H3  UNL     1      25.747  48.787   2.865  1.00  0.00     0.173 HD
HETATM   18  O2  UNL     1      25.621  46.960   1.180  1.00  0.00    -0.267 OA
ENDBRANCH   7   8
ENDBRANCH   6   7
ENDBRANCH   5   6
ENDBRANCH   4   5
BRANCH   4  19
HETATM   19  C12 UNL     1      23.478  45.008  -0.854  1.00  0.00     0.275 C 
BRANCH  19  20
HETATM   20  C13 UNL     1      23.338  45.430  -2.261  1.00  0.00     0.053 C 
BRANCH  20  21
HETATM   21  C14 UNL     1      21.996  45.753  -2.798  1.00  0.00     0.118 C 
BRANCH  21  22
HETATM   22  C15 UNL     1      20.907  45.121  -2.071  1.00  0.00    -0.096 C 
HETATM   23  C16 UNL     1      20.008  44.589  -1.428  1.00  0.00    -0.110 C 
HETATM   24  C17 UNL     1      18.947  43.958  -0.636  1.00  0.00     0.112 C 
ENDBRANCH  21  22
BRANCH  21  25
HETATM   25  C18 UNL     1      21.871  45.563  -4.259  1.00  0.00     0.044 A 
HETATM   26  C19 UNL     1      21.808  44.292  -4.780  1.00  0.00     0.117 A 
HETATM   27  N4  UNL     1      21.698  44.037  -6.085  1.00  0.00    -0.356 N 
HETATM   28  C20 UNL     1      21.630  42.683  -6.598  1.00  0.00     0.156 C 
HETATM   29  C21 UNL     1      21.645  45.073  -6.945  1.00  0.00     0.078 A 
HETATM   30  C22 UNL     1      21.707  46.370  -6.462  1.00  0.00     0.135 A 
HETATM   31  C27 UNL     1      21.523  44.804  -8.381  1.00  0.00     0.036 A 
HETATM   32  N5  UNL     1      21.820  46.587  -5.112  1.00  0.00    -0.337 N 
HETATM   33  N6  UNL     1      21.652  47.463  -7.345  1.00  0.00    -0.341 N 
HETATM   34  C23 UNL     1      21.891  47.948  -4.702  1.00  0.00     0.158 C 
HETATM   35  C24 UNL     1      21.534  47.198  -8.754  1.00  0.00     0.024 A 
ATOM     36  H6  UNL     1      21.695  48.420  -6.995  1.00  0.00     0.167 HD
HETATM   37  C25 UNL     1      21.485  48.229  -9.560  1.00  0.00     0.043 C 
HETATM   38  C26 UNL     1      21.471  45.816  -9.228  1.00  0.00     0.031 A 
ENDBRANCH  21  25
ENDBRANCH  20  21
ENDBRANCH  19  20
ENDBRANCH   4  19
ENDBRANCH   3   4
TORSDOF 10
ENDMDL
MODEL 3
REMARK VINA RESULT: -6.308013255      0.903      1.427
REMARK  10 active torsions:
REMARK  status: ('A' for Active; 'I' for Inactive)
REMARK    1  A    between atoms: C3_3  and  N1_4 
REMARK    2  A    between atoms: N1_4  and  C4_5 
REMARK    3  A    between atoms: N1_4  and  C12_19 
REMARK    4  A    between atoms: C4_5  and  C5_6 
REMARK    5  A    between atoms: C5_6  and  C6_7 
REMARK    6  A    between atoms: C6_7  and  C7_8 
REMARK    7  A    between atoms: C12_19  and  C13_20 
REMARK    8  A    between atoms: C13_20  and  C14_21 
REMARK    9  A    between atoms: C14_21  and  C15_22 
REMARK   10  A    between atoms: C14_21  and  C18_25 
ROOT
HETATM    1  C1  UNL     1      25.713  45.830   1.902  1.00  0.00     0.013 C 
HETATM    2  C2  UNL     1      24.818  45.494   1.144  1.00  0.00    -0.087 C 
HETATM    3  C3  UNL     1      23.732  45.119   0.247  1.00  0.00     0.364 C 
ENDROOT
BRANCH   3   4
HETATM    4  N1  UNL     1      24.174  43.947  -0.517  1.00  0.00     0.099 N 
BRANCH   4   5
HETATM    5  C4  UNL     1      23.714  42.742   0.198  1.00  0.00     0.274 C 
BRANCH   5   6
HETATM    6  C5  UNL     1      22.310  42.826   0.675  1.00  0.00     0.035 C 
BRANCH   6   7
HETATM    7  C6  UNL     1      22.250  42.275   2.098  1.00  0.00     0.048 C 
BRANCH   7   8
HETATM    8  C7  UNL     1      22.641  43.252   3.119  1.00  0.00     0.032 A 
HETATM    9  C8  UNL     1      21.775  44.266   3.474  1.00  0.00     0.021 A 
HETATM   10  C9  UNL     1      20.441  44.419   2.840  1.00  0.00     0.069 C 
HETATM   11  N2  UNL     1      22.125  45.171   4.426  1.00  0.00    -0.312 N 
HETATM   12  C10 UNL     1      23.312  45.074   5.018  1.00  0.00     0.327 A 
ATOM     13  H2  UNL     1      21.482  45.918   4.685  1.00  0.00     0.170 HD
HETATM   14  O1  UNL     1      23.620  45.933   5.909  1.00  0.00    -0.247 OA
HETATM   15  N3  UNL     1      24.160  44.091   4.680  1.00  0.00    -0.275 N 
HETATM   16  C11 UNL     1      23.869  43.170   3.748  1.00  0.00     0.257 A 
ATOM     17  H3  UNL     1      25.063  44.042   5.149  1.00  0.00     0.173 HD
HETATM   18  O2  UNL     1      24.707  42.251   3.459  1.00  0.00    -0.267 OA
ENDBRANCH   7   8
ENDBRANCH   6   7
ENDBRANCH   5   6
ENDBRANCH   4   5
BRANCH   4  19
HETATM   19  C12 UNL     1      23.592  43.974  -1.846  1.00  0.00     0.275 C 
BRANCH  19  20
HETATM   20  C13 UNL     1      23.338  45.332  -2.363  1.00  0.00     0.053 C 
BRANCH  20  21
HETATM   21  C14 UNL     1      21.995  45.678  -2.883  1.00  0.00     0.118 C 
BRANCH  21  22
HETATM   22  C15 UNL     1      20.905  45.052  -2.151  1.00  0.00    -0.096 C 
HETATM   23  C16 UNL     1      19.994  44.543  -1.505  1.00  0.00    -0.110 C 
HETATM   24  C17 UNL     1      18.911  43.953  -0.712  1.00  0.00     0.112 C 
ENDBRANCH  21  22
BRANCH  21  25
HETATM   25  C18 UNL     1      21.852  45.504  -4.344  1.00  0.00     0.044 A 
HETATM   26  C19 UNL     1      21.769  44.240  -4.878  1.00  0.00     0.117 A 
HETATM   27  N4  UNL     1      21.643  44.000  -6.185  1.00  0.00    -0.356 N 
HETATM   28  C20 UNL     1      21.556  42.652  -6.711  1.00  0.00     0.156 C 
HETATM   29  C21 UNL     1      21.593  45.046  -7.033  1.00  0.00     0.078 A 
HETATM   30  C22 UNL     1      21.673  46.337  -6.537  1.00  0.00     0.135 A 
HETATM   31  C27 UNL     1      21.453  44.793  -8.470  1.00  0.00     0.036 A 
HETATM   32  N5  UNL     1      21.803  46.538  -5.186  1.00  0.00    -0.337 N 
HETATM   33  N6  UNL     1      21.621  47.439  -7.407  1.00  0.00    -0.341 N 
HETATM   34  C23 UNL     1      21.893  47.894  -4.762  1.00  0.00     0.158 C 
HETATM   35  C24 UNL     1      21.485  47.191  -8.818  1.00  0.00     0.024 A 
ATOM     36  H6  UNL     1      21.678  48.392  -7.048  1.00  0.00     0.167 HD
HETATM   37  C25 UNL     1      21.439  48.230  -9.612  1.00  0.00     0.043 C 
HETATM   38  C26 UNL     1      21.403  45.815  -9.306  1.00  0.00     0.031 A 
ENDBRANCH  21  25
ENDBRANCH  20  21
ENDBRANCH  19  20
ENDBRANCH   4  19
ENDBRANCH   3   4
TORSDOF 10
ENDMDL
MODEL 4
REMARK VINA RESULT: -6.228567456      3.852     10.100
REMARK  10 active torsions:
REMARK  status: ('A' for Active; 'I' for Inactive)
REMARK    1  A    between atoms: C3_3  and  N1_4 
REMARK    2  A    between atoms: N1_4  and  C4_5 
REMARK    3  A    between atoms: N1_4  and  C12_19 
REMARK    4  A    between atoms: C4_5  and  C5_6 
REMARK    5  A    between atoms: C5_6  and  C6_7 
REMARK    6  A    between atoms: C6_7  and  C7_8 
REMARK    7  A    between atoms: C12_19  and  C13_20 
REMARK    8  A    between atoms: C13_20  and  C14_21 
REMARK    9  A    between atoms: C14_21  and  C15_22 
REMARK   10  A    between atoms: C14_21  and  C18_25 
ROOT
HETATM    1  C1  UNL     1      21.981  49.924  -4.613  1.00  0.00     0.013 C 
HETATM    2  C2  UNL     1      22.277  48.950  -5.285  1.00  0.00    -0.087 C 
HETATM    3  C3  UNL     1      22.653  47.803  -6.103  1.00  0.00     0.364 C 
ENDROOT
BRANCH   3   4
HETATM    4  N1  UNL     1      21.864  46.655  -5.644  1.00  0.00     0.099 N 
BRANCH   4   5
HETATM    5  C4  UNL     1      22.161  45.517  -6.533  1.00  0.00     0.274 C 
BRANCH   5   6
HETATM    6  C5  UNL     1      23.309  45.752  -7.446  1.00  0.00     0.035 C 
BRANCH   6   7
HETATM    7  C6  UNL     1      22.868  45.418  -8.869  1.00  0.00     0.048 C 
BRANCH   7   8
HETATM    8  C7  UNL     1      22.068  46.476  -9.496  1.00  0.00     0.032 A 
HETATM    9  C8  UNL     1      20.727  46.271  -9.749  1.00  0.00     0.021 A 
HETATM   10  C9  UNL     1      20.051  44.992  -9.416  1.00  0.00     0.069 C 
HETATM   11  N2  UNL     1      19.976  47.248 -10.320  1.00  0.00    -0.312 N 
HETATM   12  C10 UNL     1      20.540  48.410 -10.638  1.00  0.00     0.327 A 
ATOM     13  H2  UNL     1      18.985  47.092 -10.505  1.00  0.00     0.170 HD
HETATM   14  O1  UNL     1      19.817  49.312 -11.174  1.00  0.00    -0.247 OA
HETATM   15  N3  UNL     1      21.843  48.617 -10.396  1.00  0.00    -0.275 N 
HETATM   16  C11 UNL     1      22.634  47.690  -9.834  1.00  0.00     0.257 A 
ATOM     17  H3  UNL     1      22.250  49.517 -10.651  1.00  0.00     0.173 HD
HETATM   18  O2  UNL     1      23.870  47.933  -9.621  1.00  0.00    -0.267 OA
ENDBRANCH   7   8
ENDBRANCH   6   7
ENDBRANCH   5   6
ENDBRANCH   4   5
BRANCH   4  19
HETATM   19  C12 UNL     1      22.232  46.316  -4.281  1.00  0.00     0.275 C 
BRANCH  19  20
HETATM   20  C13 UNL     1      21.165  45.636  -3.522  1.00  0.00     0.053 C 
BRANCH  20  21
HETATM   21  C14 UNL     1      21.454  44.351  -2.844  1.00  0.00     0.118 C 
BRANCH  21  22
HETATM   22  C15 UNL     1      21.059  43.182  -3.614  1.00  0.00    -0.096 C 
HETATM   23  C16 UNL     1      20.745  42.176  -4.242  1.00  0.00    -0.110 C 
HETATM   24  C17 UNL     1      20.383  40.957  -4.973  1.00  0.00     0.112 C 
ENDBRANCH  21  22
BRANCH  21  25
HETATM   25  C18 UNL     1      20.970  44.284  -1.449  1.00  0.00     0.044 A 
HETATM   26  C19 UNL     1      19.621  44.203  -1.196  1.00  0.00     0.117 A 
HETATM   27  N4  UNL     1      19.106  44.142   0.034  1.00  0.00    -0.356 N 
HETATM   28  C20 UNL     1      17.677  44.053   0.262  1.00  0.00     0.156 C 
HETATM   29  C21 UNL     1      19.944  44.161   1.088  1.00  0.00     0.078 A 
HETATM   30  C22 UNL     1      21.311  44.243   0.878  1.00  0.00     0.135 A 
HETATM   31  C27 UNL     1      19.389  44.094   2.443  1.00  0.00     0.036 A 
HETATM   32  N5  UNL     1      21.798  44.304  -0.404  1.00  0.00    -0.337 N 
HETATM   33  N6  UNL     1      22.200  44.263   1.967  1.00  0.00    -0.341 N 
HETATM   34  C23 UNL     1      23.212  44.401  -0.530  1.00  0.00     0.158 C 
HETATM   35  C24 UNL     1      21.655  44.198   3.296  1.00  0.00     0.024 A 
ATOM     36  H6  UNL     1      23.207  44.321   1.818  1.00  0.00     0.167 HD
HETATM   37  C25 UNL     1      22.498  44.219   4.297  1.00  0.00     0.043 C 
HETATM   38  C26 UNL     1      20.206  44.112   3.481  1.00  0.00     0.031 A 
ENDBRANCH  21  25
ENDBRANCH  20  21
ENDBRANCH  19  20
ENDBRANCH   4  19
ENDBRANCH   3   4
TORSDOF 10
ENDMDL
MODEL 5
REMARK VINA RESULT: -6.172453920      2.334      3.394
REMARK  10 active torsions:
REMARK  status: ('A' for Active; 'I' for Inactive)
REMARK    1  A    between atoms: C3_3  and  N1_4 
REMARK    2  A    between atoms: N1_4  and  C4_5 
REMARK    3  A    between atoms: N1_4  and  C12_19 
REMARK    4  A    between atoms: C4_5  and  C5_6 
REMARK    5  A    between atoms: C5_6  and  C6_7 
REMARK    6  A    between atoms: C6_7  and  C7_8 
REMARK    7  A    between atoms: C12_19  and  C13_20 
REMARK    8  A    between atoms: C13_20  and  C14_21 
REMARK    9  A    between atoms: C14_21  and  C15_22 
REMARK   10  A    between atoms: C14_21  and  C18_25 
ROOT
HETATM    1  C1  UNL     1      19.812  44.842   0.038  1.00  0.00     0.013 C 
HETATM    2  C2  UNL     1      20.784  44.177   0.354  1.00  0.00    -0.087 C 
HETATM    3  C3  UNL     1      21.930  43.371   0.758  1.00  0.00     0.364 C 
ENDROOT
BRANCH   3   4
HETATM    4  N1  UNL     1      22.948  43.495  -0.292  1.00  0.00     0.099 N 
BRANCH   4   5
HETATM    5  C4  UNL     1      24.271  43.504   0.360  1.00  0.00     0.274 C 
BRANCH   5   6
HETATM    6  C5  UNL     1      24.233  43.902   1.791  1.00  0.00     0.035 C 
BRANCH   6   7
HETATM    7  C6  UNL     1      25.656  44.224   2.240  1.00  0.00     0.048 C 
BRANCH   7   8
HETATM    8  C7  UNL     1      25.751  45.445   3.048  1.00  0.00     0.032 A 
HETATM    9  C8  UNL     1      25.917  45.357   4.415  1.00  0.00     0.021 A 
HETATM   10  C9  UNL     1      25.992  44.051   5.117  1.00  0.00     0.069 C 
HETATM   11  N2  UNL     1      26.015  46.482   5.171  1.00  0.00    -0.312 N 
HETATM   12  C10 UNL     1      25.950  47.675   4.586  1.00  0.00     0.327 A 
ATOM     13  H2  UNL     1      26.138  46.413   6.181  1.00  0.00     0.170 HD
HETATM   14  O1  UNL     1      26.045  48.717   5.314  1.00  0.00    -0.247 OA
HETATM   15  N3  UNL     1      25.789  47.768   3.257  1.00  0.00    -0.275 N 
HETATM   16  C11 UNL     1      25.686  46.693   2.460  1.00  0.00     0.257 A 
ATOM     17  H3  UNL     1      25.741  48.695   2.835  1.00  0.00     0.173 HD
HETATM   18  O2  UNL     1      25.534  46.831   1.200  1.00  0.00    -0.267 OA
ENDBRANCH   7   8
ENDBRANCH   6   7
ENDBRANCH   5   6
ENDBRANCH   4   5
BRANCH   4  19
HETATM   19  C12 UNL     1      22.862  42.365  -1.200  1.00  0.00     0.275 C 
BRANCH  19  20
HETATM   20  C13 UNL     1      22.829  42.741  -2.626  1.00  0.00     0.053 C 
BRANCH  20  21
HETATM   21  C14 UNL     1      21.563  43.218  -3.228  1.00  0.00     0.118 C 
BRANCH  21  22
HETATM   22  C15 UNL     1      20.659  42.146  -3.614  1.00  0.00    -0.096 C 
HETATM   23  C16 UNL     1      19.923  41.227  -3.960  1.00  0.00    -0.110 C 
HETATM   24  C17 UNL     1      19.065  40.116  -4.383  1.00  0.00     0.112 C 
ENDBRANCH  21  22
BRANCH  21  25
HETATM   25  C18 UNL     1      21.747  44.205  -4.313  1.00  0.00     0.044 A 
HETATM   26  C19 UNL     1      21.666  43.802  -5.625  1.00  0.00     0.117 A 
HETATM   27  N4  UNL     1      21.823  44.631  -6.659  1.00  0.00    -0.356 N 
HETATM   28  C20 UNL     1      21.727  44.171  -8.031  1.00  0.00     0.156 C 
HETATM   29  C21 UNL     1      22.074  45.932  -6.414  1.00  0.00     0.078 A 
HETATM   30  C22 UNL     1      22.165  46.380  -5.106  1.00  0.00     0.135 A 
HETATM   31  C27 UNL     1      22.247  46.851  -7.544  1.00  0.00     0.036 A 
HETATM   32  N5  UNL     1      21.996  45.493  -4.073  1.00  0.00    -0.337 N 
HETATM   33  N6  UNL     1      22.425  47.734  -4.833  1.00  0.00    -0.341 N 
HETATM   34  C23 UNL     1      22.119  46.033  -2.761  1.00  0.00     0.158 C 
HETATM   35  C24 UNL     1      22.596  48.635  -5.941  1.00  0.00     0.024 A 
ATOM     36  H6  UNL     1      22.491  48.069  -3.872  1.00  0.00     0.167 HD
HETATM   37  C25 UNL     1      22.838  49.891  -5.666  1.00  0.00     0.043 C 
HETATM   38  C26 UNL     1      22.493  48.127  -7.309  1.00  0.00     0.031 A 
ENDBRANCH  21  25
ENDBRANCH  20  21
ENDBRANCH  19  20
ENDBRANCH   4  19
ENDBRANCH   3   4
TORSDOF 10
ENDMDL
