MODEL 1
REMARK VINA RESULT: -9.951507481      0.000      0.000
REMARK  11 active torsions:
REMARK  status: ('A' for Active; 'I' for Inactive)
REMARK    1  A    between atoms: C1_2  and  C2_4 
REMARK    2  A    between atoms: C2_4  and  C3_5 
REMARK    3  A    between atoms: C3_5  and  C4_6 
REMARK    4  A    between atoms: C4_6  and  C5_7 
REMARK    5  A    between atoms: C5_7  and  C6_8 
REMARK    6  A    between atoms: C6_8  and  O3_9 
REMARK    7  A    between atoms: O3_9  and  C7_10 
REMARK    8  A    between atoms: C11_15  and  C12_16 
REMARK    9  A    between atoms: C17_21  and  C18_22 
REMARK   10  A    between atoms: C19_28  and  C20_29 
REMARK   11  A    between atoms: C20_29  and  C21_30 
ROOT
HETATM    1  C12 UNL     1      59.285  41.373  22.951  1.00  0.00     0.023 A 
HETATM    2  C13 UNL     1      58.210  41.366  22.031  1.00  0.00     0.026 A 
HETATM    3  C14 UNL     1      56.944  41.392  22.517  1.00  0.00     0.004 A 
HETATM    4  C15 UNL     1      56.740  41.424  23.872  1.00  0.00     0.032 A 
HETATM    5  C16 UNL     1      57.806  41.432  24.741  1.00  0.00     0.072 A 
HETATM    6  C17 UNL     1      57.866  41.483  26.114  1.00  0.00     0.145 A 
HETATM    7  N1  UNL     1      59.122  41.487  26.436  1.00  0.00    -0.340 N 
ATOM      8  H1  UNL     1      59.465  41.522  27.397  1.00  0.00     0.167 HD
HETATM    9  C19 UNL     1      59.944  41.437  25.323  1.00  0.00     0.097 A 
HETATM   10  N2  UNL     1      59.104  41.405  24.283  1.00  0.00    -0.302 N 
ENDROOT
BRANCH   1  11
HETATM   11  C11 UNL     1      60.651  41.385  22.350  1.00  0.00     0.041 C 
HETATM   12  C10 UNL     1      60.841  39.980  21.804  1.00  0.00     0.011 C 
HETATM   13  C9  UNL     1      61.235  39.930  20.382  1.00  0.00     0.006 C 
HETATM   14  C8  UNL     1      62.462  40.851  20.224  1.00  0.00     0.074 C 
HETATM   15  C7  UNL     1      61.866  42.244  20.294  1.00  0.00     0.205 C 
HETATM   16  F1  UNL     1      61.483  42.531  18.985  1.00  0.00    -0.212 F 
HETATM   17  C22 UNL     1      60.624  42.280  21.110  1.00  0.00     0.084 C 
BRANCH  15  18
HETATM   18  O3  UNL     1      62.792  43.229  20.616  1.00  0.00    -0.351 OA
BRANCH  18  19
HETATM   19  C6  UNL     1      64.090  42.790  20.494  1.00  0.00     0.171 C 
BRANCH  19  20
HETATM   20  C5  UNL     1      64.712  43.479  19.302  1.00  0.00     0.026 C 
BRANCH  20  21
HETATM   21  C4  UNL     1      65.136  44.891  19.611  1.00  0.00     0.002 C 
BRANCH  21  22
HETATM   22  C3  UNL     1      64.390  45.916  18.833  1.00  0.00     0.010 C 
BRANCH  22  23
HETATM   23  C2  UNL     1      63.096  46.298  19.471  1.00  0.00     0.113 C 
BRANCH  23  24
HETATM   24  C1  UNL     1      61.895  45.697  18.878  1.00  0.00     0.172 C 
HETATM   25  O1  UNL     1      62.053  45.239  17.687  1.00  0.00    -0.648 OA
HETATM   26  O2  UNL     1      60.656  45.582  19.461  1.00  0.00    -0.648 OA
ENDBRANCH  23  24
ENDBRANCH  22  23
ENDBRANCH  21  22
ENDBRANCH  20  21
ENDBRANCH  19  20
ENDBRANCH  18  19
ENDBRANCH  15  18
ENDBRANCH   1  11
BRANCH   9  27
HETATM   27  C20 UNL     1      61.392  41.458  25.392  1.00  0.00     0.194 C 
BRANCH  27  28
HETATM   28  C21 UNL     1      62.064  40.097  25.349  1.00  0.00     0.394 C 
HETATM   29  F5  UNL     1      62.639  39.643  26.465  1.00  0.00    -0.171 F 
HETATM   30  F6  UNL     1      61.125  39.131  24.951  1.00  0.00    -0.171 F 
HETATM   31  F7  UNL     1      62.973  40.131  24.276  1.00  0.00    -0.171 F 
ENDBRANCH  27  28
ENDBRANCH   9  27
BRANCH   6  32
HETATM   32  C18 UNL     1      56.630  41.526  26.968  1.00  0.00     0.434 C 
HETATM   33  F2  UNL     1      55.542  41.067  26.257  1.00  0.00    -0.165 F 
HETATM   34  F3  UNL     1      56.831  40.675  28.045  1.00  0.00    -0.165 F 
HETATM   35  F4  UNL     1      56.478  42.836  27.366  1.00  0.00    -0.165 F 
ENDBRANCH   6  32
TORSDOF 11
ENDMDL
MODEL 2
REMARK VINA RESULT: -9.860747746      1.059      1.293
REMARK  11 active torsions:
REMARK  status: ('A' for Active; 'I' for Inactive)
REMARK    1  A    between atoms: C1_2  and  C2_4 
REMARK    2  A    between atoms: C2_4  and  C3_5 
REMARK    3  A    between atoms: C3_5  and  C4_6 
REMARK    4  A    between atoms: C4_6  and  C5_7 
REMARK    5  A    between atoms: C5_7  and  C6_8 
REMARK    6  A    between atoms: C6_8  and  O3_9 
REMARK    7  A    between atoms: O3_9  and  C7_10 
REMARK    8  A    between atoms: C11_15  and  C12_16 
REMARK    9  A    between atoms: C17_21  and  C18_22 
REMARK   10  A    between atoms: C19_28  and  C20_29 
REMARK   11  A    between atoms: C20_29  and  C21_30 
ROOT
HETATM    1  C12 UNL     1      59.202  41.345  22.996  1.00  0.00     0.023 A 
HETATM    2  C13 UNL     1      58.133  41.355  22.070  1.00  0.00     0.026 A 
HETATM    3  C14 UNL     1      56.865  41.402  22.548  1.00  0.00     0.004 A 
HETATM    4  C15 UNL     1      56.653  41.439  23.901  1.00  0.00     0.032 A 
HETATM    5  C16 UNL     1      57.714  41.429  24.777  1.00  0.00     0.072 A 
HETATM    6  C17 UNL     1      57.766  41.481  26.150  1.00  0.00     0.145 A 
HETATM    7  N1  UNL     1      59.021  41.464  26.480  1.00  0.00    -0.340 N 
ATOM      8  H1  UNL     1      59.358  41.494  27.442  1.00  0.00     0.167 HD
HETATM    9  C19 UNL     1      59.848  41.399  25.372  1.00  0.00     0.097 A 
HETATM   10  N2  UNL     1      59.014  41.380  24.326  1.00  0.00    -0.302 N 
ENDROOT
BRANCH   1  11
HETATM   11  C11 UNL     1      60.572  41.333  22.403  1.00  0.00     0.041 C 
HETATM   12  C10 UNL     1      60.749  39.919  21.877  1.00  0.00     0.011 C 
HETATM   13  C9  UNL     1      61.151  39.845  20.459  1.00  0.00     0.006 C 
HETATM   14  C8  UNL     1      62.390  40.750  20.296  1.00  0.00     0.074 C 
HETATM   15  C7  UNL     1      61.808  42.151  20.343  1.00  0.00     0.205 C 
HETATM   16  F1  UNL     1      61.436  42.424  19.028  1.00  0.00    -0.212 F 
HETATM   17  C22 UNL     1      60.562  42.211  21.151  1.00  0.00     0.084 C 
BRANCH  15  18
HETATM   18  O3  UNL     1      62.743  43.129  20.658  1.00  0.00    -0.351 OA
BRANCH  18  19
HETATM   19  C6  UNL     1      64.038  42.683  20.521  1.00  0.00     0.171 C 
BRANCH  19  20
HETATM   20  C5  UNL     1      64.657  43.385  19.335  1.00  0.00     0.026 C 
BRANCH  20  21
HETATM   21  C4  UNL     1      65.091  44.790  19.661  1.00  0.00     0.002 C 
BRANCH  21  22
HETATM   22  C3  UNL     1      64.389  45.826  18.857  1.00  0.00     0.010 C 
BRANCH  22  23
HETATM   23  C2  UNL     1      63.096  46.254  19.466  1.00  0.00     0.113 C 
BRANCH  23  24
HETATM   24  C1  UNL     1      61.890  45.654  18.884  1.00  0.00     0.172 C 
HETATM   25  O1  UNL     1      62.043  45.181  17.697  1.00  0.00    -0.648 OA
HETATM   26  O2  UNL     1      60.653  45.551  19.471  1.00  0.00    -0.648 OA
ENDBRANCH  23  24
ENDBRANCH  22  23
ENDBRANCH  21  22
ENDBRANCH  20  21
ENDBRANCH  19  20
ENDBRANCH  18  19
ENDBRANCH  15  18
ENDBRANCH   1  11
BRANCH   9  27
HETATM   27  C20 UNL     1      61.296  41.396  25.449  1.00  0.00     0.194 C 
BRANCH  27  28
HETATM   28  C21 UNL     1      61.955  42.760  25.356  1.00  0.00     0.394 C 
HETATM   29  F5  UNL     1      61.465  43.638  24.478  1.00  0.00    -0.171 F 
HETATM   30  F6  UNL     1      61.916  43.378  26.617  1.00  0.00    -0.171 F 
HETATM   31  F7  UNL     1      63.327  42.531  25.147  1.00  0.00    -0.171 F 
ENDBRANCH  27  28
ENDBRANCH   9  27
BRANCH   6  32
HETATM   32  C18 UNL     1      56.526  41.545  26.996  1.00  0.00     0.434 C 
HETATM   33  F2  UNL     1      55.444  41.062  26.295  1.00  0.00    -0.165 F 
HETATM   34  F3  UNL     1      56.726  40.728  28.100  1.00  0.00    -0.165 F 
HETATM   35  F4  UNL     1      56.368  42.866  27.354  1.00  0.00    -0.165 F 
ENDBRANCH   6  32
TORSDOF 11
ENDMDL
MODEL 3
REMARK VINA RESULT: -9.487239098      1.024      1.781
REMARK  11 active torsions:
REMARK  status: ('A' for Active; 'I' for Inactive)
REMARK    1  A    between atoms: C1_2  and  C2_4 
REMARK    2  A    between atoms: C2_4  and  C3_5 
REMARK    3  A    between atoms: C3_5  and  C4_6 
REMARK    4  A    between atoms: C4_6  and  C5_7 
REMARK    5  A    between atoms: C5_7  and  C6_8 
REMARK    6  A    between atoms: C6_8  and  O3_9 
REMARK    7  A    between atoms: O3_9  and  C7_10 
REMARK    8  A    between atoms: C11_15  and  C12_16 
REMARK    9  A    between atoms: C17_21  and  C18_22 
REMARK   10  A    between atoms: C19_28  and  C20_29 
REMARK   11  A    between atoms: C20_29  and  C21_30 
ROOT
HETATM    1  C12 UNL     1      59.004  41.447  23.009  1.00  0.00     0.023 A 
HETATM    2  C13 UNL     1      57.879  41.374  22.156  1.00  0.00     0.026 A 
HETATM    3  C14 UNL     1      56.646  41.314  22.717  1.00  0.00     0.004 A 
HETATM    4  C15 UNL     1      56.522  41.326  24.082  1.00  0.00     0.032 A 
HETATM    5  C16 UNL     1      57.637  41.399  24.885  1.00  0.00     0.072 A 
HETATM    6  C17 UNL     1      57.777  41.447  26.253  1.00  0.00     0.145 A 
HETATM    7  N1  UNL     1      59.047  41.532  26.498  1.00  0.00    -0.340 N 
ATOM      8  H1  UNL     1      59.445  41.585  27.436  1.00  0.00     0.167 HD
HETATM    9  C19 UNL     1      59.801  41.542  25.337  1.00  0.00     0.097 A 
HETATM   10  N2  UNL     1      58.903  41.460  24.349  1.00  0.00    -0.302 N 
ENDROOT
BRANCH   1  11
HETATM   11  C11 UNL     1      60.328  41.552  22.326  1.00  0.00     0.041 C 
HETATM   12  C10 UNL     1      60.660  40.129  21.914  1.00  0.00     0.011 C 
HETATM   13  C9  UNL     1      60.987  39.972  20.483  1.00  0.00     0.006 C 
HETATM   14  C8  UNL     1      62.084  41.007  20.157  1.00  0.00     0.074 C 
HETATM   15  C7  UNL     1      61.326  42.321  20.123  1.00  0.00     0.205 C 
HETATM   16  F1  UNL     1      60.847  42.419  18.818  1.00  0.00    -0.212 F 
HETATM   17  C22 UNL     1      60.131  42.300  21.007  1.00  0.00     0.084 C 
BRANCH  15  18
HETATM   18  O3  UNL     1      62.141  43.435  20.287  1.00  0.00    -0.351 OA
BRANCH  18  19
HETATM   19  C6  UNL     1      61.463  44.509  20.814  1.00  0.00     0.171 C 
BRANCH  19  20
HETATM   20  C5  UNL     1      60.891  45.315  19.672  1.00  0.00     0.026 C 
BRANCH  20  21
HETATM   21  C4  UNL     1      61.956  45.808  18.727  1.00  0.00     0.002 C 
BRANCH  21  22
HETATM   22  C3  UNL     1      63.181  46.290  19.419  1.00  0.00     0.010 C 
BRANCH  22  23
HETATM   23  C2  UNL     1      64.437  45.874  18.730  1.00  0.00     0.113 C 
BRANCH  23  24
HETATM   24  C1  UNL     1      65.320  44.989  19.498  1.00  0.00     0.172 C 
HETATM   25  O1  UNL     1      66.400  45.543  19.926  1.00  0.00    -0.648 OA
HETATM   26  O2  UNL     1      65.108  43.664  19.794  1.00  0.00    -0.648 OA
ENDBRANCH  23  24
ENDBRANCH  22  23
ENDBRANCH  21  22
ENDBRANCH  20  21
ENDBRANCH  19  20
ENDBRANCH  18  19
ENDBRANCH  15  18
ENDBRANCH   1  11
BRANCH   9  27
HETATM   27  C20 UNL     1      61.246  41.658  25.318  1.00  0.00     0.194 C 
BRANCH  27  28
HETATM   28  C21 UNL     1      62.003  40.342  25.306  1.00  0.00     0.394 C 
HETATM   29  F5  UNL     1      62.628  39.964  26.424  1.00  0.00    -0.171 F 
HETATM   30  F6  UNL     1      61.121  39.305  24.959  1.00  0.00    -0.171 F 
HETATM   31  F7  UNL     1      62.888  40.397  24.214  1.00  0.00    -0.171 F 
ENDBRANCH  27  28
ENDBRANCH   9  27
BRANCH   6  32
HETATM   32  C18 UNL     1      56.595  41.403  27.180  1.00  0.00     0.434 C 
HETATM   33  F2  UNL     1      55.465  41.011  26.496  1.00  0.00    -0.165 F 
HETATM   34  F3  UNL     1      56.859  40.454  28.157  1.00  0.00    -0.165 F 
HETATM   35  F4  UNL     1      56.470  42.668  27.709  1.00  0.00    -0.165 F 
ENDBRANCH   6  32
TORSDOF 11
ENDMDL
MODEL 4
REMARK VINA RESULT: -9.172753525      2.526      4.479
REMARK  11 active torsions:
REMARK  status: ('A' for Active; 'I' for Inactive)
REMARK    1  A    between atoms: C1_2  and  C2_4 
REMARK    2  A    between atoms: C2_4  and  C3_5 
REMARK    3  A    between atoms: C3_5  and  C4_6 
REMARK    4  A    between atoms: C4_6  and  C5_7 
REMARK    5  A    between atoms: C5_7  and  C6_8 
REMARK    6  A    between atoms: C6_8  and  O3_9 
REMARK    7  A    between atoms: O3_9  and  C7_10 
REMARK    8  A    between atoms: C11_15  and  C12_16 
REMARK    9  A    between atoms: C17_21  and  C18_22 
REMARK   10  A    between atoms: C19_28  and  C20_29 
REMARK   11  A    between atoms: C20_29  and  C21_30 
ROOT
HETATM    1  C12 UNL     1      58.588  41.208  22.988  1.00  0.00     0.023 A 
HETATM    2  C13 UNL     1      57.419  41.206  22.192  1.00  0.00     0.026 A 
HETATM    3  C14 UNL     1      56.216  41.291  22.812  1.00  0.00     0.004 A 
HETATM    4  C15 UNL     1      56.164  41.375  24.179  1.00  0.00     0.032 A 
HETATM    5  C16 UNL     1      57.320  41.375  24.925  1.00  0.00     0.072 A 
HETATM    6  C17 UNL     1      57.533  41.470  26.281  1.00  0.00     0.145 A 
HETATM    7  N1  UNL     1      58.817  41.442  26.463  1.00  0.00    -0.340 N 
ATOM      8  H1  UNL     1      59.264  41.498  27.378  1.00  0.00     0.167 HD
HETATM    9  C19 UNL     1      59.508  41.328  25.269  1.00  0.00     0.097 A 
HETATM   10  N2  UNL     1      58.557  41.289  24.328  1.00  0.00    -0.302 N 
ENDROOT
BRANCH   1  11
HETATM   11  C11 UNL     1      59.879  41.153  22.240  1.00  0.00     0.041 C 
HETATM   12  C10 UNL     1      59.475  41.180  20.776  1.00  0.00     0.011 C 
HETATM   13  C9  UNL     1      60.139  42.232  19.982  1.00  0.00     0.006 C 
HETATM   14  C8  UNL     1      61.656  42.089  20.227  1.00  0.00     0.074 C 
HETATM   15  C7  UNL     1      61.839  42.645  21.627  1.00  0.00     0.205 C 
HETATM   16  F1  UNL     1      61.999  44.017  21.444  1.00  0.00    -0.212 F 
HETATM   17  C22 UNL     1      60.620  42.473  22.460  1.00  0.00     0.084 C 
BRANCH  15  18
HETATM   18  O3  UNL     1      63.015  42.229  22.239  1.00  0.00    -0.351 OA
BRANCH  18  19
HETATM   19  C6  UNL     1      63.517  41.074  21.685  1.00  0.00     0.171 C 
BRANCH  19  20
HETATM   20  C5  UNL     1      62.974  39.900  22.465  1.00  0.00     0.026 C 
BRANCH  20  21
HETATM   21  C4  UNL     1      63.718  39.675  23.755  1.00  0.00     0.002 C 
BRANCH  21  22
HETATM   22  C3  UNL     1      63.205  38.518  24.539  1.00  0.00     0.010 C 
BRANCH  22  23
HETATM   23  C2  UNL     1      63.834  37.225  24.141  1.00  0.00     0.113 C 
BRANCH  23  24
HETATM   24  C1  UNL     1      65.204  37.318  23.624  1.00  0.00     0.172 C 
HETATM   25  O1  UNL     1      66.125  37.199  24.515  1.00  0.00    -0.648 OA
HETATM   26  O2  UNL     1      65.583  37.512  22.318  1.00  0.00    -0.648 OA
ENDBRANCH  23  24
ENDBRANCH  22  23
ENDBRANCH  21  22
ENDBRANCH  20  21
ENDBRANCH  19  20
ENDBRANCH  18  19
ENDBRANCH  15  18
ENDBRANCH   1  11
BRANCH   9  27
HETATM   27  C20 UNL     1      60.954  41.302  25.177  1.00  0.00     0.194 C 
BRANCH  27  28
HETATM   28  C21 UNL     1      61.659  42.553  25.672  1.00  0.00     0.394 C 
HETATM   29  F5  UNL     1      61.619  42.824  26.978  1.00  0.00    -0.171 F 
HETATM   30  F6  UNL     1      63.015  42.492  25.307  1.00  0.00    -0.171 F 
HETATM   31  F7  UNL     1      61.163  43.624  24.906  1.00  0.00    -0.171 F 
ENDBRANCH  27  28
ENDBRANCH   9  27
BRANCH   6  32
HETATM   32  C18 UNL     1      56.401  41.582  27.263  1.00  0.00     0.434 C 
HETATM   33  F2  UNL     1      55.232  41.119  26.700  1.00  0.00    -0.165 F 
HETATM   34  F3  UNL     1      56.705  40.778  28.351  1.00  0.00    -0.165 F 
HETATM   35  F4  UNL     1      56.320  42.913  27.611  1.00  0.00    -0.165 F 
ENDBRANCH   6  32
TORSDOF 11
ENDMDL
MODEL 5
REMARK VINA RESULT: -9.019192819      3.856      8.213
REMARK  11 active torsions:
REMARK  status: ('A' for Active; 'I' for Inactive)
REMARK    1  A    between atoms: C1_2  and  C2_4 
REMARK    2  A    between atoms: C2_4  and  C3_5 
REMARK    3  A    between atoms: C3_5  and  C4_6 
REMARK    4  A    between atoms: C4_6  and  C5_7 
REMARK    5  A    between atoms: C5_7  and  C6_8 
REMARK    6  A    between atoms: C6_8  and  O3_9 
REMARK    7  A    between atoms: O3_9  and  C7_10 
REMARK    8  A    between atoms: C11_15  and  C12_16 
REMARK    9  A    between atoms: C17_21  and  C18_22 
REMARK   10  A    between atoms: C19_28  and  C20_29 
REMARK   11  A    between atoms: C20_29  and  C21_30 
ROOT
HETATM    1  C12 UNL     1      62.111  41.231  21.811  1.00  0.00     0.023 A 
HETATM    2  C13 UNL     1      63.492  41.137  21.522  1.00  0.00     0.026 A 
HETATM    3  C14 UNL     1      63.986  41.859  20.486  1.00  0.00     0.004 A 
HETATM    4  C15 UNL     1      63.144  42.653  19.752  1.00  0.00     0.032 A 
HETATM    5  C16 UNL     1      61.805  42.724  20.059  1.00  0.00     0.072 A 
HETATM    6  C17 UNL     1      60.776  43.448  19.502  1.00  0.00     0.145 A 
HETATM    7  N1  UNL     1      59.707  43.167  20.181  1.00  0.00    -0.340 N 
ATOM      8  H1  UNL     1      58.788  43.565  19.988  1.00  0.00     0.167 HD
HETATM    9  C19 UNL     1      59.961  42.263  21.198  1.00  0.00     0.097 A 
HETATM   10  N2  UNL     1      61.270  42.004  21.103  1.00  0.00    -0.302 N 
ENDROOT
BRANCH   1  11
HETATM   11  C11 UNL     1      61.641  40.442  22.988  1.00  0.00     0.041 C 
HETATM   12  C10 UNL     1      62.835  39.589  23.379  1.00  0.00     0.011 C 
HETATM   13  C9  UNL     1      63.227  39.707  24.798  1.00  0.00     0.006 C 
HETATM   14  C8  UNL     1      61.956  39.455  25.635  1.00  0.00     0.074 C 
HETATM   15  C7  UNL     1      61.163  40.736  25.463  1.00  0.00     0.205 C 
HETATM   16  F1  UNL     1      61.647  41.588  26.454  1.00  0.00    -0.212 F 
HETATM   17  C22 UNL     1      61.450  41.400  24.164  1.00  0.00     0.084 C 
BRANCH  15  18
HETATM   18  O3  UNL     1      59.811  40.594  25.747  1.00  0.00    -0.351 OA
BRANCH  18  19
HETATM   19  C6  UNL     1      59.151  41.800  25.784  1.00  0.00     0.171 C 
BRANCH  19  20
HETATM   20  C5  UNL     1      57.665  41.527  25.809  1.00  0.00     0.026 C 
BRANCH  20  21
HETATM   21  C4  UNL     1      57.146  41.302  27.205  1.00  0.00     0.002 C 
BRANCH  21  22
HETATM   22  C3  UNL     1      55.854  41.989  27.472  1.00  0.00     0.010 C 
BRANCH  22  23
HETATM   23  C2  UNL     1      54.728  41.036  27.699  1.00  0.00     0.113 C 
BRANCH  23  24
HETATM   24  C1  UNL     1      53.431  41.649  28.009  1.00  0.00     0.172 C 
HETATM   25  O1  UNL     1      53.040  41.495  29.226  1.00  0.00    -0.648 OA
HETATM   26  O2  UNL     1      52.622  42.350  27.149  1.00  0.00    -0.648 OA
ENDBRANCH  23  24
ENDBRANCH  22  23
ENDBRANCH  21  22
ENDBRANCH  20  21
ENDBRANCH  19  20
ENDBRANCH  18  19
ENDBRANCH  15  18
ENDBRANCH   1  11
BRANCH   9  27
HETATM   27  C20 UNL     1      58.952  41.796  22.128  1.00  0.00     0.194 C 
BRANCH  27  28
HETATM   28  C21 UNL     1      58.190  40.557  21.694  1.00  0.00     0.394 C 
HETATM   29  F5  UNL     1      57.655  40.542  20.471  1.00  0.00    -0.171 F 
HETATM   30  F6  UNL     1      59.038  39.440  21.783  1.00  0.00    -0.171 F 
HETATM   31  F7  UNL     1      57.222  40.312  22.684  1.00  0.00    -0.171 F 
ENDBRANCH  27  28
ENDBRANCH   9  27
BRANCH   6  32
HETATM   32  C18 UNL     1      60.986  44.361  18.327  1.00  0.00     0.434 C 
HETATM   33  F2  UNL     1      62.226  44.955  18.398  1.00  0.00    -0.165 F 
HETATM   34  F3  UNL     1      60.943  43.586  17.177  1.00  0.00    -0.165 F 
HETATM   35  F4  UNL     1      59.964  45.284  18.366  1.00  0.00    -0.165 F 
ENDBRANCH   6  32
TORSDOF 11
ENDMDL
