MODEL 1
REMARK VINA RESULT: -5.283277807      0.000      0.000
REMARK  3 active torsions:
REMARK  status: ('A' for Active; 'I' for Inactive)
REMARK    1  A    between atoms: C1_2  and  C2_3 
REMARK    2  A    between atoms: C2_3  and  S1_4 
REMARK    3  A    between atoms: S1_4  and  C3_5 
ROOT
HETATM    1  C3  UNL     1      33.520  41.144  -9.276  1.00  0.00     0.052 C 
HETATM    2  C4  UNL     1      32.896  39.754  -9.375  1.00  0.00     0.016 C 
HETATM    3  C5  UNL     1      32.430  39.676 -10.828  1.00  0.00     0.008 C 
HETATM    4  C6  UNL     1      32.611  41.042 -11.372  1.00  0.00     0.008 C 
HETATM    5  C7  UNL     1      31.544  41.558 -12.276  1.00  0.00     0.118 C 
HETATM    6  N2  UNL     1      32.039  42.799 -12.789  1.00  0.00    -0.421 N 
ATOM      7  H2  UNL     1      31.714  43.181 -13.678  1.00  0.00     0.153 HD
HETATM    8  C8  UNL     1      33.002  43.468 -11.997  1.00  0.00     0.114 C 
HETATM    9  C9  UNL     1      32.901  43.264 -10.511  1.00  0.00     0.025 C 
HETATM   10  C10 UNL     1      32.494  41.892 -10.107  1.00  0.00     0.006 C 
ENDROOT
BRANCH   1  11
HETATM   11  S1  UNL     1      33.664  41.744  -7.603  1.00  0.00    -0.150 SA
BRANCH  11  12
HETATM   12  C2  UNL     1      34.745  40.648  -6.622  1.00  0.00     0.197 C 
BRANCH  12  13
HETATM   13  C1  UNL     1      35.545  41.529  -5.754  1.00  0.00     0.069 C 
HETATM   14  N1  UNL     1      36.386  42.170  -5.299  1.00  0.00    -0.197 NA
ENDBRANCH  12  13
ENDBRANCH  11  12
ENDBRANCH   1  11
TORSDOF 3
ENDMDL
MODEL 2
REMARK VINA RESULT: -5.178705972      4.977      8.643
REMARK  3 active torsions:
REMARK  status: ('A' for Active; 'I' for Inactive)
REMARK    1  A    between atoms: C1_2  and  C2_3 
REMARK    2  A    between atoms: C2_3  and  S1_4 
REMARK    3  A    between atoms: S1_4  and  C3_5 
ROOT
HETATM    1  C3  UNL     1      35.865  40.262  -3.046  1.00  0.00     0.052 C 
HETATM    2  C4  UNL     1      35.822  39.217  -1.933  1.00  0.00     0.016 C 
HETATM    3  C5  UNL     1      35.820  40.057  -0.657  1.00  0.00     0.008 C 
HETATM    4  C6  UNL     1      36.075  41.447  -1.102  1.00  0.00     0.008 C 
HETATM    5  C7  UNL     1      36.985  42.273  -0.257  1.00  0.00     0.118 C 
HETATM    6  N2  UNL     1      36.922  43.596  -0.800  1.00  0.00    -0.421 N 
ATOM      7  H2  UNL     1      37.131  44.419  -0.236  1.00  0.00     0.153 HD
HETATM    8  C8  UNL     1      36.557  43.699  -2.163  1.00  0.00     0.114 C 
HETATM    9  C9  UNL     1      36.949  42.548  -3.048  1.00  0.00     0.025 C 
HETATM   10  C10 UNL     1      36.852  41.215  -2.398  1.00  0.00     0.006 C 
ENDROOT
BRANCH   1  11
HETATM   11  S1  UNL     1      36.419  39.612  -4.612  1.00  0.00    -0.150 SA
BRANCH  11  12
HETATM   12  C2  UNL     1      35.192  39.960  -5.918  1.00  0.00     0.197 C 
BRANCH  12  13
HETATM   13  C1  UNL     1      35.181  41.423  -6.093  1.00  0.00     0.069 C 
HETATM   14  N1  UNL     1      34.891  42.537  -6.092  1.00  0.00    -0.197 NA
ENDBRANCH  12  13
ENDBRANCH  11  12
ENDBRANCH   1  11
TORSDOF 3
ENDMDL
MODEL 3
REMARK VINA RESULT: -5.065819959      4.586      9.006
REMARK  3 active torsions:
REMARK  status: ('A' for Active; 'I' for Inactive)
REMARK    1  A    between atoms: C1_2  and  C2_3 
REMARK    2  A    between atoms: C2_3  and  S1_4 
REMARK    3  A    between atoms: S1_4  and  C3_5 
ROOT
HETATM    1  C3  UNL     1      36.767  40.539  -2.806  1.00  0.00     0.052 C 
HETATM    2  C4  UNL     1      35.584  40.143  -1.926  1.00  0.00     0.016 C 
HETATM    3  C5  UNL     1      36.114  38.950  -1.132  1.00  0.00     0.008 C 
HETATM    4  C6  UNL     1      37.423  38.623  -1.743  1.00  0.00     0.008 C 
HETATM    5  C7  UNL     1      37.753  37.179  -1.905  1.00  0.00     0.118 C 
HETATM    6  N2  UNL     1      39.115  37.140  -2.345  1.00  0.00    -0.421 N 
ATOM      7  H2  UNL     1      39.708  36.326  -2.185  1.00  0.00     0.153 HD
HETATM    8  C8  UNL     1      39.592  38.292  -3.013  1.00  0.00     0.114 C 
HETATM    9  C9  UNL     1      38.578  39.076  -3.798  1.00  0.00     0.025 C 
HETATM   10  C10 UNL     1      37.233  39.141  -3.169  1.00  0.00     0.006 C 
ENDROOT
BRANCH   1  11
HETATM   11  S1  UNL     1      36.308  41.530  -4.215  1.00  0.00    -0.150 SA
BRANCH  11  12
HETATM   12  C2  UNL     1      35.495  40.500  -5.483  1.00  0.00     0.197 C 
BRANCH  12  13
HETATM   13  C1  UNL     1      35.041  41.424  -6.537  1.00  0.00     0.069 C 
HETATM   14  N1  UNL     1      34.907  41.995  -7.527  1.00  0.00    -0.197 NA
ENDBRANCH  12  13
ENDBRANCH  11  12
ENDBRANCH   1  11
TORSDOF 3
ENDMDL
MODEL 4
REMARK VINA RESULT: -5.007884127      1.926      5.042
REMARK  3 active torsions:
REMARK  status: ('A' for Active; 'I' for Inactive)
REMARK    1  A    between atoms: C1_2  and  C2_3 
REMARK    2  A    between atoms: C2_3  and  S1_4 
REMARK    3  A    between atoms: S1_4  and  C3_5 
ROOT
HETATM    1  C3  UNL     1      32.322  41.542  -9.863  1.00  0.00     0.052 C 
HETATM    2  C4  UNL     1      32.311  40.513 -10.991  1.00  0.00     0.016 C 
HETATM    3  C5  UNL     1      32.907  39.266 -10.341  1.00  0.00     0.008 C 
HETATM    4  C6  UNL     1      33.400  39.711  -9.016  1.00  0.00     0.008 C 
HETATM    5  C7  UNL     1      34.705  39.155  -8.558  1.00  0.00     0.118 C 
HETATM    6  N2  UNL     1      34.860  39.599  -7.205  1.00  0.00    -0.421 N 
ATOM      7  H2  UNL     1      35.442  39.093  -6.537  1.00  0.00     0.153 HD
HETATM    8  C8  UNL     1      34.164  40.777  -6.847  1.00  0.00     0.114 C 
HETATM    9  C9  UNL     1      33.951  41.785  -7.941  1.00  0.00     0.025 C 
HETATM   10  C10 UNL     1      33.677  41.192  -9.277  1.00  0.00     0.006 C 
ENDROOT
BRANCH   1  11
HETATM   11  S1  UNL     1      32.202  43.227 -10.433  1.00  0.00    -0.150 SA
BRANCH  11  12
HETATM   12  C2  UNL     1      32.821  43.368 -12.144  1.00  0.00     0.197 C 
BRANCH  12  13
HETATM   13  C1  UNL     1      32.955  44.809 -12.417  1.00  0.00     0.069 C 
HETATM   14  N1  UNL     1      33.232  45.926 -12.367  1.00  0.00    -0.197 NA
ENDBRANCH  12  13
ENDBRANCH  11  12
ENDBRANCH   1  11
TORSDOF 3
ENDMDL
MODEL 5
REMARK VINA RESULT: -4.924561486      1.482      2.603
REMARK  3 active torsions:
REMARK  status: ('A' for Active; 'I' for Inactive)
REMARK    1  A    between atoms: C1_2  and  C2_3 
REMARK    2  A    between atoms: C2_3  and  S1_4 
REMARK    3  A    between atoms: S1_4  and  C3_5 
ROOT
HETATM    1  C3  UNL     1      32.519  42.008  -9.332  1.00  0.00     0.052 C 
HETATM    2  C4  UNL     1      33.240  42.882 -10.356  1.00  0.00     0.016 C 
HETATM    3  C5  UNL     1      32.859  42.252 -11.694  1.00  0.00     0.008 C 
HETATM    4  C6  UNL     1      32.162  40.990 -11.349  1.00  0.00     0.008 C 
HETATM    5  C7  UNL     1      32.459  39.800 -12.196  1.00  0.00     0.118 C 
HETATM    6  N2  UNL     1      31.544  38.785 -11.769  1.00  0.00    -0.421 N 
ATOM      7  H2  UNL     1      31.263  38.022 -12.385  1.00  0.00     0.153 HD
HETATM    8  C8  UNL     1      31.051  38.898 -10.448  1.00  0.00     0.114 C 
HETATM    9  C9  UNL     1      31.969  39.540  -9.446  1.00  0.00     0.025 C 
HETATM   10  C10 UNL     1      32.778  40.664  -9.988  1.00  0.00     0.006 C 
ENDROOT
BRANCH   1  11
HETATM   11  S1  UNL     1      33.186  42.141  -7.684  1.00  0.00    -0.150 SA
BRANCH  11  12
HETATM   12  C2  UNL     1      34.576  40.979  -7.462  1.00  0.00     0.197 C 
BRANCH  12  13
HETATM   13  C1  UNL     1      35.350  41.477  -6.312  1.00  0.00     0.069 C 
HETATM   14  N1  UNL     1      36.143  41.976  -5.642  1.00  0.00    -0.197 NA
ENDBRANCH  12  13
ENDBRANCH  11  12
ENDBRANCH   1  11
TORSDOF 3
ENDMDL
