MODEL 1
REMARK VINA RESULT: -7.157155414      0.000      0.000
REMARK  13 active torsions:
REMARK  status: ('A' for Active; 'I' for Inactive)
REMARK    1  A    between atoms: C2_2  and  C3_3 
REMARK    2  A    between atoms: C3_3  and  S1_4 
REMARK    3  A    between atoms: S1_4  and  C4_6 
REMARK    4  A    between atoms: C4_6  and  C5_7 
REMARK    5  A    between atoms: C5_7  and  C6_8 
REMARK    6  A    between atoms: C6_8  and  N1_9 
REMARK    7  A    between atoms: N1_9  and  C7_12 
REMARK    8  A    between atoms: C7_12  and  C8_13 
REMARK    9  A    between atoms: C8_13  and  C9_14 
REMARK   10  A    between atoms: C9_14  and  N2_15 
REMARK   11  A    between atoms: N2_15  and  C10_17 
REMARK   12  A    between atoms: C11_20  and  N4_21 
REMARK   13  A    between atoms: C12_26  and  N6_27 
ROOT
HETATM    1  N2  UNL     1      19.209  44.664  18.531  1.00  0.00    -0.225 N 
ATOM      2  H2  UNL     1      18.616  45.486  18.420  1.00  0.00     0.177 HD
ENDROOT
BRANCH   1   3
HETATM    3  C9  UNL     1      20.572  44.859  18.949  1.00  0.00     0.139 C 
BRANCH   3   4
HETATM    4  C8  UNL     1      21.106  46.214  18.549  1.00  0.00     0.048 C 
BRANCH   4   5
HETATM    5  C7  UNL     1      22.480  46.454  19.112  1.00  0.00     0.234 C 
BRANCH   5   6
HETATM    6  N1  UNL     1      23.532  46.364  18.128  1.00  0.00    -0.075 N 
ATOM      7  H12 UNL     1      24.214  47.113  18.246  1.00  0.00     0.277 HD
ATOM      8  H11 UNL     1      23.190  46.603  17.197  1.00  0.00     0.277 HD
BRANCH   6   9
HETATM    9  C6  UNL     1      24.171  45.068  18.135  1.00  0.00     0.233 C 
BRANCH   9  10
HETATM   10  C5  UNL     1      24.331  44.464  16.782  1.00  0.00     0.040 C 
BRANCH  10  11
HETATM   11  C4  UNL     1      23.054  44.539  15.966  1.00  0.00     0.110 C 
BRANCH  11  12
HETATM   12  S1  UNL     1      23.164  45.858  14.742  1.00  0.00     0.018 S 
HETATM   13  O1  UNL     1      22.680  47.181  15.275  1.00  0.00    -0.258 OA
BRANCH  12  14
HETATM   14  C3  UNL     1      22.155  45.448  13.303  1.00  0.00     0.135 C 
BRANCH  14  15
HETATM   15  C2  UNL     1      22.975  45.551  12.070  1.00  0.00    -0.025 C 
HETATM   16  C1  UNL     1      24.233  45.147  12.079  1.00  0.00     0.008 C 
ENDBRANCH  14  15
ENDBRANCH  12  14
ENDBRANCH  11  12
ENDBRANCH  10  11
ENDBRANCH   9  10
ENDBRANCH   6   9
ENDBRANCH   5   6
ENDBRANCH   4   5
ENDBRANCH   3   4
ENDBRANCH   1   3
BRANCH   1  17
HETATM   17  C10 UNL     1      18.697  43.506  18.288  1.00  0.00     0.707 A 
HETATM   18  N3  UNL     1      18.404  43.093  17.047  1.00  0.00    -0.022 N 
HETATM   19  C11 UNL     1      17.865  41.890  16.766  1.00  0.00     0.705 A 
ATOM     20  H3  UNL     1      18.600  43.726  16.271  1.00  0.00     0.203 HD
HETATM   21  N5  UNL     1      17.612  41.064  17.799  1.00  0.00    -0.022 N 
HETATM   22  C12 UNL     1      17.891  41.434  19.062  1.00  0.00     0.705 A 
ATOM     23  H5  UNL     1      17.205  40.146  17.622  1.00  0.00     0.203 HD
HETATM   24  N7  UNL     1      18.430  42.650  19.292  1.00  0.00    -0.022 N 
ATOM     25  H7  UNL     1      18.641  42.927  20.251  1.00  0.00     0.203 HD
BRANCH  19  26
HETATM   26  N4  UNL     1      17.586  41.514  15.552  1.00  0.00    -0.234 N 
ATOM     27  H42 UNL     1      16.667  41.127  15.338  1.00  0.00     0.174 HD
ATOM     28  H41 UNL     1      18.256  41.589  14.785  1.00  0.00     0.174 HD
ENDBRANCH  19  26
BRANCH  22  29
HETATM   29  N6  UNL     1      17.638  40.621  20.036  1.00  0.00    -0.234 N 
ATOM     30  H62 UNL     1      16.870  39.951  19.977  1.00  0.00     0.174 HD
ATOM     31  H61 UNL     1      18.214  40.647  20.877  1.00  0.00     0.174 HD
ENDBRANCH  22  29
ENDBRANCH   1  17
TORSDOF 13
ENDMDL
MODEL 2
REMARK VINA RESULT: -7.132804440      1.772      2.919
REMARK  13 active torsions:
REMARK  status: ('A' for Active; 'I' for Inactive)
REMARK    1  A    between atoms: C2_2  and  C3_3 
REMARK    2  A    between atoms: C3_3  and  S1_4 
REMARK    3  A    between atoms: S1_4  and  C4_6 
REMARK    4  A    between atoms: C4_6  and  C5_7 
REMARK    5  A    between atoms: C5_7  and  C6_8 
REMARK    6  A    between atoms: C6_8  and  N1_9 
REMARK    7  A    between atoms: N1_9  and  C7_12 
REMARK    8  A    between atoms: C7_12  and  C8_13 
REMARK    9  A    between atoms: C8_13  and  C9_14 
REMARK   10  A    between atoms: C9_14  and  N2_15 
REMARK   11  A    between atoms: N2_15  and  C10_17 
REMARK   12  A    between atoms: C11_20  and  N4_21 
REMARK   13  A    between atoms: C12_26  and  N6_27 
ROOT
HETATM    1  N2  UNL     1      20.641  43.870  18.401  1.00  0.00    -0.225 N 
ATOM      2  H2  UNL     1      21.585  43.530  18.219  1.00  0.00     0.177 HD
ENDROOT
BRANCH   1   3
HETATM    3  C9  UNL     1      20.481  45.228  18.852  1.00  0.00     0.139 C 
BRANCH   3   4
HETATM    4  C8  UNL     1      21.797  45.967  18.923  1.00  0.00     0.048 C 
BRANCH   4   5
HETATM    5  C7  UNL     1      21.810  47.159  18.007  1.00  0.00     0.234 C 
BRANCH   5   6
HETATM    6  N1  UNL     1      21.286  46.883  16.691  1.00  0.00    -0.075 N 
ATOM      7  H12 UNL     1      20.774  47.684  16.321  1.00  0.00     0.277 HD
ATOM      8  H11 UNL     1      20.523  46.208  16.730  1.00  0.00     0.277 HD
BRANCH   6   9
HETATM    9  C6  UNL     1      22.318  46.454  15.776  1.00  0.00     0.233 C 
BRANCH   9  10
HETATM   10  C5  UNL     1      22.081  45.108  15.181  1.00  0.00     0.040 C 
BRANCH  10  11
HETATM   11  C4  UNL     1      23.354  44.488  14.637  1.00  0.00     0.110 C 
BRANCH  11  12
HETATM   12  S1  UNL     1      24.165  43.496  15.905  1.00  0.00     0.018 S 
HETATM   13  O1  UNL     1      23.235  43.121  17.026  1.00  0.00    -0.258 OA
BRANCH  12  14
HETATM   14  C3  UNL     1      25.540  44.419  16.621  1.00  0.00     0.135 C 
BRANCH  14  15
HETATM   15  C2  UNL     1      25.168  44.903  17.975  1.00  0.00    -0.025 C 
HETATM   16  C1  UNL     1      26.038  44.819  18.966  1.00  0.00     0.008 C 
ENDBRANCH  14  15
ENDBRANCH  12  14
ENDBRANCH  11  12
ENDBRANCH  10  11
ENDBRANCH   9  10
ENDBRANCH   6   9
ENDBRANCH   5   6
ENDBRANCH   4   5
ENDBRANCH   3   4
ENDBRANCH   1   3
BRANCH   1  17
HETATM   17  C10 UNL     1      19.655  43.061  18.215  1.00  0.00     0.707 A 
HETATM   18  N3  UNL     1      19.028  42.949  17.035  1.00  0.00    -0.022 N 
HETATM   19  C11 UNL     1      17.993  42.115  16.814  1.00  0.00     0.705 A 
ATOM     20  H3  UNL     1      19.355  43.527  16.260  1.00  0.00     0.203 HD
HETATM   21  N5  UNL     1      17.573  41.356  17.845  1.00  0.00    -0.022 N 
HETATM   22  C12 UNL     1      18.171  41.433  19.047  1.00  0.00     0.705 A 
ATOM     23  H5  UNL     1      16.791  40.715  17.712  1.00  0.00     0.203 HD
HETATM   24  N7  UNL     1      19.206  42.285  19.218  1.00  0.00    -0.022 N 
ATOM     25  H7  UNL     1      19.658  42.341  20.131  1.00  0.00     0.203 HD
BRANCH  19  26
HETATM   26  N4  UNL     1      17.399  42.026  15.660  1.00  0.00    -0.234 N 
ATOM     27  H42 UNL     1      17.625  42.690  14.919  1.00  0.00     0.174 HD
ATOM     28  H41 UNL     1      16.704  41.308  15.453  1.00  0.00     0.174 HD
ENDBRANCH  19  26
BRANCH  22  29
HETATM   29  N6  UNL     1      17.748  40.693  20.020  1.00  0.00    -0.234 N 
ATOM     30  H62 UNL     1      18.210  39.815  20.253  1.00  0.00     0.174 HD
ATOM     31  H61 UNL     1      16.939  40.993  20.565  1.00  0.00     0.174 HD
ENDBRANCH  22  29
ENDBRANCH   1  17
TORSDOF 13
ENDMDL
MODEL 3
REMARK VINA RESULT: -7.078283352      1.838      3.103
REMARK  13 active torsions:
REMARK  status: ('A' for Active; 'I' for Inactive)
REMARK    1  A    between atoms: C2_2  and  C3_3 
REMARK    2  A    between atoms: C3_3  and  S1_4 
REMARK    3  A    between atoms: S1_4  and  C4_6 
REMARK    4  A    between atoms: C4_6  and  C5_7 
REMARK    5  A    between atoms: C5_7  and  C6_8 
REMARK    6  A    between atoms: C6_8  and  N1_9 
REMARK    7  A    between atoms: N1_9  and  C7_12 
REMARK    8  A    between atoms: C7_12  and  C8_13 
REMARK    9  A    between atoms: C8_13  and  C9_14 
REMARK   10  A    between atoms: C9_14  and  N2_15 
REMARK   11  A    between atoms: N2_15  and  C10_17 
REMARK   12  A    between atoms: C11_20  and  N4_21 
REMARK   13  A    between atoms: C12_26  and  N6_27 
ROOT
HETATM    1  N2  UNL     1      20.681  43.788  18.314  1.00  0.00    -0.225 N 
ATOM      2  H2  UNL     1      21.597  43.445  18.024  1.00  0.00     0.177 HD
ENDROOT
BRANCH   1   3
HETATM    3  C9  UNL     1      20.591  45.120  18.851  1.00  0.00     0.139 C 
BRANCH   3   4
HETATM    4  C8  UNL     1      21.924  45.831  18.849  1.00  0.00     0.048 C 
BRANCH   4   5
HETATM    5  C7  UNL     1      21.896  47.054  17.976  1.00  0.00     0.234 C 
BRANCH   5   6
HETATM    6  N1  UNL     1      21.306  46.827  16.679  1.00  0.00    -0.075 N 
ATOM      7  H12 UNL     1      20.777  47.641  16.365  1.00  0.00     0.277 HD
ATOM      8  H11 UNL     1      20.544  46.150  16.732  1.00  0.00     0.277 HD
BRANCH   6   9
HETATM    9  C6  UNL     1      22.290  46.431  15.698  1.00  0.00     0.233 C 
BRANCH   9  10
HETATM   10  C5  UNL     1      22.138  45.029  15.218  1.00  0.00     0.040 C 
BRANCH  10  11
HETATM   11  C4  UNL     1      23.454  44.438  14.746  1.00  0.00     0.110 C 
BRANCH  11  12
HETATM   12  S1  UNL     1      24.275  43.568  16.094  1.00  0.00     0.018 S 
HETATM   13  O1  UNL     1      23.309  43.087  17.143  1.00  0.00    -0.258 OA
BRANCH  12  14
HETATM   14  C3  UNL     1      25.457  44.665  16.903  1.00  0.00     0.135 C 
BRANCH  14  15
HETATM   15  C2  UNL     1      26.620  44.896  16.010  1.00  0.00    -0.025 C 
HETATM   16  C1  UNL     1      27.101  43.903  15.283  1.00  0.00     0.008 C 
ENDBRANCH  14  15
ENDBRANCH  12  14
ENDBRANCH  11  12
ENDBRANCH  10  11
ENDBRANCH   9  10
ENDBRANCH   6   9
ENDBRANCH   5   6
ENDBRANCH   4   5
ENDBRANCH   3   4
ENDBRANCH   1   3
BRANCH   1  17
HETATM   17  C10 UNL     1      19.666  43.004  18.181  1.00  0.00     0.707 A 
HETATM   18  N3  UNL     1      19.208  42.242  19.185  1.00  0.00    -0.022 N 
HETATM   19  C11 UNL     1      18.153  41.411  19.072  1.00  0.00     0.705 A 
ATOM     20  H3  UNL     1      19.686  42.295  20.085  1.00  0.00     0.203 HD
HETATM   21  N5  UNL     1      17.531  41.353  17.879  1.00  0.00    -0.022 N 
HETATM   22  C12 UNL     1      17.954  42.099  16.843  1.00  0.00     0.705 A 
ATOM     23  H5  UNL     1      16.729  40.734  17.759  1.00  0.00     0.203 HD
HETATM   24  N7  UNL     1      19.017  42.916  17.006  1.00  0.00    -0.022 N 
ATOM     25  H7  UNL     1      19.334  43.482  16.219  1.00  0.00     0.203 HD
BRANCH  19  26
HETATM   26  N4  UNL     1      17.729  40.679  20.061  1.00  0.00    -0.234 N 
ATOM     27  H42 UNL     1      18.293  40.592  20.907  1.00  0.00     0.174 HD
ATOM     28  H41 UNL     1      16.840  40.179  20.033  1.00  0.00     0.174 HD
ENDBRANCH  19  26
BRANCH  22  29
HETATM   29  N6  UNL     1      17.338  42.023  15.708  1.00  0.00    -0.234 N 
ATOM     30  H62 UNL     1      16.683  41.265  15.514  1.00  0.00     0.174 HD
ATOM     31  H61 UNL     1      17.508  42.731  14.994  1.00  0.00     0.174 HD
ENDBRANCH  22  29
ENDBRANCH   1  17
TORSDOF 13
ENDMDL
MODEL 4
REMARK VINA RESULT: -7.048132665      1.873      2.250
REMARK  13 active torsions:
REMARK  status: ('A' for Active; 'I' for Inactive)
REMARK    1  A    between atoms: C2_2  and  C3_3 
REMARK    2  A    between atoms: C3_3  and  S1_4 
REMARK    3  A    between atoms: S1_4  and  C4_6 
REMARK    4  A    between atoms: C4_6  and  C5_7 
REMARK    5  A    between atoms: C5_7  and  C6_8 
REMARK    6  A    between atoms: C6_8  and  N1_9 
REMARK    7  A    between atoms: N1_9  and  C7_12 
REMARK    8  A    between atoms: C7_12  and  C8_13 
REMARK    9  A    between atoms: C8_13  and  C9_14 
REMARK   10  A    between atoms: C9_14  and  N2_15 
REMARK   11  A    between atoms: N2_15  and  C10_17 
REMARK   12  A    between atoms: C11_20  and  N4_21 
REMARK   13  A    between atoms: C12_26  and  N6_27 
ROOT
HETATM    1  N2  UNL     1      18.877  44.579  18.218  1.00  0.00    -0.225 N 
ATOM      2  H2  UNL     1      18.695  45.263  17.485  1.00  0.00     0.177 HD
ENDROOT
BRANCH   1   3
HETATM    3  C9  UNL     1      19.680  44.983  19.343  1.00  0.00     0.139 C 
BRANCH   3   4
HETATM    4  C8  UNL     1      21.142  45.109  18.988  1.00  0.00     0.048 C 
BRANCH   4   5
HETATM    5  C7  UNL     1      21.471  46.486  18.483  1.00  0.00     0.234 C 
BRANCH   5   6
HETATM    6  N1  UNL     1      21.541  46.574  17.044  1.00  0.00    -0.075 N 
ATOM      7  H12 UNL     1      21.703  47.534  16.739  1.00  0.00     0.277 HD
ATOM      8  H11 UNL     1      20.627  46.422  16.618  1.00  0.00     0.277 HD
BRANCH   6   9
HETATM    9  C6  UNL     1      22.531  45.677  16.494  1.00  0.00     0.233 C 
BRANCH   9  10
HETATM   10  C5  UNL     1      23.930  45.997  16.896  1.00  0.00     0.040 C 
BRANCH  10  11
HETATM   11  C4  UNL     1      24.639  44.802  17.506  1.00  0.00     0.110 C 
BRANCH  11  12
HETATM   12  S1  UNL     1      24.478  43.359  16.438  1.00  0.00     0.018 S 
HETATM   13  O1  UNL     1      24.476  42.067  17.211  1.00  0.00    -0.258 OA
BRANCH  12  14
HETATM   14  C3  UNL     1      25.857  43.297  15.276  1.00  0.00     0.135 C 
BRANCH  14  15
HETATM   15  C2  UNL     1      25.350  43.428  13.887  1.00  0.00    -0.025 C 
HETATM   16  C1  UNL     1      24.462  44.363  13.595  1.00  0.00     0.008 C 
ENDBRANCH  14  15
ENDBRANCH  12  14
ENDBRANCH  11  12
ENDBRANCH  10  11
ENDBRANCH   9  10
ENDBRANCH   6   9
ENDBRANCH   5   6
ENDBRANCH   4   5
ENDBRANCH   3   4
ENDBRANCH   1   3
BRANCH   1  17
HETATM   17  C10 UNL     1      18.377  43.397  18.089  1.00  0.00     0.707 A 
HETATM   18  N3  UNL     1      17.931  42.929  16.914  1.00  0.00    -0.022 N 
HETATM   19  C11 UNL     1      17.400  41.702  16.751  1.00  0.00     0.705 A 
ATOM     20  H3  UNL     1      17.997  43.538  16.097  1.00  0.00     0.203 HD
HETATM   21  N5  UNL     1      17.320  40.908  17.837  1.00  0.00    -0.022 N 
HETATM   22  C12 UNL     1      17.757  41.334  19.036  1.00  0.00     0.705 A 
ATOM     23  H5  UNL     1      16.923  39.973  17.749  1.00  0.00     0.203 HD
HETATM   24  N7  UNL     1      18.280  42.573  19.148  1.00  0.00    -0.022 N 
ATOM     25  H7  UNL     1      18.611  42.893  20.058  1.00  0.00     0.203 HD
BRANCH  19  26
HETATM   26  N4  UNL     1      16.970  41.271  15.601  1.00  0.00    -0.234 N 
ATOM     27  H42 UNL     1      17.541  40.625  15.055  1.00  0.00     0.174 HD
ATOM     28  H41 UNL     1      16.070  41.551  15.210  1.00  0.00     0.174 HD
ENDBRANCH  19  26
BRANCH  22  29
HETATM   29  N6  UNL     1      17.667  40.551  20.062  1.00  0.00    -0.234 N 
ATOM     30  H62 UNL     1      16.827  40.535  20.640  1.00  0.00     0.174 HD
ATOM     31  H61 UNL     1      18.448  39.938  20.298  1.00  0.00     0.174 HD
ENDBRANCH  22  29
ENDBRANCH   1  17
TORSDOF 13
ENDMDL
MODEL 5
REMARK VINA RESULT: -7.044352394      1.759      2.628
REMARK  13 active torsions:
REMARK  status: ('A' for Active; 'I' for Inactive)
REMARK    1  A    between atoms: C2_2  and  C3_3 
REMARK    2  A    between atoms: C3_3  and  S1_4 
REMARK    3  A    between atoms: S1_4  and  C4_6 
REMARK    4  A    between atoms: C4_6  and  C5_7 
REMARK    5  A    between atoms: C5_7  and  C6_8 
REMARK    6  A    between atoms: C6_8  and  N1_9 
REMARK    7  A    between atoms: N1_9  and  C7_12 
REMARK    8  A    between atoms: C7_12  and  C8_13 
REMARK    9  A    between atoms: C8_13  and  C9_14 
REMARK   10  A    between atoms: C9_14  and  N2_15 
REMARK   11  A    between atoms: N2_15  and  C10_17 
REMARK   12  A    between atoms: C11_20  and  N4_21 
REMARK   13  A    between atoms: C12_26  and  N6_27 
ROOT
HETATM    1  N2  UNL     1      20.565  43.927  18.518  1.00  0.00    -0.225 N 
ATOM      2  H2  UNL     1      21.533  43.626  18.400  1.00  0.00     0.177 HD
ENDROOT
BRANCH   1   3
HETATM    3  C9  UNL     1      20.318  45.289  18.910  1.00  0.00     0.139 C 
BRANCH   3   4
HETATM    4  C8  UNL     1      21.165  46.272  18.136  1.00  0.00     0.048 C 
BRANCH   4   5
HETATM    5  C7  UNL     1      22.223  46.893  19.004  1.00  0.00     0.234 C 
BRANCH   5   6
HETATM    6  N1  UNL     1      23.364  46.037  19.229  1.00  0.00    -0.075 N 
ATOM      7  H12 UNL     1      23.171  45.346  19.954  1.00  0.00     0.277 HD
ATOM      8  H11 UNL     1      24.122  46.543  19.686  1.00  0.00     0.277 HD
BRANCH   6   9
HETATM    9  C6  UNL     1      23.815  45.405  18.011  1.00  0.00     0.233 C 
BRANCH   9  10
HETATM   10  C5  UNL     1      25.181  44.817  18.102  1.00  0.00     0.040 C 
BRANCH  10  11
HETATM   11  C4  UNL     1      25.830  44.659  16.740  1.00  0.00     0.110 C 
BRANCH  11  12
HETATM   12  S1  UNL     1      24.995  43.377  15.787  1.00  0.00     0.018 S 
HETATM   13  O1  UNL     1      25.870  42.177  15.543  1.00  0.00    -0.258 OA
BRANCH  12  14
HETATM   14  C3  UNL     1      24.503  44.029  14.178  1.00  0.00     0.135 C 
BRANCH  14  15
HETATM   15  C2  UNL     1      23.264  44.834  14.320  1.00  0.00    -0.025 C 
HETATM   16  C1  UNL     1      22.613  45.236  13.243  1.00  0.00     0.008 C 
ENDBRANCH  14  15
ENDBRANCH  12  14
ENDBRANCH  11  12
ENDBRANCH  10  11
ENDBRANCH   9  10
ENDBRANCH   6   9
ENDBRANCH   5   6
ENDBRANCH   4   5
ENDBRANCH   3   4
ENDBRANCH   1   3
BRANCH   1  17
HETATM   17  C10 UNL     1      19.629  43.066  18.306  1.00  0.00     0.707 A 
HETATM   18  N3  UNL     1      19.152  42.269  19.273  1.00  0.00    -0.022 N 
HETATM   19  C11 UNL     1      18.177  41.359  19.079  1.00  0.00     0.705 A 
ATOM     20  H3  UNL     1      19.549  42.357  20.209  1.00  0.00     0.203 HD
HETATM   21  N5  UNL     1      17.660  41.254  17.839  1.00  0.00    -0.022 N 
HETATM   22  C12 UNL     1      18.106  42.033  16.838  1.00  0.00     0.705 A 
ATOM     23  H5  UNL     1      16.921  40.575  17.658  1.00  0.00     0.203 HD
HETATM   24  N7  UNL     1      19.085  42.931  17.083  1.00  0.00    -0.022 N 
ATOM     25  H7  UNL     1      19.421  43.521  16.321  1.00  0.00     0.203 HD
BRANCH  19  26
HETATM   26  N4  UNL     1      17.732  40.594  20.033  1.00  0.00    -0.234 N 
ATOM     27  H42 UNL     1      18.072  40.721  20.987  1.00  0.00     0.174 HD
ATOM     28  H41 UNL     1      17.044  39.858  19.872  1.00  0.00     0.174 HD
ENDBRANCH  19  26
BRANCH  22  29
HETATM   29  N6  UNL     1      17.593  41.911  15.657  1.00  0.00    -0.234 N 
ATOM     30  H62 UNL     1      17.348  42.731  15.101  1.00  0.00     0.174 HD
ATOM     31  H61 UNL     1      17.431  40.980  15.272  1.00  0.00     0.174 HD
ENDBRANCH  22  29
ENDBRANCH   1  17
TORSDOF 13
ENDMDL
