MODEL 1
REMARK VINA RESULT: -7.456471355      0.000      0.000
REMARK  15 active torsions:
REMARK  status: ('A' for Active; 'I' for Inactive)
REMARK    1  A    between atoms: C3_3  and  N1_4 
REMARK    2  A    between atoms: N1_4  and  C4_6 
REMARK    3  A    between atoms: C5_9  and  N3_10 
REMARK    4  A    between atoms: N3_10  and  C6_12 
REMARK    5  A    between atoms: C6_12  and  C7_13 
REMARK    6  A    between atoms: C7_13  and  C8_14 
REMARK    7  A    between atoms: C8_14  and  O1_15 
REMARK    8  A    between atoms: C9_19  and  N5_20 
REMARK    9  A    between atoms: N5_20  and  C10_22 
REMARK   10  A    between atoms: C10_22  and  C11_23 
REMARK   11  A    between atoms: C11_23  and  C12_24 
REMARK   12  A    between atoms: C12_24  and  C13_25 
REMARK   13  A    between atoms: C13_25  and  N6_26 
REMARK   14  A    between atoms: N6_26  and  C14_29 
REMARK   15  A    between atoms: C14_29  and  O2_30 
ROOT
HETATM    1  C1  UNL     1      23.099  47.406  10.617  1.00  0.00     0.014 C 
HETATM    2  C2  UNL     1      23.704  46.693  11.385  1.00  0.00    -0.097 C 
HETATM    3  C3  UNL     1      24.440  45.821  12.322  1.00  0.00     0.231 C 
ENDROOT
BRANCH   3   4
HETATM    4  N1  UNL     1      23.503  45.056  13.100  1.00  0.00    -0.215 N 
ATOM      5  H1  UNL     1      22.538  45.004  12.776  1.00  0.00     0.178 HD
BRANCH   4   6
HETATM    6  C4  UNL     1      23.816  44.432  14.181  1.00  0.00     0.708 A 
HETATM    7  N2  UNL     1      23.040  44.481  15.303  1.00  0.00    -0.021 N 
HETATM    8  C5  UNL     1      23.402  43.816  16.414  1.00  0.00     0.707 A 
ATOM      9  H2  UNL     1      22.179  45.028  15.298  1.00  0.00     0.203 HD
HETATM   10  N4  UNL     1      24.536  43.103  16.402  1.00  0.00    -0.022 N 
HETATM   11  C9  UNL     1      25.329  43.027  15.318  1.00  0.00     0.707 A 
ATOM     12  H4  UNL     1      24.808  42.598  17.246  1.00  0.00     0.203 HD
HETATM   13  N7  UNL     1      24.946  43.706  14.210  1.00  0.00    -0.021 N 
ATOM     14  H7  UNL     1      25.530  43.665  13.376  1.00  0.00     0.203 HD
BRANCH   8  15
HETATM   15  N3  UNL     1      22.687  43.855  17.461  1.00  0.00    -0.225 N 
ATOM     16  H3  UNL     1      23.144  43.559  18.324  1.00  0.00     0.177 HD
BRANCH  15  17
HETATM   17  C6  UNL     1      21.325  44.262  17.585  1.00  0.00     0.140 C 
BRANCH  17  18
HETATM   18  C7  UNL     1      21.057  45.057  18.862  1.00  0.00     0.046 C 
BRANCH  18  19
HETATM   19  C8  UNL     1      19.602  44.771  19.239  1.00  0.00     0.165 C 
BRANCH  19  20
HETATM   20  O1  UNL     1      19.222  45.510  20.330  1.00  0.00    -0.401 OA
ATOM     21  H1  UNL     1      18.707  44.988  20.934  1.00  0.00     0.209 HD
ENDBRANCH  19  20
ENDBRANCH  18  19
ENDBRANCH  17  18
ENDBRANCH  15  17
ENDBRANCH   8  15
BRANCH  11  22
HETATM   22  N5  UNL     1      26.413  42.373  15.239  1.00  0.00    -0.225 N 
ATOM     23  H5  UNL     1      27.011  42.396  16.065  1.00  0.00     0.177 HD
BRANCH  22  24
HETATM   24  C10 UNL     1      26.899  41.607  14.133  1.00  0.00     0.138 C 
BRANCH  24  25
HETATM   25  C11 UNL     1      27.674  40.427  14.706  1.00  0.00     0.022 C 
BRANCH  25  26
HETATM   26  C12 UNL     1      26.784  39.181  14.656  1.00  0.00     0.029 C 
BRANCH  26  27
HETATM   27  C13 UNL     1      26.770  38.496  15.995  1.00  0.00     0.235 C 
BRANCH  27  28
HETATM   28  N6  UNL     1      25.720  37.546  16.143  1.00  0.00    -0.054 N 
ATOM     29  H62 UNL     1      24.921  37.808  15.565  1.00  0.00     0.279 HD
ATOM     30  H61 UNL     1      25.975  36.663  15.700  1.00  0.00     0.279 HD
BRANCH  28  31
HETATM   31  C14 UNL     1      25.308  37.325  17.489  1.00  0.00     0.396 C 
BRANCH  31  32
HETATM   32  O2  UNL     1      26.019  38.035  18.425  1.00  0.00    -0.375 OA
ATOM     33  H2  UNL     1      25.501  38.656  18.925  1.00  0.00     0.211 HD
ENDBRANCH  31  32
ENDBRANCH  28  31
ENDBRANCH  27  28
ENDBRANCH  26  27
ENDBRANCH  25  26
ENDBRANCH  24  25
ENDBRANCH  22  24
ENDBRANCH  11  22
ENDBRANCH   4   6
ENDBRANCH   3   4
TORSDOF 15
ENDMDL
MODEL 2
REMARK VINA RESULT: -7.392835019      2.697      6.738
REMARK  15 active torsions:
REMARK  status: ('A' for Active; 'I' for Inactive)
REMARK    1  A    between atoms: C3_3  and  N1_4 
REMARK    2  A    between atoms: N1_4  and  C4_6 
REMARK    3  A    between atoms: C5_9  and  N3_10 
REMARK    4  A    between atoms: N3_10  and  C6_12 
REMARK    5  A    between atoms: C6_12  and  C7_13 
REMARK    6  A    between atoms: C7_13  and  C8_14 
REMARK    7  A    between atoms: C8_14  and  O1_15 
REMARK    8  A    between atoms: C9_19  and  N5_20 
REMARK    9  A    between atoms: N5_20  and  C10_22 
REMARK   10  A    between atoms: C10_22  and  C11_23 
REMARK   11  A    between atoms: C11_23  and  C12_24 
REMARK   12  A    between atoms: C12_24  and  C13_25 
REMARK   13  A    between atoms: C13_25  and  N6_26 
REMARK   14  A    between atoms: N6_26  and  C14_29 
REMARK   15  A    between atoms: C14_29  and  O2_30 
ROOT
HETATM    1  C1  UNL     1      21.105  48.609   9.143  1.00  0.00     0.014 C 
HETATM    2  C2  UNL     1      21.990  48.005   9.704  1.00  0.00    -0.097 C 
HETATM    3  C3  UNL     1      23.069  47.264  10.389  1.00  0.00     0.231 C 
ENDROOT
BRANCH   3   4
HETATM    4  N1  UNL     1      22.492  46.267  11.251  1.00  0.00    -0.215 N 
ATOM      5  H1  UNL     1      21.487  46.101  11.190  1.00  0.00     0.178 HD
BRANCH   4   6
HETATM    6  C4  UNL     1      23.173  45.572  12.094  1.00  0.00     0.708 A 
HETATM    7  N2  UNL     1      24.339  44.951  11.754  1.00  0.00    -0.021 N 
HETATM    8  C5  UNL     1      25.021  44.234  12.664  1.00  0.00     0.707 A 
ATOM      9  H2  UNL     1      24.696  45.031  10.802  1.00  0.00     0.203 HD
HETATM   10  N4  UNL     1      24.539  44.140  13.910  1.00  0.00    -0.022 N 
HETATM   11  C9  UNL     1      23.393  44.737  14.287  1.00  0.00     0.707 A 
ATOM     12  H4  UNL     1      25.059  43.596  14.599  1.00  0.00     0.203 HD
HETATM   13  N7  UNL     1      22.722  45.454  13.354  1.00  0.00    -0.021 N 
ATOM     14  H7  UNL     1      21.851  45.915  13.614  1.00  0.00     0.203 HD
BRANCH   8  15
HETATM   15  N3  UNL     1      26.107  43.653  12.358  1.00  0.00    -0.225 N 
ATOM     16  H3  UNL     1      26.910  44.262  12.204  1.00  0.00     0.177 HD
BRANCH  15  17
HETATM   17  C6  UNL     1      26.345  42.254  12.203  1.00  0.00     0.140 C 
BRANCH  17  18
HETATM   18  C7  UNL     1      27.512  41.755  13.054  1.00  0.00     0.046 C 
BRANCH  18  19
HETATM   19  C8  UNL     1      26.927  41.452  14.434  1.00  0.00     0.165 C 
BRANCH  19  20
HETATM   20  O1  UNL     1      26.864  42.587  15.203  1.00  0.00    -0.401 OA
ATOM     21  H1  UNL     1      26.375  42.431  16.002  1.00  0.00     0.209 HD
ENDBRANCH  19  20
ENDBRANCH  18  19
ENDBRANCH  17  18
ENDBRANCH  15  17
ENDBRANCH   8  15
BRANCH  11  22
HETATM   22  N5  UNL     1      22.880  44.689  15.446  1.00  0.00    -0.225 N 
ATOM     23  H5  UNL     1      22.245  43.910  15.622  1.00  0.00     0.177 HD
BRANCH  22  24
HETATM   24  C10 UNL     1      23.084  45.592  16.535  1.00  0.00     0.138 C 
BRANCH  24  25
HETATM   25  C11 UNL     1      23.093  44.764  17.815  1.00  0.00     0.022 C 
BRANCH  25  26
HETATM   26  C12 UNL     1      22.273  45.496  18.882  1.00  0.00     0.029 C 
BRANCH  26  27
HETATM   27  C13 UNL     1      21.343  46.486  18.237  1.00  0.00     0.235 C 
BRANCH  27  28
HETATM   28  N6  UNL     1      19.980  46.076  18.233  1.00  0.00    -0.054 N 
ATOM     29  H62 UNL     1      19.367  46.881  18.363  1.00  0.00     0.279 HD
ATOM     30  H61 UNL     1      19.697  45.790  17.296  1.00  0.00     0.279 HD
BRANCH  28  31
HETATM   31  C14 UNL     1      19.667  45.056  19.179  1.00  0.00     0.396 C 
BRANCH  31  32
HETATM   32  O2  UNL     1      19.189  45.521  20.378  1.00  0.00    -0.375 OA
ATOM     33  H2  UNL     1      19.635  46.292  20.707  1.00  0.00     0.211 HD
ENDBRANCH  31  32
ENDBRANCH  28  31
ENDBRANCH  27  28
ENDBRANCH  26  27
ENDBRANCH  25  26
ENDBRANCH  24  25
ENDBRANCH  22  24
ENDBRANCH  11  22
ENDBRANCH   4   6
ENDBRANCH   3   4
TORSDOF 15
ENDMDL
MODEL 3
REMARK VINA RESULT: -7.276949389      3.326      6.294
REMARK  15 active torsions:
REMARK  status: ('A' for Active; 'I' for Inactive)
REMARK    1  A    between atoms: C3_3  and  N1_4 
REMARK    2  A    between atoms: N1_4  and  C4_6 
REMARK    3  A    between atoms: C5_9  and  N3_10 
REMARK    4  A    between atoms: N3_10  and  C6_12 
REMARK    5  A    between atoms: C6_12  and  C7_13 
REMARK    6  A    between atoms: C7_13  and  C8_14 
REMARK    7  A    between atoms: C8_14  and  O1_15 
REMARK    8  A    between atoms: C9_19  and  N5_20 
REMARK    9  A    between atoms: N5_20  and  C10_22 
REMARK   10  A    between atoms: C10_22  and  C11_23 
REMARK   11  A    between atoms: C11_23  and  C12_24 
REMARK   12  A    between atoms: C12_24  and  C13_25 
REMARK   13  A    between atoms: C13_25  and  N6_26 
REMARK   14  A    between atoms: N6_26  and  C14_29 
REMARK   15  A    between atoms: C14_29  and  O2_30 
ROOT
HETATM    1  C1  UNL     1      21.272  48.522   9.148  1.00  0.00     0.014 C 
HETATM    2  C2  UNL     1      22.047  47.876   9.815  1.00  0.00    -0.097 C 
HETATM    3  C3  UNL     1      22.991  47.084  10.630  1.00  0.00     0.231 C 
ENDROOT
BRANCH   3   4
HETATM    4  N1  UNL     1      22.266  46.087  11.369  1.00  0.00    -0.215 N 
ATOM      5  H1  UNL     1      21.371  45.768  10.998  1.00  0.00     0.178 HD
BRANCH   4   6
HETATM    6  C4  UNL     1      22.683  45.574  12.474  1.00  0.00     0.708 A 
HETATM    7  N2  UNL     1      23.832  44.843  12.550  1.00  0.00    -0.021 N 
HETATM    8  C5  UNL     1      24.235  44.323  13.723  1.00  0.00     0.707 A 
ATOM      9  H2  UNL     1      24.391  44.688  11.711  1.00  0.00     0.203 HD
HETATM   10  N4  UNL     1      23.490  44.535  14.816  1.00  0.00    -0.022 N 
HETATM   11  C9  UNL     1      22.350  45.251  14.784  1.00  0.00     0.707 A 
ATOM     12  H4  UNL     1      23.797  44.141  15.705  1.00  0.00     0.203 HD
HETATM   13  N7  UNL     1      21.964  45.764  13.592  1.00  0.00    -0.021 N 
ATOM     14  H7  UNL     1      21.104  46.310  13.542  1.00  0.00     0.203 HD
BRANCH   8  15
HETATM   15  N3  UNL     1      25.302  43.642  13.805  1.00  0.00    -0.225 N 
ATOM     16  H3  UNL     1      25.707  43.340  12.919  1.00  0.00     0.177 HD
BRANCH  15  17
HETATM   17  C6  UNL     1      26.008  43.246  14.980  1.00  0.00     0.140 C 
BRANCH  17  18
HETATM   18  C7  UNL     1      26.847  44.375  15.576  1.00  0.00     0.046 C 
BRANCH  18  19
HETATM   19  C8  UNL     1      26.158  44.768  16.883  1.00  0.00     0.165 C 
BRANCH  19  20
HETATM   20  O1  UNL     1      25.416  45.911  16.725  1.00  0.00    -0.401 OA
ATOM     21  H1  UNL     1      24.742  45.792  16.066  1.00  0.00     0.209 HD
ENDBRANCH  19  20
ENDBRANCH  18  19
ENDBRANCH  17  18
ENDBRANCH  15  17
ENDBRANCH   8  15
BRANCH  11  22
HETATM   22  N5  UNL     1      21.599  45.489  15.778  1.00  0.00    -0.225 N 
ATOM     23  H5  UNL     1      20.664  45.082  15.740  1.00  0.00     0.177 HD
BRANCH  22  24
HETATM   24  C10 UNL     1      21.902  46.258  16.945  1.00  0.00     0.138 C 
BRANCH  24  25
HETATM   25  C11 UNL     1      22.001  45.286  18.114  1.00  0.00     0.022 C 
BRANCH  25  26
HETATM   26  C12 UNL     1      20.688  45.327  18.902  1.00  0.00     0.029 C 
BRANCH  26  27
HETATM   27  C13 UNL     1      19.979  44.004  18.803  1.00  0.00     0.235 C 
BRANCH  27  28
HETATM   28  N6  UNL     1      18.607  44.058  19.177  1.00  0.00    -0.054 N 
ATOM     29  H62 UNL     1      18.513  44.015  20.192  1.00  0.00     0.279 HD
ATOM     30  H61 UNL     1      18.228  44.990  19.005  1.00  0.00     0.279 HD
BRANCH  28  31
HETATM   31  C14 UNL     1      17.786  43.068  18.561  1.00  0.00     0.396 C 
BRANCH  31  32
HETATM   32  O2  UNL     1      16.672  42.723  19.284  1.00  0.00    -0.375 OA
ATOM     33  H2  UNL     1      16.753  42.861  20.221  1.00  0.00     0.211 HD
ENDBRANCH  31  32
ENDBRANCH  28  31
ENDBRANCH  27  28
ENDBRANCH  26  27
ENDBRANCH  25  26
ENDBRANCH  24  25
ENDBRANCH  22  24
ENDBRANCH  11  22
ENDBRANCH   4   6
ENDBRANCH   3   4
TORSDOF 15
ENDMDL
MODEL 4
REMARK VINA RESULT: -7.228168049      2.088      2.648
REMARK  15 active torsions:
REMARK  status: ('A' for Active; 'I' for Inactive)
REMARK    1  A    between atoms: C3_3  and  N1_4 
REMARK    2  A    between atoms: N1_4  and  C4_6 
REMARK    3  A    between atoms: C5_9  and  N3_10 
REMARK    4  A    between atoms: N3_10  and  C6_12 
REMARK    5  A    between atoms: C6_12  and  C7_13 
REMARK    6  A    between atoms: C7_13  and  C8_14 
REMARK    7  A    between atoms: C8_14  and  O1_15 
REMARK    8  A    between atoms: C9_19  and  N5_20 
REMARK    9  A    between atoms: N5_20  and  C10_22 
REMARK   10  A    between atoms: C10_22  and  C11_23 
REMARK   11  A    between atoms: C11_23  and  C12_24 
REMARK   12  A    between atoms: C12_24  and  C13_25 
REMARK   13  A    between atoms: C13_25  and  N6_26 
REMARK   14  A    between atoms: N6_26  and  C14_29 
REMARK   15  A    between atoms: C14_29  and  O2_30 
ROOT
HETATM    1  C1  UNL     1      24.164  46.653  11.687  1.00  0.00     0.014 C 
HETATM    2  C2  UNL     1      23.267  46.026  12.202  1.00  0.00    -0.097 C 
HETATM    3  C3  UNL     1      22.171  45.263  12.833  1.00  0.00     0.231 C 
ENDROOT
BRANCH   3   4
HETATM    4  N1  UNL     1      22.015  45.689  14.198  1.00  0.00    -0.215 N 
ATOM      5  H1  UNL     1      21.659  46.629  14.371  1.00  0.00     0.178 HD
BRANCH   4   6
HETATM    6  C4  UNL     1      22.299  44.950  15.213  1.00  0.00     0.708 A 
HETATM    7  N2  UNL     1      21.409  44.721  16.221  1.00  0.00    -0.021 N 
HETATM    8  C5  UNL     1      21.744  43.943  17.265  1.00  0.00     0.707 A 
ATOM      9  H2  UNL     1      20.481  45.143  16.182  1.00  0.00     0.203 HD
HETATM   10  N4  UNL     1      22.967  43.395  17.299  1.00  0.00    -0.022 N 
HETATM   11  C9  UNL     1      23.874  43.595  16.325  1.00  0.00     0.707 A 
ATOM     12  H4  UNL     1      23.219  42.804  18.092  1.00  0.00     0.203 HD
HETATM   13  N7  UNL     1      23.515  44.383  15.284  1.00  0.00    -0.021 N 
ATOM     14  H7  UNL     1      24.185  44.551  14.534  1.00  0.00     0.203 HD
BRANCH   8  15
HETATM   15  N3  UNL     1      20.924  43.722  18.207  1.00  0.00    -0.225 N 
ATOM     16  H3  UNL     1      21.333  43.569  19.128  1.00  0.00     0.177 HD
BRANCH  15  17
HETATM   17  C6  UNL     1      19.499  43.663  18.140  1.00  0.00     0.140 C 
BRANCH  17  18
HETATM   18  C7  UNL     1      18.993  42.455  17.353  1.00  0.00     0.046 C 
BRANCH  18  19
HETATM   19  C8  UNL     1      18.862  41.317  18.366  1.00  0.00     0.165 C 
BRANCH  19  20
HETATM   20  O1  UNL     1      20.063  40.677  18.546  1.00  0.00    -0.401 OA
ATOM     21  H1  UNL     1      20.017  40.064  19.270  1.00  0.00     0.209 HD
ENDBRANCH  19  20
ENDBRANCH  18  19
ENDBRANCH  17  18
ENDBRANCH  15  17
ENDBRANCH   8  15
BRANCH  11  22
HETATM   22  N5  UNL     1      25.046  43.110  16.295  1.00  0.00    -0.225 N 
ATOM     23  H5  UNL     1      25.229  42.342  16.941  1.00  0.00     0.177 HD
BRANCH  22  24
HETATM   24  C10 UNL     1      26.141  43.508  15.467  1.00  0.00     0.138 C 
BRANCH  24  25
HETATM   25  C11 UNL     1      26.313  42.435  14.398  1.00  0.00     0.022 C 
BRANCH  25  26
HETATM   26  C12 UNL     1      27.787  42.021  14.347  1.00  0.00     0.029 C 
BRANCH  26  27
HETATM   27  C13 UNL     1      27.919  40.537  14.545  1.00  0.00     0.235 C 
BRANCH  27  28
HETATM   28  N6  UNL     1      27.382  40.072  15.779  1.00  0.00    -0.054 N 
ATOM     29  H62 UNL     1      28.070  40.171  16.525  1.00  0.00     0.279 HD
ATOM     30  H61 UNL     1      26.663  40.711  16.117  1.00  0.00     0.279 HD
BRANCH  28  31
HETATM   31  C14 UNL     1      26.881  38.737  15.740  1.00  0.00     0.396 C 
BRANCH  31  32
HETATM   32  O2  UNL     1      26.544  38.293  14.486  1.00  0.00    -0.375 OA
ATOM     33  H2  UNL     1      25.612  38.306  14.301  1.00  0.00     0.211 HD
ENDBRANCH  31  32
ENDBRANCH  28  31
ENDBRANCH  27  28
ENDBRANCH  26  27
ENDBRANCH  25  26
ENDBRANCH  24  25
ENDBRANCH  22  24
ENDBRANCH  11  22
ENDBRANCH   4   6
ENDBRANCH   3   4
TORSDOF 15
ENDMDL
MODEL 5
REMARK VINA RESULT: -7.183892033      2.894      7.327
REMARK  15 active torsions:
REMARK  status: ('A' for Active; 'I' for Inactive)
REMARK    1  A    between atoms: C3_3  and  N1_4 
REMARK    2  A    between atoms: N1_4  and  C4_6 
REMARK    3  A    between atoms: C5_9  and  N3_10 
REMARK    4  A    between atoms: N3_10  and  C6_12 
REMARK    5  A    between atoms: C6_12  and  C7_13 
REMARK    6  A    between atoms: C7_13  and  C8_14 
REMARK    7  A    between atoms: C8_14  and  O1_15 
REMARK    8  A    between atoms: C9_19  and  N5_20 
REMARK    9  A    between atoms: N5_20  and  C10_22 
REMARK   10  A    between atoms: C10_22  and  C11_23 
REMARK   11  A    between atoms: C11_23  and  C12_24 
REMARK   12  A    between atoms: C12_24  and  C13_25 
REMARK   13  A    between atoms: C13_25  and  N6_26 
REMARK   14  A    between atoms: N6_26  and  C14_29 
REMARK   15  A    between atoms: C14_29  and  O2_30 
ROOT
HETATM    1  C1  UNL     1      26.799  39.502  14.188  1.00  0.00     0.014 C 
HETATM    2  C2  UNL     1      27.143  40.662  14.182  1.00  0.00    -0.097 C 
HETATM    3  C3  UNL     1      27.559  42.079  14.172  1.00  0.00     0.231 C 
ENDROOT
BRANCH   3   4
HETATM    4  N1  UNL     1      26.946  42.751  13.057  1.00  0.00    -0.215 N 
ATOM      5  H1  UNL     1      27.393  42.672  12.144  1.00  0.00     0.178 HD
BRANCH   4   6
HETATM    6  C4  UNL     1      25.866  43.444  13.148  1.00  0.00     0.708 A 
HETATM    7  N2  UNL     1      25.362  44.151  12.096  1.00  0.00    -0.021 N 
HETATM    8  C5  UNL     1      24.231  44.865  12.231  1.00  0.00     0.707 A 
ATOM      9  H2  UNL     1      25.848  44.139  11.199  1.00  0.00     0.203 HD
HETATM   10  N4  UNL     1      23.605  44.870  13.416  1.00  0.00    -0.022 N 
HETATM   11  C9  UNL     1      24.068  44.186  14.479  1.00  0.00     0.707 A 
ATOM     12  H4  UNL     1      22.746  45.411  13.516  1.00  0.00     0.203 HD
HETATM   13  N7  UNL     1      25.210  43.475  14.320  1.00  0.00    -0.021 N 
ATOM     14  H7  UNL     1      25.581  42.949  15.111  1.00  0.00     0.203 HD
BRANCH   8  15
HETATM   15  N3  UNL     1      23.753  45.525  11.259  1.00  0.00    -0.225 N 
ATOM     16  H3  UNL     1      24.094  45.265  10.334  1.00  0.00     0.177 HD
BRANCH  15  17
HETATM   17  C6  UNL     1      22.799  46.585  11.297  1.00  0.00     0.140 C 
BRANCH  17  18
HETATM   18  C7  UNL     1      22.918  47.532  10.103  1.00  0.00     0.046 C 
BRANCH  18  19
HETATM   19  C8  UNL     1      21.488  47.795   9.629  1.00  0.00     0.165 C 
BRANCH  19  20
HETATM   20  O1  UNL     1      20.945  46.673   9.057  1.00  0.00    -0.401 OA
ATOM     21  H1  UNL     1      21.521  46.316   8.391  1.00  0.00     0.209 HD
ENDBRANCH  19  20
ENDBRANCH  18  19
ENDBRANCH  17  18
ENDBRANCH  15  17
ENDBRANCH   8  15
BRANCH  11  22
HETATM   22  N5  UNL     1      23.528  44.147  15.626  1.00  0.00    -0.225 N 
ATOM     23  H5  UNL     1      23.452  43.225  16.055  1.00  0.00     0.177 HD
BRANCH  22  24
HETATM   24  C10 UNL     1      23.012  45.239  16.392  1.00  0.00     0.138 C 
BRANCH  24  25
HETATM   25  C11 UNL     1      23.409  45.001  17.844  1.00  0.00     0.022 C 
BRANCH  25  26
HETATM   26  C12 UNL     1      22.323  45.585  18.753  1.00  0.00     0.029 C 
BRANCH  26  27
HETATM   27  C13 UNL     1      21.327  46.366  17.942  1.00  0.00     0.235 C 
BRANCH  27  28
HETATM   28  N6  UNL     1      19.971  46.052  18.239  1.00  0.00    -0.054 N 
ATOM     29  H62 UNL     1      19.462  46.894  18.509  1.00  0.00     0.279 HD
ATOM     30  H61 UNL     1      19.467  45.810  17.385  1.00  0.00     0.279 HD
BRANCH  28  31
HETATM   31  C14 UNL     1      19.801  45.033  19.221  1.00  0.00     0.396 C 
BRANCH  31  32
HETATM   32  O2  UNL     1      19.175  45.448  20.369  1.00  0.00    -0.375 OA
ATOM     33  H2  UNL     1      19.749  45.532  21.122  1.00  0.00     0.211 HD
ENDBRANCH  31  32
ENDBRANCH  28  31
ENDBRANCH  27  28
ENDBRANCH  26  27
ENDBRANCH  25  26
ENDBRANCH  24  25
ENDBRANCH  22  24
ENDBRANCH  11  22
ENDBRANCH   4   6
ENDBRANCH   3   4
TORSDOF 15
ENDMDL
