MODEL 1
REMARK VINA RESULT: -8.192449526      0.000      0.000
REMARK  12 active torsions:
REMARK  status: ('A' for Active; 'I' for Inactive)
REMARK    1  A    between atoms: C2_2  and  N1_3 
REMARK       I    between atoms: N1_3  and  C3_4 
REMARK    2  A    between atoms: N1_3  and  C5_7 
REMARK    3  A    between atoms: C5_7  and  O2_8 
REMARK    4  A    between atoms: C5_7  and  N2_10 
REMARK    5  A    between atoms: N2_10  and  C6_12 
REMARK    6  A    between atoms: C7_13  and  C8_14 
REMARK    7  A    between atoms: C8_14  and  N3_15 
REMARK    8  A    between atoms: N3_15  and  C9_17 
REMARK    9  A    between atoms: C9_17  and  C10_19 
REMARK   10  A    between atoms: C16_29  and  C17_30 
REMARK   11  A    between atoms: C17_30  and  O3_33 
REMARK   12  A    between atoms: C21_37  and  O4_38 
ROOT
HETATM    1  C6  UNL     1      36.449  27.580  16.499  1.00  0.00     0.124 C 
HETATM    2  C7  UNL     1      35.087  27.854  17.023  1.00  0.00     0.033 C 
HETATM    3  C15 UNL     1      35.127  27.768  18.532  1.00  0.00     0.047 C 
HETATM    4  C16 UNL     1      35.218  26.246  18.780  1.00  0.00    -0.030 C 
HETATM    5  C20 UNL     1      36.222  25.682  18.144  1.00  0.00     0.024 C 
HETATM    6 BR2  UNL     1      36.572  23.790  18.274  1.00  0.00    -0.053 Br
HETATM    7  C21 UNL     1      37.146  26.522  17.287  1.00  0.00     0.181 C 
ENDROOT
BRANCH   2   8
HETATM    8  C8  UNL     1      34.523  29.176  16.551  1.00  0.00     0.127 C 
BRANCH   8   9
HETATM    9  N3  UNL     1      35.359  30.266  16.978  1.00  0.00    -0.379 N 
ATOM     10  H3  UNL     1      36.294  30.387  16.587  1.00  0.00     0.160 HD
BRANCH   9  11
HETATM   11  C9  UNL     1      34.863  31.171  17.952  1.00  0.00     0.125 C 
HETATM   12  S1  UNL     1      33.262  31.150  18.368  1.00  0.00    -0.058 SA
BRANCH  11  13
HETATM   13  C10 UNL     1      35.685  32.145  18.631  1.00  0.00     0.092 A 
HETATM   14  N4  UNL     1      36.465  31.747  19.646  1.00  0.00    -0.361 N 
HETATM   15  C11 UNL     1      37.256  32.641  20.310  1.00  0.00     0.107 A 
ATOM     16  H4  UNL     1      36.468  30.766  19.926  1.00  0.00     0.165 HD
HETATM   17  C12 UNL     1      37.273  33.955  19.962  1.00  0.00     0.028 A 
HETATM   18 BR1  UNL     1      38.403  35.155  20.933  1.00  0.00    -0.050 Br
HETATM   19  C13 UNL     1      36.490  34.405  18.929  1.00  0.00     0.046 A 
HETATM   20  C14 UNL     1      35.694  33.466  18.271  1.00  0.00     0.065 A 
HETATM   21 CL1  UNL     1      34.700  34.032  16.961  1.00  0.00    -0.082 Cl
ENDBRANCH  11  13
ENDBRANCH   9  11
ENDBRANCH   8   9
ENDBRANCH   2   8
BRANCH   1  22
HETATM   22  N2  UNL     1      36.429  27.135  15.104  1.00  0.00    -0.348 N 
ATOM     23  H2  UNL     1      36.009  26.240  14.854  1.00  0.00     0.163 HD
BRANCH  22  24
HETATM   24  C5  UNL     1      37.002  27.967  14.100  1.00  0.00     0.222 C 
BRANCH  24  25
HETATM   25  N1  UNL     1      38.318  27.974  13.647  1.00  0.00    -0.284 N 
HETATM   26  C3  UNL     1      38.737  28.510  12.426  1.00  0.00     0.222 C 
HETATM   27  C4  UNL     1      40.193  28.474  12.011  1.00  0.00     0.117 C 
HETATM   28  O1  UNL     1      37.982  29.052  11.589  1.00  0.00    -0.273 OA
BRANCH  25  29
HETATM   29  C2  UNL     1      39.362  27.380  14.493  1.00  0.00     0.131 C 
HETATM   30  C1  UNL     1      39.507  25.910  14.256  1.00  0.00     0.027 C 
ENDBRANCH  25  29
ENDBRANCH  24  25
BRANCH  24  31
HETATM   31  O2  UNL     1      36.220  28.831  13.525  1.00  0.00    -0.332 OA
ATOM     32  H2  UNL     1      36.008  28.639  12.620  1.00  0.00     0.220 HD
ENDBRANCH  24  31
ENDBRANCH  22  24
ENDBRANCH   1  22
BRANCH   7  33
HETATM   33  O4  UNL     1      38.070  27.137  18.150  1.00  0.00    -0.388 OA
ATOM     34  H4  UNL     1      38.583  27.761  17.651  1.00  0.00     0.210 HD
ENDBRANCH   7  33
BRANCH   4  35
HETATM   35  C17 UNL     1      34.245  25.620  19.646  1.00  0.00     0.075 C 
HETATM   36  C18 UNL     1      33.213  26.717  20.009  1.00  0.00     0.050 C 
HETATM   37  C19 UNL     1      34.643  24.988  20.919  1.00  0.00     0.050 C 
BRANCH  35  38
HETATM   38  O3  UNL     1      33.468  24.655  18.943  1.00  0.00    -0.386 OA
ATOM     39  H3  UNL     1      32.537  24.822  19.039  1.00  0.00     0.211 HD
ENDBRANCH  35  38
ENDBRANCH   4  35
TORSDOF 12
ENDMDL
MODEL 2
REMARK VINA RESULT: -8.026196046      0.712      1.274
REMARK  12 active torsions:
REMARK  status: ('A' for Active; 'I' for Inactive)
REMARK    1  A    between atoms: C2_2  and  N1_3 
REMARK       I    between atoms: N1_3  and  C3_4 
REMARK    2  A    between atoms: N1_3  and  C5_7 
REMARK    3  A    between atoms: C5_7  and  O2_8 
REMARK    4  A    between atoms: C5_7  and  N2_10 
REMARK    5  A    between atoms: N2_10  and  C6_12 
REMARK    6  A    between atoms: C7_13  and  C8_14 
REMARK    7  A    between atoms: C8_14  and  N3_15 
REMARK    8  A    between atoms: N3_15  and  C9_17 
REMARK    9  A    between atoms: C9_17  and  C10_19 
REMARK   10  A    between atoms: C16_29  and  C17_30 
REMARK   11  A    between atoms: C17_30  and  O3_33 
REMARK   12  A    between atoms: C21_37  and  O4_38 
ROOT
HETATM    1  C6  UNL     1      36.342  27.542  16.479  1.00  0.00     0.124 C 
HETATM    2  C7  UNL     1      35.008  27.811  17.073  1.00  0.00     0.033 C 
HETATM    3  C15 UNL     1      35.123  27.706  18.576  1.00  0.00     0.047 C 
HETATM    4  C16 UNL     1      35.224  26.180  18.801  1.00  0.00    -0.030 C 
HETATM    5  C20 UNL     1      36.194  25.624  18.108  1.00  0.00     0.024 C 
HETATM    6 BR2  UNL     1      36.547  23.730  18.197  1.00  0.00    -0.053 Br
HETATM    7  C21 UNL     1      37.076  26.474  17.218  1.00  0.00     0.181 C 
ENDROOT
BRANCH   2   8
HETATM    8  C8  UNL     1      34.423  29.139  16.646  1.00  0.00     0.127 C 
BRANCH   8   9
HETATM    9  N3  UNL     1      35.281  30.223  17.045  1.00  0.00    -0.379 N 
ATOM     10  H3  UNL     1      36.201  30.340  16.619  1.00  0.00     0.160 HD
BRANCH   9  11
HETATM   11  C9  UNL     1      34.828  31.127  18.040  1.00  0.00     0.125 C 
HETATM   12  S1  UNL     1      33.246  31.106  18.523  1.00  0.00    -0.058 SA
BRANCH  11  13
HETATM   13  C10 UNL     1      35.677  32.100  18.684  1.00  0.00     0.092 A 
HETATM   14  N4  UNL     1      36.481  31.706  19.683  1.00  0.00    -0.361 N 
HETATM   15  C11 UNL     1      37.298  32.600  20.314  1.00  0.00     0.107 A 
ATOM     16  H4  UNL     1      36.481  30.728  19.975  1.00  0.00     0.165 HD
HETATM   17  C12 UNL     1      37.320  33.909  19.949  1.00  0.00     0.028 A 
HETATM   18 BR1  UNL     1      38.489  35.108  20.875  1.00  0.00    -0.050 Br
HETATM   19  C13 UNL     1      36.514  34.354  18.932  1.00  0.00     0.046 A 
HETATM   20  C14 UNL     1      35.691  33.417  18.308  1.00  0.00     0.065 A 
HETATM   21 CL1  UNL     1      34.668  33.977  17.018  1.00  0.00    -0.082 Cl
ENDBRANCH  11  13
ENDBRANCH   9  11
ENDBRANCH   8   9
ENDBRANCH   2   8
BRANCH   1  22
HETATM   22  N2  UNL     1      36.252  27.115  15.080  1.00  0.00    -0.348 N 
ATOM     23  H2  UNL     1      35.852  26.207  14.843  1.00  0.00     0.163 HD
BRANCH  22  24
HETATM   24  C5  UNL     1      36.729  27.982  14.056  1.00  0.00     0.222 C 
BRANCH  24  25
HETATM   25  N1  UNL     1      37.934  27.903  13.363  1.00  0.00    -0.284 N 
HETATM   26  C3  UNL     1      39.135  27.436  13.904  1.00  0.00     0.222 C 
HETATM   27  C4  UNL     1      40.401  27.385  13.075  1.00  0.00     0.117 C 
HETATM   28  O1  UNL     1      39.277  27.028  15.077  1.00  0.00    -0.273 OA
BRANCH  25  29
HETATM   29  C2  UNL     1      37.973  28.338  11.961  1.00  0.00     0.131 C 
HETATM   30  C1  UNL     1      38.842  29.542  11.771  1.00  0.00     0.027 C 
ENDBRANCH  25  29
ENDBRANCH  24  25
BRANCH  24  31
HETATM   31  O2  UNL     1      35.963  28.974  13.711  1.00  0.00    -0.332 OA
ATOM     32  H2  UNL     1      35.469  29.364  14.422  1.00  0.00     0.220 HD
ENDBRANCH  24  31
ENDBRANCH  22  24
ENDBRANCH   1  22
BRANCH   7  33
HETATM   33  O4  UNL     1      38.042  27.077  18.041  1.00  0.00    -0.388 OA
ATOM     34  H4  UNL     1      38.498  26.398  18.524  1.00  0.00     0.210 HD
ENDBRANCH   7  33
BRANCH   4  35
HETATM   35  C17 UNL     1      34.294  25.545  19.705  1.00  0.00     0.075 C 
HETATM   36  C18 UNL     1      33.272  26.633  20.118  1.00  0.00     0.050 C 
HETATM   37  C19 UNL     1      34.751  24.911  20.957  1.00  0.00     0.050 C 
BRANCH  35  38
HETATM   38  O3  UNL     1      33.493  24.577  19.033  1.00  0.00    -0.386 OA
ATOM     39  H3  UNL     1      32.780  24.987  18.557  1.00  0.00     0.211 HD
ENDBRANCH  35  38
ENDBRANCH   4  35
TORSDOF 12
ENDMDL
MODEL 3
REMARK VINA RESULT: -7.507600154      3.311      4.789
REMARK  12 active torsions:
REMARK  status: ('A' for Active; 'I' for Inactive)
REMARK    1  A    between atoms: C2_2  and  N1_3 
REMARK       I    between atoms: N1_3  and  C3_4 
REMARK    2  A    between atoms: N1_3  and  C5_7 
REMARK    3  A    between atoms: C5_7  and  O2_8 
REMARK    4  A    between atoms: C5_7  and  N2_10 
REMARK    5  A    between atoms: N2_10  and  C6_12 
REMARK    6  A    between atoms: C7_13  and  C8_14 
REMARK    7  A    between atoms: C8_14  and  N3_15 
REMARK    8  A    between atoms: N3_15  and  C9_17 
REMARK    9  A    between atoms: C9_17  and  C10_19 
REMARK   10  A    between atoms: C16_29  and  C17_30 
REMARK   11  A    between atoms: C17_30  and  O3_33 
REMARK   12  A    between atoms: C21_37  and  O4_38 
ROOT
HETATM    1  C6  UNL     1      33.527  29.492  15.893  1.00  0.00     0.124 C 
HETATM    2  C7  UNL     1      32.856  30.789  15.627  1.00  0.00     0.033 C 
HETATM    3  C15 UNL     1      31.378  30.631  15.902  1.00  0.00     0.047 C 
HETATM    4  C16 UNL     1      30.894  29.813  14.683  1.00  0.00    -0.030 C 
HETATM    5  C20 UNL     1      31.572  28.698  14.512  1.00  0.00     0.024 C 
HETATM    6 BR2  UNL     1      31.181  27.484  13.067  1.00  0.00    -0.053 Br
HETATM    7  C21 UNL     1      32.688  28.333  15.470  1.00  0.00     0.181 C 
ENDROOT
BRANCH   2   8
HETATM    8  C8  UNL     1      33.452  31.939  16.408  1.00  0.00     0.127 C 
BRANCH   8   9
HETATM    9  N3  UNL     1      32.850  32.033  17.712  1.00  0.00    -0.379 N 
ATOM     10  H3  UNL     1      31.883  32.338  17.815  1.00  0.00     0.160 HD
BRANCH   9  11
HETATM   11  C9  UNL     1      33.625  31.694  18.851  1.00  0.00     0.125 C 
HETATM   12  S1  UNL     1      33.265  30.337  19.727  1.00  0.00    -0.058 SA
BRANCH  11  13
HETATM   13  C10 UNL     1      34.744  32.476  19.319  1.00  0.00     0.092 A 
HETATM   14  N4  UNL     1      35.981  31.966  19.230  1.00  0.00    -0.361 N 
HETATM   15  C11 UNL     1      37.063  32.678  19.662  1.00  0.00     0.107 A 
ATOM     16  H4  UNL     1      36.115  31.034  18.835  1.00  0.00     0.165 HD
HETATM   17  C12 UNL     1      36.916  33.921  20.194  1.00  0.00     0.028 A 
HETATM   18 BR1  UNL     1      38.474  34.865  20.780  1.00  0.00    -0.050 Br
HETATM   19  C13 UNL     1      35.669  34.481  20.304  1.00  0.00     0.046 A 
HETATM   20  C14 UNL     1      34.585  33.727  19.853  1.00  0.00     0.065 A 
HETATM   21 CL1  UNL     1      33.002  34.434  19.991  1.00  0.00    -0.082 Cl
ENDBRANCH  11  13
ENDBRANCH   9  11
ENDBRANCH   8   9
ENDBRANCH   2   8
BRANCH   1  22
HETATM   22  N2  UNL     1      34.809  29.375  15.193  1.00  0.00    -0.348 N 
ATOM     23  H2  UNL     1      34.854  29.474  14.179  1.00  0.00     0.163 HD
BRANCH  22  24
HETATM   24  C5  UNL     1      35.991  29.121  15.946  1.00  0.00     0.222 C 
BRANCH  24  25
HETATM   25  N1  UNL     1      36.909  28.090  15.771  1.00  0.00    -0.284 N 
HETATM   26  C3  UNL     1      37.660  27.881  14.612  1.00  0.00     0.222 C 
HETATM   27  C4  UNL     1      38.639  26.729  14.508  1.00  0.00     0.117 C 
HETATM   28  O1  UNL     1      37.602  28.594  13.586  1.00  0.00    -0.273 OA
BRANCH  25  29
HETATM   29  C2  UNL     1      37.123  27.139  16.870  1.00  0.00     0.131 C 
HETATM   30  C1  UNL     1      35.946  26.234  17.065  1.00  0.00     0.027 C 
ENDBRANCH  25  29
ENDBRANCH  24  25
BRANCH  24  31
HETATM   31  O2  UNL     1      36.265  29.940  16.918  1.00  0.00    -0.332 OA
ATOM     32  H2  UNL     1      35.894  30.809  16.825  1.00  0.00     0.220 HD
ENDBRANCH  24  31
ENDBRANCH  22  24
ENDBRANCH   1  22
BRANCH   7  33
HETATM   33  O4  UNL     1      32.092  27.768  16.610  1.00  0.00    -0.388 OA
ATOM     34  H4  UNL     1      31.742  28.466  17.149  1.00  0.00     0.210 HD
ENDBRANCH   7  33
BRANCH   4  35
HETATM   35  C17 UNL     1      29.798  30.322  13.891  1.00  0.00     0.075 C 
HETATM   36  C18 UNL     1      29.431  31.703  14.489  1.00  0.00     0.050 C 
HETATM   37  C19 UNL     1      28.532  29.576  13.763  1.00  0.00     0.050 C 
BRANCH  35  38
HETATM   38  O3  UNL     1      30.216  30.636  12.566  1.00  0.00    -0.386 OA
ATOM     39  H3  UNL     1      31.098  30.990  12.555  1.00  0.00     0.211 HD
ENDBRANCH  35  38
ENDBRANCH   4  35
TORSDOF 12
ENDMDL
MODEL 4
REMARK VINA RESULT: -7.496536137      3.415      5.203
REMARK  12 active torsions:
REMARK  status: ('A' for Active; 'I' for Inactive)
REMARK    1  A    between atoms: C2_2  and  N1_3 
REMARK       I    between atoms: N1_3  and  C3_4 
REMARK    2  A    between atoms: N1_3  and  C5_7 
REMARK    3  A    between atoms: C5_7  and  O2_8 
REMARK    4  A    between atoms: C5_7  and  N2_10 
REMARK    5  A    between atoms: N2_10  and  C6_12 
REMARK    6  A    between atoms: C7_13  and  C8_14 
REMARK    7  A    between atoms: C8_14  and  N3_15 
REMARK    8  A    between atoms: N3_15  and  C9_17 
REMARK    9  A    between atoms: C9_17  and  C10_19 
REMARK   10  A    between atoms: C16_29  and  C17_30 
REMARK   11  A    between atoms: C17_30  and  O3_33 
REMARK   12  A    between atoms: C21_37  and  O4_38 
ROOT
HETATM    1  C6  UNL     1      33.426  29.375  15.897  1.00  0.00     0.124 C 
HETATM    2  C7  UNL     1      32.831  30.719  15.688  1.00  0.00     0.033 C 
HETATM    3  C15 UNL     1      31.343  30.628  15.933  1.00  0.00     0.047 C 
HETATM    4  C16 UNL     1      30.836  29.901  14.667  1.00  0.00    -0.030 C 
HETATM    5  C20 UNL     1      31.456  28.761  14.449  1.00  0.00     0.024 C 
HETATM    6 BR2  UNL     1      31.024  27.646  12.937  1.00  0.00    -0.053 Br
HETATM    7  C21 UNL     1      32.533  28.287  15.402  1.00  0.00     0.181 C 
ENDROOT
BRANCH   2   8
HETATM    8  C8  UNL     1      33.475  31.793  16.536  1.00  0.00     0.127 C 
BRANCH   8   9
HETATM    9  N3  UNL     1      33.980  31.236  17.763  1.00  0.00    -0.379 N 
ATOM     10  H3  UNL     1      34.327  30.278  17.793  1.00  0.00     0.160 HD
BRANCH   9  11
HETATM   11  C9  UNL     1      33.988  32.042  18.931  1.00  0.00     0.125 C 
HETATM   12  S1  UNL     1      32.604  32.235  19.817  1.00  0.00    -0.058 SA
BRANCH  11  13
HETATM   13  C10 UNL     1      35.159  32.730  19.420  1.00  0.00     0.092 A 
HETATM   14  N4  UNL     1      35.132  34.067  19.530  1.00  0.00    -0.361 N 
HETATM   15  C11 UNL     1      36.221  34.751  19.990  1.00  0.00     0.107 A 
ATOM     16  H4  UNL     1      34.288  34.578  19.268  1.00  0.00     0.165 HD
HETATM   17  C12 UNL     1      37.359  34.098  20.347  1.00  0.00     0.028 A 
HETATM   18 BR1  UNL     1      38.849  35.117  20.982  1.00  0.00    -0.050 Br
HETATM   19  C13 UNL     1      37.429  32.732  20.249  1.00  0.00     0.046 A 
HETATM   20  C14 UNL     1      36.300  32.063  19.777  1.00  0.00     0.065 A 
HETATM   21 CL1  UNL     1      36.385  30.331  19.652  1.00  0.00    -0.082 Cl
ENDBRANCH  11  13
ENDBRANCH   9  11
ENDBRANCH   8   9
ENDBRANCH   2   8
BRANCH   1  22
HETATM   22  N2  UNL     1      34.712  29.224  15.210  1.00  0.00    -0.348 N 
ATOM     23  H2  UNL     1      34.774  29.344  14.199  1.00  0.00     0.163 HD
BRANCH  22  24
HETATM   24  C5  UNL     1      35.873  28.907  15.971  1.00  0.00     0.222 C 
BRANCH  24  25
HETATM   25  N1  UNL     1      36.392  27.647  16.252  1.00  0.00    -0.284 N 
HETATM   26  C3  UNL     1      35.781  26.699  17.076  1.00  0.00     0.222 C 
HETATM   27  C4  UNL     1      36.419  25.349  17.328  1.00  0.00     0.117 C 
HETATM   28  O1  UNL     1      34.690  26.864  17.664  1.00  0.00    -0.273 OA
BRANCH  25  29
HETATM   29  C2  UNL     1      37.676  27.260  15.651  1.00  0.00     0.131 C 
HETATM   30  C1  UNL     1      37.664  27.402  14.161  1.00  0.00     0.027 C 
ENDBRANCH  25  29
ENDBRANCH  24  25
BRANCH  24  31
HETATM   31  O2  UNL     1      36.545  29.901  16.473  1.00  0.00    -0.332 OA
ATOM     32  H2  UNL     1      36.198  30.762  16.270  1.00  0.00     0.220 HD
ENDBRANCH  24  31
ENDBRANCH  22  24
ENDBRANCH   1  22
BRANCH   7  33
HETATM   33  O4  UNL     1      31.888  27.698  16.502  1.00  0.00    -0.388 OA
ATOM     34  H4  UNL     1      31.096  27.272  16.198  1.00  0.00     0.210 HD
ENDBRANCH   7  33
BRANCH   4  35
HETATM   35  C17 UNL     1      29.783  30.509  13.887  1.00  0.00     0.075 C 
HETATM   36  C18 UNL     1      29.593  31.940  14.449  1.00  0.00     0.050 C 
HETATM   37  C19 UNL     1      28.436  29.910  13.816  1.00  0.00     0.050 C 
BRANCH  35  38
HETATM   38  O3  UNL     1      30.196  30.734  12.543  1.00  0.00    -0.386 OA
ATOM     39  H3  UNL     1      30.665  29.986  12.194  1.00  0.00     0.211 HD
ENDBRANCH  35  38
ENDBRANCH   4  35
TORSDOF 12
ENDMDL
MODEL 5
REMARK VINA RESULT: -7.371270376      3.759      7.117
REMARK  12 active torsions:
REMARK  status: ('A' for Active; 'I' for Inactive)
REMARK    1  A    between atoms: C2_2  and  N1_3 
REMARK       I    between atoms: N1_3  and  C3_4 
REMARK    2  A    between atoms: N1_3  and  C5_7 
REMARK    3  A    between atoms: C5_7  and  O2_8 
REMARK    4  A    between atoms: C5_7  and  N2_10 
REMARK    5  A    between atoms: N2_10  and  C6_12 
REMARK    6  A    between atoms: C7_13  and  C8_14 
REMARK    7  A    between atoms: C8_14  and  N3_15 
REMARK    8  A    between atoms: N3_15  and  C9_17 
REMARK    9  A    between atoms: C9_17  and  C10_19 
REMARK   10  A    between atoms: C16_29  and  C17_30 
REMARK   11  A    between atoms: C17_30  and  O3_33 
REMARK   12  A    between atoms: C21_37  and  O4_38 
ROOT
HETATM    1  C6  UNL     1      34.234  30.091  17.829  1.00  0.00     0.124 C 
HETATM    2  C7  UNL     1      35.655  30.513  17.912  1.00  0.00     0.033 C 
HETATM    3  C15 UNL     1      35.940  30.963  19.326  1.00  0.00     0.047 C 
HETATM    4  C16 UNL     1      35.239  32.338  19.390  1.00  0.00    -0.030 C 
HETATM    5  C20 UNL     1      33.970  32.283  19.048  1.00  0.00     0.024 C 
HETATM    6 BR2  UNL     1      32.851  33.853  19.038  1.00  0.00    -0.053 Br
HETATM    7  C21 UNL     1      33.346  30.959  18.657  1.00  0.00     0.181 C 
ENDROOT
BRANCH   2   8
HETATM    8  C8  UNL     1      36.621  29.442  17.457  1.00  0.00     0.127 C 
BRANCH   8   9
HETATM    9  N3  UNL     1      35.972  28.157  17.418  1.00  0.00    -0.379 N 
ATOM     10  H3  UNL     1      35.090  28.007  17.908  1.00  0.00     0.160 HD
BRANCH   9  11
HETATM   11  C9  UNL     1      36.580  27.103  16.688  1.00  0.00     0.125 C 
HETATM   12  S1  UNL     1      36.264  25.528  17.084  1.00  0.00    -0.058 SA
BRANCH  11  13
HETATM   13  C10 UNL     1      37.487  27.314  15.586  1.00  0.00     0.092 A 
HETATM   14  N4  UNL     1      38.798  27.095  15.768  1.00  0.00    -0.361 N 
HETATM   15  C11 UNL     1      39.685  27.283  14.746  1.00  0.00     0.107 A 
ATOM     16  H4  UNL     1      39.136  26.785  16.679  1.00  0.00     0.165 HD
HETATM   17  C12 UNL     1      39.265  27.697  13.521  1.00  0.00     0.028 A 
HETATM   18 BR1  UNL     1      40.560  27.941  12.134  1.00  0.00    -0.050 Br
HETATM   19  C13 UNL     1      37.933  27.932  13.291  1.00  0.00     0.046 A 
HETATM   20  C14 UNL     1      37.053  27.730  14.355  1.00  0.00     0.065 A 
HETATM   21 CL1  UNL     1      35.364  28.027  14.069  1.00  0.00    -0.082 Cl
ENDBRANCH  11  13
ENDBRANCH   9  11
ENDBRANCH   8   9
ENDBRANCH   2   8
BRANCH   1  22
HETATM   22  N2  UNL     1      33.720  30.132  16.458  1.00  0.00    -0.348 N 
ATOM     23  H2  UNL     1      34.002  30.879  15.824  1.00  0.00     0.163 HD
BRANCH  22  24
HETATM   24  C5  UNL     1      32.821  29.117  16.022  1.00  0.00     0.222 C 
BRANCH  24  25
HETATM   25  N1  UNL     1      31.882  29.190  14.998  1.00  0.00    -0.284 N 
HETATM   26  C3  UNL     1      31.526  30.363  14.327  1.00  0.00     0.222 C 
HETATM   27  C4  UNL     1      30.490  30.352  13.222  1.00  0.00     0.117 C 
HETATM   28  O1  UNL     1      32.007  31.493  14.561  1.00  0.00    -0.273 OA
BRANCH  25  29
HETATM   29  C2  UNL     1      31.200  27.961  14.573  1.00  0.00     0.131 C 
HETATM   30  C1  UNL     1      31.910  27.287  13.441  1.00  0.00     0.027 C 
ENDBRANCH  25  29
ENDBRANCH  24  25
BRANCH  24  31
HETATM   31  O2  UNL     1      32.869  27.974  16.641  1.00  0.00    -0.332 OA
ATOM     32  H2  UNL     1      32.023  27.577  16.814  1.00  0.00     0.220 HD
ENDBRANCH  24  31
ENDBRANCH  22  24
ENDBRANCH   1  22
BRANCH   7  33
HETATM   33  O4  UNL     1      33.030  30.278  19.846  1.00  0.00    -0.388 OA
ATOM     34  H4  UNL     1      33.183  30.861  20.580  1.00  0.00     0.210 HD
ENDBRANCH   7  33
BRANCH   4  35
HETATM   35  C17 UNL     1      36.002  33.494  19.802  1.00  0.00     0.075 C 
HETATM   36  C18 UNL     1      37.406  32.971  20.198  1.00  0.00     0.050 C 
HETATM   37  C19 UNL     1      35.553  34.356  20.913  1.00  0.00     0.050 C 
BRANCH  35  38
HETATM   38  O3  UNL     1      36.270  34.359  18.703  1.00  0.00    -0.386 OA
ATOM     39  H3  UNL     1      37.036  34.897  18.864  1.00  0.00     0.211 HD
ENDBRANCH  35  38
ENDBRANCH   4  35
TORSDOF 12
ENDMDL
