MODEL 1
REMARK VINA RESULT: -6.384348611      0.000      0.000
REMARK  4 active torsions:
REMARK  status: ('A' for Active; 'I' for Inactive)
REMARK    1  A    between atoms: O1_2  and  C2_3 
REMARK    2  A    between atoms: C2_3  and  C4_5 
REMARK    3  A    between atoms: C2_3  and  C13_19 
REMARK    4  A    between atoms: C13_19  and  O4_22 
ROOT
HETATM    1  C4  UNL     1      -2.551   3.487  12.452  1.00  0.00     0.170 C 
HETATM    2  O2  UNL     1      -2.866   2.188  12.170  1.00  0.00    -0.324 OA
HETATM    3  C5  UNL     1      -4.091   1.751  12.537  1.00  0.00     0.335 C 
HETATM    4  C6  UNL     1      -4.396   0.457  11.777  1.00  0.00     0.114 C 
HETATM    5  N1  UNL     1      -4.250   1.475  13.948  1.00  0.00    -0.007 N 
ATOM      6  H11 UNL     1      -3.431   1.054  14.386  1.00  0.00     0.284 HD
ATOM      7  H12 UNL     1      -4.894   0.710  14.153  1.00  0.00     0.284 HD
HETATM    8  C7  UNL     1      -4.643   2.754  14.523  1.00  0.00     0.154 C 
HETATM    9  C8  UNL     1      -5.861   2.649  15.384  1.00  0.00     0.049 C 
HETATM   10  C9  UNL     1      -3.498   3.416  15.236  1.00  0.00     0.042 C 
HETATM   11  C10 UNL     1      -3.287   4.737  14.496  1.00  0.00     0.012 C 
HETATM   12  C11 UNL     1      -3.639   4.296  13.067  1.00  0.00     0.050 C 
HETATM   13  C12 UNL     1      -4.923   3.575  13.285  1.00  0.00     0.169 C 
HETATM   14  O3  UNL     1      -5.099   2.671  12.241  1.00  0.00    -0.325 OA
ENDROOT
BRANCH   1  15
HETATM   15  C2  UNL     1      -2.066   4.133  11.138  1.00  0.00     0.113 C 
HETATM   16  C3  UNL     1      -2.083   5.667  11.318  1.00  0.00     0.052 C 
BRANCH  15  17
HETATM   17  O1  UNL     1      -2.924   3.729  10.183  1.00  0.00    -0.380 OA
HETATM   18  C1  UNL     1      -3.667   4.588   9.470  1.00  0.00     0.202 C 
ENDBRANCH  15  17
BRANCH  15  19
HETATM   19  C13 UNL     1      -0.653   3.795  10.836  1.00  0.00     0.084 C 
HETATM   20  C14 UNL     1       0.222   5.011  10.617  1.00  0.00     0.049 C 
HETATM   21  C15 UNL     1      -0.501   2.801   9.698  1.00  0.00     0.049 C 
BRANCH  19  22
HETATM   22  O4  UNL     1      -0.122   3.129  11.940  1.00  0.00    -0.387 OA
ATOM     23  H4  UNL     1       0.694   2.722  11.674  1.00  0.00     0.210 HD
ENDBRANCH  19  22
ENDBRANCH  15  19
ENDBRANCH   1  15
TORSDOF 4
ENDMDL
MODEL 2
REMARK VINA RESULT: -6.256829162      2.182      5.399
REMARK  4 active torsions:
REMARK  status: ('A' for Active; 'I' for Inactive)
REMARK    1  A    between atoms: O1_2  and  C2_3 
REMARK    2  A    between atoms: C2_3  and  C4_5 
REMARK    3  A    between atoms: C2_3  and  C13_19 
REMARK    4  A    between atoms: C13_19  and  O4_22 
ROOT
HETATM    1  C4  UNL     1      -5.149   2.883  14.454  1.00  0.00     0.170 C 
HETATM    2  O2  UNL     1      -5.247   2.288  13.230  1.00  0.00    -0.324 OA
HETATM    3  C5  UNL     1      -4.352   2.655  12.286  1.00  0.00     0.335 C 
HETATM    4  C6  UNL     1      -4.357   1.604  11.172  1.00  0.00     0.114 C 
HETATM    5  N1  UNL     1      -4.597   3.941  11.671  1.00  0.00    -0.007 N 
ATOM      6  H11 UNL     1      -5.583   4.148  11.514  1.00  0.00     0.284 HD
ATOM      7  H12 UNL     1      -4.314   3.997  10.692  1.00  0.00     0.284 HD
HETATM    8  C7  UNL     1      -3.920   4.891  12.543  1.00  0.00     0.154 C 
HETATM    9  C8  UNL     1      -3.022   5.823  11.793  1.00  0.00     0.049 C 
HETATM   10  C9  UNL     1      -4.891   5.626  13.424  1.00  0.00     0.042 C 
HETATM   11  C10 UNL     1      -4.475   5.264  14.849  1.00  0.00     0.012 C 
HETATM   12  C11 UNL     1      -4.004   3.819  14.628  1.00  0.00     0.050 C 
HETATM   13  C12 UNL     1      -3.122   3.973  13.439  1.00  0.00     0.169 C 
HETATM   14  O3  UNL     1      -3.052   2.745  12.786  1.00  0.00    -0.325 OA
ENDROOT
BRANCH   1  15
HETATM   15  C2  UNL     1      -5.096   1.756  15.506  1.00  0.00     0.113 C 
HETATM   16  C3  UNL     1      -3.801   1.922  16.330  1.00  0.00     0.052 C 
BRANCH  15  17
HETATM   17  O1  UNL     1      -5.108   0.599  14.816  1.00  0.00    -0.380 OA
HETATM   18  C1  UNL     1      -4.057  -0.234  14.786  1.00  0.00     0.202 C 
ENDBRANCH  15  17
BRANCH  15  19
HETATM   19  C13 UNL     1      -6.199   1.858  16.493  1.00  0.00     0.084 C 
HETATM   20  C14 UNL     1      -7.067   3.084  16.300  1.00  0.00     0.049 C 
HETATM   21  C15 UNL     1      -5.731   1.742  17.933  1.00  0.00     0.049 C 
BRANCH  19  22
HETATM   22  O4  UNL     1      -7.037   0.758  16.320  1.00  0.00    -0.387 OA
ATOM     23  H4  UNL     1      -6.638   0.181  15.680  1.00  0.00     0.210 HD
ENDBRANCH  19  22
ENDBRANCH  15  19
ENDBRANCH   1  15
TORSDOF 4
ENDMDL
MODEL 3
REMARK VINA RESULT: -6.156702161      1.808      3.172
REMARK  4 active torsions:
REMARK  status: ('A' for Active; 'I' for Inactive)
REMARK    1  A    between atoms: O1_2  and  C2_3 
REMARK    2  A    between atoms: C2_3  and  C4_5 
REMARK    3  A    between atoms: C2_3  and  C13_19 
REMARK    4  A    between atoms: C13_19  and  O4_22 
ROOT
HETATM    1  C4  UNL     1      -3.021   3.604  12.718  1.00  0.00     0.170 C 
HETATM    2  O2  UNL     1      -1.936   3.167  12.013  1.00  0.00    -0.324 OA
HETATM    3  C5  UNL     1      -2.159   2.292  11.008  1.00  0.00     0.335 C 
HETATM    4  C6  UNL     1      -0.925   2.262  10.102  1.00  0.00     0.114 C 
HETATM    5  N1  UNL     1      -2.428   0.932  11.423  1.00  0.00    -0.007 N 
ATOM      6  H11 UNL     1      -1.878   0.624  12.224  1.00  0.00     0.284 HD
ATOM      7  H12 UNL     1      -2.087   0.223  10.773  1.00  0.00     0.284 HD
HETATM    8  C7  UNL     1      -3.867   0.900  11.639  1.00  0.00     0.154 C 
HETATM    9  C8  UNL     1      -4.530  -0.243  10.937  1.00  0.00     0.049 C 
HETATM   10  C9  UNL     1      -4.210   0.942  13.102  1.00  0.00     0.042 C 
HETATM   11  C10 UNL     1      -5.033   2.218  13.274  1.00  0.00     0.012 C 
HETATM   12  C11 UNL     1      -4.343   3.118  12.237  1.00  0.00     0.050 C 
HETATM   13  C12 UNL     1      -4.298   2.222  11.049  1.00  0.00     0.169 C 
HETATM   14  O3  UNL     1      -3.259   2.645  10.223  1.00  0.00    -0.325 OA
ENDROOT
BRANCH   1  15
HETATM   15  C2  UNL     1      -2.973   5.146  12.717  1.00  0.00     0.113 C 
HETATM   16  C3  UNL     1      -4.138   5.668  13.586  1.00  0.00     0.052 C 
BRANCH  15  17
HETATM   17  O1  UNL     1      -3.098   5.523  11.430  1.00  0.00    -0.380 OA
HETATM   18  C1  UNL     1      -3.965   6.468  11.036  1.00  0.00     0.202 C 
ENDBRANCH  15  17
BRANCH  15  19
HETATM   19  C13 UNL     1      -1.744   5.670  13.362  1.00  0.00     0.084 C 
HETATM   20  C14 UNL     1      -1.994   6.880  14.238  1.00  0.00     0.049 C 
HETATM   21  C15 UNL     1      -0.613   5.929  12.383  1.00  0.00     0.049 C 
BRANCH  19  22
HETATM   22  O4  UNL     1      -1.243   4.679  14.205  1.00  0.00    -0.387 OA
ATOM     23  H4  UNL     1      -0.477   5.027  14.645  1.00  0.00     0.210 HD
ENDBRANCH  19  22
ENDBRANCH  15  19
ENDBRANCH   1  15
TORSDOF 4
ENDMDL
MODEL 4
REMARK VINA RESULT: -6.117884315      1.688      4.955
REMARK  4 active torsions:
REMARK  status: ('A' for Active; 'I' for Inactive)
REMARK    1  A    between atoms: O1_2  and  C2_3 
REMARK    2  A    between atoms: C2_3  and  C4_5 
REMARK    3  A    between atoms: C2_3  and  C13_19 
REMARK    4  A    between atoms: C13_19  and  O4_22 
ROOT
HETATM    1  C4  UNL     1      -4.514   3.509  12.893  1.00  0.00     0.170 C 
HETATM    2  O2  UNL     1      -4.950   2.496  12.089  1.00  0.00    -0.324 OA
HETATM    3  C5  UNL     1      -4.058   1.957  11.228  1.00  0.00     0.335 C 
HETATM    4  C6  UNL     1      -4.597   0.607  10.747  1.00  0.00     0.114 C 
HETATM    5  N1  UNL     1      -3.773   2.755  10.056  1.00  0.00    -0.007 N 
ATOM      6  H11 UNL     1      -4.584   3.242   9.675  1.00  0.00     0.284 HD
ATOM      7  H12 UNL     1      -3.567   2.208   9.219  1.00  0.00     0.284 HD
HETATM    8  C7  UNL     1      -2.690   3.634  10.474  1.00  0.00     0.154 C 
HETATM    9  C8  UNL     1      -1.538   3.624   9.520  1.00  0.00     0.049 C 
HETATM   10  C9  UNL     1      -3.183   5.026  10.754  1.00  0.00     0.042 C 
HETATM   11  C10 UNL     1      -2.856   5.267  12.228  1.00  0.00     0.012 C 
HETATM   12  C11 UNL     1      -3.069   3.849  12.779  1.00  0.00     0.050 C 
HETATM   13  C12 UNL     1      -2.298   3.031  11.803  1.00  0.00     0.169 C 
HETATM   14  O3  UNL     1      -2.811   1.736  11.817  1.00  0.00    -0.325 OA
ENDROOT
BRANCH   1  15
HETATM   15  C2  UNL     1      -4.871   3.124  14.344  1.00  0.00     0.113 C 
HETATM   16  C3  UNL     1      -3.672   3.482  15.249  1.00  0.00     0.052 C 
BRANCH  15  17
HETATM   17  O1  UNL     1      -5.114   1.800  14.331  1.00  0.00    -0.380 OA
HETATM   18  C1  UNL     1      -4.342   0.918  14.983  1.00  0.00     0.202 C 
ENDBRANCH  15  17
BRANCH  15  19
HETATM   19  C13 UNL     1      -6.006   3.921  14.872  1.00  0.00     0.084 C 
HETATM   20  C14 UNL     1      -5.668   5.382  15.082  1.00  0.00     0.049 C 
HETATM   21  C15 UNL     1      -6.635   3.321  16.117  1.00  0.00     0.049 C 
BRANCH  19  22
HETATM   22  O4  UNL     1      -7.031   3.893  13.927  1.00  0.00    -0.387 OA
ATOM     23  H4  UNL     1      -6.831   4.535  13.257  1.00  0.00     0.210 HD
ENDBRANCH  19  22
ENDBRANCH  15  19
ENDBRANCH   1  15
TORSDOF 4
ENDMDL
MODEL 5
REMARK VINA RESULT: -6.031062250      2.112      5.100
REMARK  4 active torsions:
REMARK  status: ('A' for Active; 'I' for Inactive)
REMARK    1  A    between atoms: O1_2  and  C2_3 
REMARK    2  A    between atoms: C2_3  and  C4_5 
REMARK    3  A    between atoms: C2_3  and  C13_19 
REMARK    4  A    between atoms: C13_19  and  O4_22 
ROOT
HETATM    1  C4  UNL     1      -3.035   2.846  13.339  1.00  0.00     0.170 C 
HETATM    2  O2  UNL     1      -2.148   3.854  13.585  1.00  0.00    -0.324 OA
HETATM    3  C5  UNL     1      -1.746   4.600  12.532  1.00  0.00     0.335 C 
HETATM    4  C6  UNL     1      -1.119   5.894  13.060  1.00  0.00     0.114 C 
HETATM    5  N1  UNL     1      -0.775   3.969  11.664  1.00  0.00    -0.007 N 
ATOM      6  H11 UNL     1      -0.082   3.404  12.154  1.00  0.00     0.284 HD
ATOM      7  H12 UNL     1      -0.111   4.618  11.239  1.00  0.00     0.284 HD
HETATM    8  C7  UNL     1      -1.580   3.226  10.705  1.00  0.00     0.154 C 
HETATM    9  C8  UNL     1      -1.186   3.500   9.288  1.00  0.00     0.049 C 
HETATM   10  C9  UNL     1      -1.597   1.756  11.015  1.00  0.00     0.042 C 
HETATM   11  C10 UNL     1      -3.068   1.428  11.272  1.00  0.00     0.012 C 
HETATM   12  C11 UNL     1      -3.518   2.739  11.934  1.00  0.00     0.050 C 
HETATM   13  C12 UNL     1      -2.967   3.752  10.993  1.00  0.00     0.169 C 
HETATM   14  O3  UNL     1      -2.801   4.948  11.687  1.00  0.00    -0.325 OA
ENDROOT
BRANCH   1  15
HETATM   15  C2  UNL     1      -4.218   3.033  14.310  1.00  0.00     0.113 C 
HETATM   16  C3  UNL     1      -5.531   2.884  13.510  1.00  0.00     0.052 C 
BRANCH  15  17
HETATM   17  O1  UNL     1      -4.084   4.268  14.830  1.00  0.00    -0.380 OA
HETATM   18  C1  UNL     1      -4.919   5.273  14.527  1.00  0.00     0.202 C 
ENDBRANCH  15  17
BRANCH  15  19
HETATM   19  C13 UNL     1      -4.271   1.968  15.341  1.00  0.00     0.084 C 
HETATM   20  C14 UNL     1      -4.355   0.572  14.759  1.00  0.00     0.049 C 
HETATM   21  C15 UNL     1      -5.352   2.191  16.384  1.00  0.00     0.049 C 
BRANCH  19  22
HETATM   22  O4  UNL     1      -3.083   2.012  16.070  1.00  0.00    -0.387 OA
ATOM     23  H4  UNL     1      -3.203   2.619  16.791  1.00  0.00     0.210 HD
ENDBRANCH  19  22
ENDBRANCH  15  19
ENDBRANCH   1  15
TORSDOF 4
ENDMDL
