MODEL 1
REMARK VINA RESULT: -10.429086846      0.000      0.000
REMARK  13 active torsions:
REMARK  status: ('A' for Active; 'I' for Inactive)
REMARK    1  A    between atoms: C6_7  and  N1_8 
REMARK    2  A    between atoms: N1_8  and  C7_10 
REMARK    3  A    between atoms: C7_10  and  O1_11 
REMARK    4  A    between atoms: C8_13  and  C9_14 
REMARK    5  A    between atoms: C9_14  and  C10_15 
REMARK    6  A    between atoms: C10_15  and  C11_16 
REMARK    7  A    between atoms: C11_16  and  C12_17 
REMARK    8  A    between atoms: C12_17  and  C13_18 
REMARK    9  A    between atoms: C13_18  and  C14_19 
REMARK   10  A    between atoms: C13_18  and  C20_28 
REMARK   11  A    between atoms: C15_20  and  O2_21 
REMARK   12  A    between atoms: C15_20  and  N2_23 
REMARK   13  A    between atoms: N2_23  and  C17_25 
ROOT
HETATM    1  C10 UNL     1      27.674  87.502  -1.112  1.00  0.00    -0.004 C 
ENDROOT
BRANCH   1   2
HETATM    2  C9  UNL     1      26.412  87.490  -1.816  1.00  0.00     0.004 C 
BRANCH   2   3
HETATM    3  C8  UNL     1      25.211  87.274  -1.476  1.00  0.00     0.056 C 
HETATM    4  C7  UNL     1      24.308  86.194  -1.625  1.00  0.00     0.140 C 
BRANCH   4   5
HETATM    5  N1  UNL     1      24.499  84.975  -2.238  1.00  0.00    -0.337 N 
ATOM      6  H1  UNL     1      25.132  84.304  -1.805  1.00  0.00     0.168 HD
BRANCH   5   7
HETATM    7  C6  UNL     1      23.847  84.613  -3.453  1.00  0.00     0.037 A 
HETATM    8  C5  UNL     1      23.125  83.476  -3.608  1.00  0.00     0.071 A 
HETATM    9  C4  UNL     1      22.545  83.169  -4.841  1.00  0.00     0.119 A 
HETATM   10  C3  UNL     1      22.717  84.036  -5.895  1.00  0.00     0.049 A 
HETATM   11  F1  UNL     1      21.823  82.036  -5.004  1.00  0.00    -0.206 F 
HETATM   12  C2  UNL     1      23.456  85.199  -5.734  1.00  0.00    -0.057 A 
HETATM   13  C1  UNL     1      23.632  86.129  -6.885  1.00  0.00     0.048 C 
HETATM   14  C21 UNL     1      24.024  85.496  -4.520  1.00  0.00     0.036 A 
ENDBRANCH   5   7
ENDBRANCH   4   5
BRANCH   4  15
HETATM   15  O1  UNL     1      23.098  86.344  -1.110  1.00  0.00    -0.346 OA
ATOM     16  H1  UNL     1      22.927  87.221  -0.789  1.00  0.00     0.219 HD
ENDBRANCH   4  15
ENDBRANCH   2   3
ENDBRANCH   1   2
BRANCH   1  17
HETATM   17  C11 UNL     1      28.149  86.473  -0.418  1.00  0.00    -0.026 C 
BRANCH  17  18
HETATM   18  C12 UNL     1      29.516  86.240  -0.041  1.00  0.00     0.046 C 
BRANCH  18  19
HETATM   19  C13 UNL     1      29.644  85.552   1.362  1.00  0.00     0.117 C 
BRANCH  19  20
HETATM   20  C14 UNL     1      30.798  86.176   2.030  1.00  0.00     0.044 C 
HETATM   21  C15 UNL     1      32.094  85.544   2.071  1.00  0.00     0.134 C 
BRANCH  21  22
HETATM   22  O2  UNL     1      32.840  86.010   3.055  1.00  0.00    -0.346 OA
ATOM     23  H2  UNL     1      33.680  85.569   3.104  1.00  0.00     0.219 HD
ENDBRANCH  21  22
BRANCH  21  24
HETATM   24  N2  UNL     1      32.728  84.577   1.328  1.00  0.00    -0.363 N 
HETATM   25  C16 UNL     1      34.182  84.338   1.661  1.00  0.00     0.152 C 
BRANCH  24  26
HETATM   26  C17 UNL     1      32.285  83.753   0.252  1.00  0.00     0.077 C 
HETATM   27  C18 UNL     1      33.225  82.570   0.026  1.00  0.00     0.032 C 
HETATM   28  C19 UNL     1      32.317  84.527  -1.059  1.00  0.00     0.032 C 
ENDBRANCH  24  26
ENDBRANCH  21  24
ENDBRANCH  19  20
BRANCH  19  29
HETATM   29  C20 UNL     1      28.346  85.691   2.034  1.00  0.00     0.181 C 
HETATM   30  O3  UNL     1      27.730  84.672   2.427  1.00  0.00    -0.647 OA
HETATM   31  O4  UNL     1      27.765  86.927   2.255  1.00  0.00    -0.647 OA
ENDBRANCH  19  29
ENDBRANCH  18  19
ENDBRANCH  17  18
ENDBRANCH   1  17
TORSDOF 13
ENDMDL
MODEL 2
REMARK VINA RESULT: -10.184737739      1.061      1.658
REMARK  13 active torsions:
REMARK  status: ('A' for Active; 'I' for Inactive)
REMARK    1  A    between atoms: C6_7  and  N1_8 
REMARK    2  A    between atoms: N1_8  and  C7_10 
REMARK    3  A    between atoms: C7_10  and  O1_11 
REMARK    4  A    between atoms: C8_13  and  C9_14 
REMARK    5  A    between atoms: C9_14  and  C10_15 
REMARK    6  A    between atoms: C10_15  and  C11_16 
REMARK    7  A    between atoms: C11_16  and  C12_17 
REMARK    8  A    between atoms: C12_17  and  C13_18 
REMARK    9  A    between atoms: C13_18  and  C14_19 
REMARK   10  A    between atoms: C13_18  and  C20_28 
REMARK   11  A    between atoms: C15_20  and  O2_21 
REMARK   12  A    between atoms: C15_20  and  N2_23 
REMARK   13  A    between atoms: N2_23  and  C17_25 
ROOT
HETATM    1  C10 UNL     1      27.974  87.876  -0.928  1.00  0.00    -0.004 C 
ENDROOT
BRANCH   1   2
HETATM    2  C9  UNL     1      26.836  87.278  -1.587  1.00  0.00     0.004 C 
BRANCH   2   3
HETATM    3  C8  UNL     1      25.593  87.234  -1.343  1.00  0.00     0.056 C 
HETATM    4  C7  UNL     1      24.563  86.289  -1.566  1.00  0.00     0.140 C 
BRANCH   4   5
HETATM    5  N1  UNL     1      24.628  85.051  -2.168  1.00  0.00    -0.337 N 
ATOM      6  H1  UNL     1      25.135  84.304  -1.694  1.00  0.00     0.168 HD
BRANCH   5   7
HETATM    7  C6  UNL     1      24.017  84.772  -3.424  1.00  0.00     0.037 A 
HETATM    8  C5  UNL     1      24.137  85.572  -4.512  1.00  0.00     0.071 A 
HETATM    9  C4  UNL     1      23.478  85.252  -5.701  1.00  0.00     0.119 A 
HETATM   10  C3  UNL     1      22.705  84.116  -5.753  1.00  0.00     0.049 A 
HETATM   11  F1  UNL     1      23.592  86.046  -6.791  1.00  0.00    -0.206 F 
HETATM   12  C2  UNL     1      22.584  83.298  -4.638  1.00  0.00    -0.057 A 
HETATM   13  C1  UNL     1      21.745  82.068  -4.711  1.00  0.00     0.048 C 
HETATM   14  C21 UNL     1      23.234  83.616  -3.472  1.00  0.00     0.036 A 
ENDBRANCH   5   7
ENDBRANCH   4   5
BRANCH   4  15
HETATM   15  O1  UNL     1      23.349  86.610  -1.145  1.00  0.00    -0.346 OA
ATOM     16  H1  UNL     1      23.232  87.540  -0.997  1.00  0.00     0.219 HD
ENDBRANCH   4  15
ENDBRANCH   2   3
ENDBRANCH   1   2
BRANCH   1  17
HETATM   17  C11 UNL     1      28.819  87.208  -0.150  1.00  0.00    -0.026 C 
BRANCH  17  18
HETATM   18  C12 UNL     1      28.991  85.784  -0.078  1.00  0.00     0.046 C 
BRANCH  18  19
HETATM   19  C13 UNL     1      29.188  85.274   1.392  1.00  0.00     0.117 C 
BRANCH  19  20
HETATM   20  C14 UNL     1      30.225  86.128   1.995  1.00  0.00     0.044 C 
HETATM   21  C15 UNL     1      31.602  85.710   2.089  1.00  0.00     0.134 C 
BRANCH  21  22
HETATM   22  O2  UNL     1      32.256  86.375   3.023  1.00  0.00    -0.346 OA
ATOM     23  H2  UNL     1      33.148  86.571   2.761  1.00  0.00     0.219 HD
ENDBRANCH  21  22
BRANCH  21  24
HETATM   24  N2  UNL     1      32.385  84.788   1.438  1.00  0.00    -0.363 N 
HETATM   25  C16 UNL     1      33.816  84.687   1.911  1.00  0.00     0.152 C 
BRANCH  24  26
HETATM   26  C17 UNL     1      32.121  83.905   0.350  1.00  0.00     0.077 C 
HETATM   27  C18 UNL     1      33.239  82.879   0.173  1.00  0.00     0.032 C 
HETATM   28  C19 UNL     1      32.090  84.674  -0.964  1.00  0.00     0.032 C 
ENDBRANCH  24  26
ENDBRANCH  21  24
ENDBRANCH  19  20
BRANCH  19  29
HETATM   29  C20 UNL     1      27.870  85.291   2.038  1.00  0.00     0.181 C 
HETATM   30  O3  UNL     1      27.568  84.407   2.873  1.00  0.00    -0.647 OA
HETATM   31  O4  UNL     1      26.929  86.265   1.754  1.00  0.00    -0.647 OA
ENDBRANCH  19  29
ENDBRANCH  18  19
ENDBRANCH  17  18
ENDBRANCH   1  17
TORSDOF 13
ENDMDL
MODEL 3
REMARK VINA RESULT: -9.826507846      1.768      2.671
REMARK  13 active torsions:
REMARK  status: ('A' for Active; 'I' for Inactive)
REMARK    1  A    between atoms: C6_7  and  N1_8 
REMARK    2  A    between atoms: N1_8  and  C7_10 
REMARK    3  A    between atoms: C7_10  and  O1_11 
REMARK    4  A    between atoms: C8_13  and  C9_14 
REMARK    5  A    between atoms: C9_14  and  C10_15 
REMARK    6  A    between atoms: C10_15  and  C11_16 
REMARK    7  A    between atoms: C11_16  and  C12_17 
REMARK    8  A    between atoms: C12_17  and  C13_18 
REMARK    9  A    between atoms: C13_18  and  C14_19 
REMARK   10  A    between atoms: C13_18  and  C20_28 
REMARK   11  A    between atoms: C15_20  and  O2_21 
REMARK   12  A    between atoms: C15_20  and  N2_23 
REMARK   13  A    between atoms: N2_23  and  C17_25 
ROOT
HETATM    1  C10 UNL     1      28.106  86.331   0.413  1.00  0.00    -0.004 C 
ENDROOT
BRANCH   1   2
HETATM    2  C9  UNL     1      27.227  86.247  -0.731  1.00  0.00     0.004 C 
BRANCH   2   3
HETATM    3  C8  UNL     1      26.622  87.098  -1.448  1.00  0.00     0.056 C 
HETATM    4  C7  UNL     1      25.325  87.194  -2.007  1.00  0.00     0.140 C 
BRANCH   4   5
HETATM    5  N1  UNL     1      24.272  86.309  -1.927  1.00  0.00    -0.337 N 
ATOM      6  H1  UNL     1      23.799  86.193  -1.031  1.00  0.00     0.168 HD
BRANCH   5   7
HETATM    7  C6  UNL     1      23.817  85.550  -3.044  1.00  0.00     0.037 A 
HETATM    8  C5  UNL     1      23.371  84.273  -2.953  1.00  0.00     0.071 A 
HETATM    9  C4  UNL     1      22.976  83.579  -4.098  1.00  0.00     0.119 A 
HETATM   10  C3  UNL     1      23.044  84.208  -5.319  1.00  0.00     0.049 A 
HETATM   11  F1  UNL     1      22.530  82.303  -4.015  1.00  0.00    -0.206 F 
HETATM   12  C2  UNL     1      23.500  85.516  -5.410  1.00  0.00    -0.057 A 
HETATM   13  C1  UNL     1      23.565  86.185  -6.740  1.00  0.00     0.048 C 
HETATM   14  C21 UNL     1      23.887  86.194  -4.281  1.00  0.00     0.036 A 
ENDBRANCH   5   7
ENDBRANCH   4   5
BRANCH   4  15
HETATM   15  O1  UNL     1      25.052  88.279  -2.714  1.00  0.00    -0.346 OA
ATOM     16  H1  UNL     1      24.727  89.002  -2.191  1.00  0.00     0.219 HD
ENDBRANCH   4  15
ENDBRANCH   2   3
ENDBRANCH   1   2
BRANCH   1  17
HETATM   17  C11 UNL     1      29.376  85.941   0.407  1.00  0.00    -0.026 C 
BRANCH  17  18
HETATM   18  C12 UNL     1      30.053  85.178   1.419  1.00  0.00     0.046 C 
BRANCH  18  19
HETATM   19  C13 UNL     1      31.431  84.614   0.926  1.00  0.00     0.117 C 
BRANCH  19  20
HETATM   20  C14 UNL     1      31.554  84.991  -0.491  1.00  0.00     0.044 C 
HETATM   21  C15 UNL     1      32.742  84.707  -1.259  1.00  0.00     0.134 C 
BRANCH  21  22
HETATM   22  O2  UNL     1      32.842  85.488  -2.319  1.00  0.00    -0.346 OA
ATOM     23  H2  UNL     1      32.269  85.207  -3.022  1.00  0.00     0.219 HD
ENDBRANCH  21  22
BRANCH  21  24
HETATM   24  N2  UNL     1      33.785  83.821  -1.144  1.00  0.00    -0.363 N 
HETATM   25  C16 UNL     1      35.129  84.424  -0.810  1.00  0.00     0.152 C 
BRANCH  24  26
HETATM   26  C17 UNL     1      33.864  82.407  -1.315  1.00  0.00     0.077 C 
HETATM   27  C18 UNL     1      34.038  81.688   0.022  1.00  0.00     0.032 C 
HETATM   28  C19 UNL     1      35.103  82.036  -2.118  1.00  0.00     0.032 C 
ENDBRANCH  24  26
ENDBRANCH  21  24
ENDBRANCH  19  20
BRANCH  19  29
HETATM   29  C20 UNL     1      32.462  85.133   1.833  1.00  0.00     0.181 C 
HETATM   30  O3  UNL     1      33.546  84.518   1.970  1.00  0.00    -0.647 OA
HETATM   31  O4  UNL     1      32.281  86.299   2.556  1.00  0.00    -0.647 OA
ENDBRANCH  19  29
ENDBRANCH  18  19
ENDBRANCH  17  18
ENDBRANCH   1  17
TORSDOF 13
ENDMDL
MODEL 4
REMARK VINA RESULT: -9.812767360      2.609      9.241
REMARK  13 active torsions:
REMARK  status: ('A' for Active; 'I' for Inactive)
REMARK    1  A    between atoms: C6_7  and  N1_8 
REMARK    2  A    between atoms: N1_8  and  C7_10 
REMARK    3  A    between atoms: C7_10  and  O1_11 
REMARK    4  A    between atoms: C8_13  and  C9_14 
REMARK    5  A    between atoms: C9_14  and  C10_15 
REMARK    6  A    between atoms: C10_15  and  C11_16 
REMARK    7  A    between atoms: C11_16  and  C12_17 
REMARK    8  A    between atoms: C12_17  and  C13_18 
REMARK    9  A    between atoms: C13_18  and  C14_19 
REMARK   10  A    between atoms: C13_18  and  C20_28 
REMARK   11  A    between atoms: C15_20  and  O2_21 
REMARK   12  A    between atoms: C15_20  and  N2_23 
REMARK   13  A    between atoms: N2_23  and  C17_25 
ROOT
HETATM    1  C10 UNL     1      27.503  87.476  -1.206  1.00  0.00    -0.004 C 
ENDROOT
BRANCH   1   2
HETATM    2  C9  UNL     1      28.097  87.218   0.086  1.00  0.00     0.004 C 
BRANCH   2   3
HETATM    3  C8  UNL     1      27.845  86.413   1.032  1.00  0.00     0.056 C 
HETATM    4  C7  UNL     1      28.592  85.859   2.099  1.00  0.00     0.140 C 
BRANCH   4   5
HETATM    5  N1  UNL     1      29.916  86.051   2.431  1.00  0.00    -0.337 N 
ATOM      6  H1  UNL     1      30.137  86.611   3.253  1.00  0.00     0.168 HD
BRANCH   5   7
HETATM    7  C6  UNL     1      30.988  85.499   1.672  1.00  0.00     0.037 A 
HETATM    8  C5  UNL     1      30.868  85.099   0.383  1.00  0.00     0.071 A 
HETATM    9  C4  UNL     1      31.956  84.532  -0.286  1.00  0.00     0.119 A 
HETATM   10  C3  UNL     1      33.149  84.384   0.382  1.00  0.00     0.049 A 
HETATM   11  F1  UNL     1      31.844  84.129  -1.573  1.00  0.00    -0.206 F 
HETATM   12  C2  UNL     1      33.270  84.795   1.702  1.00  0.00    -0.057 A 
HETATM   13  C1  UNL     1      34.570  84.631   2.411  1.00  0.00     0.048 C 
HETATM   14  C21 UNL     1      32.198  85.352   2.354  1.00  0.00     0.036 A 
ENDBRANCH   5   7
ENDBRANCH   4   5
BRANCH   4  15
HETATM   15  O1  UNL     1      27.956  85.034   2.916  1.00  0.00    -0.346 OA
ATOM     16  H1  UNL     1      28.523  84.389   3.322  1.00  0.00     0.219 HD
ENDBRANCH   4  15
ENDBRANCH   2   3
ENDBRANCH   1   2
BRANCH   1  17
HETATM   17  C11 UNL     1      26.269  87.117  -1.543  1.00  0.00    -0.026 C 
BRANCH  17  18
HETATM   18  C12 UNL     1      25.720  85.789  -1.536  1.00  0.00     0.046 C 
BRANCH  18  19
HETATM   19  C13 UNL     1      24.756  85.530  -2.745  1.00  0.00     0.117 C 
BRANCH  19  20
HETATM   20  C14 UNL     1      24.757  84.076  -2.977  1.00  0.00     0.044 C 
HETATM   21  C15 UNL     1      23.651  83.400  -3.608  1.00  0.00     0.134 C 
BRANCH  21  22
HETATM   22  O2  UNL     1      23.634  82.110  -3.326  1.00  0.00    -0.346 OA
ATOM     23  H2  UNL     1      24.401  81.845  -2.832  1.00  0.00     0.219 HD
ENDBRANCH  21  22
BRANCH  21  24
HETATM   24  N2  UNL     1      22.618  83.783  -4.430  1.00  0.00    -0.363 N 
HETATM   25  C16 UNL     1      21.228  83.629  -3.857  1.00  0.00     0.152 C 
BRANCH  24  26
HETATM   26  C17 UNL     1      22.591  84.280  -5.766  1.00  0.00     0.077 C 
HETATM   27  C18 UNL     1      22.608  83.145  -6.789  1.00  0.00     0.032 C 
HETATM   28  C19 UNL     1      23.850  85.084  -6.060  1.00  0.00     0.032 C 
ENDBRANCH  24  26
ENDBRANCH  21  24
ENDBRANCH  19  20
BRANCH  19  29
HETATM   29  C20 UNL     1      23.463  86.137  -2.408  1.00  0.00     0.181 C 
HETATM   30  O3  UNL     1      23.003  86.031  -1.247  1.00  0.00    -0.647 OA
HETATM   31  O4  UNL     1      22.716  86.834  -3.341  1.00  0.00    -0.647 OA
ENDBRANCH  19  29
ENDBRANCH  18  19
ENDBRANCH  17  18
ENDBRANCH   1  17
TORSDOF 13
ENDMDL
MODEL 5
REMARK VINA RESULT: -9.743454022      3.316      9.444
REMARK  13 active torsions:
REMARK  status: ('A' for Active; 'I' for Inactive)
REMARK    1  A    between atoms: C6_7  and  N1_8 
REMARK    2  A    between atoms: N1_8  and  C7_10 
REMARK    3  A    between atoms: C7_10  and  O1_11 
REMARK    4  A    between atoms: C8_13  and  C9_14 
REMARK    5  A    between atoms: C9_14  and  C10_15 
REMARK    6  A    between atoms: C10_15  and  C11_16 
REMARK    7  A    between atoms: C11_16  and  C12_17 
REMARK    8  A    between atoms: C12_17  and  C13_18 
REMARK    9  A    between atoms: C13_18  and  C14_19 
REMARK   10  A    between atoms: C13_18  and  C20_28 
REMARK   11  A    between atoms: C15_20  and  O2_21 
REMARK   12  A    between atoms: C15_20  and  N2_23 
REMARK   13  A    between atoms: N2_23  and  C17_25 
ROOT
HETATM    1  C10 UNL     1      27.313  87.455  -1.238  1.00  0.00    -0.004 C 
ENDROOT
BRANCH   1   2
HETATM    2  C9  UNL     1      28.208  86.924  -0.236  1.00  0.00     0.004 C 
BRANCH   2   3
HETATM    3  C8  UNL     1      28.049  86.262   0.832  1.00  0.00     0.056 C 
HETATM    4  C7  UNL     1      28.843  86.000   1.975  1.00  0.00     0.140 C 
BRANCH   4   5
HETATM    5  N1  UNL     1      30.123  86.422   2.264  1.00  0.00    -0.337 N 
ATOM      6  H1  UNL     1      30.245  87.284   2.795  1.00  0.00     0.168 HD
BRANCH   5   7
HETATM    7  C6  UNL     1      31.283  85.704   1.852  1.00  0.00     0.037 A 
HETATM    8  C5  UNL     1      32.397  85.576   2.614  1.00  0.00     0.071 A 
HETATM    9  C4  UNL     1      33.511  84.889   2.127  1.00  0.00     0.119 A 
HETATM   10  C3  UNL     1      33.462  84.343   0.866  1.00  0.00     0.049 A 
HETATM   11  F1  UNL     1      34.627  84.758   2.881  1.00  0.00    -0.206 F 
HETATM   12  C2  UNL     1      32.320  84.474   0.088  1.00  0.00    -0.057 A 
HETATM   13  C1  UNL     1      32.282  83.875  -1.276  1.00  0.00     0.048 C 
HETATM   14  C21 UNL     1      31.228  85.151   0.571  1.00  0.00     0.036 A 
ENDBRANCH   5   7
ENDBRANCH   4   5
BRANCH   4  15
HETATM   15  O1  UNL     1      28.308  85.244   2.921  1.00  0.00    -0.346 OA
ATOM     16  H1  UNL     1      28.327  84.316   2.722  1.00  0.00     0.219 HD
ENDBRANCH   4  15
ENDBRANCH   2   3
ENDBRANCH   1   2
BRANCH   1  17
HETATM   17  C11 UNL     1      26.072  87.023  -1.432  1.00  0.00    -0.026 C 
BRANCH  17  18
HETATM   18  C12 UNL     1      25.636  85.658  -1.539  1.00  0.00     0.046 C 
BRANCH  18  19
HETATM   19  C13 UNL     1      24.713  85.417  -2.784  1.00  0.00     0.117 C 
BRANCH  19  20
HETATM   20  C14 UNL     1      24.691  83.963  -3.012  1.00  0.00     0.044 C 
HETATM   21  C15 UNL     1      23.568  83.302  -3.631  1.00  0.00     0.134 C 
BRANCH  21  22
HETATM   22  O2  UNL     1      23.537  82.013  -3.346  1.00  0.00    -0.346 OA
ATOM     23  H2  UNL     1      24.204  81.528  -3.818  1.00  0.00     0.219 HD
ENDBRANCH  21  22
BRANCH  21  24
HETATM   24  N2  UNL     1      22.533  83.698  -4.442  1.00  0.00    -0.363 N 
HETATM   25  C16 UNL     1      21.153  83.633  -3.830  1.00  0.00     0.152 C 
BRANCH  24  26
HETATM   26  C17 UNL     1      22.493  84.140  -5.797  1.00  0.00     0.077 C 
HETATM   27  C18 UNL     1      22.546  82.967  -6.774  1.00  0.00     0.032 C 
HETATM   28  C19 UNL     1      23.727  84.970  -6.123  1.00  0.00     0.032 C 
ENDBRANCH  24  26
ENDBRANCH  21  24
ENDBRANCH  19  20
BRANCH  19  29
HETATM   29  C20 UNL     1      23.421  86.053  -2.496  1.00  0.00     0.181 C 
HETATM   30  O3  UNL     1      22.843  86.728  -3.380  1.00  0.00    -0.647 OA
HETATM   31  O4  UNL     1      22.805  85.934  -1.263  1.00  0.00    -0.647 OA
ENDBRANCH  19  29
ENDBRANCH  18  19
ENDBRANCH  17  18
ENDBRANCH   1  17
TORSDOF 13
ENDMDL
