MODEL 1
REMARK VINA RESULT: -6.161884072      0.000      0.000
REMARK  3 active torsions:
REMARK  status: ('A' for Active; 'I' for Inactive)
REMARK    1  A    between atoms: C3_7  and  N3_8 
REMARK    2  A    between atoms: N3_8  and  C4_10 
REMARK    3  A    between atoms: C4_10  and  C5_11 
ROOT
HETATM    1  C4  UNL     1     -30.595   7.614 -26.744  1.00  0.00     0.199 C 
ENDROOT
BRANCH   1   2
HETATM    2  N3  UNL     1     -30.816   8.424 -25.566  1.00  0.00    -0.381 N 
ATOM      3  H3  UNL     1     -31.641   8.230 -24.998  1.00  0.00     0.160 HD
BRANCH   2   4
HETATM    4  C3  UNL     1     -29.965   9.459 -25.160  1.00  0.00     0.062 A 
HETATM    5  C1  UNL     1     -29.810   9.918 -23.871  1.00  0.00     0.137 A 
HETATM    6  N1  UNL     1     -28.902  10.911 -23.893  1.00  0.00    -0.310 N 
HETATM    7  N2  UNL     1     -28.468  11.112 -25.119  1.00  0.00    -0.310 N 
ATOM      8  H1  UNL     1     -28.592  11.434 -23.073  1.00  0.00     0.186 HD
HETATM    9  C2  UNL     1     -29.097  10.246 -25.903  1.00  0.00     0.137 A 
ATOM     10  H2  UNL     1     -27.779  11.805 -25.411  1.00  0.00     0.186 HD
ENDBRANCH   2   4
ENDBRANCH   1   2
BRANCH   1  11
HETATM   11  C5  UNL     1     -29.677   6.482 -26.352  1.00  0.00     0.131 A 
HETATM   12  N4  UNL     1     -28.335   6.475 -26.434  1.00  0.00    -0.271 N 
HETATM   13  N5  UNL     1     -27.937   5.299 -25.986  1.00  0.00    -0.227 N 
ATOM     14  H4  UNL     1     -27.741   7.231 -26.776  1.00  0.00     0.190 HD
HETATM   15  N6  UNL     1     -28.947   4.547 -25.621  1.00  0.00    -0.227 N 
ATOM     16  H5  UNL     1     -26.960   5.009 -25.932  1.00  0.00     0.210 HD
HETATM   17  N7  UNL     1     -30.019   5.281 -25.849  1.00  0.00    -0.271 N 
ATOM     18  H6  UNL     1     -28.911   3.601 -25.242  1.00  0.00     0.210 HD
ATOM     19  H7  UNL     1     -30.977   4.979 -25.668  1.00  0.00     0.190 HD
ENDBRANCH   1  11
TORSDOF 3
ENDMDL
MODEL 2
REMARK VINA RESULT: -6.142269185      0.051      1.039
REMARK  3 active torsions:
REMARK  status: ('A' for Active; 'I' for Inactive)
REMARK    1  A    between atoms: C3_7  and  N3_8 
REMARK    2  A    between atoms: N3_8  and  C4_10 
REMARK    3  A    between atoms: C4_10  and  C5_11 
ROOT
HETATM    1  C4  UNL     1     -30.562   7.602 -26.740  1.00  0.00     0.199 C 
ENDROOT
BRANCH   1   2
HETATM    2  N3  UNL     1     -30.809   8.387 -25.550  1.00  0.00    -0.381 N 
ATOM      3  H3  UNL     1     -31.643   8.178 -25.001  1.00  0.00     0.160 HD
BRANCH   2   4
HETATM    4  C3  UNL     1     -29.971   9.419 -25.109  1.00  0.00     0.062 A 
HETATM    5  C1  UNL     1     -29.129  10.169 -25.899  1.00  0.00     0.137 A 
HETATM    6  N1  UNL     1     -28.502  11.058 -25.107  1.00  0.00    -0.310 N 
HETATM    7  N2  UNL     1     -28.894  10.919 -23.858  1.00  0.00    -0.310 N 
ATOM      8  H1  UNL     1     -27.819  11.744 -25.430  1.00  0.00     0.186 HD
HETATM    9  C2  UNL     1     -29.782   9.933 -23.834  1.00  0.00     0.137 A 
ATOM     10  H2  UNL     1     -28.574  11.466 -23.059  1.00  0.00     0.186 HD
ENDBRANCH   2   4
ENDBRANCH   1   2
BRANCH   1  11
HETATM   11  C5  UNL     1     -29.658   6.459 -26.352  1.00  0.00     0.131 A 
HETATM   12  N4  UNL     1     -28.318   6.427 -26.461  1.00  0.00    -0.271 N 
HETATM   13  N5  UNL     1     -27.932   5.250 -26.006  1.00  0.00    -0.227 N 
ATOM     14  H4  UNL     1     -27.717   7.167 -26.825  1.00  0.00     0.190 HD
HETATM   15  N6  UNL     1     -28.948   4.521 -25.610  1.00  0.00    -0.227 N 
ATOM     16  H5  UNL     1     -26.960   4.943 -25.967  1.00  0.00     0.210 HD
HETATM   17  N7  UNL     1     -30.010   5.271 -25.825  1.00  0.00    -0.271 N 
ATOM     18  H6  UNL     1     -28.921   3.579 -25.219  1.00  0.00     0.210 HD
ATOM     19  H7  UNL     1     -30.970   4.989 -25.621  1.00  0.00     0.190 HD
ENDBRANCH   1  11
TORSDOF 3
ENDMDL
MODEL 3
REMARK VINA RESULT: -5.763561753      1.251      5.301
REMARK  3 active torsions:
REMARK  status: ('A' for Active; 'I' for Inactive)
REMARK    1  A    between atoms: C3_7  and  N3_8 
REMARK    2  A    between atoms: N3_8  and  C4_10 
REMARK    3  A    between atoms: C4_10  and  C5_11 
ROOT
HETATM    1  C4  UNL     1     -29.674   9.125 -25.660  1.00  0.00     0.199 C 
ENDROOT
BRANCH   1   2
HETATM    2  N3  UNL     1     -28.756   8.007 -25.617  1.00  0.00    -0.381 N 
ATOM      3  H3  UNL     1     -27.761   8.206 -25.512  1.00  0.00     0.160 HD
BRANCH   2   4
HETATM    4  C3  UNL     1     -29.154   6.667 -25.710  1.00  0.00     0.062 A 
HETATM    5  C1  UNL     1     -30.275   6.201 -26.361  1.00  0.00     0.137 A 
HETATM    6  N1  UNL     1     -30.302   4.863 -26.230  1.00  0.00    -0.310 N 
HETATM    7  N2  UNL     1     -29.265   4.446 -25.534  1.00  0.00    -0.310 N 
ATOM      8  H1  UNL     1     -31.025   4.255 -26.617  1.00  0.00     0.186 HD
HETATM    9  C2  UNL     1     -28.556   5.520 -25.209  1.00  0.00     0.137 A 
ATOM     10  H2  UNL     1     -29.048   3.480 -25.291  1.00  0.00     0.186 HD
ENDBRANCH   2   4
ENDBRANCH   1   2
BRANCH   1  11
HETATM   11  C5  UNL     1     -28.871  10.382 -25.431  1.00  0.00     0.131 A 
HETATM   12  N4  UNL     1     -28.800  11.087 -24.288  1.00  0.00    -0.271 N 
HETATM   13  N5  UNL     1     -27.989  12.102 -24.524  1.00  0.00    -0.227 N 
ATOM     14  H4  UNL     1     -29.279  10.880 -23.412  1.00  0.00     0.190 HD
HETATM   15  N6  UNL     1     -27.534  12.089 -25.753  1.00  0.00    -0.227 N 
ATOM     16  H5  UNL     1     -27.745  12.811 -23.832  1.00  0.00     0.210 HD
HETATM   17  N7  UNL     1     -28.081  11.027 -26.309  1.00  0.00    -0.271 N 
ATOM     18  H6  UNL     1     -26.895  12.757 -26.185  1.00  0.00     0.210 HD
ATOM     19  H7  UNL     1     -27.927  10.733 -27.274  1.00  0.00     0.190 HD
ENDBRANCH   1  11
TORSDOF 3
ENDMDL
MODEL 4
REMARK VINA RESULT: -5.728075037      1.256      5.254
REMARK  3 active torsions:
REMARK  status: ('A' for Active; 'I' for Inactive)
REMARK    1  A    between atoms: C3_7  and  N3_8 
REMARK    2  A    between atoms: N3_8  and  C4_10 
REMARK    3  A    between atoms: C4_10  and  C5_11 
ROOT
HETATM    1  C4  UNL     1     -29.647   9.121 -25.657  1.00  0.00     0.199 C 
ENDROOT
BRANCH   1   2
HETATM    2  N3  UNL     1     -28.735   7.999 -25.613  1.00  0.00    -0.381 N 
ATOM      3  H3  UNL     1     -27.739   8.194 -25.506  1.00  0.00     0.160 HD
BRANCH   2   4
HETATM    4  C3  UNL     1     -29.138   6.661 -25.708  1.00  0.00     0.062 A 
HETATM    5  C1  UNL     1     -30.257   6.201 -26.364  1.00  0.00     0.137 A 
HETATM    6  N1  UNL     1     -30.291   4.862 -26.233  1.00  0.00    -0.310 N 
HETATM    7  N2  UNL     1     -29.260   4.441 -25.532  1.00  0.00    -0.310 N 
ATOM      8  H1  UNL     1     -31.015   4.258 -26.623  1.00  0.00     0.186 HD
HETATM    9  C2  UNL     1     -28.548   5.512 -25.203  1.00  0.00     0.137 A 
ATOM     10  H2  UNL     1     -29.049   3.474 -25.287  1.00  0.00     0.186 HD
ENDBRANCH   2   4
ENDBRANCH   1   2
BRANCH   1  11
HETATM   11  C5  UNL     1     -28.835  10.377 -25.458  1.00  0.00     0.131 A 
HETATM   12  N4  UNL     1     -28.040  10.968 -26.368  1.00  0.00    -0.271 N 
HETATM   13  N5  UNL     1     -27.529  12.035 -25.783  1.00  0.00    -0.227 N 
ATOM     14  H4  UNL     1     -27.866  10.653 -27.323  1.00  0.00     0.190 HD
HETATM   15  N6  UNL     1     -27.949  12.165 -24.548  1.00  0.00    -0.227 N 
ATOM     16  H5  UNL     1     -26.883  12.681 -26.237  1.00  0.00     0.210 HD
HETATM   17  N7  UNL     1     -28.755  11.139 -24.352  1.00  0.00    -0.271 N 
ATOM     18  H6  UNL     1     -27.706  12.899 -23.883  1.00  0.00     0.210 HD
ATOM     19  H7  UNL     1     -29.249  10.950 -23.480  1.00  0.00     0.190 HD
ENDBRANCH   1  11
TORSDOF 3
ENDMDL
MODEL 5
REMARK VINA RESULT: -5.487605824      1.043      4.598
REMARK  3 active torsions:
REMARK  status: ('A' for Active; 'I' for Inactive)
REMARK    1  A    between atoms: C3_7  and  N3_8 
REMARK    2  A    between atoms: N3_8  and  C4_10 
REMARK    3  A    between atoms: C4_10  and  C5_11 
ROOT
HETATM    1  C4  UNL     1     -30.673   8.618 -26.535  1.00  0.00     0.199 C 
ENDROOT
BRANCH   1   2
HETATM    2  N3  UNL     1     -30.772   7.283 -25.986  1.00  0.00    -0.381 N 
ATOM      3  H3  UNL     1     -31.655   7.005 -25.557  1.00  0.00     0.160 HD
BRANCH   2   4
HETATM    4  C3  UNL     1     -29.726   6.352 -26.007  1.00  0.00     0.062 A 
HETATM    5  C1  UNL     1     -29.808   5.037 -25.605  1.00  0.00     0.137 A 
HETATM    6  N1  UNL     1     -28.599   4.474 -25.787  1.00  0.00    -0.310 N 
HETATM    7  N2  UNL     1     -27.751   5.351 -26.280  1.00  0.00    -0.310 N 
ATOM      8  H1  UNL     1     -28.372   3.503 -25.571  1.00  0.00     0.186 HD
HETATM    9  C2  UNL     1     -28.410   6.495 -26.422  1.00  0.00     0.137 A 
ATOM     10  H2  UNL     1     -26.772   5.184 -26.509  1.00  0.00     0.186 HD
ENDBRANCH   2   4
ENDBRANCH   1   2
BRANCH   1  11
HETATM   11  C5  UNL     1     -29.968   9.479 -25.517  1.00  0.00     0.131 A 
HETATM   12  N4  UNL     1     -28.949  10.325 -25.754  1.00  0.00    -0.271 N 
HETATM   13  N5  UNL     1     -28.641  10.875 -24.594  1.00  0.00    -0.227 N 
ATOM     14  H4  UNL     1     -28.503  10.507 -26.653  1.00  0.00     0.190 HD
HETATM   15  N6  UNL     1     -29.403  10.431 -23.624  1.00  0.00    -0.227 N 
ATOM     16  H5  UNL     1     -27.899  11.563 -24.467  1.00  0.00     0.210 HD
HETATM   17  N7  UNL     1     -30.220   9.569 -24.198  1.00  0.00    -0.271 N 
ATOM     18  H6  UNL     1     -29.371  10.694 -22.639  1.00  0.00     0.210 HD
ATOM     19  H7  UNL     1     -30.944   9.043 -23.709  1.00  0.00     0.190 HD
ENDBRANCH   1  11
TORSDOF 3
ENDMDL
