MODEL 1
REMARK VINA RESULT: -3.682385407      0.000      0.000
REMARK  4 active torsions:
REMARK  status: ('A' for Active; 'I' for Inactive)
REMARK    1  A    between atoms: C8_8  and  O1_9 
REMARK    2  A    between atoms: C10_12  and  O2_14 
REMARK    3  A    between atoms: C12_16  and  O3_17 
REMARK    4  A    between atoms: C14_20  and  O4_21 
ROOT
HETATM    1  C1  UNL     1      21.338   3.713  26.959  1.00  0.00     0.046 C 
HETATM    2  C2  UNL     1      21.879   2.512  26.926  1.00  0.00     0.040 C 
HETATM    3  C3  UNL     1      22.883   2.199  27.974  1.00  0.00     0.064 C 
HETATM    4  C4  UNL     1      24.096   3.017  27.699  1.00  0.00     0.007 C 
HETATM    5  C5  UNL     1      25.404   2.384  28.034  1.00  0.00     0.007 C 
HETATM    6  C6  UNL     1      25.642   1.044  27.412  1.00  0.00     0.010 C 
HETATM    7  C7  UNL     1      26.954   0.510  27.969  1.00  0.00     0.012 C 
HETATM    8  C8  UNL     1      25.705   1.143  25.909  1.00  0.00     0.124 C 
HETATM    9  C9  UNL     1      25.224  -0.147  25.230  1.00  0.00     0.072 C 
HETATM   10  C10 UNL     1      24.159   0.101  24.228  1.00  0.00     0.082 C 
HETATM   11  C11 UNL     1      24.724  -0.315  22.858  1.00  0.00     0.049 C 
HETATM   12  C12 UNL     1      22.877  -0.613  24.394  1.00  0.00     0.156 C 
HETATM   13  C13 UNL     1      22.326  -0.741  25.767  1.00  0.00     0.095 C 
HETATM   14  C14 UNL     1      21.219   0.251  26.081  1.00  0.00     0.265 C 
HETATM   15  O5  UNL     1      21.562   1.580  25.997  1.00  0.00    -0.326 OA
ENDROOT
BRANCH  10  16
HETATM   16  O2  UNL     1      23.872   1.477  24.061  1.00  0.00    -0.388 OA
ATOM     17  H2  UNL     1      23.874   1.746  23.150  1.00  0.00     0.210 HD
ENDBRANCH  10  16
BRANCH  12  18
HETATM   18  O3  UNL     1      22.992  -1.859  23.742  1.00  0.00    -0.392 OA
ATOM     19  H3  UNL     1      22.553  -1.788  22.902  1.00  0.00     0.210 HD
ENDBRANCH  12  18
BRANCH   8  20
HETATM   20  O1  UNL     1      27.035   1.442  25.530  1.00  0.00    -0.395 OA
ATOM     21  H1  UNL     1      27.126   2.385  25.456  1.00  0.00     0.210 HD
ENDBRANCH   8  20
BRANCH  14  22
HETATM   22  O4  UNL     1      20.589  -0.102  27.284  1.00  0.00    -0.371 OA
ATOM     23  H4  UNL     1      20.923   0.434  27.994  1.00  0.00     0.212 HD
ENDBRANCH  14  22
TORSDOF 4
ENDMDL
MODEL 2
REMARK VINA RESULT: -3.569060920      9.410     10.918
REMARK  4 active torsions:
REMARK  status: ('A' for Active; 'I' for Inactive)
REMARK    1  A    between atoms: C8_8  and  O1_9 
REMARK    2  A    between atoms: C10_12  and  O2_14 
REMARK    3  A    between atoms: C12_16  and  O3_17 
REMARK    4  A    between atoms: C14_20  and  O4_21 
ROOT
HETATM    1  C1  UNL     1      22.956   8.646  20.998  1.00  0.00     0.046 C 
HETATM    2  C2  UNL     1      22.634   8.108  19.840  1.00  0.00     0.040 C 
HETATM    3  C3  UNL     1      22.512   6.630  19.797  1.00  0.00     0.064 C 
HETATM    4  C4  UNL     1      23.875   6.055  19.957  1.00  0.00     0.007 C 
HETATM    5  C5  UNL     1      24.149   4.795  19.209  1.00  0.00     0.007 C 
HETATM    6  C6  UNL     1      23.882   4.856  17.738  1.00  0.00     0.010 C 
HETATM    7  C7  UNL     1      24.092   3.456  17.178  1.00  0.00     0.012 C 
HETATM    8  C8  UNL     1      24.795   5.843  17.056  1.00  0.00     0.124 C 
HETATM    9  C9  UNL     1      24.139   6.467  15.817  1.00  0.00     0.072 C 
HETATM   10  C10 UNL     1      24.162   7.950  15.848  1.00  0.00     0.082 C 
HETATM   11  C11 UNL     1      25.024   8.412  14.660  1.00  0.00     0.049 C 
HETATM   12  C12 UNL     1      22.873   8.662  15.740  1.00  0.00     0.156 C 
HETATM   13  C13 UNL     1      21.711   8.112  16.482  1.00  0.00     0.095 C 
HETATM   14  C14 UNL     1      21.411   8.838  17.782  1.00  0.00     0.265 C 
HETATM   15  O5  UNL     1      22.419   8.835  18.718  1.00  0.00    -0.326 OA
ENDROOT
BRANCH  10  16
HETATM   16  O2  UNL     1      24.850   8.465  16.973  1.00  0.00    -0.388 OA
ATOM     17  H2  UNL     1      24.674   7.977  17.769  1.00  0.00     0.210 HD
ENDBRANCH  10  16
BRANCH  12  18
HETATM   18  O3  UNL     1      22.597   8.845  14.368  1.00  0.00    -0.392 OA
ATOM     19  H3  UNL     1      22.279   9.733  14.252  1.00  0.00     0.210 HD
ENDBRANCH  12  18
BRANCH   8  20
HETATM   20  O1  UNL     1      25.996   5.182  16.707  1.00  0.00    -0.395 OA
ATOM     21  H1  UNL     1      26.178   5.347  15.789  1.00  0.00     0.210 HD
ENDBRANCH   8  20
BRANCH  14  22
HETATM   22  O4  UNL     1      20.165   8.428  18.282  1.00  0.00    -0.371 OA
ATOM     23  H4  UNL     1      19.467   8.871  17.814  1.00  0.00     0.212 HD
ENDBRANCH  14  22
TORSDOF 4
ENDMDL
MODEL 3
REMARK VINA RESULT: -3.343673280      1.559      4.416
REMARK  4 active torsions:
REMARK  status: ('A' for Active; 'I' for Inactive)
REMARK    1  A    between atoms: C8_8  and  O1_9 
REMARK    2  A    between atoms: C10_12  and  O2_14 
REMARK    3  A    between atoms: C12_16  and  O3_17 
REMARK    4  A    between atoms: C14_20  and  O4_21 
ROOT
HETATM    1  C1  UNL     1      26.271  -1.220  27.356  1.00  0.00     0.046 C 
HETATM    2  C2  UNL     1      25.427  -0.639  26.529  1.00  0.00     0.040 C 
HETATM    3  C3  UNL     1      25.133   0.796  26.767  1.00  0.00     0.064 C 
HETATM    4  C4  UNL     1      24.344   0.897  28.025  1.00  0.00     0.007 C 
HETATM    5  C5  UNL     1      23.317   1.976  28.071  1.00  0.00     0.007 C 
HETATM    6  C6  UNL     1      22.329   1.965  26.948  1.00  0.00     0.010 C 
HETATM    7  C7  UNL     1      21.455   3.202  27.097  1.00  0.00     0.012 C 
HETATM    8  C8  UNL     1      21.487   0.715  26.972  1.00  0.00     0.124 C 
HETATM    9  C9  UNL     1      21.031   0.305  25.565  1.00  0.00     0.072 C 
HETATM   10  C10 UNL     1      21.373  -1.102  25.245  1.00  0.00     0.082 C 
HETATM   11  C11 UNL     1      20.045  -1.854  25.044  1.00  0.00     0.049 C 
HETATM   12  C12 UNL     1      22.191  -1.355  24.040  1.00  0.00     0.156 C 
HETATM   13  C13 UNL     1      23.321  -0.434  23.763  1.00  0.00     0.095 C 
HETATM   14  C14 UNL     1      24.679  -0.986  24.166  1.00  0.00     0.265 C 
HETATM   15  O5  UNL     1      24.832  -1.287  25.500  1.00  0.00    -0.326 OA
ENDROOT
BRANCH  10  16
HETATM   16  O2  UNL     1      21.976  -1.782  26.330  1.00  0.00    -0.388 OA
ATOM     17  H2  UNL     1      22.532  -2.501  26.052  1.00  0.00     0.210 HD
ENDBRANCH  10  16
BRANCH  12  18
HETATM   18  O3  UNL     1      21.312  -1.477  22.942  1.00  0.00    -0.392 OA
ATOM     19  H3  UNL     1      21.524  -0.786  22.325  1.00  0.00     0.210 HD
ENDBRANCH  12  18
BRANCH   8  20
HETATM   20  O1  UNL     1      20.372   0.936  27.815  1.00  0.00    -0.395 OA
ATOM     21  H1  UNL     1      20.682   1.274  28.646  1.00  0.00     0.210 HD
ENDBRANCH   8  20
BRANCH  14  22
HETATM   22  O4  UNL     1      25.698  -0.176  23.641  1.00  0.00    -0.371 OA
ATOM     23  H4  UNL     1      25.494   0.060  22.744  1.00  0.00     0.212 HD
ENDBRANCH  14  22
TORSDOF 4
ENDMDL
MODEL 4
REMARK VINA RESULT: -2.729342870      8.624     10.147
REMARK  4 active torsions:
REMARK  status: ('A' for Active; 'I' for Inactive)
REMARK    1  A    between atoms: C8_8  and  O1_9 
REMARK    2  A    between atoms: C10_12  and  O2_14 
REMARK    3  A    between atoms: C12_16  and  O3_17 
REMARK    4  A    between atoms: C14_20  and  O4_21 
ROOT
HETATM    1  C1  UNL     1      19.354   8.258  19.686  1.00  0.00     0.046 C 
HETATM    2  C2  UNL     1      20.667   8.152  19.714  1.00  0.00     0.040 C 
HETATM    3  C3  UNL     1      21.440   9.166  18.954  1.00  0.00     0.064 C 
HETATM    4  C4  UNL     1      21.210   8.921  17.504  1.00  0.00     0.007 C 
HETATM    5  C5  UNL     1      22.362   9.202  16.600  1.00  0.00     0.007 C 
HETATM    6  C6  UNL     1      23.636   8.502  16.955  1.00  0.00     0.010 C 
HETATM    7  C7  UNL     1      24.713   9.011  16.007  1.00  0.00     0.012 C 
HETATM    8  C8  UNL     1      23.490   7.007  16.838  1.00  0.00     0.124 C 
HETATM    9  C9  UNL     1      24.407   6.264  17.820  1.00  0.00     0.072 C 
HETATM   10  C10 UNL     1      23.669   5.293  18.662  1.00  0.00     0.082 C 
HETATM   11  C11 UNL     1      24.211   3.894  18.316  1.00  0.00     0.049 C 
HETATM   12  C12 UNL     1      23.770   5.436  20.129  1.00  0.00     0.156 C 
HETATM   13  C13 UNL     1      23.725   6.807  20.696  1.00  0.00     0.095 C 
HETATM   14  C14 UNL     1      22.373   7.191  21.273  1.00  0.00     0.265 C 
HETATM   15  O5  UNL     1      21.318   7.176  20.390  1.00  0.00    -0.326 OA
ENDROOT
BRANCH  10  16
HETATM   16  O2  UNL     1      22.297   5.206  18.327  1.00  0.00    -0.388 OA
ATOM     17  H2  UNL     1      21.854   4.491  18.770  1.00  0.00     0.210 HD
ENDBRANCH  10  16
BRANCH  12  18
HETATM   18  O3  UNL     1      24.906   4.714  20.554  1.00  0.00    -0.392 OA
ATOM     19  H3  UNL     1      25.468   5.313  21.033  1.00  0.00     0.210 HD
ENDBRANCH  12  18
BRANCH   8  20
HETATM   20  O1  UNL     1      23.772   6.627  15.504  1.00  0.00    -0.395 OA
ATOM     21  H1  UNL     1      23.876   7.412  14.980  1.00  0.00     0.210 HD
ENDBRANCH   8  20
BRANCH  14  22
HETATM   22  O4  UNL     1      22.487   8.381  22.007  1.00  0.00    -0.371 OA
ATOM     23  H4  UNL     1      23.366   8.461  22.359  1.00  0.00     0.212 HD
ENDBRANCH  14  22
TORSDOF 4
ENDMDL
MODEL 5
REMARK VINA RESULT: -2.663382728      8.729     10.756
REMARK  4 active torsions:
REMARK  status: ('A' for Active; 'I' for Inactive)
REMARK    1  A    between atoms: C8_8  and  O1_9 
REMARK    2  A    between atoms: C10_12  and  O2_14 
REMARK    3  A    between atoms: C12_16  and  O3_17 
REMARK    4  A    between atoms: C14_20  and  O4_21 
ROOT
HETATM    1  C1  UNL     1      25.246   8.733  16.061  1.00  0.00     0.046 C 
HETATM    2  C2  UNL     1      24.439   7.844  16.602  1.00  0.00     0.040 C 
HETATM    3  C3  UNL     1      22.994   7.969  16.287  1.00  0.00     0.064 C 
HETATM    4  C4  UNL     1      22.486   9.195  16.962  1.00  0.00     0.007 C 
HETATM    5  C5  UNL     1      21.083   9.135  17.463  1.00  0.00     0.007 C 
HETATM    6  C6  UNL     1      20.781   7.990  18.377  1.00  0.00     0.010 C 
HETATM    7  C7  UNL     1      19.288   8.025  18.673  1.00  0.00     0.012 C 
HETATM    8  C8  UNL     1      21.578   8.082  19.653  1.00  0.00     0.124 C 
HETATM    9  C9  UNL     1      21.876   6.697  20.243  1.00  0.00     0.072 C 
HETATM   10  C10 UNL     1      23.321   6.489  20.502  1.00  0.00     0.082 C 
HETATM   11  C11 UNL     1      23.485   6.308  22.021  1.00  0.00     0.049 C 
HETATM   12  C12 UNL     1      23.975   5.328  19.863  1.00  0.00     0.156 C 
HETATM   13  C13 UNL     1      23.615   5.015  18.458  1.00  0.00     0.095 C 
HETATM   14  C14 UNL     1      24.634   5.493  17.438  1.00  0.00     0.265 C 
HETATM   15  O5  UNL     1      24.868   6.849  17.413  1.00  0.00    -0.326 OA
ENDROOT
BRANCH  10  16
HETATM   16  O2  UNL     1      24.101   7.637  20.221  1.00  0.00    -0.388 OA
ATOM     17  H2  UNL     1      23.617   8.447  20.330  1.00  0.00     0.210 HD
ENDBRANCH  10  16
BRANCH  12  18
HETATM   18  O3  UNL     1      23.816   4.219  20.721  1.00  0.00    -0.392 OA
ATOM     19  H3  UNL     1      24.639   3.745  20.737  1.00  0.00     0.210 HD
ENDBRANCH  12  18
BRANCH   8  20
HETATM   20  O1  UNL     1      20.860   8.876  20.578  1.00  0.00    -0.395 OA
ATOM     21  H1  UNL     1      20.148   9.307  20.121  1.00  0.00     0.210 HD
ENDBRANCH   8  20
BRANCH  14  22
HETATM   22  O4  UNL     1      24.349   4.938  16.181  1.00  0.00    -0.371 OA
ATOM     23  H4  UNL     1      24.998   4.279  15.963  1.00  0.00     0.212 HD
ENDBRANCH  14  22
TORSDOF 4
ENDMDL
