MODEL 1
REMARK VINA RESULT: -7.196021065      0.000      0.000
REMARK  6 active torsions:
REMARK  status: ('A' for Active; 'I' for Inactive)
REMARK    1  A    between atoms: C2_2  and  N1_3 
REMARK    2  A    between atoms: N1_3  and  C3_4 
REMARK    3  A    between atoms: N1_3  and  C5_6 
REMARK    4  A    between atoms: C6_7  and  N2_8 
REMARK    5  A    between atoms: N2_8  and  C7_10 
REMARK    6  A    between atoms: C9_14  and  C10_15 
ROOT
HETATM    1  C10 UNL     1       0.185   7.172   9.590  1.00  0.00     0.171 C 
HETATM    2  C11 UNL     1       1.524   7.781   9.637  1.00  0.00     0.064 C 
HETATM    3  N4  UNL     1       2.580   8.280   9.689  1.00  0.00    -0.197 NA
ENDROOT
BRANCH   1   4
HETATM    4  C9  UNL     1       0.089   6.363  10.857  1.00  0.00     0.014 A 
HETATM    5  C8  UNL     1      -0.377   6.761  12.086  1.00  0.00     0.105 A 
HETATM    6  N3  UNL     1      -0.372   5.882  13.048  1.00  0.00    -0.345 N 
HETATM    7  C7  UNL     1       0.076   4.657  12.802  1.00  0.00     0.150 A 
ATOM      8  H3  UNL     1      -0.708   6.133  13.977  1.00  0.00     0.167 HD
HETATM    9  S1  UNL     1       0.512   4.734  11.154  1.00  0.00    -0.056 SA
BRANCH   7  10
HETATM   10  N2  UNL     1       0.177   3.626  13.574  1.00  0.00    -0.321 N 
ATOM     11  H2  UNL     1      -0.641   3.321  14.102  1.00  0.00     0.169 HD
BRANCH  10  12
HETATM   12  C6  UNL     1       1.390   2.905  13.707  1.00  0.00     0.137 A 
HETATM   13  C5  UNL     1       1.570   1.546  13.703  1.00  0.00     0.105 A 
HETATM   14  C14 UNL     1       2.928   1.333  13.860  1.00  0.00     0.111 A 
HETATM   15  C12 UNL     1       3.574   2.550  13.958  1.00  0.00     0.134 A 
HETATM   16  N7  UNL     1       3.908   0.402  13.955  1.00  0.00    -0.293 N 
HETATM   17  N5  UNL     1       2.618   3.465  13.862  1.00  0.00    -0.334 N 
HETATM   18  C13 UNL     1       4.930   2.326  14.113  1.00  0.00     0.289 A 
ATOM     19  H5  UNL     1       2.786   4.471  13.900  1.00  0.00     0.168 HD
HETATM   20  O1  UNL     1       5.854   3.177  14.238  1.00  0.00    -0.264 OA
HETATM   21  N6  UNL     1       5.072   0.998  14.103  1.00  0.00    -0.264 N 
ATOM     22  H6  UNL     1       5.963   0.512  14.199  1.00  0.00     0.190 HD
ATOM     23  H7  UNL     1       3.765  -0.608  13.919  1.00  0.00     0.187 HD
BRANCH  13  24
HETATM   24  N1  UNL     1       0.590   0.529  13.560  1.00  0.00    -0.377 N 
BRANCH  24  25
HETATM   25  C2  UNL     1       0.480  -0.523  14.550  1.00  0.00     0.118 C 
HETATM   26  C1  UNL     1       0.938  -1.874  14.027  1.00  0.00     0.026 C 
ENDBRANCH  24  25
BRANCH  24  27
HETATM   27  C3  UNL     1      -0.339   0.483  12.448  1.00  0.00     0.118 C 
HETATM   28  C4  UNL     1      -1.767   0.689  12.852  1.00  0.00     0.026 C 
ENDBRANCH  24  27
ENDBRANCH  13  24
ENDBRANCH  10  12
ENDBRANCH   7  10
ENDBRANCH   1   4
TORSDOF 6
ENDMDL
MODEL 2
REMARK VINA RESULT: -7.182364240      0.129      1.374
REMARK  6 active torsions:
REMARK  status: ('A' for Active; 'I' for Inactive)
REMARK    1  A    between atoms: C2_2  and  N1_3 
REMARK    2  A    between atoms: N1_3  and  C3_4 
REMARK    3  A    between atoms: N1_3  and  C5_6 
REMARK    4  A    between atoms: C6_7  and  N2_8 
REMARK    5  A    between atoms: N2_8  and  C7_10 
REMARK    6  A    between atoms: C9_14  and  C10_15 
ROOT
HETATM    1  C10 UNL     1       0.231   7.225   9.645  1.00  0.00     0.171 C 
HETATM    2  C11 UNL     1       1.571   7.833   9.638  1.00  0.00     0.064 C 
HETATM    3  N4  UNL     1       2.629   8.330   9.647  1.00  0.00    -0.197 NA
ENDROOT
BRANCH   1   4
HETATM    4  C9  UNL     1       0.181   6.424  10.919  1.00  0.00     0.014 A 
HETATM    5  C8  UNL     1      -0.136   6.856  12.183  1.00  0.00     0.105 A 
HETATM    6  N3  UNL     1      -0.118   5.977  13.145  1.00  0.00    -0.345 N 
HETATM    7  C7  UNL     1       0.200   4.719  12.866  1.00  0.00     0.150 A 
ATOM      8  H3  UNL     1      -0.347   6.252  14.100  1.00  0.00     0.167 HD
HETATM    9  S1  UNL     1       0.490   4.764  11.185  1.00  0.00    -0.056 SA
BRANCH   7  10
HETATM   10  N2  UNL     1       0.282   3.681  13.629  1.00  0.00    -0.321 N 
ATOM     11  H2  UNL     1      -0.538   3.394  14.164  1.00  0.00     0.169 HD
BRANCH  10  12
HETATM   12  C6  UNL     1       1.478   2.928  13.745  1.00  0.00     0.137 A 
HETATM   13  C5  UNL     1       1.625   1.566  13.713  1.00  0.00     0.105 A 
HETATM   14  C14 UNL     1       2.977   1.317  13.862  1.00  0.00     0.111 A 
HETATM   15  C12 UNL     1       3.653   2.515  13.985  1.00  0.00     0.134 A 
HETATM   16  N7  UNL     1       3.935   0.360  13.937  1.00  0.00    -0.293 N 
HETATM   17  N5  UNL     1       2.719   3.455  13.910  1.00  0.00    -0.334 N 
HETATM   18  C13 UNL     1       5.003   2.255  14.132  1.00  0.00     0.289 A 
ATOM     19  H5  UNL     1       2.912   4.455  13.969  1.00  0.00     0.168 HD
HETATM   20  O1  UNL     1       5.948   3.081  14.273  1.00  0.00    -0.264 OA
HETATM   21  N6  UNL     1       5.113   0.925  14.095  1.00  0.00    -0.264 N 
ATOM     22  H6  UNL     1       5.992   0.415  14.178  1.00  0.00     0.190 HD
ATOM     23  H7  UNL     1       3.767  -0.645  13.879  1.00  0.00     0.187 HD
BRANCH  13  24
HETATM   24  N1  UNL     1       0.620   0.575  13.551  1.00  0.00    -0.377 N 
BRANCH  24  25
HETATM   25  C2  UNL     1      -0.257   0.607  12.398  1.00  0.00     0.118 C 
HETATM   26  C1  UNL     1      -1.713   0.830  12.773  1.00  0.00     0.026 C 
ENDBRANCH  24  25
BRANCH  24  27
HETATM   27  C3  UNL     1       0.418  -0.502  14.500  1.00  0.00     0.118 C 
HETATM   28  C4  UNL     1       0.930  -1.826  14.021  1.00  0.00     0.026 C 
ENDBRANCH  24  27
ENDBRANCH  13  24
ENDBRANCH  10  12
ENDBRANCH   7  10
ENDBRANCH   1   4
TORSDOF 6
ENDMDL
MODEL 3
REMARK VINA RESULT: -7.122649021      1.351      1.950
REMARK  6 active torsions:
REMARK  status: ('A' for Active; 'I' for Inactive)
REMARK    1  A    between atoms: C2_2  and  N1_3 
REMARK    2  A    between atoms: N1_3  and  C3_4 
REMARK    3  A    between atoms: N1_3  and  C5_6 
REMARK    4  A    between atoms: C6_7  and  N2_8 
REMARK    5  A    between atoms: N2_8  and  C7_10 
REMARK    6  A    between atoms: C9_14  and  C10_15 
ROOT
HETATM    1  C10 UNL     1       0.211   7.927   9.971  1.00  0.00     0.171 C 
HETATM    2  C11 UNL     1       0.519   9.139  10.746  1.00  0.00     0.064 C 
HETATM    3  N4  UNL     1       0.746  10.098  11.374  1.00  0.00    -0.197 NA
ENDROOT
BRANCH   1   4
HETATM    4  C9  UNL     1       0.613   6.786  10.869  1.00  0.00     0.014 A 
HETATM    5  C8  UNL     1       1.588   5.843  10.661  1.00  0.00     0.105 A 
HETATM    6  N3  UNL     1       1.766   4.943  11.585  1.00  0.00    -0.345 N 
HETATM    7  C7  UNL     1       1.009   4.976  12.674  1.00  0.00     0.150 A 
ATOM      8  H3  UNL     1       2.479   4.223  11.473  1.00  0.00     0.167 HD
HETATM    9  S1  UNL     1      -0.001   6.323  12.395  1.00  0.00    -0.056 SA
BRANCH   7  10
HETATM   10  N2  UNL     1       0.995   4.211  13.715  1.00  0.00    -0.321 N 
ATOM     11  H2  UNL     1       0.265   4.343  14.416  1.00  0.00     0.169 HD
BRANCH  10  12
HETATM   12  C6  UNL     1       1.963   3.195  13.913  1.00  0.00     0.137 A 
HETATM   13  C5  UNL     1       1.822   1.845  13.722  1.00  0.00     0.105 A 
HETATM   14  C14 UNL     1       3.042   1.277  14.044  1.00  0.00     0.111 A 
HETATM   15  C12 UNL     1       3.922   2.270  14.427  1.00  0.00     0.134 A 
HETATM   16  N7  UNL     1       3.746   0.123  14.137  1.00  0.00    -0.293 N 
HETATM   17  N5  UNL     1       3.238   3.403  14.335  1.00  0.00    -0.334 N 
HETATM   18  C13 UNL     1       5.138   1.692  14.745  1.00  0.00     0.289 A 
ATOM     19  H5  UNL     1       3.623   4.322  14.556  1.00  0.00     0.168 HD
HETATM   20  O1  UNL     1       6.195   2.260  15.138  1.00  0.00    -0.264 OA
HETATM   21  N6  UNL     1       4.968   0.383  14.548  1.00  0.00    -0.264 N 
ATOM     22  H6  UNL     1       5.691  -0.322  14.697  1.00  0.00     0.190 HD
ATOM     23  H7  UNL     1       3.382  -0.806  13.921  1.00  0.00     0.187 HD
BRANCH  13  24
HETATM   24  N1  UNL     1       0.676   1.134  13.277  1.00  0.00    -0.377 N 
BRANCH  24  25
HETATM   25  C2  UNL     1       0.006   1.522  12.053  1.00  0.00     0.118 C 
HETATM   26  C1  UNL     1      -1.407   2.027  12.290  1.00  0.00     0.026 C 
ENDBRANCH  24  25
BRANCH  24  27
HETATM   27  C3  UNL     1       0.124   0.004  13.998  1.00  0.00     0.118 C 
HETATM   28  C4  UNL     1       0.459  -1.320  13.383  1.00  0.00     0.026 C 
ENDBRANCH  24  27
ENDBRANCH  13  24
ENDBRANCH  10  12
ENDBRANCH   7  10
ENDBRANCH   1   4
TORSDOF 6
ENDMDL
MODEL 4
REMARK VINA RESULT: -7.115654135      2.677      6.591
REMARK  6 active torsions:
REMARK  status: ('A' for Active; 'I' for Inactive)
REMARK    1  A    between atoms: C2_2  and  N1_3 
REMARK    2  A    between atoms: N1_3  and  C3_4 
REMARK    3  A    between atoms: N1_3  and  C5_6 
REMARK    4  A    between atoms: C6_7  and  N2_8 
REMARK    5  A    between atoms: N2_8  and  C7_10 
REMARK    6  A    between atoms: C9_14  and  C10_15 
ROOT
HETATM    1  C10 UNL     1       2.253  -0.253  13.900  1.00  0.00     0.171 C 
HETATM    2  C11 UNL     1       3.258  -0.526  14.940  1.00  0.00     0.064 C 
HETATM    3  N4  UNL     1       4.073  -0.737  15.752  1.00  0.00    -0.197 NA
ENDROOT
BRANCH   1   4
HETATM    4  C9  UNL     1       2.135   1.248  13.868  1.00  0.00     0.014 A 
HETATM    5  C8  UNL     1       3.140   2.178  13.771  1.00  0.00     0.105 A 
HETATM    6  N3  UNL     1       2.800   3.435  13.756  1.00  0.00    -0.345 N 
HETATM    7  C7  UNL     1       1.515   3.759  13.833  1.00  0.00     0.150 A 
ATOM      8  H3  UNL     1       3.512   4.162  13.686  1.00  0.00     0.167 HD
HETATM    9  S1  UNL     1       0.745   2.240  13.933  1.00  0.00    -0.056 SA
BRANCH   7  10
HETATM   10  N2  UNL     1       0.935   4.914  13.833  1.00  0.00    -0.321 N 
ATOM     11  H2  UNL     1       0.739   5.368  14.725  1.00  0.00     0.169 HD
BRANCH  10  12
HETATM   12  C6  UNL     1       0.563   5.567  12.632  1.00  0.00     0.137 A 
HETATM   13  C5  UNL     1      -0.601   5.431  11.922  1.00  0.00     0.105 A 
HETATM   14  C14 UNL     1      -0.493   6.275  10.831  1.00  0.00     0.111 A 
HETATM   15  C12 UNL     1       0.727   6.922  10.872  1.00  0.00     0.134 A 
HETATM   16  N7  UNL     1      -1.105   6.741   9.715  1.00  0.00    -0.293 N 
HETATM   17  N5  UNL     1       1.329   6.470  11.965  1.00  0.00    -0.334 N 
HETATM   18  C13 UNL     1       0.825   7.764   9.779  1.00  0.00     0.289 A 
ATOM     19  H5  UNL     1       2.257   6.767  12.269  1.00  0.00     0.168 HD
HETATM   20  O1  UNL     1       1.782   8.523   9.460  1.00  0.00    -0.264 OA
HETATM   21  N6  UNL     1      -0.321   7.610   9.112  1.00  0.00    -0.264 N 
ATOM     22  H6  UNL     1      -0.558   8.100   8.249  1.00  0.00     0.190 HD
ATOM     23  H7  UNL     1      -2.031   6.461   9.393  1.00  0.00     0.187 HD
BRANCH  13  24
HETATM   24  N1  UNL     1      -1.721   4.610  12.217  1.00  0.00    -0.377 N 
BRANCH  24  25
HETATM   25  C2  UNL     1      -1.944   3.386  11.475  1.00  0.00     0.118 C 
HETATM   26  C1  UNL     1      -2.746   2.360  12.259  1.00  0.00     0.026 C 
ENDBRANCH  24  25
BRANCH  24  27
HETATM   27  C3  UNL     1      -2.682   4.933  13.253  1.00  0.00     0.118 C 
HETATM   28  C4  UNL     1      -3.738   5.899  12.809  1.00  0.00     0.026 C 
ENDBRANCH  24  27
ENDBRANCH  13  24
ENDBRANCH  10  12
ENDBRANCH   7  10
ENDBRANCH   1   4
TORSDOF 6
ENDMDL
MODEL 5
REMARK VINA RESULT: -7.106507703      2.680      6.658
REMARK  6 active torsions:
REMARK  status: ('A' for Active; 'I' for Inactive)
REMARK    1  A    between atoms: C2_2  and  N1_3 
REMARK    2  A    between atoms: N1_3  and  C3_4 
REMARK    3  A    between atoms: N1_3  and  C5_6 
REMARK    4  A    between atoms: C6_7  and  N2_8 
REMARK    5  A    between atoms: N2_8  and  C7_10 
REMARK    6  A    between atoms: C9_14  and  C10_15 
ROOT
HETATM    1  C10 UNL     1       2.241  -0.243  13.895  1.00  0.00     0.171 C 
HETATM    2  C11 UNL     1       3.244  -0.518  14.937  1.00  0.00     0.064 C 
HETATM    3  N4  UNL     1       4.056  -0.729  15.751  1.00  0.00    -0.197 NA
ENDROOT
BRANCH   1   4
HETATM    4  C9  UNL     1       2.126   1.258  13.861  1.00  0.00     0.014 A 
HETATM    5  C8  UNL     1       3.132   2.186  13.757  1.00  0.00     0.105 A 
HETATM    6  N3  UNL     1       2.796   3.444  13.743  1.00  0.00    -0.345 N 
HETATM    7  C7  UNL     1       1.512   3.771  13.827  1.00  0.00     0.150 A 
ATOM      8  H3  UNL     1       3.509   4.168  13.668  1.00  0.00     0.167 HD
HETATM    9  S1  UNL     1       0.739   2.254  13.934  1.00  0.00    -0.056 SA
BRANCH   7  10
HETATM   10  N2  UNL     1       0.934   4.927  13.830  1.00  0.00    -0.321 N 
ATOM     11  H2  UNL     1       0.744   5.382  14.722  1.00  0.00     0.169 HD
BRANCH  10  12
HETATM   12  C6  UNL     1       0.559   5.580  12.629  1.00  0.00     0.137 A 
HETATM   13  C5  UNL     1      -0.602   5.433  11.915  1.00  0.00     0.105 A 
HETATM   14  C14 UNL     1      -0.500   6.283  10.828  1.00  0.00     0.111 A 
HETATM   15  C12 UNL     1       0.711   6.944  10.876  1.00  0.00     0.134 A 
HETATM   16  N7  UNL     1      -1.114   6.746   9.712  1.00  0.00    -0.293 N 
HETATM   17  N5  UNL     1       1.315   6.495  11.969  1.00  0.00    -0.334 N 
HETATM   18  C13 UNL     1       0.802   7.791   9.787  1.00  0.00     0.289 A 
ATOM     19  H5  UNL     1       2.238   6.802  12.277  1.00  0.00     0.168 HD
HETATM   20  O1  UNL     1       1.751   8.564   9.474  1.00  0.00    -0.264 OA
HETATM   21  N6  UNL     1      -0.340   7.626   9.115  1.00  0.00    -0.264 N 
ATOM     22  H6  UNL     1      -0.580   8.117   8.253  1.00  0.00     0.190 HD
ATOM     23  H7  UNL     1      -2.036   6.455   9.386  1.00  0.00     0.187 HD
BRANCH  13  24
HETATM   24  N1  UNL     1      -1.712   4.597  12.203  1.00  0.00    -0.377 N 
BRANCH  24  25
HETATM   25  C2  UNL     1      -2.645   4.956  13.252  1.00  0.00     0.118 C 
HETATM   26  C1  UNL     1      -3.724   5.916  12.776  1.00  0.00     0.026 C 
ENDBRANCH  24  25
BRANCH  24  27
HETATM   27  C3  UNL     1      -1.978   3.367  11.482  1.00  0.00     0.118 C 
HETATM   28  C4  UNL     1      -2.748   2.359  12.280  1.00  0.00     0.026 C 
ENDBRANCH  24  27
ENDBRANCH  13  24
ENDBRANCH  10  12
ENDBRANCH   7  10
ENDBRANCH   1   4
TORSDOF 6
ENDMDL
