MODEL 1
REMARK VINA RESULT: -8.984978065      0.000      0.000
REMARK  10 active torsions:
REMARK  status: ('A' for Active; 'I' for Inactive)
REMARK    1  A    between atoms: C3_3  and  C4_4 
REMARK    2  A    between atoms: C4_4  and  C5_5 
REMARK    3  A    between atoms: C5_5  and  N1_6 
REMARK    4  A    between atoms: N1_6  and  C6_8 
REMARK    5  A    between atoms: C7_11  and  N3_12 
REMARK    6  A    between atoms: N3_12  and  C8_14 
REMARK    7  A    between atoms: C8_14  and  C9_15 
REMARK    8  A    between atoms: C9_15  and  C10_16 
REMARK    9  A    between atoms: C10_16  and  C11_17 
REMARK   10  A    between atoms: N6_28  and  C18_29 
ROOT
HETATM    1  C1  UNL     1     -13.987  -7.002   6.789  1.00  0.00     0.112 C 
HETATM    2  C2  UNL     1     -15.227  -7.785   6.616  1.00  0.00    -0.111 C 
HETATM    3  C3  UNL     1     -16.237  -8.419   6.456  1.00  0.00    -0.105 C 
ENDROOT
BRANCH   3   4
HETATM    4  C4  UNL     1     -17.471  -9.214   6.266  1.00  0.00     0.114 C 
BRANCH   4   5
HETATM    5  C5  UNL     1     -17.875  -9.790   7.580  1.00  0.00     0.150 C 
BRANCH   5   6
HETATM    6  N1  UNL     1     -17.988 -11.237   7.550  1.00  0.00    -0.225 N 
ATOM      7  H1  UNL     1     -18.530 -11.678   6.808  1.00  0.00     0.177 HD
BRANCH   6   8
HETATM    8  C6  UNL     1     -17.417 -11.979   8.443  1.00  0.00     0.681 A 
HETATM    9  N2  UNL     1     -16.499 -11.424   9.202  1.00  0.00    -0.176 N 
HETATM   10  C7  UNL     1     -15.869 -12.175  10.161  1.00  0.00     0.132 A 
ATOM     11  H2  UNL     1     -16.257 -10.441   9.079  1.00  0.00     0.186 HD
HETATM   12  C16 UNL     1     -16.215 -13.503  10.306  1.00  0.00     0.071 A 
HETATM   13  C17 UNL     1     -15.842 -14.540  11.100  1.00  0.00     0.127 A 
HETATM   14  C24 UNL     1     -17.197 -14.028   9.466  1.00  0.00     0.158 A 
HETATM   15  N5  UNL     1     -16.570 -15.616  10.742  1.00  0.00    -0.302 N 
HETATM   16  N6  UNL     1     -17.396 -15.340   9.760  1.00  0.00    -0.237 N 
ATOM     17  H5  UNL     1     -16.489 -16.533  11.180  1.00  0.00     0.186 HD
HETATM   18  N7  UNL     1     -17.799 -13.264   8.533  1.00  0.00    -0.174 N 
ATOM     19  H7  UNL     1     -18.518 -13.647   7.918  1.00  0.00     0.186 HD
BRANCH  10  20
HETATM   20  N3  UNL     1     -15.014 -11.630  10.862  1.00  0.00    -0.375 N 
ATOM     21  H3  UNL     1     -14.757 -12.284  11.601  1.00  0.00     0.161 HD
BRANCH  20  22
HETATM   22  C8  UNL     1     -14.272 -10.493  11.039  1.00  0.00     0.121 C 
BRANCH  22  23
HETATM   23  C9  UNL     1     -15.131  -9.376  11.652  1.00  0.00     0.024 C 
BRANCH  23  24
HETATM   24  C10 UNL     1     -15.602  -8.472  10.557  1.00  0.00     0.041 C 
BRANCH  24  25
HETATM   25  C11 UNL     1     -16.941  -7.937  10.915  1.00  0.00    -0.043 A 
HETATM   26  C12 UNL     1     -17.410  -8.140  12.194  1.00  0.00     0.010 A 
HETATM   27  C13 UNL     1     -18.653  -7.651  12.549  1.00  0.00     0.018 A 
HETATM   28  C14 UNL     1     -19.425  -6.961  11.636  1.00  0.00     0.087 A 
HETATM   29  N4  UNL     1     -18.943  -6.777  10.393  1.00  0.00    -0.375 N 
HETATM   30  C15 UNL     1     -17.736  -7.248  10.036  1.00  0.00     0.094 A 
ATOM     31  H4  UNL     1     -19.503  -6.269   9.709  1.00  0.00     0.164 HD
ENDBRANCH  24  25
ENDBRANCH  23  24
ENDBRANCH  22  23
ENDBRANCH  20  22
ENDBRANCH  10  20
BRANCH  16  32
HETATM   32  C18 UNL     1     -18.319 -16.227   9.121  1.00  0.00     0.080 A 
HETATM   33  C19 UNL     1     -19.449 -15.738   8.512  1.00  0.00     0.033 A 
HETATM   34  C20 UNL     1     -20.314 -16.620   7.907  1.00  0.00     0.002 A 
HETATM   35  C21 UNL     1     -20.071 -17.974   7.901  1.00  0.00     0.002 A 
HETATM   36  C22 UNL     1     -18.946 -18.476   8.507  1.00  0.00     0.026 A 
HETATM   37  C23 UNL     1     -18.086 -17.583   9.109  1.00  0.00     0.062 A 
HETATM   38 CL1  UNL     1     -16.629 -18.242   9.892  1.00  0.00    -0.082 Cl
ENDBRANCH  16  32
ENDBRANCH   6   8
ENDBRANCH   5   6
ENDBRANCH   4   5
ENDBRANCH   3   4
TORSDOF 10
ENDMDL
MODEL 2
REMARK VINA RESULT: -8.926164979      1.977      2.744
REMARK  10 active torsions:
REMARK  status: ('A' for Active; 'I' for Inactive)
REMARK    1  A    between atoms: C3_3  and  C4_4 
REMARK    2  A    between atoms: C4_4  and  C5_5 
REMARK    3  A    between atoms: C5_5  and  N1_6 
REMARK    4  A    between atoms: N1_6  and  C6_8 
REMARK    5  A    between atoms: C7_11  and  N3_12 
REMARK    6  A    between atoms: N3_12  and  C8_14 
REMARK    7  A    between atoms: C8_14  and  C9_15 
REMARK    8  A    between atoms: C9_15  and  C10_16 
REMARK    9  A    between atoms: C10_16  and  C11_17 
REMARK   10  A    between atoms: N6_28  and  C18_29 
ROOT
HETATM    1  C1  UNL     1     -17.385  -7.277  11.030  1.00  0.00     0.112 C 
HETATM    2  C2  UNL     1     -17.416  -7.706   9.618  1.00  0.00    -0.111 C 
HETATM    3  C3  UNL     1     -17.423  -8.050   8.465  1.00  0.00    -0.105 C 
ENDROOT
BRANCH   3   4
HETATM    4  C4  UNL     1     -17.435  -8.489   7.051  1.00  0.00     0.114 C 
BRANCH   4   5
HETATM    5  C5  UNL     1     -16.916  -9.885   6.981  1.00  0.00     0.150 C 
BRANCH   5   6
HETATM    6  N1  UNL     1     -17.714 -10.821   7.749  1.00  0.00    -0.225 N 
ATOM      7  H1  UNL     1     -18.724 -10.846   7.611  1.00  0.00     0.177 HD
BRANCH   6   8
HETATM    8  C6  UNL     1     -17.174 -11.627   8.607  1.00  0.00     0.681 A 
HETATM    9  N2  UNL     1     -16.249 -11.141   9.403  1.00  0.00    -0.176 N 
HETATM   10  C7  UNL     1     -15.651 -11.960  10.325  1.00  0.00     0.132 A 
ATOM     11  H2  UNL     1     -15.976 -10.160   9.335  1.00  0.00     0.186 HD
HETATM   12  C16 UNL     1     -16.036 -13.283  10.396  1.00  0.00     0.071 A 
HETATM   13  C17 UNL     1     -15.702 -14.371  11.136  1.00  0.00     0.127 A 
HETATM   14  C24 UNL     1     -17.025 -13.733   9.521  1.00  0.00     0.158 A 
HETATM   15  N5  UNL     1     -16.457 -15.404  10.715  1.00  0.00    -0.302 N 
HETATM   16  N6  UNL     1     -17.265 -15.053   9.742  1.00  0.00    -0.237 N 
ATOM     17  H5  UNL     1     -16.408 -16.345  11.105  1.00  0.00     0.186 HD
HETATM   18  N7  UNL     1     -17.595 -12.903   8.624  1.00  0.00    -0.174 N 
ATOM     19  H7  UNL     1     -18.318 -13.231   7.983  1.00  0.00     0.186 HD
BRANCH  10  20
HETATM   20  N3  UNL     1     -14.787 -11.479  11.062  1.00  0.00    -0.375 N 
ATOM     21  H3  UNL     1     -14.411 -12.236  11.632  1.00  0.00     0.161 HD
BRANCH  20  22
HETATM   22  C8  UNL     1     -14.133 -10.329  11.416  1.00  0.00     0.121 C 
BRANCH  22  23
HETATM   23  C9  UNL     1     -14.908  -9.581  12.512  1.00  0.00     0.024 C 
BRANCH  23  24
HETATM   24  C10 UNL     1     -14.764 -10.328  13.800  1.00  0.00     0.041 C 
BRANCH  24  25
HETATM   25  C11 UNL     1     -15.737  -9.787  14.783  1.00  0.00    -0.043 A 
HETATM   26  C12 UNL     1     -16.846  -9.119  14.311  1.00  0.00     0.010 A 
HETATM   27  C13 UNL     1     -17.765  -8.608  15.208  1.00  0.00     0.018 A 
HETATM   28  C14 UNL     1     -17.582  -8.760  16.568  1.00  0.00     0.087 A 
HETATM   29  N4  UNL     1     -16.490  -9.416  17.002  1.00  0.00    -0.375 N 
HETATM   30  C15 UNL     1     -15.589  -9.918  16.140  1.00  0.00     0.094 A 
ATOM     31  H4  UNL     1     -16.343  -9.536  18.004  1.00  0.00     0.164 HD
ENDBRANCH  24  25
ENDBRANCH  23  24
ENDBRANCH  22  23
ENDBRANCH  20  22
ENDBRANCH  10  20
BRANCH  16  32
HETATM   32  C18 UNL     1     -18.207 -15.876   9.049  1.00  0.00     0.080 A 
HETATM   33  C19 UNL     1     -19.265 -15.314   8.378  1.00  0.00     0.033 A 
HETATM   34  C20 UNL     1     -20.151 -16.136   7.721  1.00  0.00     0.002 A 
HETATM   35  C21 UNL     1     -19.999 -17.504   7.725  1.00  0.00     0.002 A 
HETATM   36  C22 UNL     1     -18.946 -18.079   8.393  1.00  0.00     0.026 A 
HETATM   37  C23 UNL     1     -18.064 -17.245   9.046  1.00  0.00     0.062 A 
HETATM   38 CL1  UNL     1     -16.703 -17.999   9.909  1.00  0.00    -0.082 Cl
ENDBRANCH  16  32
ENDBRANCH   6   8
ENDBRANCH   5   6
ENDBRANCH   4   5
ENDBRANCH   3   4
TORSDOF 10
ENDMDL
MODEL 3
REMARK VINA RESULT: -8.515938019      5.100      8.472
REMARK  10 active torsions:
REMARK  status: ('A' for Active; 'I' for Inactive)
REMARK    1  A    between atoms: C3_3  and  C4_4 
REMARK    2  A    between atoms: C4_4  and  C5_5 
REMARK    3  A    between atoms: C5_5  and  N1_6 
REMARK    4  A    between atoms: N1_6  and  C6_8 
REMARK    5  A    between atoms: C7_11  and  N3_12 
REMARK    6  A    between atoms: N3_12  and  C8_14 
REMARK    7  A    between atoms: C8_14  and  C9_15 
REMARK    8  A    between atoms: C9_15  and  C10_16 
REMARK    9  A    between atoms: C10_16  and  C11_17 
REMARK   10  A    between atoms: N6_28  and  C18_29 
ROOT
HETATM    1  C1  UNL     1     -14.764 -10.329  18.610  1.00  0.00     0.112 C 
HETATM    2  C2  UNL     1     -15.953  -9.506  18.307  1.00  0.00    -0.111 C 
HETATM    3  C3  UNL     1     -16.912  -8.820  18.070  1.00  0.00    -0.105 C 
ENDROOT
BRANCH   3   4
HETATM    4  C4  UNL     1     -18.091  -7.980  17.759  1.00  0.00     0.114 C 
BRANCH   4   5
HETATM    5  C5  UNL     1     -19.164  -8.850  17.201  1.00  0.00     0.150 C 
BRANCH   5   6
HETATM    6  N1  UNL     1     -18.831  -9.386  15.894  1.00  0.00    -0.225 N 
ATOM      7  H1  UNL     1     -18.545 -10.361  15.814  1.00  0.00     0.177 HD
BRANCH   6   8
HETATM    8  C6  UNL     1     -18.889  -8.654  14.828  1.00  0.00     0.681 A 
HETATM    9  N2  UNL     1     -19.870  -7.785  14.736  1.00  0.00    -0.176 N 
HETATM   10  C7  UNL     1     -19.968  -6.990  13.623  1.00  0.00     0.132 A 
ATOM     11  H2  UNL     1     -20.554  -7.702  15.488  1.00  0.00     0.186 HD
HETATM   12  C16 UNL     1     -19.030  -7.124  12.620  1.00  0.00     0.071 A 
HETATM   13  C17 UNL     1     -18.788  -6.552  11.412  1.00  0.00     0.127 A 
HETATM   14  C24 UNL     1     -18.016  -8.066  12.782  1.00  0.00     0.158 A 
HETATM   15  N5  UNL     1     -17.687  -7.132  10.895  1.00  0.00    -0.302 N 
HETATM   16  N6  UNL     1     -17.197  -8.049  11.696  1.00  0.00    -0.237 N 
ATOM     17  H5  UNL     1     -17.283  -6.888   9.991  1.00  0.00     0.186 HD
HETATM   18  N7  UNL     1     -17.945  -8.834  13.888  1.00  0.00    -0.174 N 
ATOM     19  H7  UNL     1     -17.203  -9.524  14.008  1.00  0.00     0.186 HD
BRANCH  10  20
HETATM   20  N3  UNL     1     -20.896  -6.181  13.562  1.00  0.00    -0.375 N 
ATOM     21  H3  UNL     1     -21.608  -6.572  12.946  1.00  0.00     0.161 HD
BRANCH  20  22
HETATM   22  C8  UNL     1     -21.348  -4.962  13.996  1.00  0.00     0.121 C 
BRANCH  22  23
HETATM   23  C9  UNL     1     -20.778  -3.833  13.124  1.00  0.00     0.024 C 
BRANCH  23  24
HETATM   24  C10 UNL     1     -20.054  -2.862  14.001  1.00  0.00     0.041 C 
BRANCH  24  25
HETATM   25  C11 UNL     1     -18.643  -2.760  13.548  1.00  0.00    -0.043 A 
HETATM   26  C12 UNL     1     -17.808  -3.837  13.749  1.00  0.00     0.010 A 
HETATM   27  C13 UNL     1     -16.491  -3.764  13.335  1.00  0.00     0.018 A 
HETATM   28  C14 UNL     1     -16.008  -2.626  12.723  1.00  0.00     0.087 A 
HETATM   29  N4  UNL     1     -16.845  -1.588  12.538  1.00  0.00    -0.375 N 
HETATM   30  C15 UNL     1     -18.127  -1.647  12.937  1.00  0.00     0.094 A 
ATOM     31  H4  UNL     1     -16.500  -0.741  12.087  1.00  0.00     0.164 HD
ENDBRANCH  24  25
ENDBRANCH  23  24
ENDBRANCH  22  23
ENDBRANCH  20  22
ENDBRANCH  10  20
BRANCH  16  32
HETATM   32  C18 UNL     1     -16.044  -8.868  11.485  1.00  0.00     0.080 A 
HETATM   33  C19 UNL     1     -14.893  -8.653  12.202  1.00  0.00     0.033 A 
HETATM   34  C20 UNL     1     -13.803  -9.460  11.973  1.00  0.00     0.002 A 
HETATM   35  C21 UNL     1     -13.844 -10.473  11.042  1.00  0.00     0.002 A 
HETATM   36  C22 UNL     1     -14.989 -10.700  10.317  1.00  0.00     0.026 A 
HETATM   37  C23 UNL     1     -16.074  -9.885  10.557  1.00  0.00     0.062 A 
HETATM   38 CL1  UNL     1     -17.553 -10.184   9.613  1.00  0.00    -0.082 Cl
ENDBRANCH  16  32
ENDBRANCH   6   8
ENDBRANCH   5   6
ENDBRANCH   4   5
ENDBRANCH   3   4
TORSDOF 10
ENDMDL
MODEL 4
REMARK VINA RESULT: -8.512138994      3.124      9.009
REMARK  10 active torsions:
REMARK  status: ('A' for Active; 'I' for Inactive)
REMARK    1  A    between atoms: C3_3  and  C4_4 
REMARK    2  A    between atoms: C4_4  and  C5_5 
REMARK    3  A    between atoms: C5_5  and  N1_6 
REMARK    4  A    between atoms: N1_6  and  C6_8 
REMARK    5  A    between atoms: C7_11  and  N3_12 
REMARK    6  A    between atoms: N3_12  and  C8_14 
REMARK    7  A    between atoms: C8_14  and  C9_15 
REMARK    8  A    between atoms: C9_15  and  C10_16 
REMARK    9  A    between atoms: C10_16  and  C11_17 
REMARK   10  A    between atoms: N6_28  and  C18_29 
ROOT
HETATM    1  C1  UNL     1     -19.086  -8.027  16.043  1.00  0.00     0.112 C 
HETATM    2  C2  UNL     1     -17.793  -8.730  15.929  1.00  0.00    -0.111 C 
HETATM    3  C3  UNL     1     -16.729  -9.285  15.838  1.00  0.00    -0.105 C 
ENDROOT
BRANCH   3   4
HETATM    4  C4  UNL     1     -15.425  -9.978  15.741  1.00  0.00     0.114 C 
BRANCH   4   5
HETATM    5  C5  UNL     1     -15.296 -10.564  14.376  1.00  0.00     0.150 C 
BRANCH   5   6
HETATM    6  N1  UNL     1     -14.827  -9.604  13.394  1.00  0.00    -0.225 N 
ATOM      7  H1  UNL     1     -13.917  -9.163  13.524  1.00  0.00     0.177 HD
BRANCH   6   8
HETATM    8  C6  UNL     1     -15.538  -9.294  12.358  1.00  0.00     0.681 A 
HETATM    9  N2  UNL     1     -15.451 -10.071  11.302  1.00  0.00    -0.176 N 
HETATM   10  C7  UNL     1     -16.187  -9.779  10.183  1.00  0.00     0.132 A 
ATOM     11  H2  UNL     1     -14.840 -10.888  11.315  1.00  0.00     0.186 HD
HETATM   12  C16 UNL     1     -17.005  -8.667  10.191  1.00  0.00     0.071 A 
HETATM   13  C17 UNL     1     -17.855  -8.060   9.323  1.00  0.00     0.127 A 
HETATM   14  C24 UNL     1     -17.049  -7.886  11.345  1.00  0.00     0.158 A 
HETATM   15  N5  UNL     1     -18.369  -6.978   9.939  1.00  0.00    -0.302 N 
HETATM   16  N6  UNL     1     -17.904  -6.844  11.159  1.00  0.00    -0.237 N 
ATOM     17  H5  UNL     1     -19.039  -6.341   9.510  1.00  0.00     0.186 HD
HETATM   18  N7  UNL     1     -16.314  -8.199  12.431  1.00  0.00    -0.174 N 
ATOM     19  H7  UNL     1     -16.345  -7.627  13.275  1.00  0.00     0.186 HD
BRANCH  10  20
HETATM   20  N3  UNL     1     -16.089 -10.526   9.207  1.00  0.00    -0.375 N 
ATOM     21  H3  UNL     1     -15.170 -10.374   8.793  1.00  0.00     0.161 HD
BRANCH  20  22
HETATM   22  C8  UNL     1     -16.730 -11.479   8.460  1.00  0.00     0.121 C 
BRANCH  22  23
HETATM   23  C9  UNL     1     -17.503 -12.448   9.367  1.00  0.00     0.024 C 
BRANCH  23  24
HETATM   24  C10 UNL     1     -17.742 -13.722   8.622  1.00  0.00     0.041 C 
BRANCH  24  25
HETATM   25  C11 UNL     1     -17.253 -14.860   9.441  1.00  0.00    -0.043 A 
HETATM   26  C12 UNL     1     -17.265 -16.122   8.887  1.00  0.00     0.010 A 
HETATM   27  C13 UNL     1     -16.815 -17.196   9.632  1.00  0.00     0.018 A 
HETATM   28  C14 UNL     1     -16.355 -17.016  10.921  1.00  0.00     0.087 A 
HETATM   29  N4  UNL     1     -16.355 -15.773  11.438  1.00  0.00    -0.375 N 
HETATM   30  C15 UNL     1     -16.790 -14.721  10.724  1.00  0.00     0.094 A 
ATOM     31  H4  UNL     1     -16.018 -15.627  12.389  1.00  0.00     0.164 HD
ENDBRANCH  24  25
ENDBRANCH  23  24
ENDBRANCH  22  23
ENDBRANCH  20  22
ENDBRANCH  10  20
BRANCH  16  32
HETATM   32  C18 UNL     1     -18.220  -5.821  12.107  1.00  0.00     0.080 A 
HETATM   33  C19 UNL     1     -17.413  -4.719  12.240  1.00  0.00     0.033 A 
HETATM   34  C20 UNL     1     -17.749  -3.754  13.162  1.00  0.00     0.002 A 
HETATM   35  C21 UNL     1     -18.872  -3.873  13.949  1.00  0.00     0.002 A 
HETATM   36  C22 UNL     1     -19.688  -4.971  13.826  1.00  0.00     0.026 A 
HETATM   37  C23 UNL     1     -19.341  -5.930  12.899  1.00  0.00     0.062 A 
HETATM   38 CL1  UNL     1     -20.404  -7.350  12.746  1.00  0.00    -0.082 Cl
ENDBRANCH  16  32
ENDBRANCH   6   8
ENDBRANCH   5   6
ENDBRANCH   4   5
ENDBRANCH   3   4
TORSDOF 10
ENDMDL
MODEL 5
REMARK VINA RESULT: -8.345111843      4.324      9.929
REMARK  10 active torsions:
REMARK  status: ('A' for Active; 'I' for Inactive)
REMARK    1  A    between atoms: C3_3  and  C4_4 
REMARK    2  A    between atoms: C4_4  and  C5_5 
REMARK    3  A    between atoms: C5_5  and  N1_6 
REMARK    4  A    between atoms: N1_6  and  C6_8 
REMARK    5  A    between atoms: C7_11  and  N3_12 
REMARK    6  A    between atoms: N3_12  and  C8_14 
REMARK    7  A    between atoms: C8_14  and  C9_15 
REMARK    8  A    between atoms: C9_15  and  C10_16 
REMARK    9  A    between atoms: C10_16  and  C11_17 
REMARK   10  A    between atoms: N6_28  and  C18_29 
ROOT
HETATM    1  C1  UNL     1     -14.669 -10.242  18.449  1.00  0.00     0.112 C 
HETATM    2  C2  UNL     1     -15.787  -9.588  17.739  1.00  0.00    -0.111 C 
HETATM    3  C3  UNL     1     -16.686  -9.040  17.158  1.00  0.00    -0.105 C 
ENDROOT
BRANCH   3   4
HETATM    4  C4  UNL     1     -17.793  -8.378  16.431  1.00  0.00     0.114 C 
BRANCH   4   5
HETATM    5  C5  UNL     1     -18.063  -9.138  15.177  1.00  0.00     0.150 C 
BRANCH   5   6
HETATM    6  N1  UNL     1     -17.267  -8.673  14.056  1.00  0.00    -0.225 N 
ATOM      7  H1  UNL     1     -16.300  -8.983  13.970  1.00  0.00     0.177 HD
BRANCH   6   8
HETATM    8  C6  UNL     1     -17.758  -7.876  13.162  1.00  0.00     0.681 A 
HETATM    9  N2  UNL     1     -17.713  -8.263  11.907  1.00  0.00    -0.176 N 
HETATM   10  C7  UNL     1     -18.222  -7.448  10.929  1.00  0.00     0.132 A 
ATOM     11  H2  UNL     1     -17.303  -9.163  11.662  1.00  0.00     0.186 HD
HETATM   12  C16 UNL     1     -18.770  -6.233  11.288  1.00  0.00     0.071 A 
HETATM   13  C17 UNL     1     -19.352  -5.184  10.649  1.00  0.00     0.127 A 
HETATM   14  C24 UNL     1     -18.785  -5.885  12.638  1.00  0.00     0.158 A 
HETATM   15  N5  UNL     1     -19.688  -4.271  11.580  1.00  0.00    -0.302 N 
HETATM   16  N6  UNL     1     -19.360  -4.662  12.789  1.00  0.00    -0.237 N 
ATOM     17  H5  UNL     1     -20.143  -3.382  11.371  1.00  0.00     0.186 HD
HETATM   18  N7  UNL     1     -18.277  -6.708  13.578  1.00  0.00    -0.174 N 
ATOM     19  H7  UNL     1     -18.287  -6.454  14.566  1.00  0.00     0.186 HD
BRANCH  10  20
HETATM   20  N3  UNL     1     -18.170  -7.835   9.760  1.00  0.00    -0.375 N 
ATOM     21  H3  UNL     1     -18.962  -8.459   9.605  1.00  0.00     0.161 HD
BRANCH  20  22
HETATM   22  C8  UNL     1     -17.469  -7.756   8.586  1.00  0.00     0.121 C 
BRANCH  22  23
HETATM   23  C9  UNL     1     -17.544  -9.086   7.821  1.00  0.00     0.024 C 
BRANCH  23  24
HETATM   24  C10 UNL     1     -16.157  -9.604   7.612  1.00  0.00     0.041 C 
BRANCH  24  25
HETATM   25  C11 UNL     1     -15.706 -10.289   8.850  1.00  0.00    -0.043 A 
HETATM   26  C12 UNL     1     -14.725  -9.691   9.612  1.00  0.00     0.010 A 
HETATM   27  C13 UNL     1     -14.290 -10.311  10.768  1.00  0.00     0.018 A 
HETATM   28  C14 UNL     1     -14.827 -11.518  11.166  1.00  0.00     0.087 A 
HETATM   29  N4  UNL     1     -15.784 -12.080  10.403  1.00  0.00    -0.375 N 
HETATM   30  C15 UNL     1     -16.215 -11.488   9.277  1.00  0.00     0.094 A 
ATOM     31  H4  UNL     1     -16.189 -12.972  10.686  1.00  0.00     0.164 HD
ENDBRANCH  24  25
ENDBRANCH  23  24
ENDBRANCH  22  23
ENDBRANCH  20  22
ENDBRANCH  10  20
BRANCH  16  32
HETATM   32  C18 UNL     1     -19.560  -3.960  14.019  1.00  0.00     0.080 A 
HETATM   33  C19 UNL     1     -18.668  -2.998  14.427  1.00  0.00     0.033 A 
HETATM   34  C20 UNL     1     -18.892  -2.342  15.615  1.00  0.00     0.002 A 
HETATM   35  C21 UNL     1     -19.986  -2.630  16.398  1.00  0.00     0.002 A 
HETATM   36  C22 UNL     1     -20.886  -3.589  16.002  1.00  0.00     0.026 A 
HETATM   37  C23 UNL     1     -20.651  -4.239  14.810  1.00  0.00     0.062 A 
HETATM   38 CL1  UNL     1     -21.821  -5.481  14.304  1.00  0.00    -0.082 Cl
ENDBRANCH  16  32
ENDBRANCH   6   8
ENDBRANCH   5   6
ENDBRANCH   4   5
ENDBRANCH   3   4
TORSDOF 10
ENDMDL
