MODEL 1
REMARK VINA RESULT: -8.286801442      0.000      0.000
REMARK  15 active torsions:
REMARK  status: ('A' for Active; 'I' for Inactive)
REMARK    1  A    between atoms: C4_4  and  O1_5 
REMARK    2  A    between atoms: O1_5  and  C5_6 
REMARK    3  A    between atoms: C5_6  and  C6_8 
REMARK    4  A    between atoms: C11_13  and  C12_14 
REMARK    5  A    between atoms: C20_27  and  O8_28 
REMARK    6  A    between atoms: C21_30  and  O9_31 
REMARK    7  A    between atoms: C22_33  and  C23_34 
REMARK    8  A    between atoms: C23_34  and  C24_35 
REMARK    9  A    between atoms: C24_35  and  N1_36 
REMARK       I    between atoms: N1_36  and  C25_38 
REMARK   10  A    between atoms: C25_38  and  C26_40 
REMARK   11  A    between atoms: C26_40  and  C27_41 
REMARK   12  A    between atoms: C27_41  and  C28_42 
REMARK   13  A    between atoms: C28_42  and  C29_43 
REMARK   14  A    between atoms: C29_43  and  C30_44 
REMARK   15  A    between atoms: C30_44  and  C31_45 
ROOT
HETATM    1  C1  UNL     1      26.232   7.899  16.241  1.00  0.00     0.040 C 
HETATM    2  C2  UNL     1      26.013   8.530  17.633  1.00  0.00     0.130 C 
HETATM    3  C3  UNL     1      26.914   7.919  18.685  1.00  0.00     0.065 C 
HETATM    4  C4  UNL     1      26.308   7.310  19.875  1.00  0.00     0.146 C 
HETATM    5  C13 UNL     1      25.937   8.076  21.116  1.00  0.00     0.028 C 
HETATM    6  C14 UNL     1      26.940   9.074  21.551  1.00  0.00     0.098 C 
HETATM    7  C15 UNL     1      26.600  10.528  21.452  1.00  0.00     0.146 C 
HETATM    8  O5  UNL     1      26.434  11.278  22.381  1.00  0.00    -0.294 OA
HETATM    9  C16 UNL     1      26.466  11.041  20.110  1.00  0.00     0.024 C 
HETATM   10  C17 UNL     1      26.331  12.436  19.699  1.00  0.00     0.041 C 
HETATM   11  C18 UNL     1      26.030  12.267  18.183  1.00  0.00     0.115 C 
HETATM   12  C19 UNL     1      26.680  11.042  17.612  1.00  0.00     0.259 C 
HETATM   13  O6  UNL     1      27.911  11.310  17.297  1.00  0.00    -0.265 OA
HETATM   14  O7  UNL     1      26.075   9.867  17.456  1.00  0.00    -0.316 OA
HETATM   15  C20 UNL     1      24.480   8.560  21.062  1.00  0.00     0.159 C 
HETATM   16  C21 UNL     1      24.006   7.241  21.671  1.00  0.00     0.152 C 
HETATM   17  C22 UNL     1      25.434   7.075  22.142  1.00  0.00     0.032 C 
ENDROOT
BRANCH   4  18
HETATM   18  O1  UNL     1      27.267   6.336  20.283  1.00  0.00    -0.315 OA
BRANCH  18  19
HETATM   19  C5  UNL     1      27.279   5.027  19.838  1.00  0.00     0.264 C 
HETATM   20  O2  UNL     1      26.396   4.721  18.998  1.00  0.00    -0.265 OA
BRANCH  19  21
HETATM   21  C6  UNL     1      28.302   4.102  20.368  1.00  0.00     0.100 C 
HETATM   22  C7  UNL     1      27.996   2.663  20.130  1.00  0.00     0.015 C 
HETATM   23  C8  UNL     1      26.925   2.100  20.992  1.00  0.00     0.001 C 
HETATM   24  C9  UNL     1      26.621   2.895  22.223  1.00  0.00     0.001 C 
HETATM   25  C10 UNL     1      27.798   3.633  22.784  1.00  0.00     0.016 C 
HETATM   26  C11 UNL     1      28.642   4.333  21.797  1.00  0.00     0.100 C 
BRANCH  26  27
HETATM   27  C12 UNL     1      30.085   3.966  21.995  1.00  0.00     0.177 C 
HETATM   28  O3  UNL     1      30.424   3.034  22.774  1.00  0.00    -0.648 OA
HETATM   29  O4  UNL     1      31.103   4.635  21.331  1.00  0.00    -0.648 OA
ENDBRANCH  26  27
ENDBRANCH  19  21
ENDBRANCH  18  19
ENDBRANCH   4  18
BRANCH  15  30
HETATM   30  O8  UNL     1      24.087   9.562  21.890  1.00  0.00    -0.392 OA
ATOM     31  H8  UNL     1      23.428  10.177  21.590  1.00  0.00     0.210 HD
ENDBRANCH  15  30
BRANCH  17  32
HETATM   32  C23 UNL     1      25.733   7.145  23.553  1.00  0.00     0.028 C 
BRANCH  32  33
HETATM   33  C24 UNL     1      26.161   6.023  24.399  1.00  0.00     0.123 C 
BRANCH  33  34
HETATM   34  N1  UNL     1      25.974   6.319  25.826  1.00  0.00    -0.361 N 
HETATM   35  C25 UNL     1      26.097   5.363  26.848  1.00  0.00     0.217 C 
HETATM   36  O10 UNL     1      26.386   4.175  26.529  1.00  0.00    -0.274 OA
ATOM     37  H1  UNL     1      25.741   7.276  26.091  1.00  0.00     0.162 HD
BRANCH  35  38
HETATM   38  C26 UNL     1      25.911   5.661  28.277  1.00  0.00     0.103 C 
BRANCH  38  39
HETATM   39  C27 UNL     1      27.183   5.676  29.051  1.00  0.00     0.009 C 
BRANCH  39  40
HETATM   40  C28 UNL     1      26.909   6.493  30.326  1.00  0.00     0.001 C 
BRANCH  40  41
HETATM   41  C29 UNL     1      26.868   7.964  30.009  1.00  0.00     0.010 C 
BRANCH  41  42
HETATM   42  C30 UNL     1      25.947   8.667  30.945  1.00  0.00     0.113 C 
BRANCH  42  43
HETATM   43  C31 UNL     1      24.574   8.203  30.760  1.00  0.00     0.172 C 
HETATM   44  O11 UNL     1      23.924   8.302  29.681  1.00  0.00    -0.648 OA
HETATM   45  O12 UNL     1      23.877   7.599  31.810  1.00  0.00    -0.648 OA
ENDBRANCH  42  43
ENDBRANCH  41  42
ENDBRANCH  40  41
ENDBRANCH  39  40
ENDBRANCH  38  39
ENDBRANCH  35  38
ENDBRANCH  33  34
ENDBRANCH  32  33
ENDBRANCH  17  32
BRANCH  16  46
HETATM   46  O9  UNL     1      23.027   7.317  22.615  1.00  0.00    -0.393 OA
ATOM     47  H9  UNL     1      23.086   6.711  23.343  1.00  0.00     0.210 HD
ENDBRANCH  16  46
TORSDOF 15
ENDMDL
MODEL 2
REMARK VINA RESULT: -8.023047239      1.093      1.585
REMARK  15 active torsions:
REMARK  status: ('A' for Active; 'I' for Inactive)
REMARK    1  A    between atoms: C4_4  and  O1_5 
REMARK    2  A    between atoms: O1_5  and  C5_6 
REMARK    3  A    between atoms: C5_6  and  C6_8 
REMARK    4  A    between atoms: C11_13  and  C12_14 
REMARK    5  A    between atoms: C20_27  and  O8_28 
REMARK    6  A    between atoms: C21_30  and  O9_31 
REMARK    7  A    between atoms: C22_33  and  C23_34 
REMARK    8  A    between atoms: C23_34  and  C24_35 
REMARK    9  A    between atoms: C24_35  and  N1_36 
REMARK       I    between atoms: N1_36  and  C25_38 
REMARK   10  A    between atoms: C25_38  and  C26_40 
REMARK   11  A    between atoms: C26_40  and  C27_41 
REMARK   12  A    between atoms: C27_41  and  C28_42 
REMARK   13  A    between atoms: C28_42  and  C29_43 
REMARK   14  A    between atoms: C29_43  and  C30_44 
REMARK   15  A    between atoms: C30_44  and  C31_45 
ROOT
HETATM    1  C1  UNL     1      26.522   7.901  16.757  1.00  0.00     0.040 C 
HETATM    2  C2  UNL     1      26.132   8.526  18.114  1.00  0.00     0.130 C 
HETATM    3  C3  UNL     1      26.943   7.956  19.259  1.00  0.00     0.065 C 
HETATM    4  C4  UNL     1      26.242   7.326  20.383  1.00  0.00     0.146 C 
HETATM    5  C13 UNL     1      25.712   8.079  21.573  1.00  0.00     0.028 C 
HETATM    6  C14 UNL     1      26.621   9.120  22.103  1.00  0.00     0.098 C 
HETATM    7  C15 UNL     1      26.233  10.557  21.959  1.00  0.00     0.146 C 
HETATM    8  O5  UNL     1      25.940  11.303  22.860  1.00  0.00    -0.294 OA
HETATM    9  C16 UNL     1      26.219  11.061  20.607  1.00  0.00     0.024 C 
HETATM   10  C17 UNL     1      26.070  12.448  20.174  1.00  0.00     0.041 C 
HETATM   11  C18 UNL     1      25.936  12.261  18.636  1.00  0.00     0.115 C 
HETATM   12  C19 UNL     1      26.693  11.063  18.144  1.00  0.00     0.259 C 
HETATM   13  O6  UNL     1      27.938  11.382  17.957  1.00  0.00    -0.265 OA
HETATM   14  O7  UNL     1      26.156   9.864  17.934  1.00  0.00    -0.316 OA
HETATM   15  C20 UNL     1      24.250   8.501  21.364  1.00  0.00     0.159 C 
HETATM   16  C21 UNL     1      23.769   7.165  21.930  1.00  0.00     0.152 C 
HETATM   17  C22 UNL     1      25.146   7.060  22.548  1.00  0.00     0.032 C 
ENDROOT
BRANCH   4  18
HETATM   18  O1  UNL     1      27.193   6.394  20.896  1.00  0.00    -0.315 OA
BRANCH  18  19
HETATM   19  C5  UNL     1      26.974   5.032  20.980  1.00  0.00     0.264 C 
HETATM   20  O2  UNL     1      26.139   4.555  20.171  1.00  0.00    -0.265 OA
BRANCH  19  21
HETATM   21  C6  UNL     1      27.718   4.250  21.989  1.00  0.00     0.100 C 
HETATM   22  C7  UNL     1      29.197   4.279  21.805  1.00  0.00     0.015 C 
HETATM   23  C8  UNL     1      29.703   3.455  20.677  1.00  0.00     0.001 C 
HETATM   24  C9  UNL     1      28.753   2.412  20.180  1.00  0.00     0.001 C 
HETATM   25  C10 UNL     1      27.842   1.858  21.234  1.00  0.00     0.016 C 
HETATM   26  C11 UNL     1      27.240   2.852  22.144  1.00  0.00     0.100 C 
BRANCH  26  27
HETATM   27  C12 UNL     1      27.453   2.443  23.573  1.00  0.00     0.177 C 
HETATM   28  O3  UNL     1      28.105   1.406  23.869  1.00  0.00    -0.648 OA
HETATM   29  O4  UNL     1      26.943   3.189  24.626  1.00  0.00    -0.648 OA
ENDBRANCH  26  27
ENDBRANCH  19  21
ENDBRANCH  18  19
ENDBRANCH   4  18
BRANCH  15  30
HETATM   30  O8  UNL     1      23.731   9.488  22.140  1.00  0.00    -0.392 OA
ATOM     31  H8  UNL     1      23.252   9.253  22.926  1.00  0.00     0.210 HD
ENDBRANCH  15  30
BRANCH  17  32
HETATM   32  C23 UNL     1      25.293   7.147  23.982  1.00  0.00     0.028 C 
BRANCH  32  33
HETATM   33  C24 UNL     1      25.070   6.054  24.938  1.00  0.00     0.123 C 
BRANCH  33  34
HETATM   34  N1  UNL     1      26.153   5.971  25.928  1.00  0.00    -0.361 N 
HETATM   35  C25 UNL     1      25.946   5.934  27.316  1.00  0.00     0.217 C 
HETATM   36  O10 UNL     1      24.759   5.972  27.749  1.00  0.00    -0.274 OA
ATOM     37  H1  UNL     1      27.114   5.940  25.586  1.00  0.00     0.162 HD
BRANCH  35  38
HETATM   38  C26 UNL     1      27.031   5.850  28.306  1.00  0.00     0.103 C 
BRANCH  38  39
HETATM   39  C27 UNL     1      26.549   5.660  29.703  1.00  0.00     0.009 C 
BRANCH  39  40
HETATM   40  C28 UNL     1      27.229   6.747  30.552  1.00  0.00     0.001 C 
BRANCH  40  41
HETATM   41  C29 UNL     1      26.799   8.116  30.097  1.00  0.00     0.010 C 
BRANCH  41  42
HETATM   42  C30 UNL     1      25.875   8.724  31.094  1.00  0.00     0.113 C 
BRANCH  42  43
HETATM   43  C31 UNL     1      24.505   8.268  30.868  1.00  0.00     0.172 C 
HETATM   44  O11 UNL     1      23.903   8.329  29.758  1.00  0.00    -0.648 OA
HETATM   45  O12 UNL     1      23.756   7.715  31.910  1.00  0.00    -0.648 OA
ENDBRANCH  42  43
ENDBRANCH  41  42
ENDBRANCH  40  41
ENDBRANCH  39  40
ENDBRANCH  38  39
ENDBRANCH  35  38
ENDBRANCH  33  34
ENDBRANCH  32  33
ENDBRANCH  17  32
BRANCH  16  46
HETATM   46  O9  UNL     1      22.695   7.202  22.766  1.00  0.00    -0.393 OA
ATOM     47  H9  UNL     1      22.111   6.453  22.748  1.00  0.00     0.210 HD
ENDBRANCH  16  46
TORSDOF 15
ENDMDL
MODEL 3
REMARK VINA RESULT: -7.725086000      1.401      1.727
REMARK  15 active torsions:
REMARK  status: ('A' for Active; 'I' for Inactive)
REMARK    1  A    between atoms: C4_4  and  O1_5 
REMARK    2  A    between atoms: O1_5  and  C5_6 
REMARK    3  A    between atoms: C5_6  and  C6_8 
REMARK    4  A    between atoms: C11_13  and  C12_14 
REMARK    5  A    between atoms: C20_27  and  O8_28 
REMARK    6  A    between atoms: C21_30  and  O9_31 
REMARK    7  A    between atoms: C22_33  and  C23_34 
REMARK    8  A    between atoms: C23_34  and  C24_35 
REMARK    9  A    between atoms: C24_35  and  N1_36 
REMARK       I    between atoms: N1_36  and  C25_38 
REMARK   10  A    between atoms: C25_38  and  C26_40 
REMARK   11  A    between atoms: C26_40  and  C27_41 
REMARK   12  A    between atoms: C27_41  and  C28_42 
REMARK   13  A    between atoms: C28_42  and  C29_43 
REMARK   14  A    between atoms: C29_43  and  C30_44 
REMARK   15  A    between atoms: C30_44  and  C31_45 
ROOT
HETATM    1  C1  UNL     1      24.944   5.736  16.226  1.00  0.00     0.040 C 
HETATM    2  C2  UNL     1      25.054   6.544  17.537  1.00  0.00     0.130 C 
HETATM    3  C3  UNL     1      25.849   5.809  18.596  1.00  0.00     0.065 C 
HETATM    4  C4  UNL     1      25.221   5.532  19.893  1.00  0.00     0.146 C 
HETATM    5  C13 UNL     1      25.210   6.498  21.046  1.00  0.00     0.028 C 
HETATM    6  C14 UNL     1      26.492   7.199  21.280  1.00  0.00     0.098 C 
HETATM    7  C15 UNL     1      26.567   8.670  21.017  1.00  0.00     0.146 C 
HETATM    8  O5  UNL     1      26.716   9.528  21.851  1.00  0.00    -0.294 OA
HETATM    9  C16 UNL     1      26.448   9.057  19.633  1.00  0.00     0.024 C 
HETATM   10  C17 UNL     1      26.670  10.380  19.055  1.00  0.00     0.041 C 
HETATM   11  C18 UNL     1      26.180  10.149  17.598  1.00  0.00     0.115 C 
HETATM   12  C19 UNL     1      26.397   8.735  17.146  1.00  0.00     0.259 C 
HETATM   13  O6  UNL     1      27.615   8.597  16.717  1.00  0.00    -0.265 OA
HETATM   14  O7  UNL     1      25.472   7.779  17.185  1.00  0.00    -0.316 OA
HETATM   15  C20 UNL     1      23.951   7.378  21.029  1.00  0.00     0.159 C 
HETATM   16  C21 UNL     1      23.188   6.326  21.834  1.00  0.00     0.152 C 
HETATM   17  C22 UNL     1      24.552   5.800  22.225  1.00  0.00     0.032 C 
ENDROOT
BRANCH   4  18
HETATM   18  O1  UNL     1      25.903   4.368  20.357  1.00  0.00    -0.315 OA
BRANCH  18  19
HETATM   19  C5  UNL     1      26.622   3.515  19.541  1.00  0.00     0.264 C 
HETATM   20  O2  UNL     1      25.969   2.925  18.645  1.00  0.00    -0.265 OA
BRANCH  19  21
HETATM   21  C6  UNL     1      28.073   3.359  19.774  1.00  0.00     0.100 C 
HETATM   22  C7  UNL     1      28.489   1.960  20.076  1.00  0.00     0.015 C 
HETATM   23  C8  UNL     1      28.137   1.484  21.439  1.00  0.00     0.001 C 
HETATM   24  C9  UNL     1      27.823   2.564  22.425  1.00  0.00     0.001 C 
HETATM   25  C10 UNL     1      28.563   3.846  22.189  1.00  0.00     0.016 C 
HETATM   26  C11 UNL     1      28.626   4.297  20.786  1.00  0.00     0.100 C 
BRANCH  26  27
HETATM   27  C12 UNL     1      30.044   4.609  20.404  1.00  0.00     0.177 C 
HETATM   28  O3  UNL     1      30.361   4.868  19.212  1.00  0.00    -0.648 OA
HETATM   29  O4  UNL     1      31.064   4.625  21.345  1.00  0.00    -0.648 OA
ENDBRANCH  26  27
ENDBRANCH  19  21
ENDBRANCH  18  19
ENDBRANCH   4  18
BRANCH  15  30
HETATM   30  O8  UNL     1      23.943   8.532  21.746  1.00  0.00    -0.392 OA
ATOM     31  H8  UNL     1      23.117   8.862  22.080  1.00  0.00     0.210 HD
ENDBRANCH  15  30
BRANCH  17  32
HETATM   32  C23 UNL     1      25.001   5.926  23.591  1.00  0.00     0.028 C 
BRANCH  32  33
HETATM   33  C24 UNL     1      25.578   4.851  24.411  1.00  0.00     0.123 C 
BRANCH  33  34
HETATM   34  N1  UNL     1      25.999   5.343  25.730  1.00  0.00    -0.361 N 
HETATM   35  C25 UNL     1      25.143   5.446  26.838  1.00  0.00     0.217 C 
HETATM   36  O10 UNL     1      23.937   5.096  26.702  1.00  0.00    -0.274 OA
ATOM     37  H1  UNL     1      26.972   5.627  25.848  1.00  0.00     0.162 HD
BRANCH  35  38
HETATM   38  C26 UNL     1      25.567   5.938  28.159  1.00  0.00     0.103 C 
BRANCH  38  39
HETATM   39  C27 UNL     1      27.004   5.683  28.455  1.00  0.00     0.009 C 
BRANCH  39  40
HETATM   40  C28 UNL     1      27.370   6.578  29.652  1.00  0.00     0.001 C 
BRANCH  40  41
HETATM   41  C29 UNL     1      26.268   6.560  30.677  1.00  0.00     0.010 C 
BRANCH  41  42
HETATM   42  C30 UNL     1      26.015   7.936  31.186  1.00  0.00     0.113 C 
BRANCH  42  43
HETATM   43  C31 UNL     1      24.674   8.382  30.815  1.00  0.00     0.172 C 
HETATM   44  O11 UNL     1      24.390   8.973  29.733  1.00  0.00    -0.648 OA
HETATM   45  O12 UNL     1      23.589   8.171  31.669  1.00  0.00    -0.648 OA
ENDBRANCH  42  43
ENDBRANCH  41  42
ENDBRANCH  40  41
ENDBRANCH  39  40
ENDBRANCH  38  39
ENDBRANCH  35  38
ENDBRANCH  33  34
ENDBRANCH  32  33
ENDBRANCH  17  32
BRANCH  16  46
HETATM   46  O9  UNL     1      22.372   6.782  22.824  1.00  0.00    -0.393 OA
ATOM     47  H9  UNL     1      21.567   6.300  22.973  1.00  0.00     0.210 HD
ENDBRANCH  16  46
TORSDOF 15
ENDMDL
MODEL 4
REMARK VINA RESULT: -7.716465083      1.644      2.328
REMARK  15 active torsions:
REMARK  status: ('A' for Active; 'I' for Inactive)
REMARK    1  A    between atoms: C4_4  and  O1_5 
REMARK    2  A    between atoms: O1_5  and  C5_6 
REMARK    3  A    between atoms: C5_6  and  C6_8 
REMARK    4  A    between atoms: C11_13  and  C12_14 
REMARK    5  A    between atoms: C20_27  and  O8_28 
REMARK    6  A    between atoms: C21_30  and  O9_31 
REMARK    7  A    between atoms: C22_33  and  C23_34 
REMARK    8  A    between atoms: C23_34  and  C24_35 
REMARK    9  A    between atoms: C24_35  and  N1_36 
REMARK       I    between atoms: N1_36  and  C25_38 
REMARK   10  A    between atoms: C25_38  and  C26_40 
REMARK   11  A    between atoms: C26_40  and  C27_41 
REMARK   12  A    between atoms: C27_41  and  C28_42 
REMARK   13  A    between atoms: C28_42  and  C29_43 
REMARK   14  A    between atoms: C29_43  and  C30_44 
REMARK   15  A    between atoms: C30_44  and  C31_45 
ROOT
HETATM    1  C1  UNL     1      25.931   5.583  16.660  1.00  0.00     0.040 C 
HETATM    2  C2  UNL     1      25.788   6.544  17.859  1.00  0.00     0.130 C 
HETATM    3  C3  UNL     1      26.663   6.137  19.026  1.00  0.00     0.065 C 
HETATM    4  C4  UNL     1      26.039   5.881  20.329  1.00  0.00     0.146 C 
HETATM    5  C13 UNL     1      25.751   6.949  21.348  1.00  0.00     0.028 C 
HETATM    6  C14 UNL     1      26.834   7.943  21.527  1.00  0.00     0.098 C 
HETATM    7  C15 UNL     1      26.600   9.351  21.081  1.00  0.00     0.146 C 
HETATM    8  O5  UNL     1      26.510  10.314  21.802  1.00  0.00    -0.294 OA
HETATM    9  C16 UNL     1      26.477   9.535  19.655  1.00  0.00     0.024 C 
HETATM   10  C17 UNL     1      26.436  10.797  18.920  1.00  0.00     0.041 C 
HETATM   11  C18 UNL     1      26.092  10.291  17.490  1.00  0.00     0.115 C 
HETATM   12  C19 UNL     1      26.638   8.919  17.230  1.00  0.00     0.259 C 
HETATM   13  O6  UNL     1      27.879   9.007  16.857  1.00  0.00    -0.265 OA
HETATM   14  O7  UNL     1      25.944   7.791  17.364  1.00  0.00    -0.316 OA
HETATM   15  C20 UNL     1      24.333   7.516  21.183  1.00  0.00     0.159 C 
HETATM   16  C21 UNL     1      23.775   6.423  22.093  1.00  0.00     0.152 C 
HETATM   17  C22 UNL     1      25.197   6.266  22.587  1.00  0.00     0.032 C 
ENDROOT
BRANCH   4  18
HETATM   18  O1  UNL     1      26.932   4.963  20.958  1.00  0.00    -0.315 OA
BRANCH  18  19
HETATM   19  C5  UNL     1      26.532   3.788  21.566  1.00  0.00     0.264 C 
HETATM   20  O2  UNL     1      25.561   3.192  21.035  1.00  0.00    -0.265 OA
BRANCH  19  21
HETATM   21  C6  UNL     1      27.255   3.326  22.768  1.00  0.00     0.100 C 
HETATM   22  C7  UNL     1      28.739   3.404  22.649  1.00  0.00     0.015 C 
HETATM   23  C8  UNL     1      29.351   2.365  21.782  1.00  0.00     0.001 C 
HETATM   24  C9  UNL     1      28.487   1.173  21.516  1.00  0.00     0.001 C 
HETATM   25  C10 UNL     1      27.546   0.835  22.633  1.00  0.00     0.016 C 
HETATM   26  C11 UNL     1      26.841   1.979  23.242  1.00  0.00     0.100 C 
BRANCH  26  27
HETATM   27  C12 UNL     1      26.990   1.945  24.735  1.00  0.00     0.177 C 
HETATM   28  O3  UNL     1      26.689   2.941  25.448  1.00  0.00    -0.648 OA
HETATM   29  O4  UNL     1      27.464   0.819  25.394  1.00  0.00    -0.648 OA
ENDBRANCH  26  27
ENDBRANCH  19  21
ENDBRANCH  18  19
ENDBRANCH   4  18
BRANCH  15  30
HETATM   30  O8  UNL     1      24.033   8.716  21.746  1.00  0.00    -0.392 OA
ATOM     31  H8  UNL     1      23.126   8.998  21.773  1.00  0.00     0.210 HD
ENDBRANCH  15  30
BRANCH  17  32
HETATM   32  C23 UNL     1      25.530   6.650  23.939  1.00  0.00     0.028 C 
BRANCH  32  33
HETATM   33  C24 UNL     1      25.019   6.020  25.163  1.00  0.00     0.123 C 
BRANCH  33  34
HETATM   34  N1  UNL     1      26.074   5.871  26.176  1.00  0.00    -0.361 N 
HETATM   35  C25 UNL     1      25.840   5.890  27.560  1.00  0.00     0.217 C 
HETATM   36  O10 UNL     1      24.655   6.045  27.969  1.00  0.00    -0.274 OA
ATOM     37  H1  UNL     1      27.034   5.746  25.854  1.00  0.00     0.162 HD
BRANCH  35  38
HETATM   38  C26 UNL     1      26.898   5.740  28.573  1.00  0.00     0.103 C 
BRANCH  38  39
HETATM   39  C27 UNL     1      26.383   5.718  29.970  1.00  0.00     0.009 C 
BRANCH  39  40
HETATM   40  C28 UNL     1      27.115   6.842  30.724  1.00  0.00     0.001 C 
BRANCH  40  41
HETATM   41  C29 UNL     1      26.543   8.184  30.351  1.00  0.00     0.010 C 
BRANCH  41  42
HETATM   42  C30 UNL     1      25.098   8.244  30.707  1.00  0.00     0.113 C 
BRANCH  42  43
HETATM   43  C31 UNL     1      24.853   9.304  31.683  1.00  0.00     0.172 C 
HETATM   44  O11 UNL     1      24.756   9.120  32.930  1.00  0.00    -0.648 OA
HETATM   45  O12 UNL     1      24.710  10.632  31.274  1.00  0.00    -0.648 OA
ENDBRANCH  42  43
ENDBRANCH  41  42
ENDBRANCH  40  41
ENDBRANCH  39  40
ENDBRANCH  38  39
ENDBRANCH  35  38
ENDBRANCH  33  34
ENDBRANCH  32  33
ENDBRANCH  17  32
BRANCH  16  46
HETATM   46  O9  UNL     1      22.824   6.798  22.993  1.00  0.00    -0.393 OA
ATOM     47  H9  UNL     1      23.073   6.786  23.909  1.00  0.00     0.210 HD
ENDBRANCH  16  46
TORSDOF 15
ENDMDL
MODEL 5
REMARK VINA RESULT: -7.708558143      2.430      5.987
REMARK  15 active torsions:
REMARK  status: ('A' for Active; 'I' for Inactive)
REMARK    1  A    between atoms: C4_4  and  O1_5 
REMARK    2  A    between atoms: O1_5  and  C5_6 
REMARK    3  A    between atoms: C5_6  and  C6_8 
REMARK    4  A    between atoms: C11_13  and  C12_14 
REMARK    5  A    between atoms: C20_27  and  O8_28 
REMARK    6  A    between atoms: C21_30  and  O9_31 
REMARK    7  A    between atoms: C22_33  and  C23_34 
REMARK    8  A    between atoms: C23_34  and  C24_35 
REMARK    9  A    between atoms: C24_35  and  N1_36 
REMARK       I    between atoms: N1_36  and  C25_38 
REMARK   10  A    between atoms: C25_38  and  C26_40 
REMARK   11  A    between atoms: C26_40  and  C27_41 
REMARK   12  A    between atoms: C27_41  and  C28_42 
REMARK   13  A    between atoms: C28_42  and  C29_43 
REMARK   14  A    between atoms: C29_43  and  C30_44 
REMARK   15  A    between atoms: C30_44  and  C31_45 
ROOT
HETATM    1  C1  UNL     1      27.539   7.873  17.385  1.00  0.00     0.040 C 
HETATM    2  C2  UNL     1      28.242   6.524  17.648  1.00  0.00     0.130 C 
HETATM    3  C3  UNL     1      27.448   5.640  18.587  1.00  0.00     0.065 C 
HETATM    4  C4  UNL     1      28.078   5.168  19.825  1.00  0.00     0.146 C 
HETATM    5  C13 UNL     1      28.930   3.932  19.917  1.00  0.00     0.028 C 
HETATM    6  C14 UNL     1      28.408   2.763  19.175  1.00  0.00     0.098 C 
HETATM    7  C15 UNL     1      29.154   2.283  17.970  1.00  0.00     0.146 C 
HETATM    8  O5  UNL     1      29.743   1.235  17.876  1.00  0.00    -0.294 OA
HETATM    9  C16 UNL     1      29.145   3.180  16.840  1.00  0.00     0.024 C 
HETATM   10  C17 UNL     1      29.615   2.910  15.484  1.00  0.00     0.041 C 
HETATM   11  C18 UNL     1      29.510   4.326  14.850  1.00  0.00     0.115 C 
HETATM   12  C19 UNL     1      28.403   5.136  15.457  1.00  0.00     0.259 C 
HETATM   13  O6  UNL     1      27.278   4.838  14.878  1.00  0.00    -0.265 OA
HETATM   14  O7  UNL     1      28.563   6.022  16.436  1.00  0.00    -0.316 OA
HETATM   15  C20 UNL     1      30.417   4.258  19.708  1.00  0.00     0.159 C 
HETATM   16  C21 UNL     1      30.578   4.544  21.200  1.00  0.00     0.152 C 
HETATM   17  C22 UNL     1      29.308   3.741  21.377  1.00  0.00     0.032 C 
ENDROOT
BRANCH   4  18
HETATM   18  O1  UNL     1      26.976   4.957  20.707  1.00  0.00    -0.315 OA
BRANCH  18  19
HETATM   19  C5  UNL     1      26.043   5.926  21.025  1.00  0.00     0.264 C 
HETATM   20  O2  UNL     1      24.838   5.579  20.948  1.00  0.00    -0.265 OA
BRANCH  19  21
HETATM   21  C6  UNL     1      26.515   7.268  21.422  1.00  0.00     0.100 C 
HETATM   22  C7  UNL     1      27.331   7.277  22.670  1.00  0.00     0.015 C 
HETATM   23  C8  UNL     1      26.556   7.089  23.924  1.00  0.00     0.001 C 
HETATM   24  C9  UNL     1      25.088   7.348  23.805  1.00  0.00     0.001 C 
HETATM   25  C10 UNL     1      24.727   8.386  22.786  1.00  0.00     0.016 C 
HETATM   26  C11 UNL     1      25.438   8.290  21.497  1.00  0.00     0.100 C 
BRANCH  26  27
HETATM   27  C12 UNL     1      26.033   9.619  21.131  1.00  0.00     0.177 C 
HETATM   28  O3  UNL     1      26.107   9.997  19.931  1.00  0.00    -0.648 OA
HETATM   29  O4  UNL     1      26.524  10.487  22.097  1.00  0.00    -0.648 OA
ENDBRANCH  26  27
ENDBRANCH  19  21
ENDBRANCH  18  19
ENDBRANCH   4  18
BRANCH  15  30
HETATM   30  O8  UNL     1      31.273   3.254  19.386  1.00  0.00    -0.392 OA
ATOM     31  H8  UNL     1      32.205   3.435  19.353  1.00  0.00     0.210 HD
ENDBRANCH  15  30
BRANCH  17  32
HETATM   32  C23 UNL     1      29.360   2.457  22.036  1.00  0.00     0.028 C 
BRANCH  32  33
HETATM   33  C24 UNL     1      28.319   1.893  22.905  1.00  0.00     0.123 C 
BRANCH  33  34
HETATM   34  N1  UNL     1      27.395   2.929  23.386  1.00  0.00    -0.361 N 
HETATM   35  C25 UNL     1      26.955   3.033  24.715  1.00  0.00     0.217 C 
HETATM   36  O10 UNL     1      27.376   2.189  25.556  1.00  0.00    -0.274 OA
ATOM     37  H1  UNL     1      27.051   3.614  22.713  1.00  0.00     0.162 HD
BRANCH  35  38
HETATM   38  C26 UNL     1      26.030   4.072  25.195  1.00  0.00     0.103 C 
BRANCH  38  39
HETATM   39  C27 UNL     1      26.338   4.553  26.570  1.00  0.00     0.009 C 
BRANCH  39  40
HETATM   40  C28 UNL     1      25.090   5.308  27.060  1.00  0.00     0.001 C 
BRANCH  40  41
HETATM   41  C29 UNL     1      25.379   6.017  28.356  1.00  0.00     0.010 C 
BRANCH  41  42
HETATM   42  C30 UNL     1      26.798   5.804  28.754  1.00  0.00     0.113 C 
BRANCH  42  43
HETATM   43  C31 UNL     1      27.172   6.717  29.832  1.00  0.00     0.172 C 
HETATM   44  O11 UNL     1      27.653   7.873  29.657  1.00  0.00    -0.648 OA
HETATM   45  O12 UNL     1      27.009   6.347  31.170  1.00  0.00    -0.648 OA
ENDBRANCH  42  43
ENDBRANCH  41  42
ENDBRANCH  40  41
ENDBRANCH  39  40
ENDBRANCH  38  39
ENDBRANCH  35  38
ENDBRANCH  33  34
ENDBRANCH  32  33
ENDBRANCH  17  32
BRANCH  16  46
HETATM   46  O9  UNL     1      31.713   4.083  21.796  1.00  0.00    -0.393 OA
ATOM     47  H9  UNL     1      31.755   4.144  22.743  1.00  0.00     0.210 HD
ENDBRANCH  16  46
TORSDOF 15
ENDMDL
