MODEL 1
REMARK VINA RESULT: -8.505446234      0.000      0.000
REMARK  7 active torsions:
REMARK  status: ('A' for Active; 'I' for Inactive)
REMARK    1  A    between atoms: C2_2  and  O1_3 
REMARK    2  A    between atoms: O1_3  and  C3_4 
REMARK    3  A    between atoms: C3_4  and  C4_6 
REMARK    4  A    between atoms: C9_13  and  C10_14 
REMARK       I    between atoms: C10_14  and  N2_16 
REMARK    5  A    between atoms: N2_16  and  C11_18 
REMARK    6  A    between atoms: C14_21  and  C15_22 
REMARK    7  A    between atoms: C18_29  and  C19_30 
ROOT
HETATM    1  C4  UNL     1       8.287  17.259  32.491  1.00  0.00     0.045 C 
HETATM    2  C5  UNL     1       7.472  18.276  32.339  1.00  0.00     0.018 C 
HETATM    3  C6  UNL     1       8.025  19.661  32.568  1.00  0.00     0.069 C 
HETATM    4  N1  UNL     1       6.131  18.189  31.857  1.00  0.00    -0.366 N 
ATOM      5  H1  UNL     1       5.551  19.024  31.771  1.00  0.00     0.165 HD
HETATM    6  C7  UNL     1       5.669  17.029  31.531  1.00  0.00    -0.004 C 
HETATM    7  C8  UNL     1       4.247  16.976  31.027  1.00  0.00     0.064 C 
HETATM    8  C9  UNL     1       6.452  15.793  31.603  1.00  0.00     0.132 C 
HETATM    9  C18 UNL     1       7.730  15.880  32.350  1.00  0.00     0.049 C 
ENDROOT
BRANCH   8  10
HETATM   10  C10 UNL     1       6.703  15.327  30.185  1.00  0.00     0.232 C 
HETATM   11  O3  UNL     1       7.285  16.147  29.431  1.00  0.00    -0.272 OA
HETATM   12  N2  UNL     1       6.307  14.058  29.730  1.00  0.00    -0.325 N 
ATOM     13  H2  UNL     1       5.843  13.471  30.424  1.00  0.00     0.169 HD
BRANCH  12  14
HETATM   14  C11 UNL     1       6.456  13.486  28.471  1.00  0.00     0.056 A 
HETATM   15  C12 UNL     1       6.370  14.219  27.312  1.00  0.00     0.032 A 
HETATM   16  C13 UNL     1       6.532  13.598  26.081  1.00  0.00     0.018 A 
HETATM   17  C14 UNL     1       6.778  12.253  25.987  1.00  0.00     0.049 A 
HETATM   18  C16 UNL     1       6.868  11.488  27.122  1.00  0.00     0.042 A 
HETATM   19  C17 UNL     1       6.705  12.129  28.337  1.00  0.00     0.061 A 
HETATM   20 CL1  UNL     1       6.823  11.172  29.807  1.00  0.00    -0.082 Cl
BRANCH  17  21
HETATM   21  C15 UNL     1       6.954  11.609  24.666  1.00  0.00     0.417 C 
HETATM   22  F1  UNL     1       6.457  10.328  24.682  1.00  0.00    -0.166 F 
HETATM   23  F2  UNL     1       6.277  12.361  23.719  1.00  0.00    -0.166 F 
HETATM   24  F3  UNL     1       8.325  11.599  24.370  1.00  0.00    -0.166 F 
ENDBRANCH  17  21
ENDBRANCH  12  14
ENDBRANCH   8  10
BRANCH   9  25
HETATM   25  C19 UNL     1       7.690  15.137  33.674  1.00  0.00    -0.005 C 
HETATM   26  C20 UNL     1       6.934  15.780  34.766  1.00  0.00     0.005 C 
HETATM   27  C21 UNL     1       7.600  15.761  36.105  1.00  0.00     0.000 C 
HETATM   28  C22 UNL     1       7.524  14.491  36.884  1.00  0.00     0.000 C 
HETATM   29  C23 UNL     1       6.379  13.595  36.639  1.00  0.00     0.000 C 
HETATM   30  C24 UNL     1       6.529  12.583  35.567  1.00  0.00     0.000 C 
HETATM   31  C25 UNL     1       7.653  12.796  34.604  1.00  0.00     0.000 C 
HETATM   32  C26 UNL     1       7.246  13.726  33.465  1.00  0.00     0.005 C 
ENDBRANCH   9  25
BRANCH   1  33
HETATM   33  C3  UNL     1       9.719  17.401  32.860  1.00  0.00     0.291 C 
HETATM   34  O2  UNL     1      10.167  17.301  34.010  1.00  0.00    -0.260 OA
BRANCH  33  35
HETATM   35  O1  UNL     1      10.672  17.671  31.890  1.00  0.00    -0.318 OA
BRANCH  35  36
HETATM   36  C2  UNL     1      11.716  18.569  31.930  1.00  0.00     0.174 C 
HETATM   37  C1  UNL     1      13.094  18.047  32.129  1.00  0.00     0.034 C 
ENDBRANCH  35  36
ENDBRANCH  33  35
ENDBRANCH   1  33
TORSDOF 7
ENDMDL
MODEL 2
REMARK VINA RESULT: -8.277499755      2.470      3.833
REMARK  7 active torsions:
REMARK  status: ('A' for Active; 'I' for Inactive)
REMARK    1  A    between atoms: C2_2  and  O1_3 
REMARK    2  A    between atoms: O1_3  and  C3_4 
REMARK    3  A    between atoms: C3_4  and  C4_6 
REMARK    4  A    between atoms: C9_13  and  C10_14 
REMARK       I    between atoms: C10_14  and  N2_16 
REMARK    5  A    between atoms: N2_16  and  C11_18 
REMARK    6  A    between atoms: C14_21  and  C15_22 
REMARK    7  A    between atoms: C18_29  and  C19_30 
ROOT
HETATM    1  C4  UNL     1       5.783  17.982  30.858  1.00  0.00     0.045 C 
HETATM    2  C5  UNL     1       5.637  18.874  29.907  1.00  0.00     0.018 C 
HETATM    3  C6  UNL     1       6.341  20.199  30.072  1.00  0.00     0.069 C 
HETATM    4  N1  UNL     1       4.961  18.653  28.669  1.00  0.00    -0.366 N 
ATOM      5  H1  UNL     1       4.879  19.399  27.978  1.00  0.00     0.165 HD
HETATM    6  C7  UNL     1       4.455  17.487  28.445  1.00  0.00    -0.004 C 
HETATM    7  C8  UNL     1       3.747  17.291  27.126  1.00  0.00     0.064 C 
HETATM    8  C9  UNL     1       4.557  16.364  29.379  1.00  0.00     0.132 C 
HETATM    9  C18 UNL     1       5.023  16.700  30.747  1.00  0.00     0.049 C 
ENDROOT
BRANCH   8  10
HETATM   10  C10 UNL     1       5.468  15.330  28.754  1.00  0.00     0.232 C 
HETATM   11  O3  UNL     1       6.547  15.762  28.275  1.00  0.00    -0.272 OA
HETATM   12  N2  UNL     1       5.133  13.966  28.703  1.00  0.00    -0.325 N 
ATOM     13  H2  UNL     1       4.235  13.722  29.121  1.00  0.00     0.169 HD
BRANCH  12  14
HETATM   14  C11 UNL     1       5.848  12.900  28.164  1.00  0.00     0.056 A 
HETATM   15  C12 UNL     1       5.858  12.623  26.819  1.00  0.00     0.032 A 
HETATM   16  C13 UNL     1       6.593  11.551  26.333  1.00  0.00     0.018 A 
HETATM   17  C14 UNL     1       7.321  10.746  27.172  1.00  0.00     0.049 A 
HETATM   18  C16 UNL     1       7.333  10.991  28.522  1.00  0.00     0.042 A 
HETATM   19  C17 UNL     1       6.594  12.067  28.982  1.00  0.00     0.061 A 
HETATM   20 CL1  UNL     1       6.600  12.406  30.706  1.00  0.00    -0.082 Cl
BRANCH  17  21
HETATM   21  C15 UNL     1       8.104   9.610  26.637  1.00  0.00     0.417 C 
HETATM   22  F1  UNL     1       7.336   8.472  26.593  1.00  0.00    -0.166 F 
HETATM   23  F2  UNL     1       8.529   9.936  25.359  1.00  0.00    -0.166 F 
HETATM   24  F3  UNL     1       9.215   9.421  27.471  1.00  0.00    -0.166 F 
ENDBRANCH  17  21
ENDBRANCH  12  14
ENDBRANCH   8  10
BRANCH   9  25
HETATM   25  C19 UNL     1       3.923  16.592  31.787  1.00  0.00    -0.005 C 
HETATM   26  C20 UNL     1       2.547  16.436  31.275  1.00  0.00     0.005 C 
HETATM   27  C21 UNL     1       1.511  17.272  31.958  1.00  0.00     0.000 C 
HETATM   28  C22 UNL     1       1.008  16.787  33.276  1.00  0.00     0.000 C 
HETATM   29  C23 UNL     1       1.056  15.339  33.548  1.00  0.00     0.000 C 
HETATM   30  C24 UNL     1       2.296  14.804  34.157  1.00  0.00     0.000 C 
HETATM   31  C25 UNL     1       3.499  15.690  34.102  1.00  0.00     0.000 C 
HETATM   32  C26 UNL     1       4.253  15.529  32.784  1.00  0.00     0.005 C 
ENDBRANCH   9  25
BRANCH   1  33
HETATM   33  C3  UNL     1       6.613  18.200  32.071  1.00  0.00     0.291 C 
HETATM   34  O2  UNL     1       6.204  18.706  33.125  1.00  0.00    -0.260 OA
BRANCH  33  35
HETATM   35  O1  UNL     1       7.950  17.838  32.083  1.00  0.00    -0.318 OA
BRANCH  35  36
HETATM   36  C2  UNL     1       8.575  16.862  32.829  1.00  0.00     0.174 C 
HETATM   37  C1  UNL     1       8.012  15.487  32.813  1.00  0.00     0.034 C 
ENDBRANCH  35  36
ENDBRANCH  33  35
ENDBRANCH   1  33
TORSDOF 7
ENDMDL
MODEL 3
REMARK VINA RESULT: -8.098346603      2.363      3.980
REMARK  7 active torsions:
REMARK  status: ('A' for Active; 'I' for Inactive)
REMARK    1  A    between atoms: C2_2  and  O1_3 
REMARK    2  A    between atoms: O1_3  and  C3_4 
REMARK    3  A    between atoms: C3_4  and  C4_6 
REMARK    4  A    between atoms: C9_13  and  C10_14 
REMARK       I    between atoms: C10_14  and  N2_16 
REMARK    5  A    between atoms: N2_16  and  C11_18 
REMARK    6  A    between atoms: C14_21  and  C15_22 
REMARK    7  A    between atoms: C18_29  and  C19_30 
ROOT
HETATM    1  C4  UNL     1       6.299  17.618  32.236  1.00  0.00     0.045 C 
HETATM    2  C5  UNL     1       6.703  18.748  31.706  1.00  0.00     0.018 C 
HETATM    3  C6  UNL     1       7.642  19.608  32.515  1.00  0.00     0.069 C 
HETATM    4  N1  UNL     1       6.421  19.178  30.374  1.00  0.00    -0.366 N 
ATOM      5  H1  UNL     1       6.764  20.076  30.032  1.00  0.00     0.165 HD
HETATM    6  C7  UNL     1       5.724  18.404  29.612  1.00  0.00    -0.004 C 
HETATM    7  C8  UNL     1       5.445  18.892  28.212  1.00  0.00     0.064 C 
HETATM    8  C9  UNL     1       5.224  17.092  30.028  1.00  0.00     0.132 C 
HETATM    9  C18 UNL     1       5.304  16.799  31.480  1.00  0.00     0.049 C 
ENDROOT
BRANCH   8  10
HETATM   10  C10 UNL     1       5.978  16.043  29.239  1.00  0.00     0.232 C 
HETATM   11  O3  UNL     1       7.231  16.153  29.234  1.00  0.00    -0.272 OA
HETATM   12  N2  UNL     1       5.326  15.010  28.547  1.00  0.00    -0.325 N 
ATOM     13  H2  UNL     1       4.308  15.013  28.617  1.00  0.00     0.169 HD
BRANCH  12  14
HETATM   14  C11 UNL     1       5.866  13.983  27.778  1.00  0.00     0.056 A 
HETATM   15  C12 UNL     1       5.939  12.687  28.226  1.00  0.00     0.032 A 
HETATM   16  C13 UNL     1       6.483  11.699  27.416  1.00  0.00     0.018 A 
HETATM   17  C14 UNL     1       6.957  11.986  26.162  1.00  0.00     0.049 A 
HETATM   18  C16 UNL     1       6.903  13.270  25.682  1.00  0.00     0.042 A 
HETATM   19  C17 UNL     1       6.355  14.236  26.507  1.00  0.00     0.061 A 
HETATM   20 CL1  UNL     1       6.267  15.888  25.912  1.00  0.00    -0.082 Cl
BRANCH  17  21
HETATM   21  C15 UNL     1       7.529  10.919  25.309  1.00  0.00     0.417 C 
HETATM   22  F1  UNL     1       6.533  10.240  24.650  1.00  0.00    -0.166 F 
HETATM   23  F2  UNL     1       8.382  11.505  24.389  1.00  0.00    -0.166 F 
HETATM   24  F3  UNL     1       8.252  10.047  26.137  1.00  0.00    -0.166 F 
ENDBRANCH  17  21
ENDBRANCH  12  14
ENDBRANCH   8  10
BRANCH   9  25
HETATM   25  C19 UNL     1       3.943  16.782  32.153  1.00  0.00    -0.005 C 
HETATM   26  C20 UNL     1       2.775  17.011  31.281  1.00  0.00     0.005 C 
HETATM   27  C21 UNL     1       1.740  17.944  31.826  1.00  0.00     0.000 C 
HETATM   28  C22 UNL     1       0.795  17.392  32.840  1.00  0.00     0.000 C 
HETATM   29  C23 UNL     1       0.515  15.945  32.812  1.00  0.00     0.000 C 
HETATM   30  C24 UNL     1       1.409  15.066  33.600  1.00  0.00     0.000 C 
HETATM   31  C25 UNL     1       2.707  15.663  34.042  1.00  0.00     0.000 C 
HETATM   32  C26 UNL     1       3.778  15.538  32.963  1.00  0.00     0.005 C 
ENDBRANCH   9  25
BRANCH   1  33
HETATM   33  C3  UNL     1       6.728  17.137  33.575  1.00  0.00     0.291 C 
HETATM   34  O2  UNL     1       6.229  17.498  34.649  1.00  0.00    -0.260 OA
BRANCH  33  35
HETATM   35  O1  UNL     1       7.761  16.221  33.696  1.00  0.00    -0.318 OA
BRANCH  35  36
HETATM   36  C2  UNL     1       7.697  14.845  33.736  1.00  0.00     0.174 C 
HETATM   37  C1  UNL     1       7.603  14.102  32.452  1.00  0.00     0.034 C 
ENDBRANCH  35  36
ENDBRANCH  33  35
ENDBRANCH   1  33
TORSDOF 7
ENDMDL
MODEL 4
REMARK VINA RESULT: -8.066061060      2.129      3.675
REMARK  7 active torsions:
REMARK  status: ('A' for Active; 'I' for Inactive)
REMARK    1  A    between atoms: C2_2  and  O1_3 
REMARK    2  A    between atoms: O1_3  and  C3_4 
REMARK    3  A    between atoms: C3_4  and  C4_6 
REMARK    4  A    between atoms: C9_13  and  C10_14 
REMARK       I    between atoms: C10_14  and  N2_16 
REMARK    5  A    between atoms: N2_16  and  C11_18 
REMARK    6  A    between atoms: C14_21  and  C15_22 
REMARK    7  A    between atoms: C18_29  and  C19_30 
ROOT
HETATM    1  C4  UNL     1       6.376  17.539  32.222  1.00  0.00     0.045 C 
HETATM    2  C5  UNL     1       6.723  18.698  31.716  1.00  0.00     0.018 C 
HETATM    3  C6  UNL     1       7.644  19.574  32.531  1.00  0.00     0.069 C 
HETATM    4  N1  UNL     1       6.397  19.153  30.402  1.00  0.00    -0.366 N 
ATOM      5  H1  UNL     1       6.695  20.073  30.079  1.00  0.00     0.165 HD
HETATM    6  C7  UNL     1       5.715  18.371  29.633  1.00  0.00    -0.004 C 
HETATM    7  C8  UNL     1       5.388  18.886  28.253  1.00  0.00     0.064 C 
HETATM    8  C9  UNL     1       5.277  17.029  30.022  1.00  0.00     0.132 C 
HETATM    9  C18 UNL     1       5.399  16.701  31.463  1.00  0.00     0.049 C 
ENDROOT
BRANCH   8  10
HETATM   10  C10 UNL     1       6.057  16.035  29.189  1.00  0.00     0.232 C 
HETATM   11  O3  UNL     1       7.304  16.186  29.175  1.00  0.00    -0.272 OA
HETATM   12  N2  UNL     1       5.430  15.004  28.468  1.00  0.00    -0.325 N 
ATOM     13  H2  UNL     1       4.414  14.971  28.550  1.00  0.00     0.169 HD
BRANCH  12  14
HETATM   14  C11 UNL     1       5.995  14.023  27.659  1.00  0.00     0.056 A 
HETATM   15  C12 UNL     1       6.381  14.266  26.364  1.00  0.00     0.032 A 
HETATM   16  C13 UNL     1       6.945  13.252  25.602  1.00  0.00     0.018 A 
HETATM   17  C14 UNL     1       7.130  11.994  26.114  1.00  0.00     0.049 A 
HETATM   18  C16 UNL     1       6.754  11.712  27.403  1.00  0.00     0.042 A 
HETATM   19  C17 UNL     1       6.197  12.740  28.143  1.00  0.00     0.061 A 
HETATM   20 CL1  UNL     1       5.714  12.407  29.800  1.00  0.00    -0.082 Cl
BRANCH  17  21
HETATM   21  C15 UNL     1       7.738  10.926  25.289  1.00  0.00     0.417 C 
HETATM   22  F1  UNL     1       8.558  10.131  26.053  1.00  0.00    -0.166 F 
HETATM   23  F2  UNL     1       6.720  10.159  24.746  1.00  0.00    -0.166 F 
HETATM   24  F3  UNL     1       8.469  11.539  24.260  1.00  0.00    -0.166 F 
ENDBRANCH  17  21
ENDBRANCH  12  14
ENDBRANCH   8  10
BRANCH   9  25
HETATM   25  C19 UNL     1       4.054  16.611  32.162  1.00  0.00    -0.005 C 
HETATM   26  C20 UNL     1       2.859  16.665  31.298  1.00  0.00     0.005 C 
HETATM   27  C21 UNL     1       1.749  17.537  31.793  1.00  0.00     0.000 C 
HETATM   28  C22 UNL     1       0.872  16.980  32.864  1.00  0.00     0.000 C 
HETATM   29  C23 UNL     1       0.727  15.515  32.948  1.00  0.00     0.000 C 
HETATM   30  C24 UNL     1       1.709  14.784  33.781  1.00  0.00     0.000 C 
HETATM   31  C25 UNL     1       2.951  15.529  34.153  1.00  0.00     0.000 C 
HETATM   32  C26 UNL     1       4.016  15.421  33.065  1.00  0.00     0.005 C 
ENDBRANCH   9  25
BRANCH   1  33
HETATM   33  C3  UNL     1       6.851  17.039  33.538  1.00  0.00     0.291 C 
HETATM   34  O2  UNL     1       6.378  17.371  34.633  1.00  0.00    -0.260 OA
BRANCH  33  35
HETATM   35  O1  UNL     1       7.903  16.140  33.611  1.00  0.00    -0.318 OA
BRANCH  35  36
HETATM   36  C2  UNL     1       7.861  14.768  33.734  1.00  0.00     0.174 C 
HETATM   37  C1  UNL     1       7.698  13.951  32.503  1.00  0.00     0.034 C 
ENDBRANCH  35  36
ENDBRANCH  33  35
ENDBRANCH   1  33
TORSDOF 7
ENDMDL
MODEL 5
REMARK VINA RESULT: -8.037890535      3.009      4.200
REMARK  7 active torsions:
REMARK  status: ('A' for Active; 'I' for Inactive)
REMARK    1  A    between atoms: C2_2  and  O1_3 
REMARK    2  A    between atoms: O1_3  and  C3_4 
REMARK    3  A    between atoms: C3_4  and  C4_6 
REMARK    4  A    between atoms: C9_13  and  C10_14 
REMARK       I    between atoms: C10_14  and  N2_16 
REMARK    5  A    between atoms: N2_16  and  C11_18 
REMARK    6  A    between atoms: C14_21  and  C15_22 
REMARK    7  A    between atoms: C18_29  and  C19_30 
ROOT
HETATM    1  C4  UNL     1       5.789  18.012  30.809  1.00  0.00     0.045 C 
HETATM    2  C5  UNL     1       5.637  18.908  29.863  1.00  0.00     0.018 C 
HETATM    3  C6  UNL     1       6.341  20.232  30.026  1.00  0.00     0.069 C 
HETATM    4  N1  UNL     1       4.953  18.690  28.628  1.00  0.00    -0.366 N 
ATOM      5  H1  UNL     1       4.866  19.438  27.940  1.00  0.00     0.165 HD
HETATM    6  C7  UNL     1       4.446  17.524  28.404  1.00  0.00    -0.004 C 
HETATM    7  C8  UNL     1       3.729  17.332  27.089  1.00  0.00     0.064 C 
HETATM    8  C9  UNL     1       4.555  16.399  29.334  1.00  0.00     0.132 C 
HETATM    9  C18 UNL     1       5.029  16.731  30.699  1.00  0.00     0.049 C 
ENDROOT
BRANCH   8  10
HETATM   10  C10 UNL     1       5.461  15.366  28.700  1.00  0.00     0.232 C 
HETATM   11  O3  UNL     1       6.538  15.800  28.218  1.00  0.00    -0.272 OA
HETATM   12  N2  UNL     1       5.124  14.003  28.643  1.00  0.00    -0.325 N 
ATOM     13  H2  UNL     1       4.228  13.758  29.064  1.00  0.00     0.169 HD
BRANCH  12  14
HETATM   14  C11 UNL     1       5.836  12.940  28.096  1.00  0.00     0.056 A 
HETATM   15  C12 UNL     1       5.894  12.709  26.743  1.00  0.00     0.032 A 
HETATM   16  C13 UNL     1       6.624  11.636  26.249  1.00  0.00     0.018 A 
HETATM   17  C14 UNL     1       7.298  10.786  27.087  1.00  0.00     0.049 A 
HETATM   18  C16 UNL     1       7.260  10.983  28.445  1.00  0.00     0.042 A 
HETATM   19  C17 UNL     1       6.529  12.060  28.912  1.00  0.00     0.061 A 
HETATM   20 CL1  UNL     1       6.471  12.339  30.647  1.00  0.00    -0.082 Cl
BRANCH  17  21
HETATM   21  C15 UNL     1       8.075   9.650  26.543  1.00  0.00     0.417 C 
HETATM   22  F1  UNL     1       9.136   9.352  27.364  1.00  0.00    -0.166 F 
HETATM   23  F2  UNL     1       7.236   8.551  26.448  1.00  0.00    -0.166 F 
HETATM   24  F3  UNL     1       8.529  10.011  25.266  1.00  0.00    -0.166 F 
ENDBRANCH  17  21
ENDBRANCH  12  14
ENDBRANCH   8  10
BRANCH   9  25
HETATM   25  C19 UNL     1       3.936  16.619  31.747  1.00  0.00    -0.005 C 
HETATM   26  C20 UNL     1       2.557  16.466  31.244  1.00  0.00     0.005 C 
HETATM   27  C21 UNL     1       1.526  17.299  31.936  1.00  0.00     0.000 C 
HETATM   28  C22 UNL     1       1.031  16.810  33.256  1.00  0.00     0.000 C 
HETATM   29  C23 UNL     1       1.080  15.360  33.522  1.00  0.00     0.000 C 
HETATM   30  C24 UNL     1       2.324  14.823  34.121  1.00  0.00     0.000 C 
HETATM   31  C25 UNL     1       3.528  15.709  34.060  1.00  0.00     0.000 C 
HETATM   32  C26 UNL     1       4.272  15.553  32.738  1.00  0.00     0.005 C 
ENDBRANCH   9  25
BRANCH   1  33
HETATM   33  C3  UNL     1       6.627  18.227  32.018  1.00  0.00     0.291 C 
HETATM   34  O2  UNL     1       7.853  18.061  32.067  1.00  0.00    -0.260 OA
BRANCH  33  35
HETATM   35  O1  UNL     1       6.051  18.638  33.209  1.00  0.00    -0.318 OA
BRANCH  35  36
HETATM   36  C2  UNL     1       5.254  19.735  33.452  1.00  0.00     0.174 C 
HETATM   37  C1  UNL     1       3.853  19.511  33.897  1.00  0.00     0.034 C 
ENDBRANCH  35  36
ENDBRANCH  33  35
ENDBRANCH   1  33
TORSDOF 7
ENDMDL
