MODEL 1
REMARK VINA RESULT: -6.185623680      0.000      0.000
REMARK  8 active torsions:
REMARK  status: ('A' for Active; 'I' for Inactive)
REMARK    1  A    between atoms: C8_10  and  N2_11 
REMARK    2  A    between atoms: N2_11  and  N3_13 
REMARK    3  A    between atoms: N3_13  and  C9_15 
REMARK    4  A    between atoms: C9_15  and  C10_21 
REMARK    5  A    between atoms: N4_16  and  N5_18 
REMARK    6  A    between atoms: C10_21  and  N6_22 
REMARK    7  A    between atoms: C10_21  and  C11_26 
REMARK    8  A    between atoms: C11_26  and  S1_27 
ROOT
HETATM    1  N3  UNL     1      -9.348  14.194  22.692  1.00  0.00    -0.286 N 
ATOM      2  H3  UNL     1      -9.259  14.102  23.704  1.00  0.00     0.188 HD
ENDROOT
BRANCH   1   3
HETATM    3  N2  UNL     1      -8.452  13.784  21.855  1.00  0.00    -0.296 N 
ATOM      4  H2  UNL     1      -8.437  12.772  21.979  1.00  0.00     0.187 HD
BRANCH   3   5
HETATM    5  C8  UNL     1      -7.623  13.991  21.000  1.00  0.00     0.083 A 
HETATM    6  C2  UNL     1      -6.898  15.158  20.956  1.00  0.00    -0.013 A 
HETATM    7  C1  UNL     1      -6.937  16.141  21.836  1.00  0.00     0.026 C 
HETATM    8  C3  UNL     1      -6.008  15.407  19.858  1.00  0.00     0.037 A 
HETATM    9  C4  UNL     1      -5.871  14.498  18.870  1.00  0.00     0.006 A 
HETATM   10  C5  UNL     1      -4.913  14.774  17.774  1.00  0.00     0.068 C 
HETATM   11  N1  UNL     1      -6.578  13.366  18.923  1.00  0.00    -0.359 N 
HETATM   12  C6  UNL     1      -7.441  13.077  19.940  1.00  0.00     0.052 A 
ATOM     13  H1  UNL     1      -6.468  12.687  18.169  1.00  0.00     0.166 HD
HETATM   14  C7  UNL     1      -8.082  11.941  19.902  1.00  0.00     0.045 C 
ENDBRANCH   3   5
ENDBRANCH   1   3
BRANCH   1  15
HETATM   15  C9  UNL     1     -10.612  14.860  21.969  1.00  0.00     0.142 C 
HETATM   16  N4  UNL     1     -10.478  16.029  21.937  1.00  0.00    -0.293 N 
ATOM     17  H4  UNL     1      -9.586  16.213  22.397  1.00  0.00     0.187 HD
BRANCH  16  18
HETATM   18  N5  UNL     1     -10.936  17.198  21.588  1.00  0.00    -0.344 N 
ATOM     19  H52 UNL     1     -11.913  17.166  21.881  1.00  0.00     0.176 HD
ATOM     20  H51 UNL     1     -10.772  18.112  21.166  1.00  0.00     0.176 HD
ENDBRANCH  16  18
BRANCH  15  21
HETATM   21  C10 UNL     1     -11.627  13.912  21.546  1.00  0.00     0.262 C 
BRANCH  21  22
HETATM   22  N6  UNL     1     -11.474  13.549  20.091  1.00  0.00    -0.067 N 
ATOM     23  H63 UNL     1     -12.325  13.752  19.566  1.00  0.00     0.275 HD
ATOM     24  H62 UNL     1     -10.837  14.186  19.613  1.00  0.00     0.275 HD
ATOM     25  H61 UNL     1     -11.187  12.577  19.975  1.00  0.00     0.275 HD
ENDBRANCH  21  22
BRANCH  21  26
HETATM   26  C11 UNL     1     -11.803  12.638  22.267  1.00  0.00     0.114 C 
BRANCH  26  27
HETATM   27  S1  UNL     1     -13.130  12.482  23.435  1.00  0.00    -0.171 SA
HETATM   28  C12 UNL     1     -13.576  10.736  23.678  1.00  0.00     0.089 C 
ENDBRANCH  26  27
ENDBRANCH  21  26
ENDBRANCH  15  21
ENDBRANCH   1  15
TORSDOF 8
ENDMDL
MODEL 2
REMARK VINA RESULT: -5.839731856      1.754      2.041
REMARK  8 active torsions:
REMARK  status: ('A' for Active; 'I' for Inactive)
REMARK    1  A    between atoms: C8_10  and  N2_11 
REMARK    2  A    between atoms: N2_11  and  N3_13 
REMARK    3  A    between atoms: N3_13  and  C9_15 
REMARK    4  A    between atoms: C9_15  and  C10_21 
REMARK    5  A    between atoms: N4_16  and  N5_18 
REMARK    6  A    between atoms: C10_21  and  N6_22 
REMARK    7  A    between atoms: C10_21  and  C11_26 
REMARK    8  A    between atoms: C11_26  and  S1_27 
ROOT
HETATM    1  N3  UNL     1     -10.745  12.363  21.478  1.00  0.00    -0.286 N 
ATOM      2  H3  UNL     1     -10.883  11.476  20.993  1.00  0.00     0.188 HD
ENDROOT
BRANCH   1   3
HETATM    3  N2  UNL     1      -9.640  13.034  21.441  1.00  0.00    -0.296 N 
ATOM      4  H2  UNL     1      -9.584  13.475  22.359  1.00  0.00     0.187 HD
BRANCH   3   5
HETATM    5  C8  UNL     1      -8.641  13.405  20.871  1.00  0.00     0.083 A 
HETATM    6  C2  UNL     1      -8.135  14.673  21.038  1.00  0.00    -0.013 A 
HETATM    7  C1  UNL     1      -8.593  15.599  21.860  1.00  0.00     0.026 C 
HETATM    8  C3  UNL     1      -7.013  15.105  20.255  1.00  0.00     0.037 A 
HETATM    9  C4  UNL     1      -6.444  14.271  19.359  1.00  0.00     0.006 A 
HETATM   10  C5  UNL     1      -5.263  14.741  18.596  1.00  0.00     0.068 C 
HETATM   11  N1  UNL     1      -6.941  13.041  19.205  1.00  0.00    -0.359 N 
HETATM   12  C6  UNL     1      -8.007  12.577  19.920  1.00  0.00     0.052 A 
ATOM     13  H1  UNL     1      -6.504  12.421  18.523  1.00  0.00     0.166 HD
HETATM   14  C7  UNL     1      -8.414  11.357  19.700  1.00  0.00     0.045 C 
ENDBRANCH   3   5
ENDBRANCH   1   3
BRANCH   1  15
HETATM   15  C9  UNL     1     -11.872  13.074  22.366  1.00  0.00     0.142 C 
HETATM   16  N4  UNL     1     -11.616  14.216  22.488  1.00  0.00    -0.293 N 
ATOM     17  H4  UNL     1     -10.743  14.355  21.980  1.00  0.00     0.187 HD
BRANCH  16  18
HETATM   18  N5  UNL     1     -11.927  15.385  22.970  1.00  0.00    -0.344 N 
ATOM     19  H52 UNL     1     -12.784  15.205  23.495  1.00  0.00     0.176 HD
ATOM     20  H51 UNL     1     -11.714  16.379  23.063  1.00  0.00     0.176 HD
ENDBRANCH  16  18
BRANCH  15  21
HETATM   21  C10 UNL     1     -12.917  12.180  22.832  1.00  0.00     0.262 C 
BRANCH  21  22
HETATM   22  N6  UNL     1     -12.461  10.743  22.826  1.00  0.00    -0.067 N 
ATOM     23  H63 UNL     1     -12.757  10.263  21.976  1.00  0.00     0.275 HD
ATOM     24  H62 UNL     1     -11.451  10.673  22.705  1.00  0.00     0.275 HD
ATOM     25  H61 UNL     1     -12.772  10.247  23.662  1.00  0.00     0.275 HD
ENDBRANCH  21  22
BRANCH  21  26
HETATM   26  C11 UNL     1     -13.553  12.399  24.145  1.00  0.00     0.114 C 
BRANCH  26  27
HETATM   27  S1  UNL     1     -14.256  11.015  25.006  1.00  0.00    -0.171 SA
HETATM   28  C12 UNL     1     -13.480  10.806  26.636  1.00  0.00     0.089 C 
ENDBRANCH  26  27
ENDBRANCH  21  26
ENDBRANCH  15  21
ENDBRANCH   1  15
TORSDOF 8
ENDMDL
MODEL 3
REMARK VINA RESULT: -5.767103957      2.188      3.024
REMARK  8 active torsions:
REMARK  status: ('A' for Active; 'I' for Inactive)
REMARK    1  A    between atoms: C8_10  and  N2_11 
REMARK    2  A    between atoms: N2_11  and  N3_13 
REMARK    3  A    between atoms: N3_13  and  C9_15 
REMARK    4  A    between atoms: C9_15  and  C10_21 
REMARK    5  A    between atoms: N4_16  and  N5_18 
REMARK    6  A    between atoms: C10_21  and  N6_22 
REMARK    7  A    between atoms: C10_21  and  C11_26 
REMARK    8  A    between atoms: C11_26  and  S1_27 
ROOT
HETATM    1  N3  UNL     1      -8.974  14.436  22.678  1.00  0.00    -0.286 N 
ATOM      2  H3  UNL     1      -8.628  14.861  23.538  1.00  0.00     0.188 HD
ENDROOT
BRANCH   1   3
HETATM    3  N2  UNL     1      -8.204  14.028  21.722  1.00  0.00    -0.296 N 
ATOM      4  H2  UNL     1      -8.427  13.037  21.625  1.00  0.00     0.187 HD
BRANCH   3   5
HETATM    5  C8  UNL     1      -7.355  14.223  20.884  1.00  0.00     0.083 A 
HETATM    6  C2  UNL     1      -6.612  15.380  20.857  1.00  0.00    -0.013 A 
HETATM    7  C1  UNL     1      -6.655  16.362  21.738  1.00  0.00     0.026 C 
HETATM    8  C3  UNL     1      -5.696  15.618  19.778  1.00  0.00     0.037 A 
HETATM    9  C4  UNL     1      -5.552  14.708  18.791  1.00  0.00     0.006 A 
HETATM   10  C5  UNL     1      -4.568  14.971  17.715  1.00  0.00     0.068 C 
HETATM   11  N1  UNL     1      -6.277  13.586  18.827  1.00  0.00    -0.359 N 
HETATM   12  C6  UNL     1      -7.165  13.308  19.826  1.00  0.00     0.052 A 
ATOM     13  H1  UNL     1      -6.162  12.907  18.075  1.00  0.00     0.166 HD
HETATM   14  C7  UNL     1      -7.822  12.182  19.773  1.00  0.00     0.045 C 
ENDBRANCH   3   5
ENDBRANCH   1   3
BRANCH   1  15
HETATM   15  C9  UNL     1     -10.527  14.201  22.365  1.00  0.00     0.142 C 
HETATM   16  N4  UNL     1     -10.732  13.051  22.222  1.00  0.00    -0.293 N 
ATOM     17  H4  UNL     1      -9.826  12.596  22.344  1.00  0.00     0.187 HD
BRANCH  16  18
HETATM   18  N5  UNL     1     -11.574  12.087  21.982  1.00  0.00    -0.344 N 
ATOM     19  H52 UNL     1     -12.480  12.558  21.987  1.00  0.00     0.176 HD
ATOM     20  H51 UNL     1     -11.743  11.099  21.794  1.00  0.00     0.176 HD
ENDBRANCH  16  18
BRANCH  15  21
HETATM   21  C10 UNL     1     -11.314  15.419  22.303  1.00  0.00     0.262 C 
BRANCH  21  22
HETATM   22  N6  UNL     1     -12.322  15.485  23.422  1.00  0.00    -0.067 N 
ATOM     23  H63 UNL     1     -12.235  14.687  24.050  1.00  0.00     0.275 HD
ATOM     24  H62 UNL     1     -12.098  16.231  24.081  1.00  0.00     0.275 HD
ATOM     25  H61 UNL     1     -13.274  15.577  23.065  1.00  0.00     0.275 HD
ENDBRANCH  21  22
BRANCH  21  26
HETATM   26  C11 UNL     1     -10.650  16.736  22.276  1.00  0.00     0.114 C 
BRANCH  26  27
HETATM   27  S1  UNL     1      -9.970  17.329  20.747  1.00  0.00    -0.171 SA
HETATM   28  C12 UNL     1      -9.989  16.025  19.482  1.00  0.00     0.089 C 
ENDBRANCH  26  27
ENDBRANCH  21  26
ENDBRANCH  15  21
ENDBRANCH   1  15
TORSDOF 8
ENDMDL
MODEL 4
REMARK VINA RESULT: -5.743674383      2.708      5.684
REMARK  8 active torsions:
REMARK  status: ('A' for Active; 'I' for Inactive)
REMARK    1  A    between atoms: C8_10  and  N2_11 
REMARK    2  A    between atoms: N2_11  and  N3_13 
REMARK    3  A    between atoms: N3_13  and  C9_15 
REMARK    4  A    between atoms: C9_15  and  C10_21 
REMARK    5  A    between atoms: N4_16  and  N5_18 
REMARK    6  A    between atoms: C10_21  and  N6_22 
REMARK    7  A    between atoms: C10_21  and  C11_26 
REMARK    8  A    between atoms: C11_26  and  S1_27 
ROOT
HETATM    1  N3  UNL     1      -6.761  13.248  19.233  1.00  0.00    -0.286 N 
ATOM      2  H3  UNL     1      -6.648  12.450  18.608  1.00  0.00     0.188 HD
ENDROOT
BRANCH   1   3
HETATM    3  N2  UNL     1      -7.534  13.241  20.270  1.00  0.00    -0.296 N 
ATOM      4  H2  UNL     1      -6.905  13.049  21.050  1.00  0.00     0.187 HD
BRANCH   3   5
HETATM    5  C8  UNL     1      -8.622  13.347  20.785  1.00  0.00     0.083 A 
HETATM    6  C2  UNL     1      -8.816  14.078  21.934  1.00  0.00    -0.013 A 
HETATM    7  C1  UNL     1      -7.912  14.799  22.569  1.00  0.00     0.026 C 
HETATM    8  C3  UNL     1     -10.102  14.081  22.571  1.00  0.00     0.037 A 
HETATM    9  C4  UNL     1     -11.127  13.377  22.045  1.00  0.00     0.006 A 
HETATM   10  C5  UNL     1     -12.450  13.436  22.711  1.00  0.00     0.068 C 
HETATM   11  N1  UNL     1     -10.929  12.672  20.929  1.00  0.00    -0.359 N 
HETATM   12  C6  UNL     1      -9.728  12.629  20.281  1.00  0.00     0.052 A 
ATOM     13  H1  UNL     1     -11.710  12.141  20.542  1.00  0.00     0.166 HD
HETATM   14  C7  UNL     1      -9.637  11.914  19.193  1.00  0.00     0.045 C 
ENDBRANCH   3   5
ENDBRANCH   1   3
BRANCH   1  15
HETATM   15  C9  UNL     1      -6.002  14.644  19.036  1.00  0.00     0.142 C 
HETATM   16  N4  UNL     1      -5.193  14.538  18.187  1.00  0.00    -0.293 N 
ATOM     17  H4  UNL     1      -5.257  13.570  17.872  1.00  0.00     0.187 HD
BRANCH  16  18
HETATM   18  N5  UNL     1      -4.256  15.079  17.463  1.00  0.00    -0.344 N 
ATOM     19  H52 UNL     1      -3.946  15.869  18.029  1.00  0.00     0.176 HD
ATOM     20  H51 UNL     1      -3.699  15.077  16.608  1.00  0.00     0.176 HD
ENDBRANCH  16  18
BRANCH  15  21
HETATM   21  C10 UNL     1      -6.443  15.696  19.934  1.00  0.00     0.262 C 
BRANCH  21  22
HETATM   22  N6  UNL     1      -5.277  16.394  20.586  1.00  0.00    -0.067 N 
ATOM     23  H63 UNL     1      -4.400  16.169  20.118  1.00  0.00     0.275 HD
ATOM     24  H62 UNL     1      -5.299  17.399  20.409  1.00  0.00     0.275 HD
ATOM     25  H61 UNL     1      -5.230  16.192  21.585  1.00  0.00     0.275 HD
ENDBRANCH  21  22
BRANCH  21  26
HETATM   26  C11 UNL     1      -7.337  16.765  19.448  1.00  0.00     0.114 C 
BRANCH  26  27
HETATM   27  S1  UNL     1      -7.935  17.980  20.595  1.00  0.00    -0.171 SA
HETATM   28  C12 UNL     1      -9.676  17.673  21.014  1.00  0.00     0.089 C 
ENDBRANCH  26  27
ENDBRANCH  21  26
ENDBRANCH  15  21
ENDBRANCH   1  15
TORSDOF 8
ENDMDL
MODEL 5
REMARK VINA RESULT: -5.728637138      2.597      5.929
REMARK  8 active torsions:
REMARK  status: ('A' for Active; 'I' for Inactive)
REMARK    1  A    between atoms: C8_10  and  N2_11 
REMARK    2  A    between atoms: N2_11  and  N3_13 
REMARK    3  A    between atoms: N3_13  and  C9_15 
REMARK    4  A    between atoms: C9_15  and  C10_21 
REMARK    5  A    between atoms: N4_16  and  N5_18 
REMARK    6  A    between atoms: C10_21  and  N6_22 
REMARK    7  A    between atoms: C10_21  and  C11_26 
REMARK    8  A    between atoms: C11_26  and  S1_27 
ROOT
HETATM    1  N3  UNL     1      -7.067  13.139  19.396  1.00  0.00    -0.286 N 
ATOM      2  H3  UNL     1      -7.094  12.314  18.796  1.00  0.00     0.188 HD
ENDROOT
BRANCH   1   3
HETATM    3  N2  UNL     1      -7.771  13.264  20.473  1.00  0.00    -0.296 N 
ATOM      4  H2  UNL     1      -7.113  13.067  21.227  1.00  0.00     0.187 HD
BRANCH   3   5
HETATM    5  C8  UNL     1      -8.812  13.496  21.041  1.00  0.00     0.083 A 
HETATM    6  C2  UNL     1     -10.028  13.137  20.508  1.00  0.00    -0.013 A 
HETATM    7  C1  UNL     1     -10.228  12.453  19.397  1.00  0.00     0.026 C 
HETATM    8  C3  UNL     1     -11.242  13.534  21.162  1.00  0.00     0.037 A 
HETATM    9  C4  UNL     1     -11.199  14.252  22.305  1.00  0.00     0.006 A 
HETATM   10  C5  UNL     1     -12.473  14.610  22.971  1.00  0.00     0.068 C 
HETATM   11  N1  UNL     1     -10.013  14.594  22.816  1.00  0.00    -0.359 N 
HETATM   12  C6  UNL     1      -8.827  14.247  22.236  1.00  0.00     0.052 A 
ATOM     13  H1  UNL     1      -9.993  15.138  23.678  1.00  0.00     0.166 HD
HETATM   14  C7  UNL     1      -7.721  14.625  22.817  1.00  0.00     0.045 C 
ENDBRANCH   3   5
ENDBRANCH   1   3
BRANCH   1  15
HETATM   15  C9  UNL     1      -6.149  14.419  19.104  1.00  0.00     0.142 C 
HETATM   16  N4  UNL     1      -5.369  14.162  18.261  1.00  0.00    -0.293 N 
ATOM     17  H4  UNL     1      -5.550  13.190  18.010  1.00  0.00     0.187 HD
BRANCH  16  18
HETATM   18  N5  UNL     1      -4.382  14.538  17.499  1.00  0.00    -0.344 N 
ATOM     19  H52 UNL     1      -4.159  15.472  17.846  1.00  0.00     0.176 HD
ATOM     20  H51 UNL     1      -3.741  14.335  16.732  1.00  0.00     0.176 HD
ENDBRANCH  16  18
BRANCH  15  21
HETATM   21  C10 UNL     1      -6.452  15.572  19.933  1.00  0.00     0.262 C 
BRANCH  21  22
HETATM   22  N6  UNL     1      -5.200  16.308  20.337  1.00  0.00    -0.067 N 
ATOM     23  H63 UNL     1      -5.338  16.830  21.202  1.00  0.00     0.275 HD
ATOM     24  H62 UNL     1      -4.475  15.664  20.654  1.00  0.00     0.275 HD
ATOM     25  H61 UNL     1      -4.861  16.912  19.587  1.00  0.00     0.275 HD
ENDBRANCH  21  22
BRANCH  21  26
HETATM   26  C11 UNL     1      -7.395  16.603  19.459  1.00  0.00     0.114 C 
BRANCH  26  27
HETATM   27  S1  UNL     1      -7.990  17.821  20.604  1.00  0.00    -0.171 SA
HETATM   28  C12 UNL     1      -9.753  17.566  20.962  1.00  0.00     0.089 C 
ENDBRANCH  26  27
ENDBRANCH  21  26
ENDBRANCH  15  21
ENDBRANCH   1  15
TORSDOF 8
ENDMDL
