MODEL 1
REMARK VINA RESULT: -6.360462779      0.000      0.000
REMARK  7 active torsions:
REMARK  status: ('A' for Active; 'I' for Inactive)
REMARK    1  A    between atoms: N1_1  and  C1_5 
REMARK    2  A    between atoms: C1_5  and  C2_6 
REMARK    3  A    between atoms: C2_6  and  N2_7 
REMARK    4  A    between atoms: N2_7  and  C3_9 
REMARK    5  A    between atoms: N3_12  and  C6_13 
REMARK    6  A    between atoms: C6_13  and  C7_14 
REMARK    7  A    between atoms: C10_17  and  C11_18 
ROOT
HETATM    1  C3  UNL     1     -23.885  -0.119  -8.504  1.00  0.00     0.112 C 
HETATM    2  C4  UNL     1     -24.682   0.643  -9.507  1.00  0.00     0.057 C 
HETATM    3  C5  UNL     1     -25.423   1.657  -8.618  1.00  0.00     0.275 C 
HETATM    4  N3  UNL     1     -24.451   2.007  -7.633  1.00  0.00     0.096 N 
HETATM    5  C10 UNL     1     -23.730   0.793  -7.301  1.00  0.00     0.249 C 
ENDROOT
BRANCH   1   6
HETATM    6  N2  UNL     1     -22.630  -0.510  -9.046  1.00  0.00    -0.413 N 
ATOM      7  H2  UNL     1     -21.960  -1.071  -8.518  1.00  0.00     0.153 HD
BRANCH   6   8
HETATM    8  C2  UNL     1     -22.367  -0.063 -10.390  1.00  0.00     0.141 C 
BRANCH   8   9
HETATM    9  C1  UNL     1     -20.946   0.518 -10.485  1.00  0.00     0.248 C 
BRANCH   9  10
HETATM   10  N1  UNL     1     -19.935  -0.487 -10.265  1.00  0.00    -0.078 N 
ATOM     11  H13 UNL     1     -20.040  -0.923  -9.349  1.00  0.00     0.274 HD
ATOM     12  H12 UNL     1     -20.094  -1.306 -10.852  1.00  0.00     0.274 HD
ATOM     13  H11 UNL     1     -18.994  -0.117 -10.393  1.00  0.00     0.274 HD
ENDBRANCH   9  10
ENDBRANCH   8   9
ENDBRANCH   6   8
ENDBRANCH   1   6
BRANCH   5  14
HETATM   14  C11 UNL     1     -24.218   0.162  -6.026  1.00  0.00     0.021 A 
HETATM   15  C12 UNL     1     -24.142   1.038  -4.816  1.00  0.00     0.007 A 
HETATM   16  C13 UNL     1     -25.476   0.700  -5.368  1.00  0.00     0.007 A 
ENDBRANCH   5  14
BRANCH   4  17
HETATM   17  C6  UNL     1     -23.542   3.032  -7.931  1.00  0.00     0.277 C 
BRANCH  17  18
HETATM   18  C7  UNL     1     -22.095   2.841  -7.833  1.00  0.00     0.014 A 
HETATM   19  C8  UNL     1     -21.001   3.670  -8.276  1.00  0.00     0.007 A 
HETATM   20  C9  UNL     1     -21.320   3.551  -6.762  1.00  0.00     0.007 A 
ENDBRANCH  17  18
ENDBRANCH   4  17
TORSDOF 7
ENDMDL
MODEL 2
REMARK VINA RESULT: -6.256708331      1.925      4.777
REMARK  7 active torsions:
REMARK  status: ('A' for Active; 'I' for Inactive)
REMARK    1  A    between atoms: N1_1  and  C1_5 
REMARK    2  A    between atoms: C1_5  and  C2_6 
REMARK    3  A    between atoms: C2_6  and  N2_7 
REMARK    4  A    between atoms: N2_7  and  C3_9 
REMARK    5  A    between atoms: N3_12  and  C6_13 
REMARK    6  A    between atoms: C6_13  and  C7_14 
REMARK    7  A    between atoms: C10_17  and  C11_18 
ROOT
HETATM    1  C3  UNL     1     -24.888   0.910  -9.114  1.00  0.00     0.112 C 
HETATM    2  C4  UNL     1     -24.687  -0.539  -9.403  1.00  0.00     0.057 C 
HETATM    3  C5  UNL     1     -23.262  -0.773  -8.869  1.00  0.00     0.275 C 
HETATM    4  N3  UNL     1     -23.213   0.032  -7.691  1.00  0.00     0.096 N 
HETATM    5  C10 UNL     1     -23.933   1.256  -7.985  1.00  0.00     0.249 C 
ENDROOT
BRANCH   1   6
HETATM    6  N2  UNL     1     -26.242   1.175  -8.772  1.00  0.00    -0.413 N 
ATOM      7  H2  UNL     1     -26.596   2.123  -8.645  1.00  0.00     0.153 HD
BRANCH   6   8
HETATM    8  C2  UNL     1     -27.082   0.014  -8.615  1.00  0.00     0.141 C 
BRANCH   8   9
HETATM    9  C1  UNL     1     -27.901   0.126  -7.318  1.00  0.00     0.248 C 
BRANCH   9  10
HETATM   10  N1  UNL     1     -29.317  -0.006  -7.560  1.00  0.00    -0.078 N 
ATOM     11  H13 UNL     1     -29.780   0.903  -7.550  1.00  0.00     0.274 HD
ATOM     12  H12 UNL     1     -29.504  -0.271  -8.528  1.00  0.00     0.274 HD
ATOM     13  H11 UNL     1     -29.758  -0.653  -6.907  1.00  0.00     0.274 HD
ENDBRANCH   9  10
ENDBRANCH   8   9
ENDBRANCH   6   8
ENDBRANCH   1   6
BRANCH   5  14
HETATM   14  C11 UNL     1     -23.017   2.397  -8.328  1.00  0.00     0.021 A 
HETATM   15  C12 UNL     1     -23.421   3.724  -7.769  1.00  0.00     0.007 A 
HETATM   16  C13 UNL     1     -22.213   3.059  -7.223  1.00  0.00     0.007 A 
ENDBRANCH   5  14
BRANCH   4  17
HETATM   17  C6  UNL     1     -23.683  -0.518  -6.490  1.00  0.00     0.277 C 
BRANCH  17  18
HETATM   18  C7  UNL     1     -24.634   0.187  -5.631  1.00  0.00     0.014 A 
HETATM   19  C8  UNL     1     -25.216  -0.182  -4.364  1.00  0.00     0.007 A 
HETATM   20  C9  UNL     1     -24.140   0.934  -4.427  1.00  0.00     0.007 A 
ENDBRANCH  17  18
ENDBRANCH   4  17
TORSDOF 7
ENDMDL
MODEL 3
REMARK VINA RESULT: -6.206212061      2.094      4.977
REMARK  7 active torsions:
REMARK  status: ('A' for Active; 'I' for Inactive)
REMARK    1  A    between atoms: N1_1  and  C1_5 
REMARK    2  A    between atoms: C1_5  and  C2_6 
REMARK    3  A    between atoms: C2_6  and  N2_7 
REMARK    4  A    between atoms: N2_7  and  C3_9 
REMARK    5  A    between atoms: N3_12  and  C6_13 
REMARK    6  A    between atoms: C6_13  and  C7_14 
REMARK    7  A    between atoms: C10_17  and  C11_18 
ROOT
HETATM    1  C3  UNL     1     -25.377   0.577  -6.173  1.00  0.00     0.112 C 
HETATM    2  C4  UNL     1     -24.578   0.904  -4.957  1.00  0.00     0.057 C 
HETATM    3  C5  UNL     1     -23.142   0.893  -5.509  1.00  0.00     0.275 C 
HETATM    4  N3  UNL     1     -23.280   1.476  -6.804  1.00  0.00     0.096 N 
HETATM    5  C10 UNL     1     -24.521   0.974  -7.363  1.00  0.00     0.249 C 
ENDROOT
BRANCH   1   6
HETATM    6  N2  UNL     1     -26.624   1.258  -6.159  1.00  0.00    -0.413 N 
ATOM      7  H2  UNL     1     -26.689   2.276  -6.143  1.00  0.00     0.153 HD
BRANCH   6   8
HETATM    8  C2  UNL     1     -27.793   0.414  -6.168  1.00  0.00     0.141 C 
BRANCH   8   9
HETATM    9  C1  UNL     1     -28.429   0.376  -4.768  1.00  0.00     0.248 C 
BRANCH   9  10
HETATM   10  N1  UNL     1     -29.608   1.202  -4.688  1.00  0.00    -0.078 N 
ATOM     11  H13 UNL     1     -30.327   0.885  -5.338  1.00  0.00     0.274 HD
ATOM     12  H12 UNL     1     -30.106   1.052  -3.811  1.00  0.00     0.274 HD
ATOM     13  H11 UNL     1     -29.393   2.189  -4.828  1.00  0.00     0.274 HD
ENDBRANCH   9  10
ENDBRANCH   8   9
ENDBRANCH   6   8
ENDBRANCH   1   6
BRANCH   5  14
HETATM   14  C11 UNL     1     -24.304  -0.158  -8.328  1.00  0.00     0.021 A 
HETATM   15  C12 UNL     1     -25.481  -0.492  -9.189  1.00  0.00     0.007 A 
HETATM   16  C13 UNL     1     -24.290   0.131  -9.818  1.00  0.00     0.007 A 
ENDBRANCH   5  14
BRANCH   4  17
HETATM   17  C6  UNL     1     -23.241   2.873  -6.913  1.00  0.00     0.277 C 
BRANCH  17  18
HETATM   18  C7  UNL     1     -22.374   3.555  -7.874  1.00  0.00     0.014 A 
HETATM   19  C8  UNL     1     -20.937   3.602  -7.982  1.00  0.00     0.007 A 
HETATM   20  C9  UNL     1     -21.766   2.785  -9.009  1.00  0.00     0.007 A 
ENDBRANCH  17  18
ENDBRANCH   4  17
TORSDOF 7
ENDMDL
MODEL 4
REMARK VINA RESULT: -6.203818971      1.660      4.256
REMARK  7 active torsions:
REMARK  status: ('A' for Active; 'I' for Inactive)
REMARK    1  A    between atoms: N1_1  and  C1_5 
REMARK    2  A    between atoms: C1_5  and  C2_6 
REMARK    3  A    between atoms: C2_6  and  N2_7 
REMARK    4  A    between atoms: N2_7  and  C3_9 
REMARK    5  A    between atoms: N3_12  and  C6_13 
REMARK    6  A    between atoms: C6_13  and  C7_14 
REMARK    7  A    between atoms: C10_17  and  C11_18 
ROOT
HETATM    1  C3  UNL     1     -23.303   0.525  -6.801  1.00  0.00     0.112 C 
HETATM    2  C4  UNL     1     -23.945  -0.211  -5.674  1.00  0.00     0.057 C 
HETATM    3  C5  UNL     1     -24.860   0.869  -5.071  1.00  0.00     0.275 C 
HETATM    4  N3  UNL     1     -25.344   1.571  -6.216  1.00  0.00     0.096 N 
HETATM    5  C10 UNL     1     -24.238   1.669  -7.149  1.00  0.00     0.249 C 
ENDROOT
BRANCH   1   6
HETATM    6  N2  UNL     1     -23.076  -0.339  -7.906  1.00  0.00    -0.413 N 
ATOM      7  H2  UNL     1     -22.474  -1.160  -7.841  1.00  0.00     0.153 HD
BRANCH   6   8
HETATM    8  C2  UNL     1     -23.754   0.022  -9.126  1.00  0.00     0.141 C 
BRANCH   8   9
HETATM    9  C1  UNL     1     -22.734   0.201 -10.264  1.00  0.00     0.248 C 
BRANCH   9  10
HETATM   10  N1  UNL     1     -21.459  -0.394  -9.946  1.00  0.00    -0.078 N 
ATOM     11  H13 UNL     1     -20.706   0.290 -10.007  1.00  0.00     0.274 HD
ATOM     12  H12 UNL     1     -21.393  -0.618  -8.953  1.00  0.00     0.274 HD
ATOM     13  H11 UNL     1     -21.265  -1.212 -10.523  1.00  0.00     0.274 HD
ENDBRANCH   9  10
ENDBRANCH   8   9
ENDBRANCH   6   8
ENDBRANCH   1   6
BRANCH   5  14
HETATM   14  C11 UNL     1     -23.560   3.010  -7.104  1.00  0.00     0.021 A 
HETATM   15  C12 UNL     1     -22.068   2.963  -7.009  1.00  0.00     0.007 A 
HETATM   16  C13 UNL     1     -22.688   3.439  -8.270  1.00  0.00     0.007 A 
ENDBRANCH   5  14
BRANCH   4  17
HETATM   17  C6  UNL     1     -26.477   1.071  -6.873  1.00  0.00     0.277 C 
BRANCH  17  18
HETATM   18  C7  UNL     1     -27.519   0.323  -6.168  1.00  0.00     0.014 A 
HETATM   19  C8  UNL     1     -28.617   0.776  -5.350  1.00  0.00     0.007 A 
HETATM   20  C9  UNL     1     -28.889   0.208  -6.768  1.00  0.00     0.007 A 
ENDBRANCH  17  18
ENDBRANCH   4  17
TORSDOF 7
ENDMDL
MODEL 5
REMARK VINA RESULT: -6.161520330      1.146      3.182
REMARK  7 active torsions:
REMARK  status: ('A' for Active; 'I' for Inactive)
REMARK    1  A    between atoms: N1_1  and  C1_5 
REMARK    2  A    between atoms: C1_5  and  C2_6 
REMARK    3  A    between atoms: C2_6  and  N2_7 
REMARK    4  A    between atoms: N2_7  and  C3_9 
REMARK    5  A    between atoms: N3_12  and  C6_13 
REMARK    6  A    between atoms: C6_13  and  C7_14 
REMARK    7  A    between atoms: C10_17  and  C11_18 
ROOT
HETATM    1  C3  UNL     1     -22.609   1.658  -9.452  1.00  0.00     0.112 C 
HETATM    2  C4  UNL     1     -21.937   2.878  -8.920  1.00  0.00     0.057 C 
HETATM    3  C5  UNL     1     -23.049   3.502  -8.058  1.00  0.00     0.275 C 
HETATM    4  N3  UNL     1     -23.684   2.368  -7.467  1.00  0.00     0.096 N 
HETATM    5  C10 UNL     1     -23.731   1.333  -8.481  1.00  0.00     0.249 C 
ENDROOT
BRANCH   1   6
HETATM    6  N2  UNL     1     -21.685   0.586  -9.582  1.00  0.00    -0.413 N 
ATOM      7  H2  UNL     1     -21.252   0.140  -8.773  1.00  0.00     0.153 HD
BRANCH   6   8
HETATM    8  C2  UNL     1     -21.400   0.172 -10.933  1.00  0.00     0.141 C 
BRANCH   8   9
HETATM    9  C1  UNL     1     -19.943   0.508 -11.293  1.00  0.00     0.248 C 
BRANCH   9  10
HETATM   10  N1  UNL     1     -19.006  -0.336 -10.593  1.00  0.00    -0.078 N 
ATOM     11  H13 UNL     1     -18.228   0.207 -10.217  1.00  0.00     0.274 HD
ATOM     12  H12 UNL     1     -19.400  -0.680  -9.717  1.00  0.00     0.274 HD
ATOM     13  H11 UNL     1     -18.673  -1.103 -11.176  1.00  0.00     0.274 HD
ENDBRANCH   9  10
ENDBRANCH   8   9
ENDBRANCH   6   8
ENDBRANCH   1   6
BRANCH   5  14
HETATM   14  C11 UNL     1     -25.073   1.242  -9.153  1.00  0.00     0.021 A 
HETATM   15  C12 UNL     1     -25.506  -0.142  -9.520  1.00  0.00     0.007 A 
HETATM   16  C13 UNL     1     -26.219   0.562  -8.426  1.00  0.00     0.007 A 
ENDBRANCH   5  14
BRANCH   4  17
HETATM   17  C6  UNL     1     -23.147   1.847  -6.282  1.00  0.00     0.277 C 
BRANCH  17  18
HETATM   18  C7  UNL     1     -23.992   1.321  -5.209  1.00  0.00     0.014 A 
HETATM   19  C8  UNL     1     -25.405   1.038  -5.172  1.00  0.00     0.007 A 
HETATM   20  C9  UNL     1     -24.382  -0.128  -5.209  1.00  0.00     0.007 A 
ENDBRANCH  17  18
ENDBRANCH   4  17
TORSDOF 7
ENDMDL
