MODEL 1
REMARK VINA RESULT: -7.411858911      0.000      0.000
REMARK  7 active torsions:
REMARK  status: ('A' for Active; 'I' for Inactive)
REMARK    1  A    between atoms: C2_2  and  C3_3 
REMARK    2  A    between atoms: C3_3  and  N1_4 
REMARK    3  A    between atoms: N2_7  and  N3_8 
REMARK    4  A    between atoms: N3_8  and  C5_10 
REMARK    5  A    between atoms: C6_13  and  N5_14 
REMARK    6  A    between atoms: C7_19  and  N7_20 
REMARK    7  A    between atoms: N7_20  and  C8_22 
ROOT
HETATM    1  C5  UNL     1      -7.161  15.905  18.960  1.00  0.00     0.726 A 
HETATM    2  N4  UNL     1      -5.960  15.987  18.373  1.00  0.00    -0.020 N 
ATOM      3  H4  UNL     1      -5.606  16.883  18.036  1.00  0.00     0.203 HD
HETATM    4  C6  UNL     1      -5.232  14.870  18.236  1.00  0.00     0.705 A 
HETATM    5  N6  UNL     1      -5.733  13.695  18.695  1.00  0.00    -0.022 N 
ATOM      6  H6  UNL     1      -5.168  12.852  18.584  1.00  0.00     0.203 HD
HETATM    7  C7  UNL     1      -6.931  13.584  19.286  1.00  0.00     0.707 A 
HETATM    8  N8  UNL     1      -7.635  14.721  19.408  1.00  0.00    -0.020 N 
ATOM      9  H8  UNL     1      -8.553  14.690  19.851  1.00  0.00     0.203 HD
ENDROOT
BRANCH   1  10
HETATM   10  N3  UNL     1      -7.879  16.955  19.106  1.00  0.00    -0.116 N 
ATOM     11  H3  UNL     1      -7.633  17.807  18.600  1.00  0.00     0.206 HD
BRANCH  10  12
HETATM   12  N2  UNL     1      -8.998  16.949  19.951  1.00  0.00    -0.138 N 
HETATM   13  C4  UNL     1      -9.538  17.787  20.967  1.00  0.00     0.356 A 
HETATM   14  N1  UNL     1     -10.638  16.910  21.168  1.00  0.00    -0.244 N 
HETATM   15  O1  UNL     1      -9.149  18.887  21.467  1.00  0.00    -0.244 OA
HETATM   16  C10 UNL     1     -10.099  16.073  20.154  1.00  0.00     0.356 A 
HETATM   17  O2  UNL     1     -10.510  14.974  19.670  1.00  0.00    -0.244 OA
BRANCH  14  18
HETATM   18  C3  UNL     1     -11.812  16.890  22.045  1.00  0.00     0.165 C 
BRANCH  18  19
HETATM   19  C2  UNL     1     -11.639  15.901  23.115  1.00  0.00    -0.017 C 
HETATM   20  C1  UNL     1     -11.092  14.722  22.893  1.00  0.00     0.008 C 
ENDBRANCH  18  19
ENDBRANCH  14  18
ENDBRANCH  10  12
ENDBRANCH   1  10
BRANCH   4  21
HETATM   21  N5  UNL     1      -4.049  14.899  17.666  1.00  0.00    -0.234 N 
ATOM     22  H52 UNL     1      -3.358  15.587  17.965  1.00  0.00     0.174 HD
ATOM     23  H51 UNL     1      -3.806  14.242  16.925  1.00  0.00     0.174 HD
ENDBRANCH   4  21
BRANCH   7  24
HETATM   24  N7  UNL     1      -7.342  12.451  19.694  1.00  0.00    -0.225 N 
ATOM     25  H7  UNL     1      -6.686  11.673  19.626  1.00  0.00     0.177 HD
BRANCH  24  26
HETATM   26  C8  UNL     1      -8.627  12.162  20.237  1.00  0.00     0.133 C 
HETATM   27  C9  UNL     1      -9.067  10.809  19.660  1.00  0.00     0.027 C 
ENDBRANCH  24  26
ENDBRANCH   7  24
TORSDOF 7
ENDMDL
MODEL 2
REMARK VINA RESULT: -7.408942157      0.048      1.560
REMARK  7 active torsions:
REMARK  status: ('A' for Active; 'I' for Inactive)
REMARK    1  A    between atoms: C2_2  and  C3_3 
REMARK    2  A    between atoms: C3_3  and  N1_4 
REMARK    3  A    between atoms: N2_7  and  N3_8 
REMARK    4  A    between atoms: N3_8  and  C5_10 
REMARK    5  A    between atoms: C6_13  and  N5_14 
REMARK    6  A    between atoms: C7_19  and  N7_20 
REMARK    7  A    between atoms: N7_20  and  C8_22 
ROOT
HETATM    1  C5  UNL     1      -7.178  15.892  18.933  1.00  0.00     0.726 A 
HETATM    2  N4  UNL     1      -5.970  15.998  18.362  1.00  0.00    -0.020 N 
ATOM      3  H4  UNL     1      -5.628  16.902  18.035  1.00  0.00     0.203 HD
HETATM    4  C6  UNL     1      -5.221  14.895  18.229  1.00  0.00     0.705 A 
HETATM    5  N6  UNL     1      -5.706  13.709  18.676  1.00  0.00    -0.022 N 
ATOM      6  H6  UNL     1      -5.125  12.877  18.568  1.00  0.00     0.203 HD
HETATM    7  C7  UNL     1      -6.911  13.573  19.250  1.00  0.00     0.707 A 
HETATM    8  N8  UNL     1      -7.636  14.697  19.368  1.00  0.00    -0.020 N 
ATOM      9  H8  UNL     1      -8.560  14.648  19.798  1.00  0.00     0.203 HD
ENDROOT
BRANCH   1  10
HETATM   10  N3  UNL     1      -7.916  16.929  19.073  1.00  0.00    -0.116 N 
ATOM     11  H3  UNL     1      -7.688  17.782  18.563  1.00  0.00     0.206 HD
BRANCH  10  12
HETATM   12  N2  UNL     1      -9.034  16.905  19.920  1.00  0.00    -0.138 N 
HETATM   13  C4  UNL     1     -10.136  16.039  20.163  1.00  0.00     0.356 A 
HETATM   14  N1  UNL     1     -10.651  16.901  21.167  1.00  0.00    -0.244 N 
HETATM   15  O1  UNL     1     -10.483  14.929  19.650  1.00  0.00    -0.244 OA
HETATM   16  C10 UNL     1      -9.550  17.767  20.926  1.00  0.00     0.356 A 
HETATM   17  O2  UNL     1      -9.225  18.874  21.455  1.00  0.00    -0.244 OA
BRANCH  14  18
HETATM   18  C3  UNL     1     -11.814  16.890  22.059  1.00  0.00     0.165 C 
BRANCH  18  19
HETATM   19  C2  UNL     1     -11.644  15.885  23.114  1.00  0.00    -0.017 C 
HETATM   20  C1  UNL     1     -11.063  14.724  22.885  1.00  0.00     0.008 C 
ENDBRANCH  18  19
ENDBRANCH  14  18
ENDBRANCH  10  12
ENDBRANCH   1  10
BRANCH   4  21
HETATM   21  N5  UNL     1      -4.031  14.948  17.676  1.00  0.00    -0.234 N 
ATOM     22  H52 UNL     1      -3.910  15.408  16.774  1.00  0.00     0.174 HD
ATOM     23  H51 UNL     1      -3.219  14.534  18.134  1.00  0.00     0.174 HD
ENDBRANCH   4  21
BRANCH   7  24
HETATM   24  N7  UNL     1      -7.307  12.432  19.647  1.00  0.00    -0.225 N 
ATOM     25  H7  UNL     1      -6.650  11.657  19.545  1.00  0.00     0.177 HD
BRANCH  24  26
HETATM   26  C8  UNL     1      -8.576  12.127  20.219  1.00  0.00     0.133 C 
HETATM   27  C9  UNL     1      -9.036  10.795  19.611  1.00  0.00     0.027 C 
ENDBRANCH  24  26
ENDBRANCH   7  24
TORSDOF 7
ENDMDL
MODEL 3
REMARK VINA RESULT: -7.032881933      2.197      4.305
REMARK  7 active torsions:
REMARK  status: ('A' for Active; 'I' for Inactive)
REMARK    1  A    between atoms: C2_2  and  C3_3 
REMARK    2  A    between atoms: C3_3  and  N1_4 
REMARK    3  A    between atoms: N2_7  and  N3_8 
REMARK    4  A    between atoms: N3_8  and  C5_10 
REMARK    5  A    between atoms: C6_13  and  N5_14 
REMARK    6  A    between atoms: C7_19  and  N7_20 
REMARK    7  A    between atoms: N7_20  and  C8_22 
ROOT
HETATM    1  C5  UNL     1      -7.921  13.388  19.858  1.00  0.00     0.726 A 
HETATM    2  N4  UNL     1      -7.997  12.189  19.266  1.00  0.00    -0.020 N 
ATOM      3  H4  UNL     1      -7.302  11.905  18.576  1.00  0.00     0.203 HD
HETATM    4  C6  UNL     1      -9.005  11.370  19.597  1.00  0.00     0.705 A 
HETATM    5  N6  UNL     1      -9.913  11.779  20.520  1.00  0.00    -0.022 N 
ATOM      6  H6  UNL     1     -10.675  11.145  20.763  1.00  0.00     0.203 HD
HETATM    7  C7  UNL     1      -9.860  12.973  21.128  1.00  0.00     0.707 A 
HETATM    8  N8  UNL     1      -8.839  13.770  20.773  1.00  0.00    -0.020 N 
ATOM      9  H8  UNL     1      -8.754  14.689  21.207  1.00  0.00     0.203 HD
ENDROOT
BRANCH   1  10
HETATM   10  N3  UNL     1      -6.969  14.192  19.562  1.00  0.00    -0.116 N 
ATOM     11  H3  UNL     1      -6.168  13.850  19.031  1.00  0.00     0.206 HD
BRANCH  10  12
HETATM   12  N2  UNL     1      -7.015  15.537  19.959  1.00  0.00    -0.138 N 
HETATM   13  C4  UNL     1      -7.021  16.259  21.185  1.00  0.00     0.356 A 
HETATM   14  N1  UNL     1      -7.082  17.504  20.504  1.00  0.00    -0.244 N 
HETATM   15  O1  UNL     1      -6.985  15.887  22.399  1.00  0.00    -0.244 OA
HETATM   16  C10 UNL     1      -7.075  16.784  19.279  1.00  0.00     0.356 A 
HETATM   17  O2  UNL     1      -7.111  17.182  18.074  1.00  0.00    -0.244 OA
BRANCH  14  18
HETATM   18  C3  UNL     1      -7.129  18.913  20.903  1.00  0.00     0.165 C 
BRANCH  18  19
HETATM   19  C2  UNL     1      -8.512  19.406  20.889  1.00  0.00    -0.017 C 
HETATM   20  C1  UNL     1      -9.538  18.611  21.119  1.00  0.00     0.008 C 
ENDBRANCH  18  19
ENDBRANCH  14  18
ENDBRANCH  10  12
ENDBRANCH   1  10
BRANCH   4  21
HETATM   21  N5  UNL     1      -9.123  10.185  19.044  1.00  0.00    -0.234 N 
ATOM     22  H52 UNL     1      -9.209  10.104  18.031  1.00  0.00     0.174 HD
ATOM     23  H51 UNL     1      -9.131   9.338  19.612  1.00  0.00     0.174 HD
ENDBRANCH   4  21
BRANCH   7  24
HETATM   24  N7  UNL     1     -10.744  13.295  21.984  1.00  0.00    -0.225 N 
ATOM     25  H7  UNL     1     -11.583  12.716  22.018  1.00  0.00     0.177 HD
BRANCH  24  26
HETATM   26  C8  UNL     1     -10.679  14.385  22.900  1.00  0.00     0.133 C 
HETATM   27  C9  UNL     1     -11.399  15.570  22.244  1.00  0.00     0.027 C 
ENDBRANCH  24  26
ENDBRANCH   7  24
TORSDOF 7
ENDMDL
MODEL 4
REMARK VINA RESULT: -6.662277845      1.875      3.742
REMARK  7 active torsions:
REMARK  status: ('A' for Active; 'I' for Inactive)
REMARK    1  A    between atoms: C2_2  and  C3_3 
REMARK    2  A    between atoms: C3_3  and  N1_4 
REMARK    3  A    between atoms: N2_7  and  N3_8 
REMARK    4  A    between atoms: N3_8  and  C5_10 
REMARK    5  A    between atoms: C6_13  and  N5_14 
REMARK    6  A    between atoms: C7_19  and  N7_20 
REMARK    7  A    between atoms: N7_20  and  C8_22 
ROOT
HETATM    1  C5  UNL     1      -7.178  14.097  19.577  1.00  0.00     0.726 A 
HETATM    2  N4  UNL     1      -6.121  13.725  18.843  1.00  0.00    -0.020 N 
ATOM      3  H4  UNL     1      -5.934  12.739  18.663  1.00  0.00     0.203 HD
HETATM    4  C6  UNL     1      -5.313  14.674  18.350  1.00  0.00     0.705 A 
HETATM    5  N6  UNL     1      -5.590  15.978  18.608  1.00  0.00    -0.022 N 
ATOM      6  H6  UNL     1      -4.967  16.690  18.226  1.00  0.00     0.203 HD
HETATM    7  C7  UNL     1      -6.641  16.378  19.339  1.00  0.00     0.707 A 
HETATM    8  N8  UNL     1      -7.430  15.403  19.818  1.00  0.00    -0.020 N 
ATOM      9  H8  UNL     1      -8.243  15.655  20.380  1.00  0.00     0.203 HD
ENDROOT
BRANCH   1  10
HETATM   10  N3  UNL     1      -7.968  13.213  20.060  1.00  0.00    -0.116 N 
ATOM     11  H3  UNL     1      -7.784  12.225  19.888  1.00  0.00     0.206 HD
BRANCH  10  12
HETATM   12  N2  UNL     1      -9.084  13.588  20.824  1.00  0.00    -0.138 N 
HETATM   13  C4  UNL     1     -10.495  13.632  20.650  1.00  0.00     0.356 A 
HETATM   14  N1  UNL     1     -10.686  14.141  21.963  1.00  0.00    -0.244 N 
HETATM   15  O1  UNL     1     -11.248  13.324  19.675  1.00  0.00    -0.244 OA
HETATM   16  C10 UNL     1      -9.277  14.096  22.138  1.00  0.00     0.356 A 
HETATM   17  O2  UNL     1      -8.546  14.410  23.127  1.00  0.00    -0.244 OA
BRANCH  14  18
HETATM   18  C3  UNL     1     -11.842  14.535  22.773  1.00  0.00     0.165 C 
BRANCH  18  19
HETATM   19  C2  UNL     1     -11.818  15.979  23.036  1.00  0.00    -0.017 C 
HETATM   20  C1  UNL     1     -11.558  16.856  22.088  1.00  0.00     0.008 C 
ENDBRANCH  18  19
ENDBRANCH  14  18
ENDBRANCH  10  12
ENDBRANCH   1  10
BRANCH   4  21
HETATM   21  N5  UNL     1      -4.264  14.360  17.626  1.00  0.00    -0.234 N 
ATOM     22  H52 UNL     1      -4.203  13.439  17.192  1.00  0.00     0.174 HD
ATOM     23  H51 UNL     1      -3.502  15.024  17.487  1.00  0.00     0.174 HD
ENDBRANCH   4  21
BRANCH   7  24
HETATM   24  N7  UNL     1      -6.844  17.617  19.544  1.00  0.00    -0.225 N 
ATOM     25  H7  UNL     1      -6.827  18.227  18.726  1.00  0.00     0.177 HD
BRANCH  24  26
HETATM   26  C8  UNL     1      -7.094  18.238  20.801  1.00  0.00     0.133 C 
HETATM   27  C9  UNL     1      -8.589  18.578  20.848  1.00  0.00     0.027 C 
ENDBRANCH  24  26
ENDBRANCH   7  24
TORSDOF 7
ENDMDL
MODEL 5
REMARK VINA RESULT: -6.552054736      1.879      3.517
REMARK  7 active torsions:
REMARK  status: ('A' for Active; 'I' for Inactive)
REMARK    1  A    between atoms: C2_2  and  C3_3 
REMARK    2  A    between atoms: C3_3  and  N1_4 
REMARK    3  A    between atoms: N2_7  and  N3_8 
REMARK    4  A    between atoms: N3_8  and  C5_10 
REMARK    5  A    between atoms: C6_13  and  N5_14 
REMARK    6  A    between atoms: C7_19  and  N7_20 
REMARK    7  A    between atoms: N7_20  and  C8_22 
ROOT
HETATM    1  C5  UNL     1      -7.109  14.076  19.641  1.00  0.00     0.726 A 
HETATM    2  N4  UNL     1      -6.071  13.701  18.882  1.00  0.00    -0.020 N 
ATOM      3  H4  UNL     1      -5.880  12.713  18.715  1.00  0.00     0.203 HD
HETATM    4  C6  UNL     1      -5.290  14.648  18.345  1.00  0.00     0.705 A 
HETATM    5  N6  UNL     1      -5.573  15.954  18.587  1.00  0.00    -0.022 N 
ATOM      6  H6  UNL     1      -4.970  16.665  18.172  1.00  0.00     0.203 HD
HETATM    7  C7  UNL     1      -6.605  16.358  19.342  1.00  0.00     0.707 A 
HETATM    8  N8  UNL     1      -7.367  15.384  19.865  1.00  0.00    -0.020 N 
ATOM      9  H8  UNL     1      -8.165  15.639  20.448  1.00  0.00     0.203 HD
ENDROOT
BRANCH   1  10
HETATM   10  N3  UNL     1      -7.873  13.194  20.167  1.00  0.00    -0.116 N 
ATOM     11  H3  UNL     1      -7.667  12.204  20.031  1.00  0.00     0.206 HD
BRANCH  10  12
HETATM   12  N2  UNL     1      -8.990  13.572  20.927  1.00  0.00    -0.138 N 
HETATM   13  C4  UNL     1      -9.235  14.084  22.232  1.00  0.00     0.356 A 
HETATM   14  N1  UNL     1     -10.637  14.113  22.006  1.00  0.00    -0.244 N 
HETATM   15  O1  UNL     1      -8.462  14.384  23.194  1.00  0.00    -0.244 OA
HETATM   16  C10 UNL     1     -10.394  13.602  20.703  1.00  0.00     0.356 A 
HETATM   17  O2  UNL     1     -11.188  13.311  19.757  1.00  0.00    -0.244 OA
BRANCH  14  18
HETATM   18  C3  UNL     1     -11.814  14.505  22.787  1.00  0.00     0.165 C 
BRANCH  18  19
HETATM   19  C2  UNL     1     -11.802  15.949  23.047  1.00  0.00    -0.017 C 
HETATM   20  C1  UNL     1     -11.580  16.829  22.091  1.00  0.00     0.008 C 
ENDBRANCH  18  19
ENDBRANCH  14  18
ENDBRANCH  10  12
ENDBRANCH   1  10
BRANCH   4  21
HETATM   21  N5  UNL     1      -4.260  14.331  17.594  1.00  0.00    -0.234 N 
ATOM     22  H52 UNL     1      -3.976  14.949  16.834  1.00  0.00     0.174 HD
ATOM     23  H51 UNL     1      -3.735  13.472  17.757  1.00  0.00     0.174 HD
ENDBRANCH   4  21
BRANCH   7  24
HETATM   24  N7  UNL     1      -6.815  17.598  19.530  1.00  0.00    -0.225 N 
ATOM     25  H7  UNL     1      -6.803  18.196  18.703  1.00  0.00     0.177 HD
BRANCH  24  26
HETATM   26  C8  UNL     1      -7.065  18.236  20.779  1.00  0.00     0.133 C 
HETATM   27  C9  UNL     1      -8.574  18.506  20.853  1.00  0.00     0.027 C 
ENDBRANCH  24  26
ENDBRANCH   7  24
TORSDOF 7
ENDMDL
