MODEL 1
REMARK VINA RESULT: -6.537385343      0.000      0.000
REMARK  7 active torsions:
REMARK  status: ('A' for Active; 'I' for Inactive)
REMARK    1  A    between atoms: O1_2  and  C2_3 
REMARK    2  A    between atoms: C7_8  and  C8_9 
REMARK    3  A    between atoms: C8_9  and  C9_10 
REMARK    4  A    between atoms: C10_13  and  C11_14 
REMARK    5  A    between atoms: C11_14  and  N2_15 
REMARK    6  A    between atoms: N2_15  and  N3_17 
REMARK    7  A    between atoms: N3_17  and  N4_19 
ROOT
HETATM    1  C9  UNL     1      -7.669  16.883  21.149  1.00  0.00     0.103 A 
HETATM    2  N1  UNL     1      -8.791  16.228  21.485  1.00  0.00    -0.337 N 
ATOM      3  H1  UNL     1      -8.821  15.247  21.762  1.00  0.00     0.167 HD
HETATM    4  C10 UNL     1      -9.870  17.023  21.413  1.00  0.00     0.125 A 
HETATM    5  N5  UNL     1      -9.400  18.231  21.011  1.00  0.00    -0.306 N 
ATOM      6  H5  UNL     1      -9.972  19.063  20.858  1.00  0.00     0.170 HD
HETATM    7  C13 UNL     1      -8.065  18.168  20.845  1.00  0.00     0.273 A 
HETATM    8  O2  UNL     1      -7.286  19.085  20.482  1.00  0.00    -0.266 OA
ENDROOT
BRANCH   1   9
HETATM    9  C8  UNL     1      -6.418  16.408  21.109  1.00  0.00     0.049 C 
BRANCH   9  10
HETATM   10  C7  UNL     1      -5.889  15.686  19.982  1.00  0.00    -0.001 A 
HETATM   11  C2  UNL     1      -6.452  14.494  19.540  1.00  0.00     0.078 A 
HETATM   12  C3  UNL     1      -5.940  13.807  18.458  1.00  0.00     0.037 A 
HETATM   13  C4  UNL     1      -4.844  14.280  17.773  1.00  0.00     0.003 A 
HETATM   14  C5  UNL     1      -4.277  15.456  18.201  1.00  0.00     0.001 A 
HETATM   15  C6  UNL     1      -4.790  16.143  19.282  1.00  0.00     0.014 A 
BRANCH  11  16
HETATM   16  O1  UNL     1      -7.553  14.026  20.231  1.00  0.00    -0.355 OA
HETATM   17  C1  UNL     1      -7.946  12.669  20.168  1.00  0.00     0.210 C 
ENDBRANCH  11  16
ENDBRANCH   9  10
ENDBRANCH   1   9
BRANCH   4  18
HETATM   18  C11 UNL     1     -11.137  16.742  21.665  1.00  0.00     0.152 C 
BRANCH  18  19
HETATM   19  N2  UNL     1     -11.572  15.404  21.851  1.00  0.00    -0.310 N 
ATOM     20  H2  UNL     1     -12.440  15.237  22.359  1.00  0.00     0.182 HD
BRANCH  19  21
HETATM   21  N3  UNL     1     -10.850  14.298  21.361  1.00  0.00    -0.151 NA
HETATM   22  C12 UNL     1     -11.247  13.071  22.017  1.00  0.00     0.162 C 
BRANCH  21  23
HETATM   23  N4  UNL     1     -10.933  14.187  19.976  1.00  0.00    -0.346 NA
ATOM     24  H42 UNL     1     -10.030  14.349  19.532  1.00  0.00     0.172 HD
ATOM     25  H41 UNL     1     -11.340  13.298  19.684  1.00  0.00     0.172 HD
ENDBRANCH  21  23
ENDBRANCH  19  21
ENDBRANCH  18  19
ENDBRANCH   4  18
TORSDOF 7
ENDMDL
MODEL 2
REMARK VINA RESULT: -6.437188464      2.802      6.357
REMARK  7 active torsions:
REMARK  status: ('A' for Active; 'I' for Inactive)
REMARK    1  A    between atoms: O1_2  and  C2_3 
REMARK    2  A    between atoms: C7_8  and  C8_9 
REMARK    3  A    between atoms: C8_9  and  C9_10 
REMARK    4  A    between atoms: C10_13  and  C11_14 
REMARK    5  A    between atoms: C11_14  and  N2_15 
REMARK    6  A    between atoms: N2_15  and  N3_17 
REMARK    7  A    between atoms: N3_17  and  N4_19 
ROOT
HETATM    1  C9  UNL     1      -9.275  13.078  19.980  1.00  0.00     0.103 A 
HETATM    2  N1  UNL     1      -8.257  13.904  19.688  1.00  0.00    -0.337 N 
ATOM      3  H1  UNL     1      -8.317  14.921  19.725  1.00  0.00     0.167 HD
HETATM    4  C10 UNL     1      -7.152  13.227  19.343  1.00  0.00     0.125 A 
HETATM    5  N5  UNL     1      -7.494  11.916  19.421  1.00  0.00    -0.306 N 
ATOM      6  H5  UNL     1      -6.871  11.133  19.219  1.00  0.00     0.170 HD
HETATM    7  C13 UNL     1      -8.779  11.803  19.807  1.00  0.00     0.273 A 
HETATM    8  O2  UNL     1      -9.444  10.752  19.987  1.00  0.00    -0.266 OA
ENDROOT
BRANCH   1   9
HETATM    9  C8  UNL     1     -10.516  13.402  20.360  1.00  0.00     0.049 C 
BRANCH   9  10
HETATM   10  C7  UNL     1     -10.818  14.579  21.133  1.00  0.00    -0.001 A 
HETATM   11  C2  UNL     1     -10.620  15.860  20.632  1.00  0.00     0.078 A 
HETATM   12  C3  UNL     1     -10.912  16.984  21.378  1.00  0.00     0.037 A 
HETATM   13  C4  UNL     1     -11.413  16.874  22.656  1.00  0.00     0.003 A 
HETATM   14  C5  UNL     1     -11.612  15.614  23.163  1.00  0.00     0.001 A 
HETATM   15  C6  UNL     1     -11.321  14.491  22.416  1.00  0.00     0.014 A 
BRANCH  11  16
HETATM   16  O1  UNL     1     -10.119  15.961  19.349  1.00  0.00    -0.355 OA
HETATM   17  C1  UNL     1      -8.936  16.686  19.071  1.00  0.00     0.210 C 
ENDBRANCH  11  16
ENDBRANCH   9  10
ENDBRANCH   1   9
BRANCH   4  18
HETATM   18  C11 UNL     1      -5.962  13.686  18.993  1.00  0.00     0.152 C 
BRANCH  18  19
HETATM   19  N2  UNL     1      -5.829  14.798  18.122  1.00  0.00    -0.310 N 
ATOM     20  H2  UNL     1      -6.201  14.726  17.175  1.00  0.00     0.182 HD
BRANCH  19  21
HETATM   21  N3  UNL     1      -5.205  15.997  18.516  1.00  0.00    -0.151 NA
HETATM   22  C12 UNL     1      -5.450  16.293  19.911  1.00  0.00     0.162 C 
BRANCH  21  23
HETATM   23  N4  UNL     1      -3.844  16.002  18.224  1.00  0.00    -0.346 NA
ATOM     24  H42 UNL     1      -3.506  15.067  17.999  1.00  0.00     0.172 HD
ATOM     25  H41 UNL     1      -3.609  16.672  17.491  1.00  0.00     0.172 HD
ENDBRANCH  21  23
ENDBRANCH  19  21
ENDBRANCH  18  19
ENDBRANCH   4  18
TORSDOF 7
ENDMDL
MODEL 3
REMARK VINA RESULT: -6.384933387      2.523      6.057
REMARK  7 active torsions:
REMARK  status: ('A' for Active; 'I' for Inactive)
REMARK    1  A    between atoms: O1_2  and  C2_3 
REMARK    2  A    between atoms: C7_8  and  C8_9 
REMARK    3  A    between atoms: C8_9  and  C9_10 
REMARK    4  A    between atoms: C10_13  and  C11_14 
REMARK    5  A    between atoms: C11_14  and  N2_15 
REMARK    6  A    between atoms: N2_15  and  N3_17 
REMARK    7  A    between atoms: N3_17  and  N4_19 
ROOT
HETATM    1  C9  UNL     1      -8.426  13.499  20.960  1.00  0.00     0.103 A 
HETATM    2  N1  UNL     1      -7.334  13.771  20.229  1.00  0.00    -0.337 N 
ATOM      3  H1  UNL     1      -6.699  14.547  20.414  1.00  0.00     0.167 HD
HETATM    4  C10 UNL     1      -7.179  12.895  19.224  1.00  0.00     0.125 A 
HETATM    5  N5  UNL     1      -8.224  12.036  19.332  1.00  0.00    -0.306 N 
ATOM      6  H5  UNL     1      -8.400  11.244  18.712  1.00  0.00     0.170 HD
HETATM    7  C13 UNL     1      -8.994  12.385  20.380  1.00  0.00     0.273 A 
HETATM    8  O2  UNL     1     -10.044  11.827  20.789  1.00  0.00    -0.266 OA
ENDROOT
BRANCH   1   9
HETATM    9  C8  UNL     1      -8.886  14.158  22.030  1.00  0.00     0.049 C 
BRANCH   9  10
HETATM   10  C7  UNL     1      -9.668  15.363  21.934  1.00  0.00    -0.001 A 
HETATM   11  C2  UNL     1      -9.172  16.517  21.338  1.00  0.00     0.078 A 
HETATM   12  C3  UNL     1      -9.927  17.669  21.249  1.00  0.00     0.037 A 
HETATM   13  C4  UNL     1     -11.208  17.716  21.750  1.00  0.00     0.003 A 
HETATM   14  C5  UNL     1     -11.710  16.583  22.342  1.00  0.00     0.001 A 
HETATM   15  C6  UNL     1     -10.954  15.431  22.430  1.00  0.00     0.014 A 
BRANCH  11  16
HETATM   16  O1  UNL     1      -7.887  16.461  20.837  1.00  0.00    -0.355 OA
HETATM   17  C1  UNL     1      -6.805  17.091  21.497  1.00  0.00     0.210 C 
ENDBRANCH  11  16
ENDBRANCH   9  10
ENDBRANCH   1   9
BRANCH   4  18
HETATM   18  C11 UNL     1      -6.234  12.836  18.302  1.00  0.00     0.152 C 
BRANCH  18  19
HETATM   19  N2  UNL     1      -5.673  14.015  17.746  1.00  0.00    -0.310 N 
ATOM     20  H2  UNL     1      -5.453  14.030  16.750  1.00  0.00     0.182 HD
BRANCH  19  21
HETATM   21  N3  UNL     1      -5.408  15.163  18.516  1.00  0.00    -0.151 NA
HETATM   22  C12 UNL     1      -4.053  15.632  18.323  1.00  0.00     0.162 C 
BRANCH  21  23
HETATM   23  N4  UNL     1      -6.336  16.175  18.288  1.00  0.00    -0.346 NA
ATOM     24  H42 UNL     1      -6.903  15.985  17.462  1.00  0.00     0.172 HD
ATOM     25  H41 UNL     1      -6.917  16.358  19.107  1.00  0.00     0.172 HD
ENDBRANCH  21  23
ENDBRANCH  19  21
ENDBRANCH  18  19
ENDBRANCH   4  18
TORSDOF 7
ENDMDL
MODEL 4
REMARK VINA RESULT: -6.034610093      1.431      3.612
REMARK  7 active torsions:
REMARK  status: ('A' for Active; 'I' for Inactive)
REMARK    1  A    between atoms: O1_2  and  C2_3 
REMARK    2  A    between atoms: C7_8  and  C8_9 
REMARK    3  A    between atoms: C8_9  and  C9_10 
REMARK    4  A    between atoms: C10_13  and  C11_14 
REMARK    5  A    between atoms: C11_14  and  N2_15 
REMARK    6  A    between atoms: N2_15  and  N3_17 
REMARK    7  A    between atoms: N3_17  and  N4_19 
ROOT
HETATM    1  C9  UNL     1      -8.919  13.499  20.647  1.00  0.00     0.103 A 
HETATM    2  N1  UNL     1      -9.367  14.446  21.486  1.00  0.00    -0.337 N 
ATOM      3  H1  UNL     1      -8.767  15.006  22.091  1.00  0.00     0.167 HD
HETATM    4  C10 UNL     1     -10.703  14.566  21.431  1.00  0.00     0.125 A 
HETATM    5  N5  UNL     1     -11.109  13.651  20.515  1.00  0.00    -0.306 N 
ATOM      6  H5  UNL     1     -12.077  13.487  20.238  1.00  0.00     0.170 HD
HETATM    7  C13 UNL     1     -10.041  12.992  20.027  1.00  0.00     0.273 A 
HETATM    8  O2  UNL     1     -10.023  12.077  19.164  1.00  0.00    -0.266 OA
ENDROOT
BRANCH   1   9
HETATM    9  C8  UNL     1      -7.655  13.113  20.441  1.00  0.00     0.049 C 
BRANCH   9  10
HETATM   10  C7  UNL     1      -6.705  13.900  19.697  1.00  0.00    -0.001 A 
HETATM   11  C2  UNL     1      -6.324  15.173  20.105  1.00  0.00     0.078 A 
HETATM   12  C3  UNL     1      -5.413  15.922  19.388  1.00  0.00     0.037 A 
HETATM   13  C4  UNL     1      -4.845  15.431  18.234  1.00  0.00     0.003 A 
HETATM   14  C5  UNL     1      -5.214  14.174  17.820  1.00  0.00     0.001 A 
HETATM   15  C6  UNL     1      -6.124  13.426  18.538  1.00  0.00     0.014 A 
BRANCH  11  16
HETATM   16  O1  UNL     1      -6.897  15.658  21.264  1.00  0.00    -0.355 OA
HETATM   17  C1  UNL     1      -6.768  17.015  21.644  1.00  0.00     0.210 C 
ENDBRANCH  11  16
ENDBRANCH   9  10
ENDBRANCH   1   9
BRANCH   4  18
HETATM   18  C11 UNL     1     -11.500  15.381  22.101  1.00  0.00     0.152 C 
BRANCH  18  19
HETATM   19  N2  UNL     1     -11.423  16.788  21.934  1.00  0.00    -0.310 N 
ATOM     20  H2  UNL     1     -12.169  17.368  22.318  1.00  0.00     0.182 HD
BRANCH  19  21
HETATM   21  N3  UNL     1     -10.358  17.413  21.257  1.00  0.00    -0.151 NA
HETATM   22  C12 UNL     1     -10.387  17.126  19.839  1.00  0.00     0.162 C 
BRANCH  21  23
HETATM   23  N4  UNL     1     -10.311  18.783  21.501  1.00  0.00    -0.346 NA
ATOM     24  H42 UNL     1      -9.419  19.184  21.213  1.00  0.00     0.172 HD
ATOM     25  H41 UNL     1     -11.098  19.277  21.079  1.00  0.00     0.172 HD
ENDBRANCH  21  23
ENDBRANCH  19  21
ENDBRANCH  18  19
ENDBRANCH   4  18
TORSDOF 7
ENDMDL
MODEL 5
REMARK VINA RESULT: -6.025898779      2.293      4.475
REMARK  7 active torsions:
REMARK  status: ('A' for Active; 'I' for Inactive)
REMARK    1  A    between atoms: O1_2  and  C2_3 
REMARK    2  A    between atoms: C7_8  and  C8_9 
REMARK    3  A    between atoms: C8_9  and  C9_10 
REMARK    4  A    between atoms: C10_13  and  C11_14 
REMARK    5  A    between atoms: C11_14  and  N2_15 
REMARK    6  A    between atoms: N2_15  and  N3_17 
REMARK    7  A    between atoms: N3_17  and  N4_19 
ROOT
HETATM    1  C9  UNL     1      -6.527  15.160  20.203  1.00  0.00     0.103 A 
HETATM    2  N1  UNL     1      -7.207  14.012  20.353  1.00  0.00    -0.337 N 
ATOM      3  H1  UNL     1      -7.822  13.808  21.140  1.00  0.00     0.167 HD
HETATM    4  C10 UNL     1      -6.978  13.164  19.338  1.00  0.00     0.125 A 
HETATM    5  N5  UNL     1      -6.114  13.812  18.515  1.00  0.00    -0.306 N 
ATOM      6  H5  UNL     1      -5.739  13.436  17.644  1.00  0.00     0.170 HD
HETATM    7  C13 UNL     1      -5.828  15.026  19.023  1.00  0.00     0.273 A 
HETATM    8  O2  UNL     1      -5.068  15.906  18.544  1.00  0.00    -0.266 OA
ENDROOT
BRANCH   1   9
HETATM    9  C8  UNL     1      -6.516  16.222  21.017  1.00  0.00     0.049 C 
BRANCH   9  10
HETATM   10  C7  UNL     1      -7.558  17.216  21.023  1.00  0.00    -0.001 A 
HETATM   11  C2  UNL     1      -8.889  16.887  21.251  1.00  0.00     0.078 A 
HETATM   12  C3  UNL     1      -9.882  17.845  21.256  1.00  0.00     0.037 A 
HETATM   13  C4  UNL     1      -9.588  19.171  21.033  1.00  0.00     0.003 A 
HETATM   14  C5  UNL     1      -8.277  19.510  20.805  1.00  0.00     0.001 A 
HETATM   15  C6  UNL     1      -7.284  18.551  20.801  1.00  0.00     0.014 A 
BRANCH  11  16
HETATM   16  O1  UNL     1      -9.176  15.555  21.475  1.00  0.00    -0.355 OA
HETATM   17  C1  UNL     1     -10.214  15.157  22.350  1.00  0.00     0.210 C 
ENDBRANCH  11  16
ENDBRANCH   9  10
ENDBRANCH   1   9
BRANCH   4  18
HETATM   18  C11 UNL     1      -7.462  11.951  19.133  1.00  0.00     0.152 C 
BRANCH  18  19
HETATM   19  N2  UNL     1      -8.823  11.647  19.397  1.00  0.00    -0.310 N 
ATOM     20  H2  UNL     1      -9.216  10.787  19.013  1.00  0.00     0.182 HD
BRANCH  19  21
HETATM   21  N3  UNL     1      -9.651  12.486  20.167  1.00  0.00    -0.151 NA
HETATM   22  C12 UNL     1     -10.727  13.043  19.376  1.00  0.00     0.162 C 
BRANCH  21  23
HETATM   23  N4  UNL     1     -10.132  11.848  21.307  1.00  0.00    -0.346 NA
ATOM     24  H42 UNL     1     -10.616  12.500  21.925  1.00  0.00     0.172 HD
ATOM     25  H41 UNL     1     -10.715  11.042  21.081  1.00  0.00     0.172 HD
ENDBRANCH  21  23
ENDBRANCH  19  21
ENDBRANCH  18  19
ENDBRANCH   4  18
TORSDOF 7
ENDMDL
