MODEL 1
REMARK VINA RESULT: -6.017079799      0.000      0.000
REMARK  8 active torsions:
REMARK  status: ('A' for Active; 'I' for Inactive)
REMARK    1  A    between atoms: N1_2  and  C2_4 
REMARK    2  A    between atoms: C3_7  and  N3_8 
REMARK    3  A    between atoms: N3_8  and  C4_10 
REMARK    4  A    between atoms: C4_10  and  C5_11 
REMARK    5  A    between atoms: C5_11  and  C6_12 
REMARK    6  A    between atoms: C6_12  and  N4_13 
REMARK    7  A    between atoms: C9_21  and  S1_22 
REMARK    8  A    between atoms: S1_22  and  N6_23 
ROOT
HETATM    1  C2  UNL     1      -7.353  16.029  21.059  1.00  0.00     0.142 A 
HETATM    2  N2  UNL     1      -8.173  15.599  22.034  1.00  0.00    -0.175 N 
ATOM      3  H2  UNL     1      -8.458  16.264  22.753  1.00  0.00     0.186 HD
HETATM    4  C3  UNL     1      -8.636  14.336  22.109  1.00  0.00     0.679 A 
HETATM    5  N5  UNL     1      -8.272  13.447  21.169  1.00  0.00    -0.194 N 
ATOM      6  H5  UNL     1      -8.622  12.490  21.224  1.00  0.00     0.184 HD
HETATM    7  C7  UNL     1      -7.450  13.796  20.153  1.00  0.00     0.050 A 
HETATM    8  C8  UNL     1      -7.092  12.782  19.164  1.00  0.00     0.070 C 
HETATM    9  C9  UNL     1      -6.981  15.114  20.096  1.00  0.00     0.146 A 
ENDROOT
BRANCH   4  10
HETATM   10  N3  UNL     1      -9.428  13.966  23.073  1.00  0.00    -0.226 N 
ATOM     11  H3  UNL     1      -9.069  13.823  24.017  1.00  0.00     0.177 HD
BRANCH  10  12
HETATM   12  C4  UNL     1     -10.822  13.763  22.779  1.00  0.00     0.139 C 
BRANCH  12  13
HETATM   13  C5  UNL     1     -11.272  14.890  21.871  1.00  0.00     0.047 C 
BRANCH  13  14
HETATM   14  C6  UNL     1     -11.717  16.095  22.669  1.00  0.00     0.231 C 
BRANCH  14  15
HETATM   15  N4  UNL     1     -11.308  17.271  21.890  1.00  0.00    -0.079 N 
ATOM     16  H43 UNL     1     -10.799  17.964  22.438  1.00  0.00     0.274 HD
ATOM     17  H42 UNL     1     -10.567  17.076  21.218  1.00  0.00     0.274 HD
ATOM     18  H41 UNL     1     -12.160  17.636  21.463  1.00  0.00     0.274 HD
ENDBRANCH  14  15
ENDBRANCH  13  14
ENDBRANCH  12  13
ENDBRANCH  10  12
ENDBRANCH   4  10
BRANCH   1  19
HETATM   19  N1  UNL     1      -6.914  17.256  21.002  1.00  0.00    -0.379 N 
HETATM   20  C1  UNL     1      -7.766  18.389  20.852  1.00  0.00     0.147 C 
ATOM     21  H1  UNL     1      -5.908  17.413  21.069  1.00  0.00     0.160 HD
ENDBRANCH   1  19
BRANCH   9  22
HETATM   22  S1  UNL     1      -5.928  15.595  18.808  1.00  0.00     0.262 S 
HETATM   23  O1  UNL     1      -6.425  16.766  18.033  1.00  0.00    -0.201 OA
HETATM   24  O2  UNL     1      -4.608  16.033  19.433  1.00  0.00    -0.201 OA
BRANCH  22  25
HETATM   25  N6  UNL     1      -5.519  14.256  17.778  1.00  0.00    -0.324 N 
ATOM     26  H62 UNL     1      -6.166  13.499  17.560  1.00  0.00     0.169 HD
ATOM     27  H61 UNL     1      -4.563  14.328  17.427  1.00  0.00     0.169 HD
ENDBRANCH  22  25
ENDBRANCH   9  22
TORSDOF 8
ENDMDL
MODEL 2
REMARK VINA RESULT: -5.442718980      3.198      5.093
REMARK  8 active torsions:
REMARK  status: ('A' for Active; 'I' for Inactive)
REMARK    1  A    between atoms: N1_2  and  C2_4 
REMARK    2  A    between atoms: C3_7  and  N3_8 
REMARK    3  A    between atoms: N3_8  and  C4_10 
REMARK    4  A    between atoms: C4_10  and  C5_11 
REMARK    5  A    between atoms: C5_11  and  C6_12 
REMARK    6  A    between atoms: C6_12  and  N4_13 
REMARK    7  A    between atoms: C9_21  and  S1_22 
REMARK    8  A    between atoms: S1_22  and  N6_23 
ROOT
HETATM    1  C2  UNL     1      -9.538  14.775  22.261  1.00  0.00     0.142 A 
HETATM    2  N2  UNL     1      -8.975  14.309  23.389  1.00  0.00    -0.175 N 
ATOM      3  H2  UNL     1      -9.532  13.703  23.992  1.00  0.00     0.186 HD
HETATM    4  C3  UNL     1      -7.714  14.601  23.763  1.00  0.00     0.679 A 
HETATM    5  N5  UNL     1      -6.965  15.397  22.980  1.00  0.00    -0.194 N 
ATOM      6  H5  UNL     1      -6.010  15.618  23.261  1.00  0.00     0.184 HD
HETATM    7  C7  UNL     1      -7.454  15.908  21.827  1.00  0.00     0.050 A 
HETATM    8  C8  UNL     1      -6.589  16.767  21.022  1.00  0.00     0.070 C 
HETATM    9  C9  UNL     1      -8.767  15.591  21.459  1.00  0.00     0.146 A 
ENDROOT
BRANCH   4  10
HETATM   10  N3  UNL     1      -7.213  14.125  24.865  1.00  0.00    -0.226 N 
ATOM     11  H3  UNL     1      -7.511  13.219  25.226  1.00  0.00     0.177 HD
BRANCH  10  12
HETATM   12  C4  UNL     1      -6.228  14.907  25.567  1.00  0.00     0.139 C 
BRANCH  12  13
HETATM   13  C5  UNL     1      -5.265  13.945  26.235  1.00  0.00     0.047 C 
BRANCH  13  14
HETATM   14  C6  UNL     1      -5.902  12.590  26.449  1.00  0.00     0.231 C 
BRANCH  14  15
HETATM   15  N4  UNL     1      -5.278  12.035  27.657  1.00  0.00    -0.079 N 
ATOM     16  H43 UNL     1      -4.586  11.311  27.461  1.00  0.00     0.274 HD
ATOM     17  H42 UNL     1      -4.648  12.686  28.124  1.00  0.00     0.274 HD
ATOM     18  H41 UNL     1      -6.045  11.715  28.249  1.00  0.00     0.274 HD
ENDBRANCH  14  15
ENDBRANCH  13  14
ENDBRANCH  12  13
ENDBRANCH  10  12
ENDBRANCH   4  10
BRANCH   1  19
HETATM   19  N1  UNL     1     -10.762  14.483  21.915  1.00  0.00    -0.379 N 
HETATM   20  C1  UNL     1     -11.286  13.157  21.932  1.00  0.00     0.147 C 
ATOM     21  H1  UNL     1     -11.375  15.242  21.616  1.00  0.00     0.160 HD
ENDBRANCH   1  19
BRANCH   9  22
HETATM   22  S1  UNL     1      -9.424  16.230  19.990  1.00  0.00     0.262 S 
HETATM   23  O1  UNL     1      -8.398  16.505  18.945  1.00  0.00    -0.201 OA
HETATM   24  O2  UNL     1     -10.351  15.171  19.402  1.00  0.00    -0.201 OA
BRANCH  22  25
HETATM   25  N6  UNL     1     -10.442  17.608  20.285  1.00  0.00    -0.324 N 
ATOM     26  H62 UNL     1     -11.211  17.877  19.672  1.00  0.00     0.169 HD
ATOM     27  H61 UNL     1     -10.171  18.102  21.135  1.00  0.00     0.169 HD
ENDBRANCH  22  25
ENDBRANCH   9  22
TORSDOF 8
ENDMDL
MODEL 3
REMARK VINA RESULT: -5.410632549      0.712      2.560
REMARK  8 active torsions:
REMARK  status: ('A' for Active; 'I' for Inactive)
REMARK    1  A    between atoms: N1_2  and  C2_4 
REMARK    2  A    between atoms: C3_7  and  N3_8 
REMARK    3  A    between atoms: N3_8  and  C4_10 
REMARK    4  A    between atoms: C4_10  and  C5_11 
REMARK    5  A    between atoms: C5_11  and  C6_12 
REMARK    6  A    between atoms: C6_12  and  N4_13 
REMARK    7  A    between atoms: C9_21  and  S1_22 
REMARK    8  A    between atoms: S1_22  and  N6_23 
ROOT
HETATM    1  C2  UNL     1      -7.479  13.866  20.217  1.00  0.00     0.142 A 
HETATM    2  N2  UNL     1      -8.273  13.592  21.267  1.00  0.00    -0.175 N 
ATOM      3  H2  UNL     1      -8.634  12.642  21.365  1.00  0.00     0.186 HD
HETATM    4  C3  UNL     1      -8.617  14.507  22.194  1.00  0.00     0.679 A 
HETATM    5  N5  UNL     1      -8.151  15.762  22.081  1.00  0.00    -0.194 N 
ATOM      6  H5  UNL     1      -8.409  16.457  22.783  1.00  0.00     0.184 HD
HETATM    7  C7  UNL     1      -7.345  16.123  21.056  1.00  0.00     0.050 A 
HETATM    8  C8  UNL     1      -6.873  17.504  20.991  1.00  0.00     0.070 C 
HETATM    9  C9  UNL     1      -7.002  15.155  20.104  1.00  0.00     0.146 A 
ENDROOT
BRANCH   4  10
HETATM   10  N3  UNL     1      -9.390  14.194  23.193  1.00  0.00    -0.226 N 
ATOM     11  H3  UNL     1      -8.995  13.952  24.102  1.00  0.00     0.177 HD
BRANCH  10  12
HETATM   12  C4  UNL     1     -10.815  14.195  22.987  1.00  0.00     0.139 C 
BRANCH  12  13
HETATM   13  C5  UNL     1     -11.119  15.170  21.869  1.00  0.00     0.047 C 
BRANCH  13  14
HETATM   14  C6  UNL     1     -11.719  16.452  22.404  1.00  0.00     0.231 C 
BRANCH  14  15
HETATM   15  N4  UNL     1     -11.037  17.544  21.698  1.00  0.00    -0.079 N 
ATOM     16  H43 UNL     1     -10.086  17.311  21.410  1.00  0.00     0.274 HD
ATOM     17  H42 UNL     1     -11.409  17.721  20.766  1.00  0.00     0.274 HD
ATOM     18  H41 UNL     1     -11.087  18.354  22.317  1.00  0.00     0.274 HD
ENDBRANCH  14  15
ENDBRANCH  13  14
ENDBRANCH  12  13
ENDBRANCH  10  12
ENDBRANCH   4  10
BRANCH   1  19
HETATM   19  N1  UNL     1      -7.157  12.967  19.328  1.00  0.00    -0.379 N 
HETATM   20  C1  UNL     1      -7.719  11.657  19.297  1.00  0.00     0.147 C 
ATOM     21  H1  UNL     1      -6.467  13.214  18.618  1.00  0.00     0.160 HD
ENDBRANCH   1  19
BRANCH   9  22
HETATM   22  S1  UNL     1      -5.973  15.583  18.779  1.00  0.00     0.262 S 
HETATM   23  O1  UNL     1      -6.466  16.745  17.989  1.00  0.00    -0.201 OA
HETATM   24  O2  UNL     1      -4.628  16.009  19.360  1.00  0.00    -0.201 OA
BRANCH  22  25
HETATM   25  N6  UNL     1      -5.616  14.212  17.772  1.00  0.00    -0.324 N 
ATOM     26  H62 UNL     1      -5.708  13.247  18.087  1.00  0.00     0.169 HD
ATOM     27  H61 UNL     1      -5.309  14.497  16.841  1.00  0.00     0.169 HD
ENDBRANCH  22  25
ENDBRANCH   9  22
TORSDOF 8
ENDMDL
MODEL 4
REMARK VINA RESULT: -5.405402287      2.257      3.191
REMARK  8 active torsions:
REMARK  status: ('A' for Active; 'I' for Inactive)
REMARK    1  A    between atoms: N1_2  and  C2_4 
REMARK    2  A    between atoms: C3_7  and  N3_8 
REMARK    3  A    between atoms: N3_8  and  C4_10 
REMARK    4  A    between atoms: C4_10  and  C5_11 
REMARK    5  A    between atoms: C5_11  and  C6_12 
REMARK    6  A    between atoms: C6_12  and  N4_13 
REMARK    7  A    between atoms: C9_21  and  S1_22 
REMARK    8  A    between atoms: S1_22  and  N6_23 
ROOT
HETATM    1  C2  UNL     1      -6.956  16.259  21.299  1.00  0.00     0.142 A 
HETATM    2  N2  UNL     1      -7.463  15.908  22.494  1.00  0.00    -0.175 N 
ATOM      3  H2  UNL     1      -7.502  16.615  23.229  1.00  0.00     0.186 HD
HETATM    4  C3  UNL     1      -7.922  14.672  22.769  1.00  0.00     0.679 A 
HETATM    5  N5  UNL     1      -7.881  13.728  21.813  1.00  0.00    -0.194 N 
ATOM      6  H5  UNL     1      -8.229  12.792  22.019  1.00  0.00     0.184 HD
HETATM    7  C7  UNL     1      -7.387  13.997  20.582  1.00  0.00     0.050 A 
HETATM    8  C8  UNL     1      -7.370  12.927  19.587  1.00  0.00     0.070 C 
HETATM    9  C9  UNL     1      -6.915  15.289  20.319  1.00  0.00     0.146 A 
ENDROOT
BRANCH   4  10
HETATM   10  N3  UNL     1      -8.404  14.379  23.942  1.00  0.00    -0.226 N 
ATOM     11  H3  UNL     1      -9.382  14.563  24.165  1.00  0.00     0.177 HD
BRANCH  10  12
HETATM   12  C4  UNL     1      -7.525  13.793  24.920  1.00  0.00     0.139 C 
BRANCH  12  13
HETATM   13  C5  UNL     1      -6.540  14.858  25.355  1.00  0.00     0.047 C 
BRANCH  13  14
HETATM   14  C6  UNL     1      -5.389  14.260  26.132  1.00  0.00     0.231 C 
BRANCH  14  15
HETATM   15  N4  UNL     1      -4.530  15.386  26.518  1.00  0.00    -0.079 N 
ATOM     16  H43 UNL     1      -4.119  15.876  25.722  1.00  0.00     0.274 HD
ATOM     17  H42 UNL     1      -5.046  16.179  26.898  1.00  0.00     0.274 HD
ATOM     18  H41 UNL     1      -3.837  15.005  27.163  1.00  0.00     0.274 HD
ENDBRANCH  14  15
ENDBRANCH  13  14
ENDBRANCH  12  13
ENDBRANCH  10  12
ENDBRANCH   4  10
BRANCH   1  19
HETATM   19  N1  UNL     1      -6.515  17.461  21.050  1.00  0.00    -0.379 N 
HETATM   20  C1  UNL     1      -7.368  18.591  20.884  1.00  0.00     0.147 C 
ATOM     21  H1  UNL     1      -5.507  17.600  20.970  1.00  0.00     0.160 HD
ENDBRANCH   1  19
BRANCH   9  22
HETATM   22  S1  UNL     1      -6.277  15.666  18.754  1.00  0.00     0.262 S 
HETATM   23  O1  UNL     1      -7.076  16.679  18.010  1.00  0.00    -0.201 OA
HETATM   24  O2  UNL     1      -4.898  16.285  18.957  1.00  0.00    -0.201 OA
BRANCH  22  25
HETATM   25  N6  UNL     1      -5.996  14.234  17.811  1.00  0.00    -0.324 N 
ATOM     26  H62 UNL     1      -6.327  13.309  18.085  1.00  0.00     0.169 HD
ATOM     27  H61 UNL     1      -5.465  14.437  16.964  1.00  0.00     0.169 HD
ENDBRANCH  22  25
ENDBRANCH   9  22
TORSDOF 8
ENDMDL
MODEL 5
REMARK VINA RESULT: -5.350005536      1.080      1.387
REMARK  8 active torsions:
REMARK  status: ('A' for Active; 'I' for Inactive)
REMARK    1  A    between atoms: N1_2  and  C2_4 
REMARK    2  A    between atoms: C3_7  and  N3_8 
REMARK    3  A    between atoms: N3_8  and  C4_10 
REMARK    4  A    between atoms: C4_10  and  C5_11 
REMARK    5  A    between atoms: C5_11  and  C6_12 
REMARK    6  A    between atoms: C6_12  and  N4_13 
REMARK    7  A    between atoms: C9_21  and  S1_22 
REMARK    8  A    between atoms: S1_22  and  N6_23 
ROOT
HETATM    1  C2  UNL     1      -7.240  16.062  21.046  1.00  0.00     0.142 A 
HETATM    2  N2  UNL     1      -8.028  15.641  22.051  1.00  0.00    -0.175 N 
ATOM      3  H2  UNL     1      -8.302  16.315  22.765  1.00  0.00     0.186 HD
HETATM    4  C3  UNL     1      -8.475  14.374  22.161  1.00  0.00     0.679 A 
HETATM    5  N5  UNL     1      -8.127  13.472  21.228  1.00  0.00    -0.194 N 
ATOM      6  H5  UNL     1      -8.465  12.513  21.309  1.00  0.00     0.184 HD
HETATM    7  C7  UNL     1      -7.336  13.812  20.183  1.00  0.00     0.050 A 
HETATM    8  C8  UNL     1      -6.993  12.784  19.204  1.00  0.00     0.070 C 
HETATM    9  C9  UNL     1      -6.884  15.133  20.090  1.00  0.00     0.146 A 
ENDROOT
BRANCH   4  10
HETATM   10  N3  UNL     1      -9.237  14.014  23.152  1.00  0.00    -0.226 N 
ATOM     11  H3  UNL     1      -8.836  13.612  23.999  1.00  0.00     0.177 HD
BRANCH  10  12
HETATM   12  C4  UNL     1     -10.660  14.196  23.028  1.00  0.00     0.139 C 
BRANCH  12  13
HETATM   13  C5  UNL     1     -11.154  13.252  21.950  1.00  0.00     0.047 C 
BRANCH  13  14
HETATM   14  C6  UNL     1     -11.391  13.982  20.647  1.00  0.00     0.231 C 
BRANCH  14  15
HETATM   15  N4  UNL     1     -10.852  13.114  19.592  1.00  0.00    -0.079 N 
ATOM     16  H43 UNL     1     -10.162  12.443  19.930  1.00  0.00     0.274 HD
ATOM     17  H42 UNL     1     -11.526  12.432  19.243  1.00  0.00     0.274 HD
ATOM     18  H41 UNL     1     -10.493  13.738  18.869  1.00  0.00     0.274 HD
ENDBRANCH  14  15
ENDBRANCH  13  14
ENDBRANCH  12  13
ENDBRANCH  10  12
ENDBRANCH   4  10
BRANCH   1  19
HETATM   19  N1  UNL     1      -6.815  17.292  20.956  1.00  0.00    -0.379 N 
HETATM   20  C1  UNL     1      -7.684  18.414  20.817  1.00  0.00     0.147 C 
ATOM     21  H1  UNL     1      -5.809  17.460  20.986  1.00  0.00     0.160 HD
ENDBRANCH   1  19
BRANCH   9  22
HETATM   22  S1  UNL     1      -5.870  15.601  18.766  1.00  0.00     0.262 S 
HETATM   23  O1  UNL     1      -6.414  16.735  17.967  1.00  0.00    -0.201 OA
HETATM   24  O2  UNL     1      -4.549  16.092  19.349  1.00  0.00    -0.201 OA
BRANCH  22  25
HETATM   25  N6  UNL     1      -5.448  14.243  17.767  1.00  0.00    -0.324 N 
ATOM     26  H62 UNL     1      -6.138  13.632  17.332  1.00  0.00     0.169 HD
ATOM     27  H61 UNL     1      -4.437  14.141  17.677  1.00  0.00     0.169 HD
ENDBRANCH  22  25
ENDBRANCH   9  22
TORSDOF 8
ENDMDL
