MODEL 1
REMARK VINA RESULT: -5.592789167      0.000      0.000
REMARK  4 active torsions:
REMARK  status: ('A' for Active; 'I' for Inactive)
REMARK    1  A    between atoms: C2_2  and  C3_3 
REMARK    2  A    between atoms: C3_3  and  N1_4 
REMARK    3  A    between atoms: N1_4  and  C4_7 
REMARK    4  A    between atoms: C4_7  and  C5_8 
ROOT
HETATM    1  C4  UNL     1      24.115  35.677  60.479  1.00  0.00     0.237 C 
ENDROOT
BRANCH   1   2
HETATM    2  N1  UNL     1      23.217  36.373  61.355  1.00  0.00    -0.072 N 
ATOM      3  H12 UNL     1      23.535  37.325  61.534  1.00  0.00     0.277 HD
ATOM      4  H11 UNL     1      23.268  36.007  62.305  1.00  0.00     0.277 HD
BRANCH   2   5
HETATM    5  C3  UNL     1      21.852  36.355  60.854  1.00  0.00     0.259 C 
BRANCH   5   6
HETATM    6  C2  UNL     1      21.481  37.737  60.484  1.00  0.00    -0.010 C 
HETATM    7  C1  UNL     1      21.601  38.823  61.187  1.00  0.00     0.008 C 
ENDBRANCH   5   6
ENDBRANCH   2   5
ENDBRANCH   1   2
BRANCH   1   8
HETATM    8  C5  UNL     1      25.368  36.480  60.269  1.00  0.00     0.016 C 
HETATM    9  C6  UNL     1      25.221  37.860  60.949  1.00  0.00     0.011 C 
HETATM   10  C7  UNL     1      25.503  38.732  59.771  1.00  0.00    -0.013 C 
HETATM   11  C8  UNL     1      24.643  38.093  58.685  1.00  0.00     0.010 C 
HETATM   12  C10 UNL     1      26.665  38.029  59.074  1.00  0.00     0.010 C 
HETATM   13  C9  UNL     1      25.613  36.920  58.879  1.00  0.00    -0.008 C 
ENDBRANCH   1   8
TORSDOF 4
ENDMDL
MODEL 2
REMARK VINA RESULT: -5.444821434      0.952      1.040
REMARK  4 active torsions:
REMARK  status: ('A' for Active; 'I' for Inactive)
REMARK    1  A    between atoms: C2_2  and  C3_3 
REMARK    2  A    between atoms: C3_3  and  N1_4 
REMARK    3  A    between atoms: N1_4  and  C4_7 
REMARK    4  A    between atoms: C4_7  and  C5_8 
ROOT
HETATM    1  C4  UNL     1      23.563  36.161  60.712  1.00  0.00     0.237 C 
ENDROOT
BRANCH   1   2
HETATM    2  N1  UNL     1      23.066  37.077  61.697  1.00  0.00    -0.072 N 
ATOM      3  H12 UNL     1      23.749  37.808  61.903  1.00  0.00     0.277 HD
ATOM      4  H11 UNL     1      23.018  36.641  62.618  1.00  0.00     0.277 HD
BRANCH   2   5
HETATM    5  C3  UNL     1      21.784  37.643  61.311  1.00  0.00     0.259 C 
BRANCH   5   6
HETATM    6  C2  UNL     1      22.041  38.837  60.479  1.00  0.00    -0.010 C 
HETATM    7  C1  UNL     1      22.773  39.873  60.755  1.00  0.00     0.008 C 
ENDBRANCH   5   6
ENDBRANCH   2   5
ENDBRANCH   1   2
BRANCH   1   8
HETATM    8  C5  UNL     1      25.062  36.237  60.635  1.00  0.00     0.016 C 
HETATM    9  C6  UNL     1      25.549  37.559  61.269  1.00  0.00     0.011 C 
HETATM   10  C7  UNL     1      26.329  38.098  60.118  1.00  0.00    -0.013 C 
HETATM   11  C8  UNL     1      25.371  37.882  58.950  1.00  0.00     0.010 C 
HETATM   12  C10 UNL     1      27.056  36.872  59.571  1.00  0.00     0.010 C 
HETATM   13  C9  UNL     1      25.619  36.402  59.275  1.00  0.00    -0.008 C 
ENDBRANCH   1   8
TORSDOF 4
ENDMDL
MODEL 3
REMARK VINA RESULT: -5.391450740      1.297      2.465
REMARK  4 active torsions:
REMARK  status: ('A' for Active; 'I' for Inactive)
REMARK    1  A    between atoms: C2_2  and  C3_3 
REMARK    2  A    between atoms: C3_3  and  N1_4 
REMARK    3  A    between atoms: N1_4  and  C4_7 
REMARK    4  A    between atoms: C4_7  and  C5_8 
ROOT
HETATM    1  C4  UNL     1      24.620  39.524  60.739  1.00  0.00     0.237 C 
ENDROOT
BRANCH   1   2
HETATM    2  N1  UNL     1      23.286  39.306  60.257  1.00  0.00    -0.072 N 
ATOM      3  H12 UNL     1      23.265  38.583  59.538  1.00  0.00     0.277 HD
ATOM      4  H11 UNL     1      22.959  40.095  59.701  1.00  0.00     0.277 HD
BRANCH   2   5
HETATM    5  C3  UNL     1      22.364  39.003  61.340  1.00  0.00     0.259 C 
BRANCH   5   6
HETATM    6  C2  UNL     1      21.610  37.787  60.974  1.00  0.00    -0.010 C 
HETATM    7  C1  UNL     1      21.964  36.544  61.107  1.00  0.00     0.008 C 
ENDBRANCH   5   6
ENDBRANCH   2   5
ENDBRANCH   1   2
BRANCH   1   8
HETATM    8  C5  UNL     1      25.608  38.752  59.911  1.00  0.00     0.016 C 
HETATM    9  C6  UNL     1      24.857  37.745  59.010  1.00  0.00     0.011 C 
HETATM   10  C7  UNL     1      25.547  36.492  59.432  1.00  0.00    -0.013 C 
HETATM   11  C8  UNL     1      25.541  36.619  60.953  1.00  0.00     0.010 C 
HETATM   12  C10 UNL     1      27.012  36.907  59.539  1.00  0.00     0.010 C 
HETATM   13  C9  UNL     1      26.465  37.810  60.663  1.00  0.00    -0.008 C 
ENDBRANCH   1   8
TORSDOF 4
ENDMDL
MODEL 4
REMARK VINA RESULT: -5.287763927      1.133      1.580
REMARK  4 active torsions:
REMARK  status: ('A' for Active; 'I' for Inactive)
REMARK    1  A    between atoms: C2_2  and  C3_3 
REMARK    2  A    between atoms: C3_3  and  N1_4 
REMARK    3  A    between atoms: N1_4  and  C4_7 
REMARK    4  A    between atoms: C4_7  and  C5_8 
ROOT
HETATM    1  C4  UNL     1      24.391  36.677  60.610  1.00  0.00     0.237 C 
ENDROOT
BRANCH   1   2
HETATM    2  N1  UNL     1      23.311  36.575  61.548  1.00  0.00    -0.072 N 
ATOM      3  H12 UNL     1      23.290  37.377  62.179  1.00  0.00     0.277 HD
ATOM      4  H11 UNL     1      23.482  35.839  62.232  1.00  0.00     0.277 HD
BRANCH   2   5
HETATM    5  C3  UNL     1      22.032  36.393  60.881  1.00  0.00     0.259 C 
BRANCH   5   6
HETATM    6  C2  UNL     1      21.570  37.713  60.404  1.00  0.00    -0.010 C 
HETATM    7  C1  UNL     1      21.200  38.743  61.104  1.00  0.00     0.008 C 
ENDBRANCH   5   6
ENDBRANCH   2   5
ENDBRANCH   1   2
BRANCH   1   8
HETATM    8  C5  UNL     1      25.425  37.649  61.105  1.00  0.00     0.016 C 
HETATM    9  C6  UNL     1      24.823  38.518  62.232  1.00  0.00     0.011 C 
HETATM   10  C7  UNL     1      25.088  39.868  61.654  1.00  0.00    -0.013 C 
HETATM   11  C8  UNL     1      24.621  39.697  60.212  1.00  0.00     0.010 C 
HETATM   12  C10 UNL     1      26.493  39.739  61.071  1.00  0.00     0.010 C 
HETATM   13  C9  UNL     1      25.799  38.716  60.151  1.00  0.00    -0.008 C 
ENDBRANCH   1   8
TORSDOF 4
ENDMDL
MODEL 5
REMARK VINA RESULT: -5.285440258      1.183      3.947
REMARK  4 active torsions:
REMARK  status: ('A' for Active; 'I' for Inactive)
REMARK    1  A    between atoms: C2_2  and  C3_3 
REMARK    2  A    between atoms: C3_3  and  N1_4 
REMARK    3  A    between atoms: N1_4  and  C4_7 
REMARK    4  A    between atoms: C4_7  and  C5_8 
ROOT
HETATM    1  C4  UNL     1      24.739  37.476  61.559  1.00  0.00     0.237 C 
ENDROOT
BRANCH   1   2
HETATM    2  N1  UNL     1      24.819  36.145  61.028  1.00  0.00    -0.072 N 
ATOM      3  H12 UNL     1      23.897  35.712  60.972  1.00  0.00     0.277 HD
ATOM      4  H11 UNL     1      25.254  35.507  61.693  1.00  0.00     0.277 HD
BRANCH   2   5
HETATM    5  C3  UNL     1      25.498  36.117  59.743  1.00  0.00     0.259 C 
BRANCH   5   6
HETATM    6  C2  UNL     1      26.358  37.314  59.652  1.00  0.00    -0.010 C 
HETATM    7  C1  UNL     1      26.568  38.084  58.627  1.00  0.00     0.008 C 
ENDBRANCH   5   6
ENDBRANCH   2   5
ENDBRANCH   1   2
BRANCH   1   8
HETATM    8  C5  UNL     1      23.307  37.847  61.828  1.00  0.00     0.016 C 
HETATM    9  C6  UNL     1      22.379  36.697  61.375  1.00  0.00     0.011 C 
HETATM   10  C7  UNL     1      21.495  37.462  60.448  1.00  0.00    -0.013 C 
HETATM   11  C8  UNL     1      22.503  38.267  59.634  1.00  0.00     0.010 C 
HETATM   12  C10 UNL     1      21.248  38.775  61.188  1.00  0.00     0.010 C 
HETATM   13  C9  UNL     1      22.768  38.938  60.989  1.00  0.00    -0.008 C 
ENDBRANCH   1   8
TORSDOF 4
ENDMDL
