MODEL 1
REMARK VINA RESULT: -5.813515576      0.000      0.000
REMARK  4 active torsions:
REMARK  status: ('A' for Active; 'I' for Inactive)
REMARK    1  A    between atoms: C2_2  and  C3_3 
REMARK    2  A    between atoms: C3_3  and  N1_4 
REMARK    3  A    between atoms: N1_4  and  C4_7 
REMARK    4  A    between atoms: C4_7  and  C5_8 
ROOT
HETATM    1  C4  UNL     1      24.576  36.035  60.547  1.00  0.00     0.238 C 
ENDROOT
BRANCH   1   2
HETATM    2  N1  UNL     1      23.192  35.860  60.205  1.00  0.00    -0.072 N 
ATOM      3  H12 UNL     1      22.950  34.872  60.129  1.00  0.00     0.277 HD
ATOM      4  H11 UNL     1      23.008  36.143  59.243  1.00  0.00     0.277 HD
BRANCH   2   5
HETATM    5  C3  UNL     1      22.310  36.551  61.140  1.00  0.00     0.259 C 
BRANCH   5   6
HETATM    6  C2  UNL     1      21.587  37.648  60.454  1.00  0.00    -0.010 C 
HETATM    7  C1  UNL     1      21.542  38.831  61.053  1.00  0.00     0.008 C 
ENDBRANCH   5   6
ENDBRANCH   2   5
ENDBRANCH   1   2
BRANCH   1   8
HETATM    8  C5  UNL     1      25.358  36.613  59.451  1.00  0.00     0.019 C 
HETATM    9  C6  UNL     1      25.028  37.973  58.912  1.00  0.00    -0.008 C 
HETATM   10  C7  UNL     1      25.167  38.908  60.079  1.00  0.00     0.005 C 
HETATM   11  C10 UNL     1      26.494  37.973  58.415  1.00  0.00     0.010 C 
HETATM   12  C8  UNL     1      26.398  38.255  60.742  1.00  0.00     0.005 C 
HETATM   13  C9  UNL     1      26.704  37.198  59.734  1.00  0.00    -0.008 C 
ENDBRANCH   1   8
TORSDOF 4
ENDMDL
MODEL 2
REMARK VINA RESULT: -5.587102794      0.827      1.330
REMARK  4 active torsions:
REMARK  status: ('A' for Active; 'I' for Inactive)
REMARK    1  A    between atoms: C2_2  and  C3_3 
REMARK    2  A    between atoms: C3_3  and  N1_4 
REMARK    3  A    between atoms: N1_4  and  C4_7 
REMARK    4  A    between atoms: C4_7  and  C5_8 
ROOT
HETATM    1  C4  UNL     1      24.094  37.135  61.334  1.00  0.00     0.238 C 
ENDROOT
BRANCH   1   2
HETATM    2  N1  UNL     1      23.158  36.057  61.169  1.00  0.00    -0.072 N 
ATOM      3  H12 UNL     1      23.122  35.466  61.999  1.00  0.00     0.277 HD
ATOM      4  H11 UNL     1      23.498  35.369  60.498  1.00  0.00     0.277 HD
BRANCH   2   5
HETATM    5  C3  UNL     1      21.831  36.543  60.806  1.00  0.00     0.259 C 
BRANCH   5   6
HETATM    6  C2  UNL     1      21.812  38.025  60.783  1.00  0.00    -0.010 C 
HETATM    7  C1  UNL     1      20.735  38.625  60.289  1.00  0.00     0.008 C 
ENDBRANCH   5   6
ENDBRANCH   2   5
ENDBRANCH   1   2
BRANCH   1   8
HETATM    8  C5  UNL     1      25.421  36.814  60.801  1.00  0.00     0.019 C 
HETATM    9  C6  UNL     1      25.602  36.489  59.348  1.00  0.00    -0.008 C 
HETATM   10  C7  UNL     1      25.123  37.704  58.606  1.00  0.00     0.005 C 
HETATM   11  C10 UNL     1      27.074  36.906  59.587  1.00  0.00     0.010 C 
HETATM   12  C8  UNL     1      25.664  38.781  59.570  1.00  0.00     0.005 C 
HETATM   13  C9  UNL     1      26.397  37.915  60.540  1.00  0.00    -0.008 C 
ENDBRANCH   1   8
TORSDOF 4
ENDMDL
MODEL 3
REMARK VINA RESULT: -5.410743985      1.062      1.811
REMARK  4 active torsions:
REMARK  status: ('A' for Active; 'I' for Inactive)
REMARK    1  A    between atoms: C2_2  and  C3_3 
REMARK    2  A    between atoms: C3_3  and  N1_4 
REMARK    3  A    between atoms: N1_4  and  C4_7 
REMARK    4  A    between atoms: C4_7  and  C5_8 
ROOT
HETATM    1  C4  UNL     1      24.003  38.386  59.128  1.00  0.00     0.238 C 
ENDROOT
BRANCH   1   2
HETATM    2  N1  UNL     1      22.816  37.578  59.091  1.00  0.00    -0.072 N 
ATOM      3  H12 UNL     1      23.009  36.620  59.383  1.00  0.00     0.277 HD
ATOM      4  H11 UNL     1      22.520  37.395  58.132  1.00  0.00     0.277 HD
BRANCH   2   5
HETATM    5  C3  UNL     1      21.736  38.165  59.878  1.00  0.00     0.259 C 
BRANCH   5   6
HETATM    6  C2  UNL     1      21.810  37.701  61.284  1.00  0.00    -0.010 C 
HETATM    7  C1  UNL     1      22.001  36.406  61.501  1.00  0.00     0.008 C 
ENDBRANCH   5   6
ENDBRANCH   2   5
ENDBRANCH   1   2
BRANCH   1   8
HETATM    8  C5  UNL     1      25.228  37.592  59.005  1.00  0.00     0.019 C 
HETATM    9  C6  UNL     1      26.565  38.198  59.316  1.00  0.00    -0.008 C 
HETATM   10  C7  UNL     1      26.479  38.638  60.749  1.00  0.00     0.005 C 
HETATM   11  C10 UNL     1      27.018  36.733  59.531  1.00  0.00     0.010 C 
HETATM   12  C8  UNL     1      25.652  37.456  61.296  1.00  0.00     0.005 C 
HETATM   13  C9  UNL     1      25.577  36.604  60.072  1.00  0.00    -0.008 C 
ENDBRANCH   1   8
TORSDOF 4
ENDMDL
MODEL 4
REMARK VINA RESULT: -5.368035925      1.545      2.234
REMARK  4 active torsions:
REMARK  status: ('A' for Active; 'I' for Inactive)
REMARK    1  A    between atoms: C2_2  and  C3_3 
REMARK    2  A    between atoms: C3_3  and  N1_4 
REMARK    3  A    between atoms: N1_4  and  C4_7 
REMARK    4  A    between atoms: C4_7  and  C5_8 
ROOT
HETATM    1  C4  UNL     1      25.374  38.607  61.559  1.00  0.00     0.238 C 
ENDROOT
BRANCH   1   2
HETATM    2  N1  UNL     1      24.113  38.765  62.230  1.00  0.00    -0.072 N 
ATOM      3  H12 UNL     1      24.231  38.783  63.243  1.00  0.00     0.277 HD
ATOM      4  H11 UNL     1      23.542  37.924  62.151  1.00  0.00     0.277 HD
BRANCH   2   5
HETATM    5  C3  UNL     1      23.392  39.943  61.759  1.00  0.00     0.259 C 
BRANCH   5   6
HETATM    6  C2  UNL     1      22.303  39.547  60.835  1.00  0.00    -0.010 C 
HETATM    7  C1  UNL     1      21.504  38.556  61.207  1.00  0.00     0.008 C 
ENDBRANCH   5   6
ENDBRANCH   2   5
ENDBRANCH   1   2
BRANCH   1   8
HETATM    8  C5  UNL     1      25.490  37.316  60.876  1.00  0.00     0.019 C 
HETATM    9  C6  UNL     1      24.625  36.999  59.692  1.00  0.00    -0.008 C 
HETATM   10  C7  UNL     1      24.942  38.056  58.672  1.00  0.00     0.005 C 
HETATM   11  C10 UNL     1      25.731  35.974  59.341  1.00  0.00     0.010 C 
HETATM   12  C8  UNL     1      26.460  38.165  58.930  1.00  0.00     0.005 C 
HETATM   13  C9  UNL     1      26.630  37.078  59.939  1.00  0.00    -0.008 C 
ENDBRANCH   1   8
TORSDOF 4
ENDMDL
MODEL 5
REMARK VINA RESULT: -5.352378141      1.279      2.076
REMARK  4 active torsions:
REMARK  status: ('A' for Active; 'I' for Inactive)
REMARK    1  A    between atoms: C2_2  and  C3_3 
REMARK    2  A    between atoms: C3_3  and  N1_4 
REMARK    3  A    between atoms: N1_4  and  C4_7 
REMARK    4  A    between atoms: C4_7  and  C5_8 
ROOT
HETATM    1  C4  UNL     1      24.876  37.850  61.655  1.00  0.00     0.238 C 
ENDROOT
BRANCH   1   2
HETATM    2  N1  UNL     1      23.495  37.821  62.048  1.00  0.00    -0.072 N 
ATOM      3  H12 UNL     1      23.395  37.603  63.039  1.00  0.00     0.277 HD
ATOM      4  H11 UNL     1      23.015  37.010  61.658  1.00  0.00     0.277 HD
BRANCH   2   5
HETATM    5  C3  UNL     1      22.807  39.062  61.705  1.00  0.00     0.259 C 
BRANCH   5   6
HETATM    6  C2  UNL     1      21.422  38.779  61.259  1.00  0.00    -0.010 C 
HETATM    7  C1  UNL     1      21.260  38.090  60.136  1.00  0.00     0.008 C 
ENDBRANCH   5   6
ENDBRANCH   2   5
ENDBRANCH   1   2
BRANCH   1   8
HETATM    8  C5  UNL     1      25.057  38.266  60.262  1.00  0.00     0.019 C 
HETATM    9  C6  UNL     1      26.423  38.294  59.644  1.00  0.00    -0.008 C 
HETATM   10  C7  UNL     1      26.934  36.884  59.742  1.00  0.00     0.005 C 
HETATM   11  C10 UNL     1      25.660  38.190  58.300  1.00  0.00     0.010 C 
HETATM   12  C8  UNL     1      25.609  36.147  59.453  1.00  0.00     0.005 C 
HETATM   13  C9  UNL     1      24.723  37.313  59.159  1.00  0.00    -0.008 C 
ENDBRANCH   1   8
TORSDOF 4
ENDMDL
