MODEL 1
REMARK VINA RESULT: -2.400784522      0.000      0.000
REMARK  1 active torsions:
REMARK  status: ('A' for Active; 'I' for Inactive)
REMARK    1  A    between atoms: C2_2  and  N1_4 
ROOT
HETATM    1  N1  UNL     1      53.140   4.207   3.570  1.00  0.00    -0.366 N 
ATOM      2  H1  UNL     1      52.572   3.995   2.750  1.00  0.00     0.162 HD
HETATM    3  C4  UNL     1      54.258   3.600   3.680  1.00  0.00     0.152 C 
HETATM    4  N2  UNL     1      55.258   3.673   4.682  1.00  0.00    -0.263 N 
ATOM      5  H2  UNL     1      55.473   4.516   5.213  1.00  0.00     0.180 HD
HETATM    6  S1  UNL     1      56.069   2.169   4.894  1.00  0.00     0.260 S 
HETATM    7  O1  UNL     1      57.544   2.435   4.877  1.00  0.00    -0.203 OA
HETATM    8  O2  UNL     1      55.709   1.560   6.186  1.00  0.00    -0.203 OA
HETATM    9  C5  UNL     1      55.539   1.153   3.567  1.00  0.00     0.217 A 
HETATM   10  S2  UNL     1      54.831   2.409   2.444  1.00  0.00    -0.056 SA
HETATM   11  C6  UNL     1      56.453   0.231   2.984  1.00  0.00     0.072 A 
HETATM   12 CL1  UNL     1      58.059   0.377   2.233  1.00  0.00    -0.084 Cl
HETATM   13  C7  UNL     1      55.697  -0.786   3.192  1.00  0.00     0.074 A 
HETATM   14 CL2  UNL     1      55.931  -2.511   2.812  1.00  0.00    -0.084 Cl
HETATM   15  C8  UNL     1      54.663   0.019   3.818  1.00  0.00     0.190 A 
HETATM   16 CL3  UNL     1      53.138   0.152   2.905  1.00  0.00    -0.092 Cl
HETATM   17 CL4  UNL     1      54.419  -0.502   5.501  1.00  0.00    -0.092 Cl
ENDROOT
BRANCH   1  18
HETATM   18  C2  UNL     1      52.618   5.159   4.500  1.00  0.00     0.075 C 
HETATM   19  C1  UNL     1      51.096   5.026   4.490  1.00  0.00     0.032 C 
HETATM   20  C3  UNL     1      52.967   6.564   4.029  1.00  0.00     0.032 C 
ENDBRANCH   1  18
TORSDOF 1
ENDMDL
MODEL 2
REMARK VINA RESULT: -1.468459273      3.398      5.064
REMARK  1 active torsions:
REMARK  status: ('A' for Active; 'I' for Inactive)
REMARK    1  A    between atoms: C2_2  and  N1_4 
ROOT
HETATM    1  N1  UNL     1      57.858   1.442   4.980  1.00  0.00    -0.366 N 
ATOM      2  H1  UNL     1      57.978   2.452   4.913  1.00  0.00     0.162 HD
HETATM    3  C4  UNL     1      56.949   0.910   4.257  1.00  0.00     0.152 C 
HETATM    4  N2  UNL     1      56.540  -0.440   4.125  1.00  0.00    -0.263 N 
ATOM      5  H2  UNL     1      57.169  -1.238   4.215  1.00  0.00     0.180 HD
HETATM    6  S1  UNL     1      54.857  -0.576   3.792  1.00  0.00     0.260 S 
HETATM    7  O1  UNL     1      54.691  -1.505   2.629  1.00  0.00    -0.203 OA
HETATM    8  O2  UNL     1      54.139  -1.131   4.953  1.00  0.00    -0.203 OA
HETATM    9  C5  UNL     1      54.308   1.054   3.453  1.00  0.00     0.217 A 
HETATM   10  S2  UNL     1      55.904   1.891   3.152  1.00  0.00    -0.056 SA
HETATM   11  C6  UNL     1      53.294   1.262   2.476  1.00  0.00     0.072 A 
HETATM   12 CL1  UNL     1      53.120   0.844   0.756  1.00  0.00    -0.084 Cl
HETATM   13  C7  UNL     1      52.514   1.879   3.288  1.00  0.00     0.074 A 
HETATM   14 CL2  UNL     1      50.900   2.592   3.041  1.00  0.00    -0.084 Cl
HETATM   15  C8  UNL     1      53.444   1.747   4.396  1.00  0.00     0.190 A 
HETATM   16 CL3  UNL     1      54.177   3.268   4.965  1.00  0.00    -0.092 Cl
HETATM   17 CL4  UNL     1      52.700   0.804   5.708  1.00  0.00    -0.092 Cl
ENDROOT
BRANCH   1  18
HETATM   18  C2  UNL     1      58.722   0.738   5.876  1.00  0.00     0.075 C 
HETATM   19  C1  UNL     1      57.953   0.517   7.178  1.00  0.00     0.032 C 
HETATM   20  C3  UNL     1      59.932   1.605   6.191  1.00  0.00     0.032 C 
ENDBRANCH   1  18
TORSDOF 1
ENDMDL
MODEL 3
REMARK VINA RESULT: -0.831525743      2.156      2.810
REMARK  1 active torsions:
REMARK  status: ('A' for Active; 'I' for Inactive)
REMARK    1  A    between atoms: C2_2  and  N1_4 
ROOT
HETATM    1  N1  UNL     1      55.475   3.594   3.663  1.00  0.00    -0.366 N 
ATOM      2  H1  UNL     1      56.072   3.922   2.905  1.00  0.00     0.162 HD
HETATM    3  C4  UNL     1      55.942   2.678   4.421  1.00  0.00     0.152 C 
HETATM    4  N2  UNL     1      55.374   2.021   5.540  1.00  0.00    -0.263 N 
ATOM      5  H2  UNL     1      54.724   2.461   6.192  1.00  0.00     0.180 HD
HETATM    6  S1  UNL     1      55.909   0.390   5.672  1.00  0.00     0.260 S 
HETATM    7  O1  UNL     1      56.354   0.164   7.085  1.00  0.00    -0.203 OA
HETATM    8  O2  UNL     1      54.814  -0.546   5.361  1.00  0.00    -0.203 OA
HETATM    9  C5  UNL     1      57.209   0.222   4.507  1.00  0.00     0.217 A 
HETATM   10  S2  UNL     1      57.594   1.978   4.178  1.00  0.00    -0.056 SA
HETATM   11  C6  UNL     1      58.316  -0.618   4.811  1.00  0.00     0.072 A 
HETATM   12 CL1  UNL     1      59.496  -0.689   6.141  1.00  0.00    -0.084 Cl
HETATM   13  C7  UNL     1      58.172  -1.339   3.759  1.00  0.00     0.074 A 
HETATM   14 CL2  UNL     1      59.101  -2.739   3.166  1.00  0.00    -0.084 Cl
HETATM   15  C8  UNL     1      57.019  -0.579   3.308  1.00  0.00     0.190 A 
HETATM   16 CL3  UNL     1      57.267   0.383   1.829  1.00  0.00    -0.092 Cl
HETATM   17 CL4  UNL     1      55.590  -1.634   3.217  1.00  0.00    -0.092 Cl
ENDROOT
BRANCH   1  18
HETATM   18  C2  UNL     1      54.184   4.196   3.789  1.00  0.00     0.075 C 
HETATM   19  C1  UNL     1      53.164   3.230   3.189  1.00  0.00     0.032 C 
HETATM   20  C3  UNL     1      54.148   5.480   2.972  1.00  0.00     0.032 C 
ENDBRANCH   1  18
TORSDOF 1
ENDMDL
MODEL 4
REMARK VINA RESULT: -0.802204528      2.838      5.652
REMARK  1 active torsions:
REMARK  status: ('A' for Active; 'I' for Inactive)
REMARK    1  A    between atoms: C2_2  and  N1_4 
ROOT
HETATM    1  N1  UNL     1      56.061  -0.928   3.453  1.00  0.00    -0.366 N 
ATOM      2  H1  UNL     1      55.375  -1.472   2.929  1.00  0.00     0.162 HD
HETATM    3  C4  UNL     1      55.616  -0.026   4.240  1.00  0.00     0.152 C 
HETATM    4  N2  UNL     1      56.296   0.881   5.090  1.00  0.00    -0.263 N 
ATOM      5  H2  UNL     1      57.179   0.673   5.557  1.00  0.00     0.180 HD
HETATM    6  S1  UNL     1      55.457   2.376   5.243  1.00  0.00     0.260 S 
HETATM    7  O1  UNL     1      55.366   2.706   6.702  1.00  0.00    -0.203 OA
HETATM    8  O2  UNL     1      56.184   3.456   4.554  1.00  0.00    -0.203 OA
HETATM    9  C5  UNL     1      53.891   2.119   4.498  1.00  0.00     0.217 A 
HETATM   10  S2  UNL     1      53.845   0.293   4.433  1.00  0.00    -0.056 SA
HETATM   11  C6  UNL     1      52.743   2.758   5.044  1.00  0.00     0.072 A 
HETATM   12 CL1  UNL     1      51.977   2.781   6.649  1.00  0.00    -0.084 Cl
HETATM   13  C7  UNL     1      52.432   3.339   3.941  1.00  0.00     0.074 A 
HETATM   14 CL2  UNL     1      51.083   4.430   3.537  1.00  0.00    -0.084 Cl
HETATM   15  C8  UNL     1      53.565   2.765   3.236  1.00  0.00     0.190 A 
HETATM   16 CL3  UNL     1      53.158   1.576   1.973  1.00  0.00    -0.092 Cl
HETATM   17 CL4  UNL     1      54.637   4.058   2.650  1.00  0.00    -0.092 Cl
ENDROOT
BRANCH   1  18
HETATM   18  C2  UNL     1      57.441  -1.241   3.245  1.00  0.00     0.075 C 
HETATM   19  C1  UNL     1      57.867  -0.589   1.930  1.00  0.00     0.032 C 
HETATM   20  C3  UNL     1      57.596  -2.747   3.091  1.00  0.00     0.032 C 
ENDBRANCH   1  18
TORSDOF 1
ENDMDL
MODEL 5
REMARK VINA RESULT: -0.777915862      3.045      5.214
REMARK  1 active torsions:
REMARK  status: ('A' for Active; 'I' for Inactive)
REMARK    1  A    between atoms: C2_2  and  N1_4 
ROOT
HETATM    1  N1  UNL     1      57.315   1.445   5.985  1.00  0.00    -0.366 N 
ATOM      2  H1  UNL     1      56.992   0.691   6.590  1.00  0.00     0.162 HD
HETATM    3  C4  UNL     1      56.447   2.297   5.596  1.00  0.00     0.152 C 
HETATM    4  N2  UNL     1      56.574   3.439   4.766  1.00  0.00    -0.263 N 
ATOM      5  H2  UNL     1      57.411   4.020   4.721  1.00  0.00     0.180 HD
HETATM    6  S1  UNL     1      55.150   3.729   3.844  1.00  0.00     0.260 S 
HETATM    7  O1  UNL     1      54.788   5.175   3.998  1.00  0.00    -0.203 OA
HETATM    8  O2  UNL     1      55.385   3.445   2.417  1.00  0.00    -0.203 OA
HETATM    9  C5  UNL     1      53.935   2.644   4.493  1.00  0.00     0.217 A 
HETATM   10  S2  UNL     1      54.708   2.189   6.086  1.00  0.00    -0.056 SA
HETATM   11  C6  UNL     1      52.578   3.067   4.550  1.00  0.00     0.072 A 
HETATM   12 CL1  UNL     1      51.737   4.451   5.285  1.00  0.00    -0.084 Cl
HETATM   13  C7  UNL     1      52.146   2.071   3.864  1.00  0.00     0.074 A 
HETATM   14 CL2  UNL     1      50.497   1.640   3.344  1.00  0.00    -0.084 Cl
HETATM   15  C8  UNL     1      53.476   1.507   3.711  1.00  0.00     0.190 A 
HETATM   16 CL3  UNL     1      53.756  -0.034   4.562  1.00  0.00    -0.092 Cl
HETATM   17 CL4  UNL     1      53.914   1.436   1.989  1.00  0.00    -0.092 Cl
ENDROOT
BRANCH   1  18
HETATM   18  C2  UNL     1      58.704   1.461   5.643  1.00  0.00     0.075 C 
HETATM   19  C1  UNL     1      59.359   0.260   6.324  1.00  0.00     0.032 C 
HETATM   20  C3  UNL     1      59.344   2.722   6.202  1.00  0.00     0.032 C 
ENDBRANCH   1  18
TORSDOF 1
ENDMDL
