MODEL 1
REMARK VINA RESULT: -8.517829323      0.000      0.000
REMARK  8 active torsions:
REMARK  status: ('A' for Active; 'I' for Inactive)
REMARK    1  A    between atoms: C2_3  and  N2_4 
REMARK    2  A    between atoms: N2_4  and  C3_6 
REMARK    3  A    between atoms: C4_9  and  N4_10 
REMARK    4  A    between atoms: N4_10  and  N5_12 
REMARK    5  A    between atoms: C5_17  and  C6_18 
REMARK    6  A    between atoms: C6_18  and  S1_19 
REMARK    7  A    between atoms: S1_19  and  C7_20 
REMARK    8  A    between atoms: C9_24  and  N8_25 
ROOT
HETATM    1  N1  UNL     1       5.266  -4.608   6.298  1.00  0.00    -0.196 NA
HETATM    2  C1  UNL     1       5.743  -3.552   6.305  1.00  0.00     0.078 C 
HETATM    3  C2  UNL     1       6.361  -2.209   6.335  1.00  0.00     0.245 C 
ENDROOT
BRANCH   3   4
HETATM    4  N2  UNL     1       7.267  -2.084   5.250  1.00  0.00    -0.360 N 
ATOM      5  H2  UNL     1       7.021  -2.626   4.422  1.00  0.00     0.162 HD
BRANCH   4   6
HETATM    6  C3  UNL     1       8.327  -1.411   5.145  1.00  0.00     0.161 C 
HETATM    7  N3  UNL     1       9.385  -1.663   5.929  1.00  0.00    -0.172 N 
HETATM    8  C4  UNL     1      10.515  -0.971   6.136  1.00  0.00     0.699 C 
ATOM      9  H3  UNL     1       9.319  -2.531   6.460  1.00  0.00     0.186 HD
HETATM   10  N6  UNL     1      10.830   0.239   5.584  1.00  0.00    -0.178 N 
HETATM   11  C5  UNL     1      10.366   0.786   4.443  1.00  0.00     0.108 C 
ATOM     12  H6  UNL     1      11.505   0.802   6.103  1.00  0.00     0.185 HD
HETATM   13  N10 UNL     1       9.272   0.396   3.751  1.00  0.00    -0.328 N 
HETATM   14  C11 UNL     1       8.270  -0.425   4.168  1.00  0.00     0.145 C 
ATOM     15  H10 UNL     1       9.187   0.761   2.802  1.00  0.00     0.169 HD
HETATM   16  N11 UNL     1       7.141  -0.240   3.558  1.00  0.00    -0.382 N 
ATOM     17 2H11 UNL     1       6.390  -0.856   3.871  1.00  0.00     0.157 HD
ATOM     18 1H11 UNL     1       7.099   0.484   2.841  1.00  0.00     0.157 HD
BRANCH   8  19
HETATM   19  N4  UNL     1      11.426  -1.436   6.913  1.00  0.00    -0.138 N 
ATOM     20  H4  UNL     1      11.317  -2.317   7.414  1.00  0.00     0.205 HD
BRANCH  19  21
HETATM   21  N5  UNL     1      12.590  -0.645   7.026  1.00  0.00    -0.331 N 
ATOM     22  H52 UNL     1      13.130  -0.376   6.204  1.00  0.00     0.177 HD
ATOM     23  H51 UNL     1      12.842  -0.368   7.975  1.00  0.00     0.177 HD
ENDBRANCH  19  21
ENDBRANCH   8  19
BRANCH  11  24
HETATM   24  C6  UNL     1      11.099   1.927   3.863  1.00  0.00     0.156 C 
BRANCH  24  25
HETATM   25  S1  UNL     1      10.798   2.074   2.070  1.00  0.00    -0.117 SA
BRANCH  25  26
HETATM   26  C7  UNL     1       9.647   3.399   1.743  1.00  0.00     0.073 A 
HETATM   27  C8  UNL     1       8.650   3.702   2.636  1.00  0.00     0.129 A 
HETATM   28  N7  UNL     1       7.781   4.698   2.395  1.00  0.00    -0.201 N 
HETATM   29  C9  UNL     1       7.902   5.406   1.244  1.00  0.00     0.677 A 
ATOM     30  H7  UNL     1       7.044   4.917   3.064  1.00  0.00     0.183 HD
HETATM   31  N9  UNL     1       8.862   5.134   0.353  1.00  0.00    -0.165 N 
HETATM   32  C10 UNL     1       9.755   4.140   0.564  1.00  0.00     0.221 A 
ATOM     33  H9  UNL     1       8.923   5.687  -0.502  1.00  0.00     0.186 HD
HETATM   34  F1  UNL     1      10.714   3.886  -0.346  1.00  0.00    -0.184 F 
BRANCH  29  35
HETATM   35  N8  UNL     1       7.054   6.358   1.032  1.00  0.00    -0.234 N 
ATOM     36  H82 UNL     1       6.710   6.930   1.803  1.00  0.00     0.174 HD
ATOM     37  H81 UNL     1       6.745   6.513   0.072  1.00  0.00     0.174 HD
ENDBRANCH  29  35
ENDBRANCH  25  26
ENDBRANCH  24  25
ENDBRANCH  11  24
ENDBRANCH   4   6
ENDBRANCH   3   4
TORSDOF 8
ENDMDL
MODEL 2
REMARK VINA RESULT: -8.479741257      1.269      1.763
REMARK  8 active torsions:
REMARK  status: ('A' for Active; 'I' for Inactive)
REMARK    1  A    between atoms: C2_3  and  N2_4 
REMARK    2  A    between atoms: N2_4  and  C3_6 
REMARK    3  A    between atoms: C4_9  and  N4_10 
REMARK    4  A    between atoms: N4_10  and  N5_12 
REMARK    5  A    between atoms: C5_17  and  C6_18 
REMARK    6  A    between atoms: C6_18  and  S1_19 
REMARK    7  A    between atoms: S1_19  and  C7_20 
REMARK    8  A    between atoms: C9_24  and  N8_25 
ROOT
HETATM    1  N1  UNL     1       5.264  -4.663   6.310  1.00  0.00    -0.196 NA
HETATM    2  C1  UNL     1       5.765  -3.619   6.335  1.00  0.00     0.078 C 
HETATM    3  C2  UNL     1       6.416  -2.292   6.386  1.00  0.00     0.245 C 
ENDROOT
BRANCH   3   4
HETATM    4  N2  UNL     1       7.212  -2.114   5.225  1.00  0.00    -0.360 N 
ATOM      5  H2  UNL     1       6.869  -2.593   4.393  1.00  0.00     0.162 HD
BRANCH   4   6
HETATM    6  C3  UNL     1       8.275  -1.459   5.057  1.00  0.00     0.161 C 
HETATM    7  N3  UNL     1       9.344  -1.666   5.839  1.00  0.00    -0.172 N 
HETATM    8  C4  UNL     1      10.483  -0.971   5.980  1.00  0.00     0.699 C 
ATOM      9  H3  UNL     1       9.280  -2.494   6.430  1.00  0.00     0.186 HD
HETATM   10  N6  UNL     1      10.799   0.196   5.341  1.00  0.00    -0.178 N 
HETATM   11  C5  UNL     1      10.320   0.666   4.172  1.00  0.00     0.108 C 
ATOM     12  H6  UNL     1      11.486   0.787   5.809  1.00  0.00     0.185 HD
HETATM   13  N10 UNL     1       9.211   0.239   3.526  1.00  0.00    -0.328 N 
HETATM   14  C11 UNL     1       8.210  -0.543   4.015  1.00  0.00     0.145 C 
ATOM     15  H10 UNL     1       9.114   0.538   2.556  1.00  0.00     0.169 HD
HETATM   16  N11 UNL     1       7.073  -0.391   3.412  1.00  0.00    -0.382 N 
ATOM     17 2H11 UNL     1       6.322  -0.977   3.778  1.00  0.00     0.157 HD
ATOM     18 1H11 UNL     1       7.025   0.282   2.647  1.00  0.00     0.157 HD
BRANCH   8  19
HETATM   19  N4  UNL     1      11.403  -1.389   6.773  1.00  0.00    -0.138 N 
ATOM     20  H4  UNL     1      11.310  -2.251   7.309  1.00  0.00     0.205 HD
BRANCH  19  21
HETATM   21  N5  UNL     1      12.553  -0.574   6.852  1.00  0.00    -0.331 N 
ATOM     22  H52 UNL     1      12.696   0.067   7.633  1.00  0.00     0.177 HD
ATOM     23  H51 UNL     1      13.216  -0.673   6.083  1.00  0.00     0.177 HD
ENDBRANCH  19  21
ENDBRANCH   8  19
BRANCH  11  24
HETATM   24  C6  UNL     1      11.052   1.757   3.503  1.00  0.00     0.156 C 
BRANCH  24  25
HETATM   25  S1  UNL     1      10.030   3.261   3.361  1.00  0.00    -0.117 SA
BRANCH  25  26
HETATM   26  C7  UNL     1       9.892   3.757   1.652  1.00  0.00     0.073 A 
HETATM   27  C8  UNL     1      10.581   3.092   0.668  1.00  0.00     0.129 A 
HETATM   28  N7  UNL     1      10.482   3.461  -0.619  1.00  0.00    -0.201 N 
HETATM   29  C9  UNL     1       9.684   4.512  -0.938  1.00  0.00     0.677 A 
ATOM     30  H7  UNL     1      10.996   2.961  -1.344  1.00  0.00     0.183 HD
HETATM   31  N9  UNL     1       9.001   5.181  -0.002  1.00  0.00    -0.165 N 
HETATM   32  C10 UNL     1       9.076   4.836   1.303  1.00  0.00     0.221 A 
ATOM     33  H9  UNL     1       8.411   5.966  -0.279  1.00  0.00     0.186 HD
HETATM   34  F1  UNL     1       8.378   5.522   2.227  1.00  0.00    -0.184 F 
BRANCH  29  35
HETATM   35  N8  UNL     1       9.605   4.850  -2.183  1.00  0.00    -0.234 N 
ATOM     36  H82 UNL     1       9.758   4.163  -2.921  1.00  0.00     0.174 HD
ATOM     37  H81 UNL     1       9.385   5.823  -2.397  1.00  0.00     0.174 HD
ENDBRANCH  29  35
ENDBRANCH  25  26
ENDBRANCH  24  25
ENDBRANCH  11  24
ENDBRANCH   4   6
ENDBRANCH   3   4
TORSDOF 8
ENDMDL
MODEL 3
REMARK VINA RESULT: -8.130076329      1.249      1.635
REMARK  8 active torsions:
REMARK  status: ('A' for Active; 'I' for Inactive)
REMARK    1  A    between atoms: C2_3  and  N2_4 
REMARK    2  A    between atoms: N2_4  and  C3_6 
REMARK    3  A    between atoms: C4_9  and  N4_10 
REMARK    4  A    between atoms: N4_10  and  N5_12 
REMARK    5  A    between atoms: C5_17  and  C6_18 
REMARK    6  A    between atoms: C6_18  and  S1_19 
REMARK    7  A    between atoms: S1_19  and  C7_20 
REMARK    8  A    between atoms: C9_24  and  N8_25 
ROOT
HETATM    1  N1  UNL     1       4.571  -1.046   6.320  1.00  0.00    -0.196 NA
HETATM    2  C1  UNL     1       5.477  -1.767   6.365  1.00  0.00     0.078 C 
HETATM    3  C2  UNL     1       6.619  -2.704   6.419  1.00  0.00     0.245 C 
ENDROOT
BRANCH   3   4
HETATM    4  N2  UNL     1       7.487  -2.454   5.324  1.00  0.00    -0.360 N 
ATOM      5  H2  UNL     1       7.269  -2.979   4.478  1.00  0.00     0.162 HD
BRANCH   4   6
HETATM    6  C3  UNL     1       8.482  -1.688   5.230  1.00  0.00     0.161 C 
HETATM    7  N3  UNL     1       9.540  -1.829   6.042  1.00  0.00    -0.172 N 
HETATM    8  C4  UNL     1      10.597  -1.032   6.261  1.00  0.00     0.699 C 
ATOM      9  H3  UNL     1       9.542  -2.691   6.587  1.00  0.00     0.186 HD
HETATM   10  N6  UNL     1      10.813   0.193   5.694  1.00  0.00    -0.178 N 
HETATM   11  C5  UNL     1      10.327   0.676   4.533  1.00  0.00     0.108 C 
ATOM     12  H6  UNL     1      11.421   0.824   6.218  1.00  0.00     0.185 HD
HETATM   13  N10 UNL     1       9.290   0.176   3.825  1.00  0.00    -0.328 N 
HETATM   14  C11 UNL     1       8.358  -0.728   4.234  1.00  0.00     0.145 C 
ATOM     15  H10 UNL     1       9.194   0.516   2.868  1.00  0.00     0.169 HD
HETATM   16  N11 UNL     1       7.232  -0.657   3.597  1.00  0.00    -0.382 N 
ATOM     17 2H11 UNL     1       6.533  -1.334   3.904  1.00  0.00     0.157 HD
ATOM     18 1H11 UNL     1       7.140   0.048   2.866  1.00  0.00     0.157 HD
BRANCH   8  19
HETATM   19  N4  UNL     1      11.529  -1.399   7.066  1.00  0.00    -0.138 N 
ATOM     20  H4  UNL     1      11.427  -2.200   7.688  1.00  0.00     0.205 HD
BRANCH  19  21
HETATM   21  N5  UNL     1      12.703  -0.616   7.032  1.00  0.00    -0.331 N 
ATOM     22  H52 UNL     1      12.709   0.314   6.615  1.00  0.00     0.177 HD
ATOM     23  H51 UNL     1      13.529  -1.046   7.449  1.00  0.00     0.177 HD
ENDBRANCH  19  21
ENDBRANCH   8  19
BRANCH  11  24
HETATM   24  C6  UNL     1      10.966   1.870   3.949  1.00  0.00     0.156 C 
BRANCH  24  25
HETATM   25  S1  UNL     1      10.635   1.998   2.160  1.00  0.00    -0.117 SA
BRANCH  25  26
HETATM   26  C7  UNL     1       9.554   3.378   1.828  1.00  0.00     0.073 A 
HETATM   27  C8  UNL     1       9.783   4.211   0.760  1.00  0.00     0.129 A 
HETATM   28  N7  UNL     1       8.973   5.251   0.505  1.00  0.00    -0.201 N 
HETATM   29  C9  UNL     1       7.915   5.472   1.327  1.00  0.00     0.677 A 
ATOM     30  H7  UNL     1       9.149   5.864  -0.290  1.00  0.00     0.183 HD
HETATM   31  N9  UNL     1       7.666   4.680   2.375  1.00  0.00    -0.165 N 
HETATM   32  C10 UNL     1       8.459   3.622   2.660  1.00  0.00     0.221 A 
ATOM     33  H9  UNL     1       6.861   4.877   2.971  1.00  0.00     0.186 HD
HETATM   34  F1  UNL     1       8.188   2.838   3.720  1.00  0.00    -0.184 F 
BRANCH  29  35
HETATM   35  N8  UNL     1       7.150   6.480   1.063  1.00  0.00    -0.234 N 
ATOM     36  H82 UNL     1       7.509   7.434   1.108  1.00  0.00     0.174 HD
ATOM     37  H81 UNL     1       6.181   6.286   0.809  1.00  0.00     0.174 HD
ENDBRANCH  29  35
ENDBRANCH  25  26
ENDBRANCH  24  25
ENDBRANCH  11  24
ENDBRANCH   4   6
ENDBRANCH   3   4
TORSDOF 8
ENDMDL
MODEL 4
REMARK VINA RESULT: -8.043439496      1.518      1.884
REMARK  8 active torsions:
REMARK  status: ('A' for Active; 'I' for Inactive)
REMARK    1  A    between atoms: C2_3  and  N2_4 
REMARK    2  A    between atoms: N2_4  and  C3_6 
REMARK    3  A    between atoms: C4_9  and  N4_10 
REMARK    4  A    between atoms: N4_10  and  N5_12 
REMARK    5  A    between atoms: C5_17  and  C6_18 
REMARK    6  A    between atoms: C6_18  and  S1_19 
REMARK    7  A    between atoms: S1_19  and  C7_20 
REMARK    8  A    between atoms: C9_24  and  N8_25 
ROOT
HETATM    1  N1  UNL     1       4.697  -1.083   6.250  1.00  0.00    -0.196 NA
HETATM    2  C1  UNL     1       5.596  -1.804   6.366  1.00  0.00     0.078 C 
HETATM    3  C2  UNL     1       6.730  -2.742   6.512  1.00  0.00     0.245 C 
ENDROOT
BRANCH   3   4
HETATM    4  N2  UNL     1       7.654  -2.532   5.456  1.00  0.00    -0.360 N 
ATOM      5  H2  UNL     1       7.618  -3.228   4.712  1.00  0.00     0.162 HD
BRANCH   4   6
HETATM    6  C3  UNL     1       8.511  -1.624   5.291  1.00  0.00     0.161 C 
HETATM    7  N3  UNL     1       9.443  -1.376   6.223  1.00  0.00    -0.172 N 
HETATM    8  C4  UNL     1      10.308  -0.360   6.359  1.00  0.00     0.699 C 
ATOM      9  H3  UNL     1       9.505  -2.083   6.955  1.00  0.00     0.186 HD
HETATM   10  N6  UNL     1      10.401   0.732   5.542  1.00  0.00    -0.178 N 
HETATM   11  C5  UNL     1      10.023   0.849   4.254  1.00  0.00     0.108 C 
ATOM     12  H6  UNL     1      10.809   1.568   5.963  1.00  0.00     0.185 HD
HETATM   13  N10 UNL     1       9.203   0.014   3.577  1.00  0.00    -0.328 N 
HETATM   14  C11 UNL     1       8.382  -0.944   4.086  1.00  0.00     0.145 C 
ATOM     15  H10 UNL     1       9.198   0.115   2.562  1.00  0.00     0.169 HD
HETATM   16  N11 UNL     1       7.369  -1.235   3.332  1.00  0.00    -0.382 N 
ATOM     17 2H11 UNL     1       6.754  -1.954   3.714  1.00  0.00     0.157 HD
ATOM     18 1H11 UNL     1       7.274  -0.736   2.448  1.00  0.00     0.157 HD
BRANCH   8  19
HETATM   19  N4  UNL     1      11.154  -0.354   7.325  1.00  0.00    -0.138 N 
ATOM     20  H4  UNL     1      10.941   0.058   8.233  1.00  0.00     0.205 HD
BRANCH  19  21
HETATM   21  N5  UNL     1      12.399  -0.958   7.045  1.00  0.00    -0.331 N 
ATOM     22  H52 UNL     1      13.222  -0.397   6.826  1.00  0.00     0.177 HD
ATOM     23  H51 UNL     1      12.411  -1.977   7.078  1.00  0.00     0.177 HD
ENDBRANCH  19  21
ENDBRANCH   8  19
BRANCH  11  24
HETATM   24  C6  UNL     1      10.537   1.991   3.473  1.00  0.00     0.156 C 
BRANCH  24  25
HETATM   25  S1  UNL     1       9.228   3.217   3.142  1.00  0.00    -0.117 SA
BRANCH  25  26
HETATM   26  C7  UNL     1       9.298   3.753   1.441  1.00  0.00     0.073 A 
HETATM   27  C8  UNL     1       9.342   5.088   1.125  1.00  0.00     0.129 A 
HETATM   28  N7  UNL     1       9.395   5.497  -0.154  1.00  0.00    -0.201 N 
HETATM   29  C9  UNL     1       9.402   4.564  -1.139  1.00  0.00     0.677 A 
ATOM     30  H7  UNL     1       9.429   6.491  -0.380  1.00  0.00     0.183 HD
HETATM   31  N9  UNL     1       9.359   3.256  -0.863  1.00  0.00    -0.165 N 
HETATM   32  C10 UNL     1       9.307   2.808   0.412  1.00  0.00     0.221 A 
ATOM     33  H9  UNL     1       9.366   2.582  -1.629  1.00  0.00     0.186 HD
HETATM   34  F1  UNL     1       9.266   1.486   0.666  1.00  0.00    -0.184 F 
BRANCH  29  35
HETATM   35  N8  UNL     1       9.452   4.981  -2.361  1.00  0.00    -0.234 N 
ATOM     36  H82 UNL     1       9.808   4.379  -3.103  1.00  0.00     0.174 HD
ATOM     37  H81 UNL     1       9.123   5.928  -2.552  1.00  0.00     0.174 HD
ENDBRANCH  29  35
ENDBRANCH  25  26
ENDBRANCH  24  25
ENDBRANCH  11  24
ENDBRANCH   4   6
ENDBRANCH   3   4
TORSDOF 8
ENDMDL
MODEL 5
REMARK VINA RESULT: -8.000768152      2.514      6.459
REMARK  8 active torsions:
REMARK  status: ('A' for Active; 'I' for Inactive)
REMARK    1  A    between atoms: C2_3  and  N2_4 
REMARK    2  A    between atoms: N2_4  and  C3_6 
REMARK    3  A    between atoms: C4_9  and  N4_10 
REMARK    4  A    between atoms: N4_10  and  N5_12 
REMARK    5  A    between atoms: C5_17  and  C6_18 
REMARK    6  A    between atoms: C6_18  and  S1_19 
REMARK    7  A    between atoms: S1_19  and  C7_20 
REMARK    8  A    between atoms: C9_24  and  N8_25 
ROOT
HETATM    1  N1  UNL     1       7.088   6.142   2.157  1.00  0.00    -0.196 NA
HETATM    2  C1  UNL     1       7.984   5.580   1.685  1.00  0.00     0.078 C 
HETATM    3  C2  UNL     1       9.143   4.875   1.095  1.00  0.00     0.245 C 
ENDROOT
BRANCH   3   4
HETATM    4  N2  UNL     1       9.093   3.504   1.456  1.00  0.00    -0.360 N 
ATOM      5  H2  UNL     1       8.427   2.945   0.924  1.00  0.00     0.162 HD
BRANCH   4   6
HETATM    6  C3  UNL     1       9.740   2.865   2.329  1.00  0.00     0.161 C 
HETATM    7  N3  UNL     1      11.068   2.708   2.227  1.00  0.00    -0.172 N 
HETATM    8  C4  UNL     1      11.918   1.921   2.902  1.00  0.00     0.699 C 
ATOM      9  H3  UNL     1      11.507   3.287   1.511  1.00  0.00     0.186 HD
HETATM   10  N6  UNL     1      11.582   1.023   3.877  1.00  0.00    -0.178 N 
HETATM   11  C5  UNL     1      10.496   1.019   4.674  1.00  0.00     0.108 C 
ATOM     12  H6  UNL     1      12.240   0.256   4.019  1.00  0.00     0.185 HD
HETATM   13  N10 UNL     1       9.359   1.727   4.487  1.00  0.00    -0.328 N 
HETATM   14  C11 UNL     1       8.951   2.369   3.359  1.00  0.00     0.145 C 
ATOM     15  H10 UNL     1       8.730   1.786   5.289  1.00  0.00     0.169 HD
HETATM   16  N11 UNL     1       7.667   2.521   3.267  1.00  0.00    -0.382 N 
ATOM     17 2H11 UNL     1       7.362   3.003   2.421  1.00  0.00     0.157 HD
ATOM     18 1H11 UNL     1       7.088   2.156   4.023  1.00  0.00     0.157 HD
BRANCH   8  19
HETATM   19  N4  UNL     1      13.178   1.970   2.659  1.00  0.00    -0.138 N 
ATOM     20  H4  UNL     1      13.615   2.773   2.206  1.00  0.00     0.205 HD
BRANCH  19  21
HETATM   21  N5  UNL     1      13.919   0.837   3.060  1.00  0.00    -0.331 N 
ATOM     22  H52 UNL     1      14.053   0.043   2.435  1.00  0.00     0.177 HD
ATOM     23  H51 UNL     1      14.300   0.875   4.006  1.00  0.00     0.177 HD
ENDBRANCH  19  21
ENDBRANCH   8  19
BRANCH  11  24
HETATM   24  C6  UNL     1      10.514   0.169   5.879  1.00  0.00     0.156 C 
BRANCH  24  25
HETATM   25  S1  UNL     1      10.149  -1.571   5.476  1.00  0.00    -0.117 SA
BRANCH  25  26
HETATM   26  C7  UNL     1       8.470  -1.733   4.892  1.00  0.00     0.073 A 
HETATM   27  C8  UNL     1       7.466  -2.136   5.737  1.00  0.00     0.129 A 
HETATM   28  N7  UNL     1       6.201  -2.260   5.303  1.00  0.00    -0.201 N 
HETATM   29  C9  UNL     1       5.926  -1.980   4.004  1.00  0.00     0.677 A 
ATOM     30  H7  UNL     1       5.461  -2.559   5.937  1.00  0.00     0.183 HD
HETATM   31  N9  UNL     1       6.882  -1.585   3.155  1.00  0.00    -0.165 N 
HETATM   32  C10 UNL     1       8.166  -1.448   3.558  1.00  0.00     0.221 A 
ATOM     33  H9  UNL     1       6.638  -1.383   2.185  1.00  0.00     0.186 HD
HETATM   34  F1  UNL     1       9.111  -1.049   2.687  1.00  0.00    -0.184 F 
BRANCH  29  35
HETATM   35  N8  UNL     1       4.702  -2.107   3.608  1.00  0.00    -0.234 N 
ATOM     36  H82 UNL     1       3.976  -2.422   4.252  1.00  0.00     0.174 HD
ATOM     37  H81 UNL     1       4.492  -1.882   2.635  1.00  0.00     0.174 HD
ENDBRANCH  29  35
ENDBRANCH  25  26
ENDBRANCH  24  25
ENDBRANCH  11  24
ENDBRANCH   4   6
ENDBRANCH   3   4
TORSDOF 8
ENDMDL
