MODEL 1
REMARK VINA RESULT: -6.094997406      0.000      0.000
REMARK  4 active torsions:
REMARK  status: ('A' for Active; 'I' for Inactive)
REMARK    1  A    between atoms: O1_2  and  C2_3 
REMARK    2  A    between atoms: C3_5  and  C4_6 
REMARK    3  A    between atoms: C4_6  and  O3_7 
REMARK    4  A    between atoms: C6_11  and  O5_13 
ROOT
HETATM    1  C2  UNL     1      -2.618  51.914  12.213  1.00  0.00     0.327 C 
HETATM    2  O2  UNL     1      -3.421  52.006  13.380  1.00  0.00    -0.315 OA
HETATM    3  C3  UNL     1      -4.244  53.127  13.475  1.00  0.00     0.095 C 
HETATM    4  C5  UNL     1      -3.969  54.183  12.737  1.00  0.00     0.173 C 
HETATM    5  O4  UNL     1      -2.876  54.223  11.858  1.00  0.00    -0.319 OA
HETATM    6  C6  UNL     1      -1.874  53.223  12.093  1.00  0.00     0.213 C 
HETATM    7  C7  UNL     1      -0.925  53.237  10.939  1.00  0.00     0.085 C 
ENDROOT
BRANCH   3   8
HETATM    8  C4  UNL     1      -5.404  53.097  14.402  1.00  0.00     0.230 C 
BRANCH   8   9
HETATM    9  O3  UNL     1      -5.071  53.562  15.670  1.00  0.00    -0.394 OA
ATOM     10  H3  UNL     1      -5.125  54.509  15.727  1.00  0.00     0.209 HD
ENDBRANCH   8   9
ENDBRANCH   3   8
BRANCH   1  11
HETATM   11  O1  UNL     1      -1.800  50.828  12.351  1.00  0.00    -0.360 OA
HETATM   12  C1  UNL     1      -2.514  49.802  12.964  1.00  0.00     0.205 C 
ENDBRANCH   1  11
BRANCH   6  13
HETATM   13  O5  UNL     1      -1.220  53.578  13.261  1.00  0.00    -0.362 OA
ATOM     14  H5  UNL     1      -1.782  54.043  13.870  1.00  0.00     0.213 HD
ENDBRANCH   6  13
TORSDOF 4
ENDMDL
MODEL 2
REMARK VINA RESULT: -5.599182402      1.744      3.154
REMARK  4 active torsions:
REMARK  status: ('A' for Active; 'I' for Inactive)
REMARK    1  A    between atoms: O1_2  and  C2_3 
REMARK    2  A    between atoms: C3_5  and  C4_6 
REMARK    3  A    between atoms: C4_6  and  O3_7 
REMARK    4  A    between atoms: C6_11  and  O5_13 
ROOT
HETATM    1  C2  UNL     1      -3.618  53.396  12.557  1.00  0.00     0.327 C 
HETATM    2  O2  UNL     1      -4.629  54.389  12.493  1.00  0.00    -0.315 OA
HETATM    3  C3  UNL     1      -5.450  54.507  13.613  1.00  0.00     0.095 C 
HETATM    4  C5  UNL     1      -5.522  53.500  14.459  1.00  0.00     0.173 C 
HETATM    5  O4  UNL     1      -4.801  52.310  14.275  1.00  0.00    -0.319 OA
HETATM    6  C6  UNL     1      -4.301  52.104  12.945  1.00  0.00     0.213 C 
HETATM    7  C7  UNL     1      -3.359  50.946  12.976  1.00  0.00     0.085 C 
ENDROOT
BRANCH   3   8
HETATM    8  C4  UNL     1      -6.218  55.762  13.819  1.00  0.00     0.230 C 
BRANCH   8   9
HETATM    9  O3  UNL     1      -6.301  56.108  15.163  1.00  0.00    -0.394 OA
ATOM     10  H3  UNL     1      -5.656  56.762  15.403  1.00  0.00     0.209 HD
ENDBRANCH   8   9
ENDBRANCH   3   8
BRANCH   1  11
HETATM   11  O1  UNL     1      -3.000  53.345  11.339  1.00  0.00    -0.360 OA
HETATM   12  C1  UNL     1      -1.622  53.376  11.534  1.00  0.00     0.205 C 
ENDBRANCH   1  11
BRANCH   6  13
HETATM   13  O5  UNL     1      -5.396  51.816  12.147  1.00  0.00    -0.362 OA
ATOM     14  H5  UNL     1      -5.390  50.924  11.822  1.00  0.00     0.213 HD
ENDBRANCH   6  13
TORSDOF 4
ENDMDL
MODEL 3
REMARK VINA RESULT: -5.501907619      2.019      3.291
REMARK  4 active torsions:
REMARK  status: ('A' for Active; 'I' for Inactive)
REMARK    1  A    between atoms: O1_2  and  C2_3 
REMARK    2  A    between atoms: C3_5  and  C4_6 
REMARK    3  A    between atoms: C4_6  and  O3_7 
REMARK    4  A    between atoms: C6_11  and  O5_13 
ROOT
HETATM    1  C2  UNL     1      -3.905  53.510  12.656  1.00  0.00     0.327 C 
HETATM    2  O2  UNL     1      -4.663  54.707  12.736  1.00  0.00    -0.315 OA
HETATM    3  C3  UNL     1      -5.889  54.617  13.393  1.00  0.00     0.095 C 
HETATM    4  C5  UNL     1      -6.446  53.433  13.543  1.00  0.00     0.173 C 
HETATM    5  O4  UNL     1      -5.850  52.255  13.066  1.00  0.00    -0.319 OA
HETATM    6  C6  UNL     1      -4.821  52.452  12.085  1.00  0.00     0.213 C 
HETATM    7  C7  UNL     1      -4.125  51.147  11.872  1.00  0.00     0.085 C 
ENDROOT
BRANCH   3   8
HETATM    8  C4  UNL     1      -6.530  55.856  13.902  1.00  0.00     0.230 C 
BRANCH   8   9
HETATM    9  O3  UNL     1      -6.237  56.083  15.243  1.00  0.00    -0.394 OA
ATOM     10  H3  UNL     1      -5.430  56.570  15.353  1.00  0.00     0.209 HD
ENDBRANCH   8   9
ENDBRANCH   3   8
BRANCH   1  11
HETATM   11  O1  UNL     1      -2.806  53.760  11.883  1.00  0.00    -0.360 OA
HETATM   12  C1  UNL     1      -1.663  53.473  12.622  1.00  0.00     0.205 C 
ENDBRANCH   1  11
BRANCH   6  13
HETATM   13  O5  UNL     1      -5.451  52.860  10.920  1.00  0.00    -0.362 OA
ATOM     14  H5  UNL     1      -5.108  52.429  10.147  1.00  0.00     0.213 HD
ENDBRANCH   6  13
TORSDOF 4
ENDMDL
MODEL 4
REMARK VINA RESULT: -5.240111627      1.866      4.010
REMARK  4 active torsions:
REMARK  status: ('A' for Active; 'I' for Inactive)
REMARK    1  A    between atoms: O1_2  and  C2_3 
REMARK    2  A    between atoms: C3_5  and  C4_6 
REMARK    3  A    between atoms: C4_6  and  O3_7 
REMARK    4  A    between atoms: C6_11  and  O5_13 
ROOT
HETATM    1  C2  UNL     1      -4.139  52.449  11.991  1.00  0.00     0.327 C 
HETATM    2  O2  UNL     1      -3.185  52.694  10.969  1.00  0.00    -0.315 OA
HETATM    3  C3  UNL     1      -1.900  53.025  11.393  1.00  0.00     0.095 C 
HETATM    4  C5  UNL     1      -1.728  53.468  12.622  1.00  0.00     0.173 C 
HETATM    5  O4  UNL     1      -2.793  53.619  13.523  1.00  0.00    -0.319 OA
HETATM    6  C6  UNL     1      -4.096  53.639  12.921  1.00  0.00     0.213 C 
HETATM    7  C7  UNL     1      -5.113  53.550  14.012  1.00  0.00     0.085 C 
ENDROOT
BRANCH   3   8
HETATM    8  C4  UNL     1      -0.764  52.869  10.449  1.00  0.00     0.230 C 
BRANCH   8   9
HETATM    9  O3  UNL     1      -0.097  54.070  10.232  1.00  0.00    -0.394 OA
ATOM     10  H3  UNL     1       0.372  54.073   9.405  1.00  0.00     0.209 HD
ENDBRANCH   8   9
ENDBRANCH   3   8
BRANCH   1  11
HETATM   11  O1  UNL     1      -5.355  52.262  11.395  1.00  0.00    -0.360 OA
HETATM   12  C1  UNL     1      -5.715  50.923  11.521  1.00  0.00     0.205 C 
ENDBRANCH   1  11
BRANCH   6  13
HETATM   13  O5  UNL     1      -4.209  54.847  12.252  1.00  0.00    -0.362 OA
ATOM     14  H5  UNL     1      -4.287  55.588  12.841  1.00  0.00     0.213 HD
ENDBRANCH   6  13
TORSDOF 4
ENDMDL
MODEL 5
REMARK VINA RESULT: -5.130036223      3.706      5.316
REMARK  4 active torsions:
REMARK  status: ('A' for Active; 'I' for Inactive)
REMARK    1  A    between atoms: O1_2  and  C2_3 
REMARK    2  A    between atoms: C3_5  and  C4_6 
REMARK    3  A    between atoms: C4_6  and  O3_7 
REMARK    4  A    between atoms: C6_11  and  O5_13 
ROOT
HETATM    1  C2  UNL     1      -8.188  54.187  12.385  1.00  0.00     0.327 C 
HETATM    2  O2  UNL     1      -7.066  53.388  12.726  1.00  0.00    -0.315 OA
HETATM    3  C3  UNL     1      -6.153  53.954  13.614  1.00  0.00     0.095 C 
HETATM    4  C5  UNL     1      -6.145  55.261  13.772  1.00  0.00     0.173 C 
HETATM    5  O4  UNL     1      -7.024  56.108  13.079  1.00  0.00    -0.319 OA
HETATM    6  C6  UNL     1      -7.647  55.522  11.926  1.00  0.00     0.213 C 
HETATM    7  C7  UNL     1      -8.724  56.446  11.460  1.00  0.00     0.085 C 
ENDROOT
BRANCH   3   8
HETATM    8  C4  UNL     1      -5.217  53.068  14.353  1.00  0.00     0.230 C 
BRANCH   8   9
HETATM    9  O3  UNL     1      -4.950  53.542  15.633  1.00  0.00    -0.394 OA
ATOM     10  H3  UNL     1      -4.829  52.836  16.256  1.00  0.00     0.209 HD
ENDBRANCH   8   9
ENDBRANCH   3   8
BRANCH   1  11
HETATM   11  O1  UNL     1      -8.900  53.525  11.424  1.00  0.00    -0.360 OA
HETATM   12  C1  UNL     1      -8.810  52.157  11.663  1.00  0.00     0.205 C 
ENDBRANCH   1  11
BRANCH   6  13
HETATM   13  O5  UNL     1      -6.663  55.398  10.959  1.00  0.00    -0.362 OA
ATOM     14  H5  UNL     1      -5.790  55.337  11.329  1.00  0.00     0.213 HD
ENDBRANCH   6  13
TORSDOF 4
ENDMDL
