MODEL 1
REMARK VINA RESULT: -5.061281350      0.000      0.000
REMARK  3 active torsions:
REMARK  status: ('A' for Active; 'I' for Inactive)
REMARK    1  A    between atoms: C3_4  and  O2_5 
REMARK    2  A    between atoms: C5_9  and  C6_10 
REMARK    3  A    between atoms: C6_10  and  C7_11 
ROOT
HETATM    1  C1  UNL     1      -4.771  50.748  11.963  1.00  0.00     0.042 C 
HETATM    2  C2  UNL     1      -4.822  52.277  12.111  1.00  0.00     0.149 C 
HETATM    3  O1  UNL     1      -5.586  52.540  13.212  1.00  0.00    -0.352 OA
HETATM    4  C3  UNL     1      -5.392  53.737  13.818  1.00  0.00     0.280 C 
HETATM    5  C4  UNL     1      -4.519  54.707  13.130  1.00  0.00     0.228 C 
HETATM    6  O3  UNL     1      -3.524  54.204  12.357  1.00  0.00    -0.379 OA
HETATM    7  C5  UNL     1      -3.450  52.839  12.271  1.00  0.00     0.151 C 
ENDROOT
BRANCH   7   8
HETATM    8  C6  UNL     1      -2.525  52.478  11.132  1.00  0.00     0.045 C 
BRANCH   8   9
HETATM    9  C7  UNL     1      -1.258  53.302  11.243  1.00  0.00     0.088 C 
HETATM   10  S1  UNL     1      -0.311  53.344   9.736  1.00  0.00    -0.098 SA
ENDBRANCH   8   9
ENDBRANCH   7   8
BRANCH   4  11
HETATM   11  O2  UNL     1      -4.959  53.485  15.140  1.00  0.00    -0.369 OA
ATOM     12  H2  UNL     1      -4.105  53.071  15.090  1.00  0.00     0.212 HD
ENDBRANCH   4  11
TORSDOF 3
ENDMDL
MODEL 2
REMARK VINA RESULT: -4.748039635      2.733      3.774
REMARK  3 active torsions:
REMARK  status: ('A' for Active; 'I' for Inactive)
REMARK    1  A    between atoms: C3_4  and  O2_5 
REMARK    2  A    between atoms: C5_9  and  C6_10 
REMARK    3  A    between atoms: C6_10  and  C7_11 
ROOT
HETATM    1  C1  UNL     1      -5.206  53.068  14.387  1.00  0.00     0.042 C 
HETATM    2  C2  UNL     1      -4.294  53.256  13.166  1.00  0.00     0.149 C 
HETATM    3  O1  UNL     1      -3.210  53.969  13.591  1.00  0.00    -0.352 OA
HETATM    4  C3  UNL     1      -2.076  53.852  12.857  1.00  0.00     0.280 C 
HETATM    5  C4  UNL     1      -2.171  53.122  11.579  1.00  0.00     0.228 C 
HETATM    6  O3  UNL     1      -3.099  52.135  11.500  1.00  0.00    -0.379 OA
HETATM    7  C5  UNL     1      -3.875  51.936  12.611  1.00  0.00     0.151 C 
ENDROOT
BRANCH   7   8
HETATM    8  C6  UNL     1      -5.043  51.056  12.231  1.00  0.00     0.045 C 
BRANCH   8   9
HETATM    9  C7  UNL     1      -5.781  51.687  11.068  1.00  0.00     0.088 C 
HETATM   10  S1  UNL     1      -7.511  51.955  11.392  1.00  0.00    -0.098 SA
ENDBRANCH   8   9
ENDBRANCH   7   8
BRANCH   4  11
HETATM   11  O2  UNL     1      -1.074  53.314  13.697  1.00  0.00    -0.369 OA
ATOM     12  H2  UNL     1      -0.315  53.884  13.645  1.00  0.00     0.212 HD
ENDBRANCH   4  11
TORSDOF 3
ENDMDL
MODEL 3
REMARK VINA RESULT: -4.746129067      2.613      3.243
REMARK  3 active torsions:
REMARK  status: ('A' for Active; 'I' for Inactive)
REMARK    1  A    between atoms: C3_4  and  O2_5 
REMARK    2  A    between atoms: C5_9  and  C6_10 
REMARK    3  A    between atoms: C6_10  and  C7_11 
ROOT
HETATM    1  C1  UNL     1      -7.089  52.382  11.780  1.00  0.00     0.042 C 
HETATM    2  C2  UNL     1      -6.496  53.689  12.327  1.00  0.00     0.149 C 
HETATM    3  O1  UNL     1      -7.470  54.640  12.216  1.00  0.00    -0.352 OA
HETATM    4  C3  UNL     1      -7.373  55.712  13.040  1.00  0.00     0.280 C 
HETATM    5  C4  UNL     1      -6.140  55.841  13.838  1.00  0.00     0.228 C 
HETATM    6  O3  UNL     1      -5.511  54.692  14.194  1.00  0.00    -0.379 OA
HETATM    7  C5  UNL     1      -6.075  53.525  13.749  1.00  0.00     0.151 C 
ENDROOT
BRANCH   7   8
HETATM    8  C6  UNL     1      -5.080  52.404  13.946  1.00  0.00     0.045 C 
BRANCH   8   9
HETATM    9  C7  UNL     1      -3.823  52.713  13.159  1.00  0.00     0.088 C 
HETATM   10  S1  UNL     1      -3.042  51.264  12.481  1.00  0.00    -0.098 SA
ENDBRANCH   8   9
ENDBRANCH   7   8
BRANCH   4  11
HETATM   11  O2  UNL     1      -8.530  55.735  13.853  1.00  0.00    -0.369 OA
ATOM     12  H2  UNL     1      -8.485  54.991  14.442  1.00  0.00     0.212 HD
ENDBRANCH   4  11
TORSDOF 3
ENDMDL
MODEL 4
REMARK VINA RESULT: -4.732246029      1.901      3.063
REMARK  3 active torsions:
REMARK  status: ('A' for Active; 'I' for Inactive)
REMARK    1  A    between atoms: C3_4  and  O2_5 
REMARK    2  A    between atoms: C5_9  and  C6_10 
REMARK    3  A    between atoms: C6_10  and  C7_11 
ROOT
HETATM    1  C1  UNL     1      -1.438  53.235  11.438  1.00  0.00     0.042 C 
HETATM    2  C2  UNL     1      -2.466  53.346  12.574  1.00  0.00     0.149 C 
HETATM    3  O1  UNL     1      -3.194  54.477  12.336  1.00  0.00    -0.352 OA
HETATM    4  C3  UNL     1      -4.428  54.537  12.894  1.00  0.00     0.280 C 
HETATM    5  C4  UNL     1      -4.790  53.471  13.847  1.00  0.00     0.228 C 
HETATM    6  O3  UNL     1      -4.225  52.252  13.654  1.00  0.00    -0.379 OA
HETATM    7  C5  UNL     1      -3.349  52.145  12.607  1.00  0.00     0.151 C 
ENDROOT
BRANCH   7   8
HETATM    8  C6  UNL     1      -2.583  50.850  12.751  1.00  0.00     0.045 C 
BRANCH   8   9
HETATM    9  C7  UNL     1      -3.254  49.782  11.912  1.00  0.00     0.088 C 
HETATM   10  S1  UNL     1      -4.031  50.423  10.444  1.00  0.00    -0.098 SA
ENDBRANCH   8   9
ENDBRANCH   7   8
BRANCH   4  11
HETATM   11  O2  UNL     1      -5.369  54.648  11.845  1.00  0.00    -0.369 OA
ATOM     12  H2  UNL     1      -5.009  55.241  11.196  1.00  0.00     0.212 HD
ENDBRANCH   4  11
TORSDOF 3
ENDMDL
MODEL 5
REMARK VINA RESULT: -4.682349569      3.669      4.283
REMARK  3 active torsions:
REMARK  status: ('A' for Active; 'I' for Inactive)
REMARK    1  A    between atoms: C3_4  and  O2_5 
REMARK    2  A    between atoms: C5_9  and  C6_10 
REMARK    3  A    between atoms: C6_10  and  C7_11 
ROOT
HETATM    1  C1  UNL     1      -4.843  52.409  13.835  1.00  0.00     0.042 C 
HETATM    2  C2  UNL     1      -5.968  53.444  13.676  1.00  0.00     0.149 C 
HETATM    3  O1  UNL     1      -5.618  54.524  14.435  1.00  0.00    -0.352 OA
HETATM    4  C3  UNL     1      -6.173  55.714  14.097  1.00  0.00     0.280 C 
HETATM    5  C4  UNL     1      -7.234  55.696  13.073  1.00  0.00     0.228 C 
HETATM    6  O3  UNL     1      -7.166  54.722  12.130  1.00  0.00    -0.379 OA
HETATM    7  C5  UNL     1      -6.131  53.833  12.245  1.00  0.00     0.151 C 
ENDROOT
BRANCH   7   8
HETATM    8  C6  UNL     1      -6.404  52.655  11.339  1.00  0.00     0.045 C 
BRANCH   8   9
HETATM    9  C7  UNL     1      -7.778  52.816  10.719  1.00  0.00     0.088 C 
HETATM   10  S1  UNL     1      -8.975  51.657  11.348  1.00  0.00    -0.098 SA
ENDBRANCH   8   9
ENDBRANCH   7   8
BRANCH   4  11
HETATM   11  O2  UNL     1      -5.124  56.596  13.754  1.00  0.00    -0.369 OA
ATOM     12  H2  UNL     1      -4.303  56.147  13.919  1.00  0.00     0.212 HD
ENDBRANCH   4  11
TORSDOF 3
ENDMDL
