MODEL 1
REMARK VINA RESULT: -5.628813036      0.000      0.000
REMARK  3 active torsions:
REMARK  status: ('A' for Active; 'I' for Inactive)
REMARK    1  A    between atoms: C2_2  and  C3_3 
REMARK    2  A    between atoms: C3_3  and  C4_4 
REMARK    3  A    between atoms: C6_9  and  N3_10 
ROOT
HETATM    1  C3  UNL     1      -7.370  54.675  11.510  1.00  0.00     0.171 C 
HETATM    2  N1  UNL     1      -7.694  55.754  12.376  1.00  0.00    -0.300 N 
ATOM      3  H1  UNL     1      -8.118  56.608  12.013  1.00  0.00     0.179 HD
HETATM    4  N2  UNL     1      -7.425  55.620  13.702  1.00  0.00    -0.086 NA
HETATM    5  C6  UNL     1      -6.030  55.378  13.906  1.00  0.00     0.433 C 
HETATM    6  N4  UNL     1      -5.507  54.558  12.830  1.00  0.00    -0.140 N 
HETATM    7  C7  UNL     1      -4.121  54.357  12.803  1.00  0.00     0.209 C 
HETATM    8  N5  UNL     1      -2.965  54.194  12.798  1.00  0.00    -0.170 NA
HETATM    9  O1  UNL     1      -6.249  53.996  11.885  1.00  0.00    -0.231 OA
ENDROOT
BRANCH   5  10
HETATM   10  N3  UNL     1      -5.259  56.616  13.913  1.00  0.00    -0.040 N 
ATOM     11  H33 UNL     1      -4.735  56.731  13.045  1.00  0.00     0.278 HD
ATOM     12  H32 UNL     1      -5.867  57.431  13.842  1.00  0.00     0.278 HD
ATOM     13  H31 UNL     1      -4.647  56.678  14.727  1.00  0.00     0.278 HD
ENDBRANCH   5  10
BRANCH   1  14
HETATM   14  C2  UNL     1      -8.585  53.747  11.408  1.00  0.00     0.060 C 
HETATM   15  C1  UNL     1      -8.264  52.337  11.778  1.00  0.00     0.010 C 
ENDBRANCH   1  14
BRANCH   1  16
HETATM   16  C4  UNL     1      -7.230  55.276  10.101  1.00  0.00     0.060 C 
HETATM   17  C5  UNL     1      -8.398  56.147   9.760  1.00  0.00     0.010 C 
ENDBRANCH   1  16
TORSDOF 3
ENDMDL
MODEL 2
REMARK VINA RESULT: -5.460507938      3.266      5.608
REMARK  3 active torsions:
REMARK  status: ('A' for Active; 'I' for Inactive)
REMARK    1  A    between atoms: C2_2  and  C3_3 
REMARK    2  A    between atoms: C3_3  and  C4_4 
REMARK    3  A    between atoms: C6_9  and  N3_10 
ROOT
HETATM    1  C3  UNL     1      -2.072  52.655  11.876  1.00  0.00     0.171 C 
HETATM    2  N1  UNL     1      -1.991  53.335  13.121  1.00  0.00    -0.300 N 
ATOM      3  H1  UNL     1      -1.303  53.062  13.823  1.00  0.00     0.179 HD
HETATM    4  N2  UNL     1      -2.855  54.359  13.353  1.00  0.00    -0.086 NA
HETATM    5  C6  UNL     1      -4.208  53.902  13.260  1.00  0.00     0.433 C 
HETATM    6  N4  UNL     1      -4.319  52.895  12.222  1.00  0.00    -0.140 N 
HETATM    7  C7  UNL     1      -5.550  52.238  12.107  1.00  0.00     0.209 C 
HETATM    8  N5  UNL     1      -6.585  51.704  12.020  1.00  0.00    -0.170 NA
HETATM    9  O1  UNL     1      -3.342  52.564  11.388  1.00  0.00    -0.231 OA
ENDROOT
BRANCH   5  10
HETATM   10  N3  UNL     1      -4.660  53.287  14.502  1.00  0.00    -0.040 N 
ATOM     11  H33 UNL     1      -5.087  52.376  14.331  1.00  0.00     0.278 HD
ATOM     12  H32 UNL     1      -3.872  52.989  15.077  1.00  0.00     0.278 HD
ATOM     13  H31 UNL     1      -5.289  53.899  15.022  1.00  0.00     0.278 HD
ENDBRANCH   5  10
BRANCH   1  14
HETATM   14  C2  UNL     1      -1.133  53.344  10.880  1.00  0.00     0.060 C 
HETATM   15  C1  UNL     1      -0.275  52.376  10.135  1.00  0.00     0.010 C 
ENDBRANCH   1  14
BRANCH   1  16
HETATM   16  C4  UNL     1      -1.443  51.268  12.097  1.00  0.00     0.060 C 
HETATM   17  C5  UNL     1      -2.387  50.348  12.806  1.00  0.00     0.010 C 
ENDBRANCH   1  16
TORSDOF 3
ENDMDL
MODEL 3
REMARK VINA RESULT: -5.412445401      2.866      4.271
REMARK  3 active torsions:
REMARK  status: ('A' for Active; 'I' for Inactive)
REMARK    1  A    between atoms: C2_2  and  C3_3 
REMARK    2  A    between atoms: C3_3  and  C4_4 
REMARK    3  A    between atoms: C6_9  and  N3_10 
ROOT
HETATM    1  C3  UNL     1      -5.109  53.042  13.036  1.00  0.00     0.171 C 
HETATM    2  N1  UNL     1      -4.578  54.013  12.144  1.00  0.00    -0.300 N 
ATOM      3  H1  UNL     1      -5.158  54.424  11.413  1.00  0.00     0.179 HD
HETATM    4  N2  UNL     1      -3.277  54.378  12.291  1.00  0.00    -0.086 NA
HETATM    5  C6  UNL     1      -2.420  53.240  12.163  1.00  0.00     0.433 C 
HETATM    6  N4  UNL     1      -3.060  52.072  12.739  1.00  0.00    -0.140 N 
HETATM    7  C7  UNL     1      -2.414  50.843  12.559  1.00  0.00     0.209 C 
HETATM    8  N5  UNL     1      -1.860  49.826  12.405  1.00  0.00    -0.170 NA
HETATM    9  O1  UNL     1      -4.202  52.097  13.414  1.00  0.00    -0.231 OA
ENDROOT
BRANCH   5  10
HETATM   10  N3  UNL     1      -2.137  52.927  10.767  1.00  0.00    -0.040 N 
ATOM     11  H33 UNL     1      -1.651  52.034  10.678  1.00  0.00     0.278 HD
ATOM     12  H32 UNL     1      -2.990  52.695  10.259  1.00  0.00     0.278 HD
ATOM     13  H31 UNL     1      -1.622  53.677  10.307  1.00  0.00     0.278 HD
ENDBRANCH   5  10
BRANCH   1  14
HETATM   14  C2  UNL     1      -5.708  53.766  14.247  1.00  0.00     0.060 C 
HETATM   15  C1  UNL     1      -6.249  55.113  13.901  1.00  0.00     0.010 C 
ENDBRANCH   1  14
BRANCH   1  16
HETATM   16  C4  UNL     1      -6.322  52.417  12.326  1.00  0.00     0.060 C 
HETATM   17  C5  UNL     1      -5.970  51.108  11.692  1.00  0.00     0.010 C 
ENDBRANCH   1  16
TORSDOF 3
ENDMDL
MODEL 4
REMARK VINA RESULT: -5.372048715      2.785      4.895
REMARK  3 active torsions:
REMARK  status: ('A' for Active; 'I' for Inactive)
REMARK    1  A    between atoms: C2_2  and  C3_3 
REMARK    2  A    between atoms: C3_3  and  C4_4 
REMARK    3  A    between atoms: C6_9  and  N3_10 
ROOT
HETATM    1  C3  UNL     1      -3.818  51.985  11.980  1.00  0.00     0.171 C 
HETATM    2  N1  UNL     1      -3.143  52.425  13.151  1.00  0.00    -0.300 N 
ATOM      3  H1  UNL     1      -2.548  51.790  13.682  1.00  0.00     0.179 HD
HETATM    4  N2  UNL     1      -3.312  53.715  13.546  1.00  0.00    -0.086 NA
HETATM    5  C6  UNL     1      -4.696  53.989  13.783  1.00  0.00     0.433 C 
HETATM    6  N4  UNL     1      -5.514  53.262  12.831  1.00  0.00    -0.140 N 
HETATM    7  C7  UNL     1      -6.900  53.303  13.024  1.00  0.00     0.209 C 
HETATM    8  N5  UNL     1      -8.054  53.353  13.197  1.00  0.00    -0.170 NA
HETATM    9  O1  UNL     1      -5.037  52.570  11.804  1.00  0.00    -0.231 OA
ENDROOT
BRANCH   5  10
HETATM   10  N3  UNL     1      -5.113  53.565  15.114  1.00  0.00    -0.040 N 
ATOM     11  H33 UNL     1      -4.336  53.596  15.774  1.00  0.00     0.278 HD
ATOM     12  H32 UNL     1      -5.720  54.259  15.551  1.00  0.00     0.278 HD
ATOM     13  H31 UNL     1      -5.552  52.644  15.100  1.00  0.00     0.278 HD
ENDBRANCH   5  10
BRANCH   1  14
HETATM   14  C2  UNL     1      -2.902  52.213  10.773  1.00  0.00     0.060 C 
HETATM   15  C1  UNL     1      -3.375  51.498   9.550  1.00  0.00     0.010 C 
ENDBRANCH   1  14
BRANCH   1  16
HETATM   16  C4  UNL     1      -3.929  50.455  12.092  1.00  0.00     0.060 C 
HETATM   17  C5  UNL     1      -2.775  49.878  12.850  1.00  0.00     0.010 C 
ENDBRANCH   1  16
TORSDOF 3
ENDMDL
MODEL 5
REMARK VINA RESULT: -5.352457124      2.322      4.430
REMARK  3 active torsions:
REMARK  status: ('A' for Active; 'I' for Inactive)
REMARK    1  A    between atoms: C2_2  and  C3_3 
REMARK    2  A    between atoms: C3_3  and  C4_4 
REMARK    3  A    between atoms: C6_9  and  N3_10 
ROOT
HETATM    1  C3  UNL     1      -3.715  52.733  12.619  1.00  0.00     0.171 C 
HETATM    2  N1  UNL     1      -4.217  52.857  11.294  1.00  0.00    -0.300 N 
ATOM      3  H1  UNL     1      -3.585  53.006  10.507  1.00  0.00     0.179 HD
HETATM    4  N2  UNL     1      -5.560  52.772  11.104  1.00  0.00    -0.086 NA
HETATM    5  C6  UNL     1      -6.237  53.781  11.860  1.00  0.00     0.433 C 
HETATM    6  N4  UNL     1      -5.555  53.995  13.122  1.00  0.00    -0.140 N 
HETATM    7  C7  UNL     1      -6.005  55.058  13.913  1.00  0.00     0.209 C 
HETATM    8  N5  UNL     1      -6.397  55.945  14.564  1.00  0.00    -0.170 NA
HETATM    9  O1  UNL     1      -4.545  53.256  13.565  1.00  0.00    -0.231 OA
ENDROOT
BRANCH   5  10
HETATM   10  N3  UNL     1      -6.256  55.061  11.163  1.00  0.00    -0.040 N 
ATOM     11  H33 UNL     1      -5.379  55.566  11.289  1.00  0.00     0.278 HD
ATOM     12  H32 UNL     1      -6.222  54.934  10.151  1.00  0.00     0.278 HD
ATOM     13  H31 UNL     1      -7.055  55.632  11.438  1.00  0.00     0.278 HD
ENDBRANCH   5  10
BRANCH   1  14
HETATM   14  C2  UNL     1      -3.409  51.256  12.890  1.00  0.00     0.060 C 
HETATM   15  C1  UNL     1      -3.874  50.362  11.789  1.00  0.00     0.010 C 
ENDBRANCH   1  14
BRANCH   1  16
HETATM   16  C4  UNL     1      -2.337  53.416  12.627  1.00  0.00     0.060 C 
HETATM   17  C5  UNL     1      -1.621  53.218  11.327  1.00  0.00     0.010 C 
ENDBRANCH   1  16
TORSDOF 3
ENDMDL
