MODEL 1
REMARK VINA RESULT: -5.816131393      0.000      0.000
REMARK  4 active torsions:
REMARK  status: ('A' for Active; 'I' for Inactive)
REMARK    1  A    between atoms: C2_3  and  C4_6 
REMARK    2  A    between atoms: C5_9  and  C6_10 
REMARK    3  A    between atoms: C6_10  and  C7_11 
REMARK    4  A    between atoms: C14_18  and  C15_19 
ROOT
HETATM    1  N1  UNL     1       5.851  42.456  29.403  1.00  0.00    -0.191 NA
HETATM    2  C1  UNL     1       5.208  43.080  28.692  1.00  0.00     0.113 C 
HETATM    3  C2  UNL     1       4.353  43.886  27.785  1.00  0.00     0.152 C 
HETATM    4  C3  UNL     1       5.002  44.350  26.617  1.00  0.00     0.113 C 
HETATM    5  N2  UNL     1       5.589  44.722  25.678  1.00  0.00    -0.191 NA
ENDROOT
BRANCH   3   6
HETATM    6  C4  UNL     1       3.136  44.117  28.176  1.00  0.00     0.077 A 
HETATM    7  N3  UNL     1       2.068  43.495  27.550  1.00  0.00    -0.354 N 
HETATM    8  C5  UNL     1       0.916  43.830  28.100  1.00  0.00     0.034 A 
ATOM      9  H3  UNL     1       2.160  42.856  26.761  1.00  0.00     0.166 HD
HETATM   10  C13 UNL     1       1.202  44.691  29.111  1.00  0.00     0.046 A 
HETATM   11  C14 UNL     1       2.614  44.894  29.180  1.00  0.00     0.033 A 
BRANCH   8  12
HETATM   12  C6  UNL     1      -0.307  43.444  27.783  1.00  0.00     0.041 C 
BRANCH  12  13
HETATM   13  C7  UNL     1      -0.750  43.279  26.423  1.00  0.00    -0.034 A 
HETATM   14  C8  UNL     1      -1.159  44.377  25.688  1.00  0.00     0.011 A 
HETATM   15  C9  UNL     1      -1.573  44.181  24.403  1.00  0.00     0.001 A 
HETATM   16  C10 UNL     1      -1.584  42.933  23.852  1.00  0.00     0.000 A 
HETATM   17  C11 UNL     1      -1.180  41.836  24.571  1.00  0.00     0.001 A 
HETATM   18  C12 UNL     1      -0.756  42.006  25.879  1.00  0.00     0.011 A 
ENDBRANCH  12  13
ENDBRANCH   8  12
BRANCH  11  19
HETATM   19  C15 UNL     1       3.214  45.824  30.098  1.00  0.00     0.272 C 
HETATM   20  O1  UNL     1       4.364  46.202  30.124  1.00  0.00    -0.301 OA
ENDBRANCH  11  19
ENDBRANCH   3   6
TORSDOF 4
ENDMDL
MODEL 2
REMARK VINA RESULT: -5.685995905      1.944      2.704
REMARK  4 active torsions:
REMARK  status: ('A' for Active; 'I' for Inactive)
REMARK    1  A    between atoms: C2_3  and  C4_6 
REMARK    2  A    between atoms: C5_9  and  C6_10 
REMARK    3  A    between atoms: C6_10  and  C7_11 
REMARK    4  A    between atoms: C14_18  and  C15_19 
ROOT
HETATM    1  N1  UNL     1       1.990  43.984  32.704  1.00  0.00    -0.191 NA
HETATM    2  C1  UNL     1       2.403  44.359  31.705  1.00  0.00     0.113 C 
HETATM    3  C2  UNL     1       2.924  44.828  30.397  1.00  0.00     0.152 C 
HETATM    4  C3  UNL     1       3.935  45.813  30.481  1.00  0.00     0.113 C 
HETATM    5  N2  UNL     1       4.755  46.637  30.607  1.00  0.00    -0.191 NA
ENDROOT
BRANCH   3   6
HETATM    6  C4  UNL     1       2.372  44.330  29.331  1.00  0.00     0.077 A 
HETATM    7  N3  UNL     1       1.003  44.123  29.283  1.00  0.00    -0.354 N 
HETATM    8  C5  UNL     1       0.623  43.640  28.115  1.00  0.00     0.034 A 
ATOM      9  H3  UNL     1       0.367  44.320  30.055  1.00  0.00     0.166 HD
HETATM   10  C13 UNL     1       1.744  43.516  27.360  1.00  0.00     0.046 A 
HETATM   11  C14 UNL     1       2.878  43.948  28.115  1.00  0.00     0.033 A 
BRANCH   8  12
HETATM   12  C6  UNL     1      -0.588  43.319  27.696  1.00  0.00     0.041 C 
BRANCH  12  13
HETATM   13  C7  UNL     1      -0.932  43.207  26.302  1.00  0.00    -0.034 A 
HETATM   14  C8  UNL     1      -1.217  44.341  25.564  1.00  0.00     0.011 A 
HETATM   15  C9  UNL     1      -1.539  44.194  24.247  1.00  0.00     0.001 A 
HETATM   16  C10 UNL     1      -1.579  42.961  23.667  1.00  0.00     0.000 A 
HETATM   17  C11 UNL     1      -1.298  41.828  24.389  1.00  0.00     0.001 A 
HETATM   18  C12 UNL     1      -0.969  41.947  25.729  1.00  0.00     0.011 A 
ENDBRANCH  12  13
ENDBRANCH   8  12
BRANCH  11  19
HETATM   19  C15 UNL     1       4.221  43.852  27.609  1.00  0.00     0.272 C 
HETATM   20  O1  UNL     1       4.947  44.755  27.258  1.00  0.00    -0.301 OA
ENDBRANCH  11  19
ENDBRANCH   3   6
TORSDOF 4
ENDMDL
MODEL 3
REMARK VINA RESULT: -5.641954677      0.204      1.629
REMARK  4 active torsions:
REMARK  status: ('A' for Active; 'I' for Inactive)
REMARK    1  A    between atoms: C2_3  and  C4_6 
REMARK    2  A    between atoms: C5_9  and  C6_10 
REMARK    3  A    between atoms: C6_10  and  C7_11 
REMARK    4  A    between atoms: C14_18  and  C15_19 
ROOT
HETATM    1  N1  UNL     1       5.325  44.748  25.890  1.00  0.00    -0.191 NA
HETATM    2  C1  UNL     1       4.908  44.282  26.848  1.00  0.00     0.113 C 
HETATM    3  C2  UNL     1       4.344  43.692  28.087  1.00  0.00     0.152 C 
HETATM    4  C3  UNL     1       5.219  42.826  28.781  1.00  0.00     0.113 C 
HETATM    5  N2  UNL     1       5.976  42.106  29.307  1.00  0.00    -0.191 NA
ENDROOT
BRANCH   3   6
HETATM    6  C4  UNL     1       3.111  43.988  28.371  1.00  0.00     0.077 A 
HETATM    7  N3  UNL     1       2.069  43.316  27.754  1.00  0.00    -0.354 N 
HETATM    8  C5  UNL     1       0.894  43.732  28.188  1.00  0.00     0.034 A 
ATOM      9  H3  UNL     1       2.194  42.589  27.050  1.00  0.00     0.166 HD
HETATM   10  C13 UNL     1       1.138  44.698  29.111  1.00  0.00     0.046 A 
HETATM   11  C14 UNL     1       2.548  44.884  29.245  1.00  0.00     0.033 A 
BRANCH   8  12
HETATM   12  C6  UNL     1      -0.316  43.332  27.841  1.00  0.00     0.041 C 
BRANCH  12  13
HETATM   13  C7  UNL     1      -0.750  43.242  26.470  1.00  0.00    -0.034 A 
HETATM   14  C8  UNL     1      -1.087  44.387  25.772  1.00  0.00     0.011 A 
HETATM   15  C9  UNL     1      -1.494  44.261  24.476  1.00  0.00     0.001 A 
HETATM   16  C10 UNL     1      -1.566  43.037  23.878  1.00  0.00     0.000 A 
HETATM   17  C11 UNL     1      -1.233  41.894  24.561  1.00  0.00     0.001 A 
HETATM   18  C12 UNL     1      -0.818  41.992  25.879  1.00  0.00     0.011 A 
ENDBRANCH  12  13
ENDBRANCH   8  12
BRANCH  11  19
HETATM   19  C15 UNL     1       3.113  45.903  30.088  1.00  0.00     0.272 C 
HETATM   20  O1  UNL     1       4.269  46.258  30.147  1.00  0.00    -0.301 OA
ENDBRANCH  11  19
ENDBRANCH   3   6
TORSDOF 4
ENDMDL
MODEL 4
REMARK VINA RESULT: -5.634743354      0.204      1.965
REMARK  4 active torsions:
REMARK  status: ('A' for Active; 'I' for Inactive)
REMARK    1  A    between atoms: C2_3  and  C4_6 
REMARK    2  A    between atoms: C5_9  and  C6_10 
REMARK    3  A    between atoms: C6_10  and  C7_11 
REMARK    4  A    between atoms: C14_18  and  C15_19 
ROOT
HETATM    1  N1  UNL     1       5.329  44.741  25.875  1.00  0.00    -0.191 NA
HETATM    2  C1  UNL     1       4.912  44.273  26.832  1.00  0.00     0.113 C 
HETATM    3  C2  UNL     1       4.348  43.680  28.071  1.00  0.00     0.152 C 
HETATM    4  C3  UNL     1       5.224  42.811  28.762  1.00  0.00     0.113 C 
HETATM    5  N2  UNL     1       5.980  42.090  29.285  1.00  0.00    -0.191 NA
ENDROOT
BRANCH   3   6
HETATM    6  C4  UNL     1       3.116  43.975  28.356  1.00  0.00     0.077 A 
HETATM    7  N3  UNL     1       2.073  43.305  27.739  1.00  0.00    -0.354 N 
HETATM    8  C5  UNL     1       0.898  43.721  28.174  1.00  0.00     0.034 A 
ATOM      9  H3  UNL     1       2.197  42.579  27.033  1.00  0.00     0.166 HD
HETATM   10  C13 UNL     1       1.144  44.685  29.098  1.00  0.00     0.046 A 
HETATM   11  C14 UNL     1       2.554  44.870  29.232  1.00  0.00     0.033 A 
BRANCH   8  12
HETATM   12  C6  UNL     1      -0.312  43.322  27.827  1.00  0.00     0.041 C 
BRANCH  12  13
HETATM   13  C7  UNL     1      -0.739  43.210  26.456  1.00  0.00    -0.034 A 
HETATM   14  C8  UNL     1      -0.822  41.968  25.854  1.00  0.00     0.011 A 
HETATM   15  C9  UNL     1      -1.229  41.902  24.554  1.00  0.00     0.001 A 
HETATM   16  C10 UNL     1      -1.548  43.032  23.860  1.00  0.00     0.000 A 
HETATM   17  C11 UNL     1      -1.469  44.270  24.446  1.00  0.00     0.001 A 
HETATM   18  C12 UNL     1      -1.058  44.367  25.766  1.00  0.00     0.011 A 
ENDBRANCH  12  13
ENDBRANCH   8  12
BRANCH  11  19
HETATM   19  C15 UNL     1       3.120  45.888  30.076  1.00  0.00     0.272 C 
HETATM   20  O1  UNL     1       4.277  46.239  30.138  1.00  0.00    -0.301 OA
ENDBRANCH  11  19
ENDBRANCH   3   6
TORSDOF 4
ENDMDL
MODEL 5
REMARK VINA RESULT: -5.561941091      1.344      2.085
REMARK  4 active torsions:
REMARK  status: ('A' for Active; 'I' for Inactive)
REMARK    1  A    between atoms: C2_3  and  C4_6 
REMARK    2  A    between atoms: C5_9  and  C6_10 
REMARK    3  A    between atoms: C6_10  and  C7_11 
REMARK    4  A    between atoms: C14_18  and  C15_19 
ROOT
HETATM    1  N1  UNL     1       6.057  44.415  25.554  1.00  0.00    -0.191 NA
HETATM    2  C1  UNL     1       5.721  44.495  26.644  1.00  0.00     0.113 C 
HETATM    3  C2  UNL     1       5.258  44.593  28.051  1.00  0.00     0.152 C 
HETATM    4  C3  UNL     1       6.266  44.936  28.982  1.00  0.00     0.113 C 
HETATM    5  N2  UNL     1       7.139  45.205  29.712  1.00  0.00    -0.191 NA
ENDROOT
BRANCH   3   6
HETATM    6  C4  UNL     1       4.012  44.309  28.282  1.00  0.00     0.077 A 
HETATM    7  N3  UNL     1       3.300  43.513  27.401  1.00  0.00    -0.354 N 
HETATM    8  C5  UNL     1       2.062  43.311  27.814  1.00  0.00     0.034 A 
ATOM      9  H3  UNL     1       3.684  43.129  26.538  1.00  0.00     0.166 HD
HETATM   10  C13 UNL     1       1.930  43.978  28.990  1.00  0.00     0.046 A 
HETATM   11  C14 UNL     1       3.161  44.627  29.311  1.00  0.00     0.033 A 
BRANCH   8  12
HETATM   12  C6  UNL     1       1.095  42.612  27.249  1.00  0.00     0.041 C 
BRANCH  12  13
HETATM   13  C7  UNL     1       0.033  43.215  26.485  1.00  0.00    -0.034 A 
HETATM   14  C8  UNL     1       0.259  43.618  25.182  1.00  0.00     0.011 A 
HETATM   15  C9  UNL     1      -0.771  44.186  24.490  1.00  0.00     0.001 A 
HETATM   16  C10 UNL     1      -1.996  44.354  25.067  1.00  0.00     0.000 A 
HETATM   17  C11 UNL     1      -2.232  43.958  26.360  1.00  0.00     0.001 A 
HETATM   18  C12 UNL     1      -1.204  43.379  27.086  1.00  0.00     0.011 A 
ENDBRANCH  12  13
ENDBRANCH   8  12
BRANCH  11  19
HETATM   19  C15 UNL     1       3.303  45.484  30.457  1.00  0.00     0.272 C 
HETATM   20  O1  UNL     1       3.665  46.640  30.478  1.00  0.00    -0.301 OA
ENDBRANCH  11  19
ENDBRANCH   3   6
TORSDOF 4
ENDMDL
