MODEL 1
REMARK VINA RESULT: -5.813111455      0.000      0.000
REMARK  8 active torsions:
REMARK  status: ('A' for Active; 'I' for Inactive)
REMARK    1  A    between atoms: N1_1  and  C1_4 
REMARK    2  A    between atoms: C2_7  and  S1_8 
REMARK    3  A    between atoms: S1_8  and  C3_9 
REMARK    4  A    between atoms: C4_12  and  N4_13 
REMARK    5  A    between atoms: N6_18  and  C5_19 
REMARK    6  A    between atoms: C5_19  and  O1_20 
REMARK    7  A    between atoms: N7_22  and  N8_24 
REMARK    8  A    between atoms: N8_24  and  N9_26 
ROOT
HETATM    1  C3  UNL     1      14.116  17.242  18.107  1.00  0.00     0.192 A 
HETATM    2  N3  UNL     1      13.142  17.175  19.034  1.00  0.00    -0.167 N 
ATOM      3  H3  UNL     1      12.138  17.110  18.866  1.00  0.00     0.186 HD
HETATM    4  C4  UNL     1      13.773  17.212  20.244  1.00  0.00     0.693 A 
HETATM    5  N5  UNL     1      15.089  17.299  20.007  1.00  0.00    -0.120 N 
ATOM      6  H5  UNL     1      15.809  17.344  20.727  1.00  0.00     0.206 HD
HETATM    7  N6  UNL     1      15.323  17.320  18.688  1.00  0.00    -0.180 N 
ENDROOT
BRANCH   1   8
HETATM    8  S1  UNL     1      13.856  17.233  16.332  1.00  0.00    -0.013 SA
BRANCH   8   9
HETATM    9  C2  UNL     1      12.320  16.422  15.927  1.00  0.00     0.182 A 
HETATM   10  N2  UNL     1      11.153  16.678  16.540  1.00  0.00    -0.168 N 
HETATM   11  C1  UNL     1      10.181  15.894  15.997  1.00  0.00     0.692 A 
ATOM     12  H2  UNL     1      11.016  17.353  17.293  1.00  0.00     0.186 HD
HETATM   13  N11 UNL     1      10.759  15.160  15.054  1.00  0.00    -0.130 N 
HETATM   14  N10 UNL     1      12.049  15.479  15.013  1.00  0.00    -0.265 N 
ATOM     15  H11 UNL     1      10.294  14.471  14.462  1.00  0.00     0.205 HD
ATOM     16  H10 UNL     1      12.733  15.068  14.377  1.00  0.00     0.189 HD
BRANCH  11  17
HETATM   17  N1  UNL     1       8.936  15.898  16.367  1.00  0.00    -0.233 N 
ATOM     18  H12 UNL     1       8.542  15.628  17.267  1.00  0.00     0.174 HD
ATOM     19  H11 UNL     1       8.157  16.188  15.776  1.00  0.00     0.174 HD
ENDBRANCH  11  17
ENDBRANCH   8   9
ENDBRANCH   1   8
BRANCH   7  20
HETATM   20  C5  UNL     1      16.559  17.404  18.005  1.00  0.00     0.262 C 
HETATM   21  N7  UNL     1      17.323  18.433  18.081  1.00  0.00    -0.249 N 
ATOM     22  H7  UNL     1      17.032  19.224  18.656  1.00  0.00     0.192 HD
BRANCH  20  23
HETATM   23  O1  UNL     1      16.967  16.339  17.222  1.00  0.00    -0.330 OA
ATOM     24  H1  UNL     1      17.030  15.477  17.615  1.00  0.00     0.221 HD
ENDBRANCH  20  23
BRANCH  21  25
HETATM   25  N8  UNL     1      18.534  18.504  17.407  1.00  0.00    -0.246 N 
ATOM     26  H8  UNL     1      19.170  17.708  17.464  1.00  0.00     0.208 HD
BRANCH  25  27
HETATM   27  N9  UNL     1      18.922  19.607  16.660  1.00  0.00    -0.331 N 
ATOM     28  H92 UNL     1      18.844  19.537  15.646  1.00  0.00     0.178 HD
ATOM     29  H91 UNL     1      19.274  20.467  17.079  1.00  0.00     0.178 HD
ENDBRANCH  25  27
ENDBRANCH  21  25
ENDBRANCH   7  20
BRANCH   4  30
HETATM   30  N4  UNL     1      13.122  17.165  21.347  1.00  0.00    -0.233 N 
ATOM     31  H42 UNL     1      12.119  17.174  21.529  1.00  0.00     0.174 HD
ATOM     32  H41 UNL     1      13.595  17.108  22.248  1.00  0.00     0.174 HD
ENDBRANCH   4  30
TORSDOF 8
ENDMDL
MODEL 2
REMARK VINA RESULT: -5.584235172      2.431      5.965
REMARK  8 active torsions:
REMARK  status: ('A' for Active; 'I' for Inactive)
REMARK    1  A    between atoms: N1_1  and  C1_4 
REMARK    2  A    between atoms: C2_7  and  S1_8 
REMARK    3  A    between atoms: S1_8  and  C3_9 
REMARK    4  A    between atoms: C4_12  and  N4_13 
REMARK    5  A    between atoms: N6_18  and  C5_19 
REMARK    6  A    between atoms: C5_19  and  O1_20 
REMARK    7  A    between atoms: N7_22  and  N8_24 
REMARK    8  A    between atoms: N8_24  and  N9_26 
ROOT
HETATM    1  C3  UNL     1      15.249  17.037  18.279  1.00  0.00     0.192 A 
HETATM    2  N3  UNL     1      14.971  16.954  19.593  1.00  0.00    -0.167 N 
ATOM      3  H3  UNL     1      15.635  17.008  20.367  1.00  0.00     0.186 HD
HETATM    4  C4  UNL     1      13.620  16.784  19.681  1.00  0.00     0.693 A 
HETATM    5  N5  UNL     1      13.136  16.770  18.432  1.00  0.00    -0.120 N 
ATOM      6  H5  UNL     1      12.152  16.658  18.189  1.00  0.00     0.206 HD
HETATM    7  N6  UNL     1      14.130  16.925  17.547  1.00  0.00    -0.180 N 
ENDROOT
BRANCH   1   8
HETATM    8  S1  UNL     1      16.886  17.264  17.581  1.00  0.00    -0.013 SA
BRANCH   8   9
HETATM    9  C2  UNL     1      17.632  18.760  18.203  1.00  0.00     0.182 A 
HETATM   10  N2  UNL     1      17.847  19.004  19.506  1.00  0.00    -0.168 N 
HETATM   11  C1  UNL     1      18.429  20.227  19.641  1.00  0.00     0.692 A 
ATOM     12  H2  UNL     1      17.612  18.373  20.272  1.00  0.00     0.186 HD
HETATM   13  N11 UNL     1      18.566  20.727  18.418  1.00  0.00    -0.130 N 
HETATM   14  N10 UNL     1      18.085  19.841  17.552  1.00  0.00    -0.265 N 
ATOM     15  H11 UNL     1      18.971  21.633  18.184  1.00  0.00     0.205 HD
ATOM     16  H10 UNL     1      18.064  19.965  16.540  1.00  0.00     0.189 HD
BRANCH  11  17
HETATM   17  N1  UNL     1      18.767  20.763  20.774  1.00  0.00    -0.233 N 
ATOM     18  H12 UNL     1      18.161  21.084  21.529  1.00  0.00     0.174 HD
ATOM     19  H11 UNL     1      19.728  20.939  21.069  1.00  0.00     0.174 HD
ENDBRANCH  11  17
ENDBRANCH   8   9
ENDBRANCH   1   8
BRANCH   7  20
HETATM   20  C5  UNL     1      14.065  16.969  16.134  1.00  0.00     0.262 C 
HETATM   21  N7  UNL     1      13.529  17.945  15.496  1.00  0.00    -0.249 N 
ATOM     22  H7  UNL     1      13.133  18.723  16.024  1.00  0.00     0.192 HD
BRANCH  20  23
HETATM   23  O1  UNL     1      14.598  15.921  15.406  1.00  0.00    -0.330 OA
ATOM     24  H1  UNL     1      15.230  16.109  14.723  1.00  0.00     0.221 HD
ENDBRANCH  20  23
BRANCH  21  25
HETATM   25  N8  UNL     1      13.472  17.977  14.110  1.00  0.00    -0.246 N 
ATOM     26  H8  UNL     1      12.900  17.281  13.631  1.00  0.00     0.208 HD
BRANCH  25  27
HETATM   27  N9  UNL     1      14.155  18.911  13.345  1.00  0.00    -0.331 N 
ATOM     28  H92 UNL     1      15.174  18.871  13.356  1.00  0.00     0.178 HD
ATOM     29  H91 UNL     1      13.686  19.621  12.783  1.00  0.00     0.178 HD
ENDBRANCH  25  27
ENDBRANCH  21  25
ENDBRANCH   7  20
BRANCH   4  30
HETATM   30  N4  UNL     1      13.024  16.670  20.811  1.00  0.00    -0.233 N 
ATOM     31  H42 UNL     1      12.646  15.849  21.283  1.00  0.00     0.174 HD
ATOM     32  H41 UNL     1      12.852  17.475  21.412  1.00  0.00     0.174 HD
ENDBRANCH   4  30
TORSDOF 8
ENDMDL
MODEL 3
REMARK VINA RESULT: -5.522309729      7.782      9.686
REMARK  8 active torsions:
REMARK  status: ('A' for Active; 'I' for Inactive)
REMARK    1  A    between atoms: N1_1  and  C1_4 
REMARK    2  A    between atoms: C2_7  and  S1_8 
REMARK    3  A    between atoms: S1_8  and  C3_9 
REMARK    4  A    between atoms: C4_12  and  N4_13 
REMARK    5  A    between atoms: N6_18  and  C5_19 
REMARK    6  A    between atoms: C5_19  and  O1_20 
REMARK    7  A    between atoms: N7_22  and  N8_24 
REMARK    8  A    between atoms: N8_24  and  N9_26 
ROOT
HETATM    1  C3  UNL     1      15.736   9.945  12.894  1.00  0.00     0.192 A 
HETATM    2  N3  UNL     1      17.077   9.875  12.811  1.00  0.00    -0.167 N 
ATOM      3  H3  UNL     1      17.640   9.040  12.645  1.00  0.00     0.186 HD
HETATM    4  C4  UNL     1      17.531  11.149  12.995  1.00  0.00     0.693 A 
HETATM    5  N5  UNL     1      16.461  11.932  13.181  1.00  0.00    -0.120 N 
ATOM      6  H5  UNL     1      16.496  12.938  13.343  1.00  0.00     0.206 HD
HETATM    7  N6  UNL     1      15.337  11.205  13.122  1.00  0.00    -0.180 N 
ENDROOT
BRANCH   1   8
HETATM    8  S1  UNL     1      14.616   8.554  12.727  1.00  0.00    -0.013 SA
BRANCH   8   9
HETATM    9  C2  UNL     1      13.888   8.526  11.098  1.00  0.00     0.182 A 
HETATM   10  N2  UNL     1      13.966   7.480  10.260  1.00  0.00    -0.168 N 
HETATM   11  C1  UNL     1      13.308   7.782   9.107  1.00  0.00     0.692 A 
ATOM     12  H2  UNL     1      14.442   6.599  10.457  1.00  0.00     0.186 HD
HETATM   13  N11 UNL     1      12.831   9.013   9.245  1.00  0.00    -0.130 N 
HETATM   14  N10 UNL     1      13.182   9.461  10.446  1.00  0.00    -0.265 N 
ATOM     15  H11 UNL     1      12.290   9.526   8.550  1.00  0.00     0.205 HD
ATOM     16  H10 UNL     1      12.947  10.381  10.818  1.00  0.00     0.189 HD
BRANCH  11  17
HETATM   17  N1  UNL     1      13.196   6.982   8.090  1.00  0.00    -0.233 N 
ATOM     18  H12 UNL     1      13.582   6.045   7.975  1.00  0.00     0.174 HD
ATOM     19  H11 UNL     1      12.683   7.199   7.235  1.00  0.00     0.174 HD
ENDBRANCH  11  17
ENDBRANCH   8   9
ENDBRANCH   1   8
BRANCH   7  20
HETATM   20  C5  UNL     1      13.995  11.629  13.263  1.00  0.00     0.262 C 
HETATM   21  N7  UNL     1      13.398  11.671  14.399  1.00  0.00    -0.249 N 
ATOM     22  H7  UNL     1      13.907  11.387  15.236  1.00  0.00     0.192 HD
BRANCH  20  23
HETATM   23  O1  UNL     1      13.292  12.016  12.137  1.00  0.00    -0.330 OA
ATOM     24  H1  UNL     1      13.337  12.922  11.854  1.00  0.00     0.221 HD
ENDBRANCH  20  23
BRANCH  21  25
HETATM   25  N8  UNL     1      12.080  12.089  14.525  1.00  0.00    -0.246 N 
ATOM     26  H8  UNL     1      11.363  11.387  14.710  1.00  0.00     0.208 HD
BRANCH  25  27
HETATM   27  N9  UNL     1      11.693  13.416  14.413  1.00  0.00    -0.331 N 
ATOM     28  H92 UNL     1      12.430  14.120  14.396  1.00  0.00     0.178 HD
ATOM     29  H91 UNL     1      10.718  13.707  14.348  1.00  0.00     0.178 HD
ENDBRANCH  25  27
ENDBRANCH  21  25
ENDBRANCH   7  20
BRANCH   4  30
HETATM   30  N4  UNL     1      18.782  11.430  12.975  1.00  0.00    -0.233 N 
ATOM     31  H42 UNL     1      19.546  11.026  12.435  1.00  0.00     0.174 HD
ATOM     32  H41 UNL     1      19.177  12.166  13.559  1.00  0.00     0.174 HD
ENDBRANCH   4  30
TORSDOF 8
ENDMDL
MODEL 4
REMARK VINA RESULT: -5.520424699      3.132      4.973
REMARK  8 active torsions:
REMARK  status: ('A' for Active; 'I' for Inactive)
REMARK    1  A    between atoms: N1_1  and  C1_4 
REMARK    2  A    between atoms: C2_7  and  S1_8 
REMARK    3  A    between atoms: S1_8  and  C3_9 
REMARK    4  A    between atoms: C4_12  and  N4_13 
REMARK    5  A    between atoms: N6_18  and  C5_19 
REMARK    6  A    between atoms: C5_19  and  O1_20 
REMARK    7  A    between atoms: N7_22  and  N8_24 
REMARK    8  A    between atoms: N8_24  and  N9_26 
ROOT
HETATM    1  C3  UNL     1      12.501  16.719  15.433  1.00  0.00     0.192 A 
HETATM    2  N3  UNL     1      12.863  17.099  14.193  1.00  0.00    -0.167 N 
ATOM      3  H3  UNL     1      12.541  16.701  13.310  1.00  0.00     0.186 HD
HETATM    4  C4  UNL     1      13.748  18.124  14.358  1.00  0.00     0.693 A 
HETATM    5  N5  UNL     1      13.887  18.325  15.675  1.00  0.00    -0.120 N 
ATOM      6  H5  UNL     1      14.489  19.032  16.097  1.00  0.00     0.206 HD
HETATM    7  N6  UNL     1      13.123  17.464  16.360  1.00  0.00    -0.180 N 
ENDROOT
BRANCH   1   8
HETATM    8  S1  UNL     1      11.348  15.399  15.815  1.00  0.00    -0.013 SA
BRANCH   8   9
HETATM    9  C2  UNL     1      11.919  13.851  15.137  1.00  0.00     0.182 A 
HETATM   10  N2  UNL     1      13.165  13.377  15.296  1.00  0.00    -0.168 N 
HETATM   11  C1  UNL     1      13.273  12.180  14.658  1.00  0.00     0.692 A 
ATOM     12  H2  UNL     1      13.912  13.841  15.814  1.00  0.00     0.186 HD
HETATM   13  N11 UNL     1      12.091  11.927  14.109  1.00  0.00    -0.130 N 
HETATM   14  N10 UNL     1      11.275  12.936  14.399  1.00  0.00    -0.265 N 
ATOM     15  H11 UNL     1      11.850  11.101  13.561  1.00  0.00     0.205 HD
ATOM     16  H10 UNL     1      10.301  13.003  14.103  1.00  0.00     0.189 HD
BRANCH  11  17
HETATM   17  N1  UNL     1      14.351  11.457  14.620  1.00  0.00    -0.233 N 
ATOM     18  H12 UNL     1      15.301  11.723  14.879  1.00  0.00     0.174 HD
ATOM     19  H11 UNL     1      14.387  10.485  14.313  1.00  0.00     0.174 HD
ENDBRANCH  11  17
ENDBRANCH   8   9
ENDBRANCH   1   8
BRANCH   7  20
HETATM   20  C5  UNL     1      12.969  17.329  17.760  1.00  0.00     0.262 C 
HETATM   21  N7  UNL     1      13.504  16.370  18.426  1.00  0.00    -0.249 N 
ATOM     22  H7  UNL     1      14.062  15.675  17.929  1.00  0.00     0.192 HD
BRANCH  20  23
HETATM   23  O1  UNL     1      12.214  18.263  18.445  1.00  0.00    -0.330 OA
ATOM     24  H1  UNL     1      12.215  18.249  19.395  1.00  0.00     0.221 HD
ENDBRANCH  20  23
BRANCH  21  25
HETATM   25  N8  UNL     1      13.347  16.248  19.799  1.00  0.00    -0.246 N 
ATOM     26  H8  UNL     1      12.835  15.442  20.160  1.00  0.00     0.208 HD
BRANCH  25  27
HETATM   27  N9  UNL     1      13.852  17.169  20.704  1.00  0.00    -0.331 N 
ATOM     28  H92 UNL     1      14.832  17.435  20.606  1.00  0.00     0.178 HD
ATOM     29  H91 UNL     1      13.291  17.583  21.449  1.00  0.00     0.178 HD
ENDBRANCH  25  27
ENDBRANCH  21  25
ENDBRANCH   7  20
BRANCH   4  30
HETATM   30  N4  UNL     1      14.289  18.718  13.359  1.00  0.00    -0.233 N 
ATOM     31  H42 UNL     1      15.268  18.908  13.147  1.00  0.00     0.174 HD
ATOM     32  H41 UNL     1      13.732  19.101  12.595  1.00  0.00     0.174 HD
ENDBRANCH   4  30
TORSDOF 8
ENDMDL
MODEL 5
REMARK VINA RESULT: -5.482234831      2.686      3.629
REMARK  8 active torsions:
REMARK  status: ('A' for Active; 'I' for Inactive)
REMARK    1  A    between atoms: N1_1  and  C1_4 
REMARK    2  A    between atoms: C2_7  and  S1_8 
REMARK    3  A    between atoms: S1_8  and  C3_9 
REMARK    4  A    between atoms: C4_12  and  N4_13 
REMARK    5  A    between atoms: N6_18  and  C5_19 
REMARK    6  A    between atoms: C5_19  and  O1_20 
REMARK    7  A    between atoms: N7_22  and  N8_24 
REMARK    8  A    between atoms: N8_24  and  N9_26 
ROOT
HETATM    1  C3  UNL     1      12.738  16.992  17.189  1.00  0.00     0.192 A 
HETATM    2  N3  UNL     1      12.852  16.937  18.529  1.00  0.00    -0.167 N 
ATOM      3  H3  UNL     1      12.145  16.624  19.194  1.00  0.00     0.186 HD
HETATM    4  C4  UNL     1      14.108  17.388  18.817  1.00  0.00     0.693 A 
HETATM    5  N5  UNL     1      14.700  17.695  17.655  1.00  0.00    -0.120 N 
ATOM      6  H5  UNL     1      15.648  18.058  17.562  1.00  0.00     0.206 HD
HETATM    7  N6  UNL     1      13.867  17.457  16.633  1.00  0.00    -0.180 N 
ENDROOT
BRANCH   1   8
HETATM    8  S1  UNL     1      11.283  16.514  16.255  1.00  0.00    -0.013 SA
BRANCH   8   9
HETATM    9  C2  UNL     1      11.554  14.959  15.424  1.00  0.00     0.182 A 
HETATM   10  N2  UNL     1      12.538  14.102  15.740  1.00  0.00    -0.168 N 
HETATM   11  C1  UNL     1      12.466  13.017  14.920  1.00  0.00     0.692 A 
ATOM     12  H2  UNL     1      13.229  14.241  16.478  1.00  0.00     0.186 HD
HETATM   13  N11 UNL     1      11.437  13.217  14.104  1.00  0.00    -0.130 N 
HETATM   14  N10 UNL     1      10.888  14.389  14.409  1.00  0.00    -0.265 N 
ATOM     15  H11 UNL     1      11.123  12.582  13.371  1.00  0.00     0.205 HD
ATOM     16  H10 UNL     1      10.078  14.794  13.940  1.00  0.00     0.189 HD
BRANCH  11  17
HETATM   17  N1  UNL     1      13.275  12.003  14.965  1.00  0.00    -0.233 N 
ATOM     18  H12 UNL     1      13.165  11.086  14.532  1.00  0.00     0.174 HD
ATOM     19  H11 UNL     1      14.166  11.993  15.461  1.00  0.00     0.174 HD
ENDBRANCH  11  17
ENDBRANCH   8   9
ENDBRANCH   1   8
BRANCH   7  20
HETATM   20  C5  UNL     1      14.085  17.640  15.247  1.00  0.00     0.262 C 
HETATM   21  N7  UNL     1      14.011  18.790  14.681  1.00  0.00    -0.249 N 
ATOM     22  H7  UNL     1      13.786  19.607  15.249  1.00  0.00     0.192 HD
BRANCH  20  23
HETATM   23  O1  UNL     1      14.390  16.541  14.465  1.00  0.00    -0.330 OA
ATOM     24  H1  UNL     1      14.013  16.475  13.596  1.00  0.00     0.221 HD
ENDBRANCH  20  23
BRANCH  21  25
HETATM   25  N8  UNL     1      14.227  18.958  13.320  1.00  0.00    -0.246 N 
ATOM     26  H8  UNL     1      15.166  19.204  13.004  1.00  0.00     0.208 HD
BRANCH  25  27
HETATM   27  N9  UNL     1      13.228  18.807  12.371  1.00  0.00    -0.331 N 
ATOM     28  H92 UNL     1      12.422  18.237  12.624  1.00  0.00     0.178 HD
ATOM     29  H91 UNL     1      13.269  19.237  11.447  1.00  0.00     0.178 HD
ENDBRANCH  25  27
ENDBRANCH  21  25
ENDBRANCH   7  20
BRANCH   4  30
HETATM   30  N4  UNL     1      14.540  17.462  20.022  1.00  0.00    -0.233 N 
ATOM     31  H42 UNL     1      14.204  17.021  20.878  1.00  0.00     0.174 HD
ATOM     32  H41 UNL     1      15.348  18.032  20.270  1.00  0.00     0.174 HD
ENDBRANCH   4  30
TORSDOF 8
ENDMDL
