MODEL 1
REMARK VINA RESULT: -7.314824762      0.000      0.000
REMARK  9 active torsions:
REMARK  status: ('A' for Active; 'I' for Inactive)
REMARK    1  A    between atoms: C2_2  and  N1_3 
REMARK       I    between atoms: N1_3  and  C3_5 
REMARK       I    between atoms: C3_5  and  N2_7 
REMARK    2  A    between atoms: N2_7  and  C4_9 
REMARK    3  A    between atoms: C6_11  and  O2_12 
REMARK    4  A    between atoms: C8_14  and  C9_15 
REMARK    5  A    between atoms: C10_16  and  C11_17 
REMARK    6  A    between atoms: C11_17  and  N3_20 
REMARK       I    between atoms: N3_20  and  C14_22 
REMARK    7  A    between atoms: C14_22  and  O4_24 
REMARK    8  A    between atoms: O4_24  and  C15_25 
REMARK    9  A    between atoms: C20_35  and  O5_36 
ROOT
HETATM    1  C9  UNL     1       4.123 -38.788  -3.511  1.00  0.00     0.094 A 
HETATM    2  C10 UNL     1       3.149 -37.856  -3.354  1.00  0.00     0.084 A 
HETATM    3  N4  UNL     1       1.987 -38.469  -3.755  1.00  0.00    -0.285 N 
ATOM      4  H4  UNL     1       1.059 -38.045  -3.766  1.00  0.00     0.188 HD
HETATM    5  N5  UNL     1       2.278 -39.693  -4.121  1.00  0.00    -0.240 N 
ATOM      6  H5  UNL     1       1.596 -40.371  -4.462  1.00  0.00     0.208 HD
HETATM    7  N6  UNL     1       3.547 -39.931  -3.993  1.00  0.00    -0.279 N 
HETATM    8  C19 UNL     1       4.282 -41.164  -4.308  1.00  0.00     0.179 C 
ENDROOT
BRANCH   1   9
HETATM    9  C8  UNL     1       5.554 -38.671  -3.330  1.00  0.00     0.061 A 
HETATM   10  C6  UNL     1       6.336 -39.140  -2.332  1.00  0.00     0.085 A 
HETATM   11  C5  UNL     1       7.741 -39.049  -2.362  1.00  0.00     0.067 A 
HETATM   12  C4  UNL     1       8.401 -38.479  -3.400  1.00  0.00     0.041 A 
HETATM   13  C22 UNL     1       7.606 -37.987  -4.437  1.00  0.00     0.067 A 
HETATM   14  C20 UNL     1       6.261 -38.082  -4.396  1.00  0.00     0.085 A 
BRANCH  10  15
HETATM   15  O2  UNL     1       5.768 -39.719  -1.228  1.00  0.00    -0.355 OA
HETATM   16  C7  UNL     1       5.821 -41.050  -0.840  1.00  0.00     0.210 C 
ENDBRANCH  10  15
BRANCH  12  17
HETATM   17  N2  UNL     1       9.782 -38.307  -3.544  1.00  0.00    -0.309 N 
HETATM   18  C3  UNL     1      10.736 -39.275  -3.196  1.00  0.00     0.320 C 
HETATM   19  N1  UNL     1      12.147 -39.020  -3.390  1.00  0.00    -0.343 N 
HETATM   20  O1  UNL     1      10.483 -40.399  -2.707  1.00  0.00    -0.247 OA
ATOM     21  H1  UNL     1      12.462 -38.133  -3.783  1.00  0.00     0.164 HD
ATOM     22  H2  UNL     1      10.116 -37.422  -3.927  1.00  0.00     0.170 HD
BRANCH  19  23
HETATM   23  C2  UNL     1      13.102 -40.031  -3.023  1.00  0.00     0.120 C 
HETATM   24  C1  UNL     1      13.766 -39.628  -1.728  1.00  0.00     0.026 C 
ENDBRANCH  19  23
ENDBRANCH  12  17
BRANCH  14  25
HETATM   25  O5  UNL     1       5.512 -37.584  -5.447  1.00  0.00    -0.355 OA
HETATM   26  C21 UNL     1       6.059 -36.550  -6.233  1.00  0.00     0.210 C 
ENDBRANCH  14  25
ENDBRANCH   1   9
BRANCH   2  27
HETATM   27  C11 UNL     1       3.122 -36.482  -2.830  1.00  0.00     0.074 C 
HETATM   28  C12 UNL     1       1.933 -36.007  -2.114  1.00  0.00     0.045 C 
HETATM   29  C13 UNL     1       4.278 -36.391  -1.793  1.00  0.00     0.045 C 
BRANCH  27  30
HETATM   30  N3  UNL     1       3.593 -35.576  -3.894  1.00  0.00    -0.323 N 
HETATM   31  C14 UNL     1       2.787 -35.128  -4.959  1.00  0.00     0.362 C 
HETATM   32  O3  UNL     1       1.606 -35.493  -5.047  1.00  0.00    -0.238 OA
ATOM     33  H3  UNL     1       4.560 -35.255  -3.857  1.00  0.00     0.166 HD
BRANCH  31  34
HETATM   34  O4  UNL     1       3.283 -34.283  -5.918  1.00  0.00    -0.294 OA
BRANCH  34  35
HETATM   35  C15 UNL     1       3.084 -34.381  -7.290  1.00  0.00     0.061 C 
HETATM   36  C16 UNL     1       1.961 -33.558  -7.833  1.00  0.00     0.046 C 
HETATM   37  C17 UNL     1       2.916 -35.806  -7.770  1.00  0.00     0.046 C 
HETATM   38  C18 UNL     1       4.366 -33.863  -7.959  1.00  0.00     0.046 C 
ENDBRANCH  34  35
ENDBRANCH  31  34
ENDBRANCH  27  30
ENDBRANCH   2  27
TORSDOF 9
ENDMDL
MODEL 2
REMARK VINA RESULT: -7.196310932      2.693      6.980
REMARK  9 active torsions:
REMARK  status: ('A' for Active; 'I' for Inactive)
REMARK    1  A    between atoms: C2_2  and  N1_3 
REMARK       I    between atoms: N1_3  and  C3_5 
REMARK       I    between atoms: C3_5  and  N2_7 
REMARK    2  A    between atoms: N2_7  and  C4_9 
REMARK    3  A    between atoms: C6_11  and  O2_12 
REMARK    4  A    between atoms: C8_14  and  C9_15 
REMARK    5  A    between atoms: C10_16  and  C11_17 
REMARK    6  A    between atoms: C11_17  and  N3_20 
REMARK       I    between atoms: N3_20  and  C14_22 
REMARK    7  A    between atoms: C14_22  and  O4_24 
REMARK    8  A    between atoms: O4_24  and  C15_25 
REMARK    9  A    between atoms: C20_35  and  O5_36 
ROOT
HETATM    1  C9  UNL     1       3.997 -39.414  -2.262  1.00  0.00     0.094 A 
HETATM    2  C10 UNL     1       5.259 -39.907  -2.190  1.00  0.00     0.084 A 
HETATM    3  N4  UNL     1       5.365 -40.464  -0.940  1.00  0.00    -0.285 N 
ATOM      4  H4  UNL     1       6.192 -40.924  -0.557  1.00  0.00     0.188 HD
HETATM    5  N5  UNL     1       4.220 -40.303  -0.324  1.00  0.00    -0.240 N 
ATOM      6  H5  UNL     1       4.024 -40.627   0.623  1.00  0.00     0.208 HD
HETATM    7  N6  UNL     1       3.368 -39.678  -1.076  1.00  0.00    -0.279 N 
HETATM    8  C19 UNL     1       1.987 -39.284  -0.761  1.00  0.00     0.179 C 
ENDROOT
BRANCH   1   9
HETATM    9  C8  UNL     1       3.361 -38.644  -3.309  1.00  0.00     0.061 A 
HETATM   10  C6  UNL     1       2.525 -39.052  -4.290  1.00  0.00     0.085 A 
HETATM   11  C5  UNL     1       1.887 -38.153  -5.166  1.00  0.00     0.067 A 
HETATM   12  C4  UNL     1       2.076 -36.814  -5.083  1.00  0.00     0.041 A 
HETATM   13  C22 UNL     1       2.940 -36.378  -4.076  1.00  0.00     0.067 A 
HETATM   14  C20 UNL     1       3.543 -37.249  -3.242  1.00  0.00     0.085 A 
BRANCH  10  15
HETATM   15  O2  UNL     1       2.279 -40.387  -4.471  1.00  0.00    -0.355 OA
HETATM   16  C7  UNL     1       1.167 -41.113  -4.068  1.00  0.00     0.210 C 
ENDBRANCH  10  15
BRANCH  12  17
HETATM   17  N2  UNL     1       1.524 -35.819  -5.898  1.00  0.00    -0.309 N 
HETATM   18  C3  UNL     1       2.083 -35.399  -7.115  1.00  0.00     0.320 C 
HETATM   19  N1  UNL     1       1.439 -34.372  -7.904  1.00  0.00    -0.343 N 
HETATM   20  O1  UNL     1       3.140 -35.843  -7.618  1.00  0.00    -0.247 OA
ATOM     21  H1  UNL     1       0.571 -33.943  -7.582  1.00  0.00     0.164 HD
ATOM     22  H2  UNL     1       0.660 -35.373  -5.589  1.00  0.00     0.170 HD
BRANCH  19  23
HETATM   23  C2  UNL     1       2.037 -33.960  -9.146  1.00  0.00     0.120 C 
HETATM   24  C1  UNL     1       1.111 -34.331 -10.279  1.00  0.00     0.026 C 
ENDBRANCH  19  23
ENDBRANCH  12  17
BRANCH  14  25
HETATM   25  O5  UNL     1       4.390 -36.773  -2.258  1.00  0.00    -0.355 OA
HETATM   26  C21 UNL     1       3.935 -35.729  -1.427  1.00  0.00     0.210 C 
ENDBRANCH  14  25
ENDBRANCH   1   9
BRANCH   2  27
HETATM   27  C11 UNL     1       6.381 -39.989  -3.139  1.00  0.00     0.074 C 
HETATM   28  C12 UNL     1       7.582 -40.747  -2.771  1.00  0.00     0.045 C 
HETATM   29  C13 UNL     1       5.827 -40.704  -4.404  1.00  0.00     0.045 C 
BRANCH  27  30
HETATM   30  N3  UNL     1       6.651 -38.631  -3.648  1.00  0.00    -0.323 N 
HETATM   31  C14 UNL     1       7.930 -38.169  -4.016  1.00  0.00     0.362 C 
HETATM   32  O3  UNL     1       8.916 -38.915  -3.921  1.00  0.00    -0.238 OA
ATOM     33  H3  UNL     1       5.865 -37.988  -3.738  1.00  0.00     0.166 HD
BRANCH  31  34
HETATM   34  O4  UNL     1       8.117 -36.895  -4.485  1.00  0.00    -0.294 OA
BRANCH  34  35
HETATM   35  C15 UNL     1       8.016 -36.477  -5.806  1.00  0.00     0.061 C 
HETATM   36  C16 UNL     1       6.626 -36.208  -6.286  1.00  0.00     0.046 C 
HETATM   37  C17 UNL     1       8.693 -37.414  -6.784  1.00  0.00     0.046 C 
HETATM   38  C18 UNL     1       8.776 -35.146  -5.907  1.00  0.00     0.046 C 
ENDBRANCH  34  35
ENDBRANCH  31  34
ENDBRANCH  27  30
ENDBRANCH   2  27
TORSDOF 9
ENDMDL
MODEL 3
REMARK VINA RESULT: -7.129535066      2.295      3.600
REMARK  9 active torsions:
REMARK  status: ('A' for Active; 'I' for Inactive)
REMARK    1  A    between atoms: C2_2  and  N1_3 
REMARK       I    between atoms: N1_3  and  C3_5 
REMARK       I    between atoms: C3_5  and  N2_7 
REMARK    2  A    between atoms: N2_7  and  C4_9 
REMARK    3  A    between atoms: C6_11  and  O2_12 
REMARK    4  A    between atoms: C8_14  and  C9_15 
REMARK    5  A    between atoms: C10_16  and  C11_17 
REMARK    6  A    between atoms: C11_17  and  N3_20 
REMARK       I    between atoms: N3_20  and  C14_22 
REMARK    7  A    between atoms: C14_22  and  O4_24 
REMARK    8  A    between atoms: O4_24  and  C15_25 
REMARK    9  A    between atoms: C20_35  and  O5_36 
ROOT
HETATM    1  C9  UNL     1       2.151 -39.076  -2.047  1.00  0.00     0.094 A 
HETATM    2  C10 UNL     1       1.974 -37.739  -2.200  1.00  0.00     0.084 A 
HETATM    3  N4  UNL     1       0.640 -37.515  -1.967  1.00  0.00    -0.285 N 
ATOM      4  H4  UNL     1       0.169 -36.611  -2.003  1.00  0.00     0.188 HD
HETATM    5  N5  UNL     1       0.077 -38.666  -1.691  1.00  0.00    -0.240 N 
ATOM      6  H5  UNL     1      -0.913 -38.787  -1.476  1.00  0.00     0.208 HD
HETATM    7  N6  UNL     1       0.942 -39.632  -1.727  1.00  0.00    -0.279 N 
HETATM    8  C19 UNL     1       0.722 -41.067  -1.498  1.00  0.00     0.179 C 
ENDROOT
BRANCH   1   9
HETATM    9  C8  UNL     1       3.332 -39.884  -2.259  1.00  0.00     0.061 A 
HETATM   10  C6  UNL     1       3.830 -40.396  -3.406  1.00  0.00     0.085 A 
HETATM   11  C5  UNL     1       5.068 -41.065  -3.465  1.00  0.00     0.067 A 
HETATM   12  C4  UNL     1       5.841 -41.241  -2.366  1.00  0.00     0.041 A 
HETATM   13  C22 UNL     1       5.338 -40.720  -1.172  1.00  0.00     0.067 A 
HETATM   14  C20 UNL     1       4.151 -40.080  -1.130  1.00  0.00     0.085 A 
BRANCH  10  15
HETATM   15  O2  UNL     1       3.119 -40.288  -4.572  1.00  0.00    -0.355 OA
HETATM   16  C7  UNL     1       2.085 -41.097  -5.020  1.00  0.00     0.210 C 
ENDBRANCH  10  15
BRANCH  12  17
HETATM   17  N2  UNL     1       7.072 -41.901  -2.283  1.00  0.00    -0.309 N 
HETATM   18  C3  UNL     1       8.315 -41.269  -2.438  1.00  0.00     0.320 C 
HETATM   19  N1  UNL     1       9.544 -42.024  -2.324  1.00  0.00    -0.343 N 
HETATM   20  O1  UNL     1       8.484 -40.052  -2.678  1.00  0.00    -0.247 OA
ATOM     21  H1  UNL     1       9.517 -43.025  -2.129  1.00  0.00     0.164 HD
ATOM     22  H2  UNL     1       7.065 -42.904  -2.098  1.00  0.00     0.170 HD
BRANCH  19  23
HETATM   23  C2  UNL     1      10.803 -41.349  -2.489  1.00  0.00     0.120 C 
HETATM   24  C1  UNL     1      11.859 -42.367  -2.848  1.00  0.00     0.026 C 
ENDBRANCH  19  23
ENDBRANCH  12  17
BRANCH  14  25
HETATM   25  O5  UNL     1       3.692 -39.577   0.074  1.00  0.00    -0.355 OA
HETATM   26  C21 UNL     1       3.337 -40.486   1.091  1.00  0.00     0.210 C 
ENDBRANCH  14  25
ENDBRANCH   1   9
BRANCH   2  27
HETATM   27  C11 UNL     1       2.879 -36.613  -2.480  1.00  0.00     0.074 C 
HETATM   28  C12 UNL     1       2.457 -35.249  -2.143  1.00  0.00     0.045 C 
HETATM   29  C13 UNL     1       4.155 -36.860  -1.625  1.00  0.00     0.045 C 
BRANCH  27  30
HETATM   30  N3  UNL     1       3.394 -36.768  -3.853  1.00  0.00    -0.323 N 
HETATM   31  C14 UNL     1       2.595 -36.661  -5.009  1.00  0.00     0.362 C 
HETATM   32  O3  UNL     1       1.383 -36.424  -4.912  1.00  0.00    -0.238 OA
ATOM     33  H3  UNL     1       4.387 -36.965  -3.973  1.00  0.00     0.166 HD
BRANCH  31  34
HETATM   34  O4  UNL     1       3.134 -36.813  -6.260  1.00  0.00    -0.294 OA
BRANCH  34  35
HETATM   35  C15 UNL     1       3.949 -35.906  -6.926  1.00  0.00     0.061 C 
HETATM   36  C16 UNL     1       5.416 -36.080  -6.698  1.00  0.00     0.046 C 
HETATM   37  C17 UNL     1       3.585 -34.462  -6.654  1.00  0.00     0.046 C 
HETATM   38  C18 UNL     1       3.714 -36.121  -8.429  1.00  0.00     0.046 C 
ENDBRANCH  34  35
ENDBRANCH  31  34
ENDBRANCH  27  30
ENDBRANCH   2  27
TORSDOF 9
ENDMDL
MODEL 4
REMARK VINA RESULT: -7.079972121      3.230      6.630
REMARK  9 active torsions:
REMARK  status: ('A' for Active; 'I' for Inactive)
REMARK    1  A    between atoms: C2_2  and  N1_3 
REMARK       I    between atoms: N1_3  and  C3_5 
REMARK       I    between atoms: C3_5  and  N2_7 
REMARK    2  A    between atoms: N2_7  and  C4_9 
REMARK    3  A    between atoms: C6_11  and  O2_12 
REMARK    4  A    between atoms: C8_14  and  C9_15 
REMARK    5  A    between atoms: C10_16  and  C11_17 
REMARK    6  A    between atoms: C11_17  and  N3_20 
REMARK       I    between atoms: N3_20  and  C14_22 
REMARK    7  A    between atoms: C14_22  and  O4_24 
REMARK    8  A    between atoms: O4_24  and  C15_25 
REMARK    9  A    between atoms: C20_35  and  O5_36 
ROOT
HETATM    1  C9  UNL     1       4.146 -38.237  -2.574  1.00  0.00     0.094 A 
HETATM    2  C10 UNL     1       3.749 -39.528  -2.433  1.00  0.00     0.084 A 
HETATM    3  N4  UNL     1       3.429 -39.670  -1.106  1.00  0.00    -0.285 N 
ATOM      4  H4  UNL     1       3.094 -40.524  -0.659  1.00  0.00     0.188 HD
HETATM    5  N5  UNL     1       3.628 -38.518  -0.513  1.00  0.00    -0.240 N 
ATOM      6  H5  UNL     1       3.466 -38.344   0.479  1.00  0.00     0.208 HD
HETATM    7  N6  UNL     1       4.059 -37.628  -1.352  1.00  0.00    -0.279 N 
HETATM    8  C19 UNL     1       4.420 -36.227  -1.094  1.00  0.00     0.179 C 
ENDROOT
BRANCH   1   9
HETATM    9  C8  UNL     1       4.679 -37.554  -3.733  1.00  0.00     0.061 A 
HETATM   10  C6  UNL     1       5.918 -37.608  -4.269  1.00  0.00     0.085 A 
HETATM   11  C5  UNL     1       6.250 -36.973  -5.482  1.00  0.00     0.067 A 
HETATM   12  C4  UNL     1       5.340 -36.260  -6.189  1.00  0.00     0.041 A 
HETATM   13  C22 UNL     1       4.056 -36.192  -5.646  1.00  0.00     0.067 A 
HETATM   14  C20 UNL     1       3.752 -36.806  -4.484  1.00  0.00     0.085 A 
BRANCH  10  15
HETATM   15  O2  UNL     1       6.917 -38.289  -3.624  1.00  0.00    -0.355 OA
HETATM   16  C7  UNL     1       8.246 -38.415  -4.002  1.00  0.00     0.210 C 
ENDBRANCH  10  15
BRANCH  12  17
HETATM   17  N2  UNL     1       5.542 -35.567  -7.389  1.00  0.00    -0.309 N 
HETATM   18  C3  UNL     1       4.837 -35.824  -8.574  1.00  0.00     0.320 C 
HETATM   19  N1  UNL     1       5.099 -35.051  -9.768  1.00  0.00    -0.343 N 
HETATM   20  O1  UNL     1       3.955 -36.701  -8.717  1.00  0.00    -0.247 OA
ATOM     21  H1  UNL     1       5.801 -34.311  -9.759  1.00  0.00     0.164 HD
ATOM     22  H2  UNL     1       6.247 -34.829  -7.402  1.00  0.00     0.170 HD
BRANCH  19  23
HETATM   23  C2  UNL     1       4.361 -35.338 -10.969  1.00  0.00     0.120 C 
HETATM   24  C1  UNL     1       2.962 -34.789 -10.825  1.00  0.00     0.026 C 
ENDBRANCH  19  23
ENDBRANCH  12  17
BRANCH  14  25
HETATM   25  O5  UNL     1       2.466 -36.715  -3.984  1.00  0.00    -0.355 OA
HETATM   26  C21 UNL     1       1.386 -36.978  -4.850  1.00  0.00     0.210 C 
ENDBRANCH  14  25
ENDBRANCH   1   9
BRANCH   2  27
HETATM   27  C11 UNL     1       3.567 -40.650  -3.367  1.00  0.00     0.074 C 
HETATM   28  C12 UNL     1       4.699 -41.094  -4.188  1.00  0.00     0.045 C 
HETATM   29  C13 UNL     1       3.196 -41.883  -2.496  1.00  0.00     0.045 C 
BRANCH  27  30
HETATM   30  N3  UNL     1       2.321 -40.420  -4.122  1.00  0.00    -0.323 N 
HETATM   31  C14 UNL     1       1.857 -41.266  -5.149  1.00  0.00     0.362 C 
HETATM   32  O3  UNL     1       2.503 -42.272  -5.471  1.00  0.00    -0.238 OA
ATOM     33  H3  UNL     1       1.763 -39.600  -3.886  1.00  0.00     0.166 HD
BRANCH  31  34
HETATM   34  O4  UNL     1       0.687 -41.000  -5.813  1.00  0.00    -0.294 OA
BRANCH  34  35
HETATM   35  C15 UNL     1      -0.598 -41.097  -5.295  1.00  0.00     0.061 C 
HETATM   36  C16 UNL     1      -1.100 -39.874  -4.598  1.00  0.00     0.046 C 
HETATM   37  C17 UNL     1      -0.786 -42.287  -4.379  1.00  0.00     0.046 C 
HETATM   38  C18 UNL     1      -1.537 -41.334  -6.488  1.00  0.00     0.046 C 
ENDBRANCH  34  35
ENDBRANCH  31  34
ENDBRANCH  27  30
ENDBRANCH   2  27
TORSDOF 9
ENDMDL
MODEL 5
REMARK VINA RESULT: -7.027069847      0.478      2.286
REMARK  9 active torsions:
REMARK  status: ('A' for Active; 'I' for Inactive)
REMARK    1  A    between atoms: C2_2  and  N1_3 
REMARK       I    between atoms: N1_3  and  C3_5 
REMARK       I    between atoms: C3_5  and  N2_7 
REMARK    2  A    between atoms: N2_7  and  C4_9 
REMARK    3  A    between atoms: C6_11  and  O2_12 
REMARK    4  A    between atoms: C8_14  and  C9_15 
REMARK    5  A    between atoms: C10_16  and  C11_17 
REMARK    6  A    between atoms: C11_17  and  N3_20 
REMARK       I    between atoms: N3_20  and  C14_22 
REMARK    7  A    between atoms: C14_22  and  O4_24 
REMARK    8  A    between atoms: O4_24  and  C15_25 
REMARK    9  A    between atoms: C20_35  and  O5_36 
ROOT
HETATM    1  C9  UNL     1       4.277 -38.791  -3.710  1.00  0.00     0.094 A 
HETATM    2  C10 UNL     1       3.292 -37.945  -3.317  1.00  0.00     0.084 A 
HETATM    3  N4  UNL     1       2.128 -38.666  -3.414  1.00  0.00    -0.285 N 
ATOM      4  H4  UNL     1       1.192 -38.325  -3.194  1.00  0.00     0.188 HD
HETATM    5  N5  UNL     1       2.429 -39.869  -3.839  1.00  0.00    -0.240 N 
ATOM      6  H5  UNL     1       1.747 -40.611  -3.998  1.00  0.00     0.208 HD
HETATM    7  N6  UNL     1       3.705 -39.992  -4.031  1.00  0.00    -0.279 N 
HETATM    8  C19 UNL     1       4.448 -41.163  -4.518  1.00  0.00     0.179 C 
ENDROOT
BRANCH   1   9
HETATM    9  C8  UNL     1       5.691 -38.545  -3.892  1.00  0.00     0.061 A 
HETATM   10  C6  UNL     1       6.323 -37.808  -4.832  1.00  0.00     0.085 A 
HETATM   11  C5  UNL     1       7.709 -37.564  -4.801  1.00  0.00     0.067 A 
HETATM   12  C4  UNL     1       8.503 -38.059  -3.821  1.00  0.00     0.041 A 
HETATM   13  C22 UNL     1       7.865 -38.825  -2.843  1.00  0.00     0.067 A 
HETATM   14  C20 UNL     1       6.536 -39.051  -2.884  1.00  0.00     0.085 A 
BRANCH  10  15
HETATM   15  O2  UNL     1       5.615 -37.276  -5.877  1.00  0.00    -0.355 OA
HETATM   16  C7  UNL     1       6.001 -36.260  -6.740  1.00  0.00     0.210 C 
ENDBRANCH  10  15
BRANCH  12  17
HETATM   17  N2  UNL     1       9.888 -37.910  -3.684  1.00  0.00    -0.309 N 
HETATM   18  C3  UNL     1      10.754 -38.937  -3.280  1.00  0.00     0.320 C 
HETATM   19  N1  UNL     1      12.177 -38.701  -3.177  1.00  0.00    -0.343 N 
HETATM   20  O1  UNL     1      10.406 -40.102  -2.982  1.00  0.00    -0.247 OA
ATOM     21  H1  UNL     1      12.565 -37.783  -3.398  1.00  0.00     0.164 HD
ATOM     22  H2  UNL     1      10.293 -36.996  -3.892  1.00  0.00     0.170 HD
BRANCH  19  23
HETATM   23  C2  UNL     1      13.040 -39.773  -2.758  1.00  0.00     0.120 C 
HETATM   24  C1  UNL     1      13.590 -39.451  -1.390  1.00  0.00     0.026 C 
ENDBRANCH  19  23
ENDBRANCH  12  17
BRANCH  14  25
HETATM   25  O5  UNL     1       5.945 -39.813  -1.893  1.00  0.00    -0.355 OA
HETATM   26  C21 UNL     1       6.642 -40.002  -0.684  1.00  0.00     0.210 C 
ENDBRANCH  14  25
ENDBRANCH   1   9
BRANCH   2  27
HETATM   27  C11 UNL     1       3.272 -36.565  -2.805  1.00  0.00     0.074 C 
HETATM   28  C12 UNL     1       2.086 -36.079  -2.092  1.00  0.00     0.045 C 
HETATM   29  C13 UNL     1       4.429 -36.471  -1.770  1.00  0.00     0.045 C 
BRANCH  27  30
HETATM   30  N3  UNL     1       3.746 -35.672  -3.878  1.00  0.00    -0.323 N 
HETATM   31  C14 UNL     1       2.914 -35.139  -4.883  1.00  0.00     0.362 C 
HETATM   32  O3  UNL     1       1.706 -35.414  -4.905  1.00  0.00    -0.238 OA
ATOM     33  H3  UNL     1       4.735 -35.424  -3.893  1.00  0.00     0.166 HD
BRANCH  31  34
HETATM   34  O4  UNL     1       3.414 -34.310  -5.853  1.00  0.00    -0.294 OA
BRANCH  34  35
HETATM   35  C15 UNL     1       2.918 -34.151  -7.141  1.00  0.00     0.061 C 
HETATM   36  C16 UNL     1       1.767 -33.206  -7.270  1.00  0.00     0.046 C 
HETATM   37  C17 UNL     1       2.547 -35.459  -7.806  1.00  0.00     0.046 C 
HETATM   38  C18 UNL     1       4.060 -33.562  -7.984  1.00  0.00     0.046 C 
ENDBRANCH  34  35
ENDBRANCH  31  34
ENDBRANCH  27  30
ENDBRANCH   2  27
TORSDOF 9
ENDMDL
