MODEL 1
REMARK VINA RESULT: -6.892709891      0.000      0.000
REMARK  9 active torsions:
REMARK  status: ('A' for Active; 'I' for Inactive)
REMARK    1  A    between atoms: N1_2  and  N2_3 
REMARK       I    between atoms: N1_2  and  C2_6 
REMARK    2  A    between atoms: C2_6  and  C3_8 
REMARK    3  A    between atoms: C3_8  and  C4_9 
REMARK    4  A    between atoms: C3_8  and  N9_26 
REMARK    5  A    between atoms: C4_9  and  N3_10 
REMARK    6  A    between atoms: C6_12  and  C7_13 
REMARK    7  A    between atoms: C7_13  and  N5_17 
REMARK    8  A    between atoms: N5_17  and  N6_19 
REMARK    9  A    between atoms: N9_26  and  N10_27 
ROOT
HETATM    1  N3  UNL     1      -0.244  -4.533   2.181  1.00  0.00    -0.285 N 
HETATM    2  C5  UNL     1       0.516  -4.710   1.083  1.00  0.00     0.146 A 
HETATM    3  C6  UNL     1      -0.185  -4.366  -0.044  1.00  0.00     0.111 A 
HETATM    4  N7  UNL     1      -1.404  -3.973   0.422  1.00  0.00    -0.281 N 
ATOM      5  H7  UNL     1      -2.185  -3.648  -0.149  1.00  0.00     0.188 HD
HETATM    6  N8  UNL     1      -1.403  -4.084   1.730  1.00  0.00    -0.240 N 
ATOM      7  H8  UNL     1      -2.198  -3.852   2.325  1.00  0.00     0.208 HD
ENDROOT
BRANCH   1   8
HETATM    8  C4  UNL     1       0.120  -4.781   3.591  1.00  0.00     0.182 C 
BRANCH   8   9
HETATM    9  C3  UNL     1      -0.525  -3.665   4.362  1.00  0.00     0.212 C 
BRANCH   9  10
HETATM   10  C2  UNL     1      -0.001  -2.320   4.081  1.00  0.00     0.260 C 
HETATM   11  N1  UNL     1      -0.719  -1.148   3.833  1.00  0.00    -0.271 N 
HETATM   12  C1  UNL     1      -2.156  -1.154   3.852  1.00  0.00     0.180 C 
HETATM   13  O1  UNL     1       1.284  -2.201   4.061  1.00  0.00    -0.270 OA
BRANCH  11  14
HETATM   14  N2  UNL     1      -0.055   0.045   3.562  1.00  0.00    -0.341 N 
ATOM     15  H22 UNL     1      -0.461   0.939   3.837  1.00  0.00     0.177 HD
ATOM     16  H21 UNL     1       0.846   0.011   3.086  1.00  0.00     0.177 HD
ENDBRANCH  11  14
ENDBRANCH   9  10
BRANCH   9  17
HETATM   17  N9  UNL     1      -0.408  -3.999   5.783  1.00  0.00    -0.132 NA
BRANCH  17  18
HETATM   18  N10 UNL     1       0.262  -3.051   6.526  1.00  0.00    -0.348 N 
ATOM     19 2H10 UNL     1       0.011  -2.063   6.499  1.00  0.00     0.172 HD
ATOM     20 1H10 UNL     1       1.019  -3.430   7.095  1.00  0.00     0.172 HD
ENDBRANCH  17  18
ENDBRANCH   9  17
ENDBRANCH   8   9
ENDBRANCH   1   8
BRANCH   3  21
HETATM   21  C7  UNL     1       0.236  -4.397  -1.440  1.00  0.00     0.143 C 
HETATM   22  N4  UNL     1       1.364  -4.909  -1.781  1.00  0.00    -0.383 N 
ATOM     23  H42 UNL     1       1.995  -5.309  -1.087  1.00  0.00     0.157 HD
ATOM     24  H41 UNL     1       1.659  -4.931  -2.758  1.00  0.00     0.157 HD
BRANCH  21  25
HETATM   25  N5  UNL     1      -0.643  -3.840  -2.406  1.00  0.00    -0.291 N 
ATOM     26  H5  UNL     1      -0.942  -2.870  -2.300  1.00  0.00     0.188 HD
BRANCH  25  27
HETATM   27  N6  UNL     1      -1.110  -4.574  -3.493  1.00  0.00    -0.344 N 
ATOM     28  H62 UNL     1      -0.426  -4.910  -4.172  1.00  0.00     0.176 HD
ATOM     29  H61 UNL     1      -2.100  -4.779  -3.625  1.00  0.00     0.176 HD
ENDBRANCH  25  27
ENDBRANCH  21  25
ENDBRANCH   3  21
TORSDOF 9
ENDMDL
MODEL 2
REMARK VINA RESULT: -6.072476550      1.858      2.446
REMARK  9 active torsions:
REMARK  status: ('A' for Active; 'I' for Inactive)
REMARK    1  A    between atoms: N1_2  and  N2_3 
REMARK       I    between atoms: N1_2  and  C2_6 
REMARK    2  A    between atoms: C2_6  and  C3_8 
REMARK    3  A    between atoms: C3_8  and  C4_9 
REMARK    4  A    between atoms: C3_8  and  N9_26 
REMARK    5  A    between atoms: C4_9  and  N3_10 
REMARK    6  A    between atoms: C6_12  and  C7_13 
REMARK    7  A    between atoms: C7_13  and  N5_17 
REMARK    8  A    between atoms: N5_17  and  N6_19 
REMARK    9  A    between atoms: N9_26  and  N10_27 
ROOT
HETATM    1  N3  UNL     1       0.122  -4.670   0.326  1.00  0.00    -0.285 N 
HETATM    2  C5  UNL     1      -0.037  -3.797  -0.688  1.00  0.00     0.146 A 
HETATM    3  C6  UNL     1      -0.304  -4.464  -1.857  1.00  0.00     0.111 A 
HETATM    4  N7  UNL     1      -0.297  -5.780  -1.503  1.00  0.00    -0.281 N 
ATOM      5  H7  UNL     1      -0.461  -6.567  -2.131  1.00  0.00     0.188 HD
HETATM    6  N8  UNL     1      -0.046  -5.863  -0.218  1.00  0.00    -0.240 N 
ATOM      7  H8  UNL     1       0.014  -6.741   0.298  1.00  0.00     0.208 HD
ENDROOT
BRANCH   1   8
HETATM    8  C4  UNL     1       0.418  -4.376   1.742  1.00  0.00     0.182 C 
BRANCH   8   9
HETATM    9  C3  UNL     1      -0.925  -4.249   2.403  1.00  0.00     0.212 C 
BRANCH   9  10
HETATM   10  C2  UNL     1      -1.254  -2.908   2.909  1.00  0.00     0.260 C 
HETATM   11  N1  UNL     1      -1.067  -2.400   4.197  1.00  0.00    -0.271 N 
HETATM   12  C1  UNL     1      -0.466  -3.211   5.221  1.00  0.00     0.180 C 
HETATM   13  O1  UNL     1      -1.782  -2.092   2.060  1.00  0.00    -0.270 OA
BRANCH  11  14
HETATM   14  N2  UNL     1      -1.459  -1.102   4.510  1.00  0.00    -0.341 N 
ATOM     15  H22 UNL     1      -1.769  -0.867   5.452  1.00  0.00     0.177 HD
ATOM     16  H21 UNL     1      -1.431  -0.389   3.781  1.00  0.00     0.177 HD
ENDBRANCH  11  14
ENDBRANCH   9  10
BRANCH   9  17
HETATM   17  N9  UNL     1      -0.977  -5.251   3.470  1.00  0.00    -0.132 NA
BRANCH  17  18
HETATM   18  N10 UNL     1       0.247  -5.801   3.781  1.00  0.00    -0.348 N 
ATOM     19 2H10 UNL     1       0.911  -6.088   3.063  1.00  0.00     0.172 HD
ATOM     20 1H10 UNL     1       0.419  -5.890   4.783  1.00  0.00     0.172 HD
ENDBRANCH  17  18
ENDBRANCH   9  17
ENDBRANCH   8   9
ENDBRANCH   1   8
BRANCH   3  21
HETATM   21  C7  UNL     1      -0.544  -3.930  -3.192  1.00  0.00     0.143 C 
HETATM   22  N4  UNL     1       0.376  -3.297  -3.828  1.00  0.00    -0.383 N 
ATOM     23  H42 UNL     1       1.299  -3.151  -3.418  1.00  0.00     0.157 HD
ATOM     24  H41 UNL     1       0.209  -2.923  -4.762  1.00  0.00     0.157 HD
BRANCH  21  25
HETATM   25  N5  UNL     1      -1.828  -4.133  -3.762  1.00  0.00    -0.291 N 
ATOM     26  H5  UNL     1      -2.506  -3.372  -3.733  1.00  0.00     0.188 HD
BRANCH  25  27
HETATM   27  N6  UNL     1      -2.191  -5.337  -4.359  1.00  0.00    -0.344 N 
ATOM     28  H62 UNL     1      -2.324  -5.348  -5.370  1.00  0.00     0.176 HD
ATOM     29  H61 UNL     1      -2.326  -6.192  -3.819  1.00  0.00     0.176 HD
ENDBRANCH  25  27
ENDBRANCH  21  25
ENDBRANCH   3  21
TORSDOF 9
ENDMDL
MODEL 3
REMARK VINA RESULT: -6.042303711      1.129      1.315
REMARK  9 active torsions:
REMARK  status: ('A' for Active; 'I' for Inactive)
REMARK    1  A    between atoms: N1_2  and  N2_3 
REMARK       I    between atoms: N1_2  and  C2_6 
REMARK    2  A    between atoms: C2_6  and  C3_8 
REMARK    3  A    between atoms: C3_8  and  C4_9 
REMARK    4  A    between atoms: C3_8  and  N9_26 
REMARK    5  A    between atoms: C4_9  and  N3_10 
REMARK    6  A    between atoms: C6_12  and  C7_13 
REMARK    7  A    between atoms: C7_13  and  N5_17 
REMARK    8  A    between atoms: N5_17  and  N6_19 
REMARK    9  A    between atoms: N9_26  and  N10_27 
ROOT
HETATM    1  N3  UNL     1      -0.197  -4.332   1.923  1.00  0.00    -0.285 N 
HETATM    2  C5  UNL     1       0.542  -4.587   0.825  1.00  0.00     0.146 A 
HETATM    3  C6  UNL     1      -0.179  -4.317  -0.310  1.00  0.00     0.111 A 
HETATM    4  N7  UNL     1      -1.387  -3.887   0.151  1.00  0.00    -0.281 N 
ATOM      5  H7  UNL     1      -2.177  -3.597  -0.426  1.00  0.00     0.188 HD
HETATM    6  N8  UNL     1      -1.362  -3.908   1.463  1.00  0.00    -0.240 N 
ATOM      7  H8  UNL     1      -2.145  -3.631   2.055  1.00  0.00     0.208 HD
ENDROOT
BRANCH   1   8
HETATM    8  C4  UNL     1       0.193  -4.485   3.339  1.00  0.00     0.182 C 
BRANCH   8   9
HETATM    9  C3  UNL     1      -0.934  -3.872   4.121  1.00  0.00     0.212 C 
BRANCH   9  10
HETATM   10  C2  UNL     1      -1.216  -2.460   3.818  1.00  0.00     0.260 C 
HETATM   11  N1  UNL     1      -0.315  -1.395   3.745  1.00  0.00    -0.271 N 
HETATM   12  C1  UNL     1       1.089  -1.612   3.960  1.00  0.00     0.180 C 
HETATM   13  O1  UNL     1      -2.451  -2.162   3.589  1.00  0.00    -0.270 OA
BRANCH  11  14
HETATM   14  N2  UNL     1      -0.763  -0.108   3.465  1.00  0.00    -0.341 N 
ATOM     15  H22 UNL     1      -1.531   0.044   2.812  1.00  0.00     0.177 HD
ATOM     16  H21 UNL     1      -0.311   0.683   3.924  1.00  0.00     0.177 HD
ENDBRANCH  11  14
ENDBRANCH   9  10
BRANCH   9  17
HETATM   17  N9  UNL     1      -0.628  -4.063   5.540  1.00  0.00    -0.132 NA
BRANCH  17  18
HETATM   18  N10 UNL     1       0.685  -4.399   5.789  1.00  0.00    -0.348 N 
ATOM     19 2H10 UNL     1       0.940  -5.207   6.357  1.00  0.00     0.172 HD
ATOM     20 1H10 UNL     1       1.362  -3.771   5.357  1.00  0.00     0.172 HD
ENDBRANCH  17  18
ENDBRANCH   9  17
ENDBRANCH   8   9
ENDBRANCH   1   8
BRANCH   3  21
HETATM   21  C7  UNL     1       0.216  -4.445  -1.708  1.00  0.00     0.143 C 
HETATM   22  N4  UNL     1       1.267  -5.105  -2.042  1.00  0.00    -0.383 N 
ATOM     23  H42 UNL     1       1.854  -5.558  -1.341  1.00  0.00     0.157 HD
ATOM     24  H41 UNL     1       1.544  -5.195  -3.020  1.00  0.00     0.157 HD
BRANCH  21  25
HETATM   25  N5  UNL     1      -0.600  -3.815  -2.684  1.00  0.00    -0.291 N 
ATOM     26  H5  UNL     1      -0.656  -2.797  -2.696  1.00  0.00     0.188 HD
BRANCH  25  27
HETATM   27  N6  UNL     1      -1.325  -4.542  -3.624  1.00  0.00    -0.344 N 
ATOM     28  H62 UNL     1      -1.025  -5.496  -3.826  1.00  0.00     0.176 HD
ATOM     29  H61 UNL     1      -2.134  -4.151  -4.107  1.00  0.00     0.176 HD
ENDBRANCH  25  27
ENDBRANCH  21  25
ENDBRANCH   3  21
TORSDOF 9
ENDMDL
MODEL 4
REMARK VINA RESULT: -5.578575293      1.385      2.561
REMARK  9 active torsions:
REMARK  status: ('A' for Active; 'I' for Inactive)
REMARK    1  A    between atoms: N1_2  and  N2_3 
REMARK       I    between atoms: N1_2  and  C2_6 
REMARK    2  A    between atoms: C2_6  and  C3_8 
REMARK    3  A    between atoms: C3_8  and  C4_9 
REMARK    4  A    between atoms: C3_8  and  N9_26 
REMARK    5  A    between atoms: C4_9  and  N3_10 
REMARK    6  A    between atoms: C6_12  and  C7_13 
REMARK    7  A    between atoms: C7_13  and  N5_17 
REMARK    8  A    between atoms: N5_17  and  N6_19 
REMARK    9  A    between atoms: N9_26  and  N10_27 
ROOT
HETATM    1  N3  UNL     1      -0.588  -4.255   0.961  1.00  0.00    -0.285 N 
HETATM    2  C5  UNL     1      -1.090  -4.062  -0.275  1.00  0.00     0.146 A 
HETATM    3  C6  UNL     1      -0.124  -4.280  -1.223  1.00  0.00     0.111 A 
HETATM    4  N7  UNL     1       0.986  -4.613  -0.505  1.00  0.00    -0.281 N 
ATOM      5  H7  UNL     1       1.901  -4.842  -0.893  1.00  0.00     0.188 HD
HETATM    6  N8  UNL     1       0.677  -4.588   0.770  1.00  0.00    -0.240 N 
ATOM      7  H8  UNL     1       1.333  -4.801   1.522  1.00  0.00     0.208 HD
ENDROOT
BRANCH   1   8
HETATM    8  C4  UNL     1      -1.284  -4.127   2.257  1.00  0.00     0.182 C 
BRANCH   8   9
HETATM    9  C3  UNL     1      -0.948  -2.746   2.745  1.00  0.00     0.212 C 
BRANCH   9  10
HETATM   10  C2  UNL     1       0.061  -2.683   3.813  1.00  0.00     0.260 C 
HETATM   11  N1  UNL     1       0.280  -3.595   4.849  1.00  0.00    -0.271 N 
HETATM   12  C1  UNL     1      -0.519  -4.785   4.955  1.00  0.00     0.180 C 
HETATM   13  O1  UNL     1       0.847  -1.659   3.797  1.00  0.00    -0.270 OA
BRANCH  11  14
HETATM   14  N2  UNL     1       1.275  -3.365   5.795  1.00  0.00    -0.341 N 
ATOM     15  H22 UNL     1       2.189  -3.807   5.704  1.00  0.00     0.177 HD
ATOM     16  H21 UNL     1       1.075  -2.746   6.581  1.00  0.00     0.177 HD
ENDBRANCH  11  14
ENDBRANCH   9  10
BRANCH   9  17
HETATM   17  N9  UNL     1      -2.204  -2.116   3.157  1.00  0.00    -0.132 NA
BRANCH  17  18
HETATM   18  N10 UNL     1      -2.091  -0.771   3.434  1.00  0.00    -0.348 N 
ATOM     19 2H10 UNL     1      -1.278  -0.226   3.150  1.00  0.00     0.172 HD
ATOM     20 1H10 UNL     1      -2.887  -0.384   3.941  1.00  0.00     0.172 HD
ENDBRANCH  17  18
ENDBRANCH   9  17
ENDBRANCH   8   9
ENDBRANCH   1   8
BRANCH   3  21
HETATM   21  C7  UNL     1      -0.217  -4.189  -2.675  1.00  0.00     0.143 C 
HETATM   22  N4  UNL     1       0.467  -3.319  -3.330  1.00  0.00    -0.383 N 
ATOM     23  H42 UNL     1       1.093  -2.670  -2.853  1.00  0.00     0.157 HD
ATOM     24  H41 UNL     1       0.401  -3.254  -4.346  1.00  0.00     0.157 HD
BRANCH  21  25
HETATM   25  N5  UNL     1      -1.089  -5.091  -3.338  1.00  0.00    -0.291 N 
ATOM     26  H5  UNL     1      -0.940  -6.094  -3.225  1.00  0.00     0.188 HD
BRANCH  25  27
HETATM   27  N6  UNL     1      -2.141  -4.652  -4.139  1.00  0.00    -0.344 N 
ATOM     28  H62 UNL     1      -1.912  -4.240  -5.043  1.00  0.00     0.176 HD
ATOM     29  H61 UNL     1      -3.115  -4.731  -3.847  1.00  0.00     0.176 HD
ENDBRANCH  25  27
ENDBRANCH  21  25
ENDBRANCH   3  21
TORSDOF 9
ENDMDL
MODEL 5
REMARK VINA RESULT: -5.254627159      1.566      2.747
REMARK  9 active torsions:
REMARK  status: ('A' for Active; 'I' for Inactive)
REMARK    1  A    between atoms: N1_2  and  N2_3 
REMARK       I    between atoms: N1_2  and  C2_6 
REMARK    2  A    between atoms: C2_6  and  C3_8 
REMARK    3  A    between atoms: C3_8  and  C4_9 
REMARK    4  A    between atoms: C3_8  and  N9_26 
REMARK    5  A    between atoms: C4_9  and  N3_10 
REMARK    6  A    between atoms: C6_12  and  C7_13 
REMARK    7  A    between atoms: C7_13  and  N5_17 
REMARK    8  A    between atoms: N5_17  and  N6_19 
REMARK    9  A    between atoms: N9_26  and  N10_27 
ROOT
HETATM    1  N3  UNL     1       0.368  -4.769   0.194  1.00  0.00    -0.285 N 
HETATM    2  C5  UNL     1       0.218  -3.867  -0.795  1.00  0.00     0.146 A 
HETATM    3  C6  UNL     1      -0.248  -4.477  -1.932  1.00  0.00     0.111 A 
HETATM    4  N7  UNL     1      -0.372  -5.789  -1.586  1.00  0.00    -0.281 N 
ATOM      5  H7  UNL     1      -0.697  -6.539  -2.196  1.00  0.00     0.188 HD
HETATM    6  N8  UNL     1      -0.004  -5.923  -0.333  1.00  0.00    -0.240 N 
ATOM      7  H8  UNL     1      -0.003  -6.810   0.171  1.00  0.00     0.208 HD
ENDROOT
BRANCH   1   8
HETATM    8  C4  UNL     1       0.841  -4.538   1.573  1.00  0.00     0.182 C 
BRANCH   8   9
HETATM    9  C3  UNL     1      -0.383  -4.130   2.342  1.00  0.00     0.212 C 
BRANCH   9  10
HETATM   10  C2  UNL     1      -0.177  -3.905   3.781  1.00  0.00     0.260 C 
HETATM   11  N1  UNL     1      -0.669  -2.864   4.572  1.00  0.00    -0.271 N 
HETATM   12  C1  UNL     1      -1.506  -1.845   3.999  1.00  0.00     0.180 C 
HETATM   13  O1  UNL     1       0.547  -4.778   4.398  1.00  0.00    -0.270 OA
BRANCH  11  14
HETATM   14  N2  UNL     1      -0.355  -2.795   5.926  1.00  0.00    -0.341 N 
ATOM     15  H22 UNL     1       0.486  -2.310   6.240  1.00  0.00     0.177 HD
ATOM     16  H21 UNL     1      -0.980  -3.235   6.601  1.00  0.00     0.177 HD
ENDBRANCH  11  14
ENDBRANCH   9  10
BRANCH   9  17
HETATM   17  N9  UNL     1      -1.405  -5.151   2.102  1.00  0.00    -0.132 NA
BRANCH  17  18
HETATM   18  N10 UNL     1      -2.617  -4.643   1.688  1.00  0.00    -0.348 N 
ATOM     19 2H10 UNL     1      -2.693  -3.753   1.197  1.00  0.00     0.172 HD
ATOM     20 1H10 UNL     1      -3.414  -5.236   1.917  1.00  0.00     0.172 HD
ENDBRANCH  17  18
ENDBRANCH   9  17
ENDBRANCH   8   9
ENDBRANCH   1   8
BRANCH   3  21
HETATM   21  C7  UNL     1      -0.553  -3.895  -3.234  1.00  0.00     0.143 C 
HETATM   22  N4  UNL     1       0.318  -3.193  -3.868  1.00  0.00    -0.383 N 
ATOM     23  H42 UNL     1       1.245  -3.024  -3.479  1.00  0.00     0.157 HD
ATOM     24  H41 UNL     1       0.104  -2.786  -4.778  1.00  0.00     0.157 HD
BRANCH  21  25
HETATM   25  N5  UNL     1      -1.845  -4.130  -3.775  1.00  0.00    -0.291 N 
ATOM     26  H5  UNL     1      -2.549  -3.395  -3.708  1.00  0.00     0.188 HD
BRANCH  25  27
HETATM   27  N6  UNL     1      -2.181  -5.332  -4.393  1.00  0.00    -0.344 N 
ATOM     28  H62 UNL     1      -1.457  -5.815  -4.924  1.00  0.00     0.176 HD
ATOM     29  H61 UNL     1      -3.118  -5.732  -4.328  1.00  0.00     0.176 HD
ENDBRANCH  25  27
ENDBRANCH  21  25
ENDBRANCH   3  21
TORSDOF 9
ENDMDL
