MODEL 1
REMARK VINA RESULT: -6.580664538      0.000      0.000
REMARK  13 active torsions:
REMARK  status: ('A' for Active; 'I' for Inactive)
REMARK    1  A    between atoms: N1_1  and  C1_4 
REMARK    2  A    between atoms: N2_7  and  C4_8 
REMARK    3  A    between atoms: C5_9  and  O1_10 
REMARK    4  A    between atoms: C6_13  and  C7_14 
REMARK    5  A    between atoms: C7_14  and  N3_15 
REMARK    6  A    between atoms: N3_15  and  C8_17 
REMARK    7  A    between atoms: C8_17  and  C9_18 
REMARK    8  A    between atoms: C9_18  and  C10_19 
REMARK    9  A    between atoms: C10_19  and  N4_20 
REMARK   10  A    between atoms: N4_20  and  C11_22 
REMARK   11  A    between atoms: C11_22  and  C12_23 
REMARK   12  A    between atoms: C12_23  and  N5_24 
REMARK   13  A    between atoms: C13_28  and  O3_29 
ROOT
HETATM    1  C4  UNL     1      12.260   4.422  14.257  1.00  0.00     0.180 C 
HETATM    2  C5  UNL     1      13.583   4.659  14.962  1.00  0.00     0.283 C 
HETATM    3  O2  UNL     1      13.938   3.341  15.266  1.00  0.00    -0.350 OA
HETATM    4  C6  UNL     1      12.783   2.779  15.829  1.00  0.00     0.173 C 
HETATM    5  C13 UNL     1      11.677   3.231  14.889  1.00  0.00     0.177 C 
ENDROOT
BRANCH   4   6
HETATM    6  C7  UNL     1      13.007   1.267  15.755  1.00  0.00     0.153 C 
BRANCH   6   7
HETATM    7  N3  UNL     1      12.006   0.619  16.468  1.00  0.00    -0.396 N 
ATOM      8  H3  UNL     1      11.048   0.697  16.124  1.00  0.00     0.158 HD
BRANCH   7   9
HETATM    9  C8  UNL     1      12.223  -0.130  17.623  1.00  0.00     0.084 C 
BRANCH   9  10
HETATM   10  C9  UNL     1      13.570  -0.448  18.098  1.00  0.00     0.034 C 
BRANCH  10  11
HETATM   11  C10 UNL     1      14.541  -1.257  17.353  1.00  0.00     0.088 C 
BRANCH  11  12
HETATM   12  N4  UNL     1      15.882  -1.149  17.296  1.00  0.00    -0.377 N 
ATOM     13  H4  UNL     1      16.333  -1.988  17.661  1.00  0.00     0.164 HD
BRANCH  12  14
HETATM   14  C11 UNL     1      16.802  -0.239  16.891  1.00  0.00     0.087 C 
BRANCH  14  15
HETATM   15  C12 UNL     1      16.445   1.216  16.886  1.00  0.00     0.274 C 
BRANCH  15  16
HETATM   16  N5  UNL     1      16.696   1.695  15.492  1.00  0.00    -0.075 N 
ATOM     17  H53 UNL     1      17.205   2.577  15.450  1.00  0.00     0.274 HD
ATOM     18  H52 UNL     1      17.381   1.133  14.986  1.00  0.00     0.274 HD
ATOM     19  H51 UNL     1      15.782   1.730  15.040  1.00  0.00     0.274 HD
ENDBRANCH  15  16
ENDBRANCH  14  15
ENDBRANCH  12  14
ENDBRANCH  11  12
ENDBRANCH  10  11
ENDBRANCH   9  10
ENDBRANCH   7   9
ENDBRANCH   6   7
ENDBRANCH   4   6
BRANCH   5  20
HETATM   20  O3  UNL     1      10.460   3.319  15.488  1.00  0.00    -0.391 OA
ATOM     21  H3  UNL     1      10.409   3.444  16.428  1.00  0.00     0.210 HD
ENDBRANCH   5  20
BRANCH   2  22
HETATM   22  O1  UNL     1      13.490   5.367  16.131  1.00  0.00    -0.369 OA
ATOM     23  H1  UNL     1      14.231   5.935  16.311  1.00  0.00     0.212 HD
ENDBRANCH   2  22
BRANCH   1  24
HETATM   24  N2  UNL     1      11.494   5.598  14.087  1.00  0.00    -0.298 N 
HETATM   25  C3  UNL     1      11.004   6.380  15.055  1.00  0.00     0.100 A 
HETATM   26  C2  UNL     1      10.259   7.531  14.776  1.00  0.00     0.065 A 
HETATM   27  C1  UNL     1       9.995   7.918  13.489  1.00  0.00     0.103 A 
HETATM   28  N6  UNL     1      10.505   7.104  12.520  1.00  0.00    -0.295 N 
HETATM   29  C14 UNL     1      11.197   6.033  12.817  1.00  0.00     0.328 A 
ATOM     30  H6  UNL     1      10.342   7.336  11.540  1.00  0.00     0.172 HD
HETATM   31  O4  UNL     1      11.638   5.328  11.856  1.00  0.00    -0.246 OA
BRANCH  27  32
HETATM   32  N1  UNL     1       9.312   8.959  13.168  1.00  0.00    -0.385 N 
ATOM     33  H12 UNL     1       9.360   9.802  13.741  1.00  0.00     0.157 HD
ATOM     34  H11 UNL     1       8.705   9.021  12.350  1.00  0.00     0.157 HD
ENDBRANCH  27  32
ENDBRANCH   1  24
TORSDOF 13
ENDMDL
MODEL 2
REMARK VINA RESULT: -6.505508068      1.249      2.409
REMARK  13 active torsions:
REMARK  status: ('A' for Active; 'I' for Inactive)
REMARK    1  A    between atoms: N1_1  and  C1_4 
REMARK    2  A    between atoms: N2_7  and  C4_8 
REMARK    3  A    between atoms: C5_9  and  O1_10 
REMARK    4  A    between atoms: C6_13  and  C7_14 
REMARK    5  A    between atoms: C7_14  and  N3_15 
REMARK    6  A    between atoms: N3_15  and  C8_17 
REMARK    7  A    between atoms: C8_17  and  C9_18 
REMARK    8  A    between atoms: C9_18  and  C10_19 
REMARK    9  A    between atoms: C10_19  and  N4_20 
REMARK   10  A    between atoms: N4_20  and  C11_22 
REMARK   11  A    between atoms: C11_22  and  C12_23 
REMARK   12  A    between atoms: C12_23  and  N5_24 
REMARK   13  A    between atoms: C13_28  and  O3_29 
ROOT
HETATM    1  C4  UNL     1      12.523   4.957  14.910  1.00  0.00     0.180 C 
HETATM    2  C5  UNL     1      13.533   5.517  15.895  1.00  0.00     0.283 C 
HETATM    3  O2  UNL     1      14.466   4.477  15.908  1.00  0.00    -0.350 OA
HETATM    4  C6  UNL     1      13.702   3.311  16.069  1.00  0.00     0.173 C 
HETATM    5  C13 UNL     1      12.560   3.499  15.083  1.00  0.00     0.177 C 
ENDROOT
BRANCH   4   6
HETATM    6  C7  UNL     1      14.633   2.171  15.648  1.00  0.00     0.153 C 
BRANCH   6   7
HETATM    7  N3  UNL     1      15.722   2.126  16.511  1.00  0.00    -0.396 N 
ATOM      8  H3  UNL     1      15.798   2.853  17.222  1.00  0.00     0.158 HD
BRANCH   7   9
HETATM    9  C8  UNL     1      16.718   1.152  16.468  1.00  0.00     0.084 C 
BRANCH   9  10
HETATM   10  C9  UNL     1      16.886   0.168  17.538  1.00  0.00     0.034 C 
BRANCH  10  11
HETATM   11  C10 UNL     1      16.302  -1.178  17.524  1.00  0.00     0.088 C 
BRANCH  11  12
HETATM   12  N4  UNL     1      15.008  -1.550  17.528  1.00  0.00    -0.377 N 
ATOM     13  H4  UNL     1      14.868  -2.385  18.097  1.00  0.00     0.164 HD
BRANCH  12  14
HETATM   14  C11 UNL     1      13.837  -1.127  16.989  1.00  0.00     0.087 C 
BRANCH  14  15
HETATM   15  C12 UNL     1      12.965  -0.190  17.768  1.00  0.00     0.274 C 
BRANCH  15  16
HETATM   16  N5  UNL     1      11.818   0.143  16.869  1.00  0.00    -0.075 N 
ATOM     17  H53 UNL     1      11.890   1.066  16.442  1.00  0.00     0.274 HD
ATOM     18  H52 UNL     1      11.810  -0.394  16.002  1.00  0.00     0.274 HD
ATOM     19  H51 UNL     1      10.976   0.020  17.433  1.00  0.00     0.274 HD
ENDBRANCH  15  16
ENDBRANCH  14  15
ENDBRANCH  12  14
ENDBRANCH  11  12
ENDBRANCH  10  11
ENDBRANCH   9  10
ENDBRANCH   7   9
ENDBRANCH   6   7
ENDBRANCH   4   6
BRANCH   5  20
HETATM   20  O3  UNL     1      11.427   2.838  15.436  1.00  0.00    -0.391 OA
ATOM     21  H3  UNL     1      11.444   2.241  16.175  1.00  0.00     0.210 HD
ENDBRANCH   5  20
BRANCH   2  22
HETATM   22  O1  UNL     1      13.054   5.691  17.168  1.00  0.00    -0.369 OA
ATOM     23  H1  UNL     1      12.192   6.087  17.217  1.00  0.00     0.212 HD
ENDBRANCH   2  22
BRANCH   1  24
HETATM   24  N2  UNL     1      11.293   5.653  14.906  1.00  0.00    -0.298 N 
HETATM   25  C3  UNL     1      10.393   5.691  15.895  1.00  0.00     0.100 A 
HETATM   26  C2  UNL     1       9.203   6.419  15.791  1.00  0.00     0.065 A 
HETATM   27  C1  UNL     1       8.900   7.136  14.665  1.00  0.00     0.103 A 
HETATM   28  N6  UNL     1       9.833   7.083  13.671  1.00  0.00    -0.295 N 
HETATM   29  C14 UNL     1      10.936   6.389  13.802  1.00  0.00     0.328 A 
ATOM     30  H6  UNL     1       9.667   7.595  12.804  1.00  0.00     0.172 HD
HETATM   31  O4  UNL     1      11.755   6.391  12.830  1.00  0.00    -0.246 OA
BRANCH  27  32
HETATM   32  N1  UNL     1       7.821   7.820  14.505  1.00  0.00    -0.385 N 
ATOM     33  H12 UNL     1       6.928   7.453  14.834  1.00  0.00     0.157 HD
ATOM     34  H11 UNL     1       7.781   8.739  14.065  1.00  0.00     0.157 HD
ENDBRANCH  27  32
ENDBRANCH   1  24
TORSDOF 13
ENDMDL
MODEL 3
REMARK VINA RESULT: -6.457223071      4.141      7.758
REMARK  13 active torsions:
REMARK  status: ('A' for Active; 'I' for Inactive)
REMARK    1  A    between atoms: N1_1  and  C1_4 
REMARK    2  A    between atoms: N2_7  and  C4_8 
REMARK    3  A    between atoms: C5_9  and  O1_10 
REMARK    4  A    between atoms: C6_13  and  C7_14 
REMARK    5  A    between atoms: C7_14  and  N3_15 
REMARK    6  A    between atoms: N3_15  and  C8_17 
REMARK    7  A    between atoms: C8_17  and  C9_18 
REMARK    8  A    between atoms: C9_18  and  C10_19 
REMARK    9  A    between atoms: C10_19  and  N4_20 
REMARK   10  A    between atoms: N4_20  and  C11_22 
REMARK   11  A    between atoms: C11_22  and  C12_23 
REMARK   12  A    between atoms: C12_23  and  N5_24 
REMARK   13  A    between atoms: C13_28  and  O3_29 
ROOT
HETATM    1  C4  UNL     1      13.302   2.617  15.726  1.00  0.00     0.180 C 
HETATM    2  C5  UNL     1      11.947   2.114  16.188  1.00  0.00     0.283 C 
HETATM    3  O2  UNL     1      11.162   3.240  15.920  1.00  0.00    -0.350 OA
HETATM    4  C6  UNL     1      11.882   4.316  16.462  1.00  0.00     0.173 C 
HETATM    5  C13 UNL     1      13.304   4.062  15.989  1.00  0.00     0.177 C 
ENDROOT
BRANCH   4   6
HETATM    6  C7  UNL     1      11.280   5.561  15.805  1.00  0.00     0.153 C 
BRANCH   6   7
HETATM    7  N3  UNL     1      10.682   6.350  16.780  1.00  0.00    -0.396 N 
ATOM      8  H3  UNL     1       9.769   6.756  16.571  1.00  0.00     0.158 HD
BRANCH   7   9
HETATM    9  C8  UNL     1      11.246   6.623  18.024  1.00  0.00     0.084 C 
BRANCH   9  10
HETATM   10  C9  UNL     1      10.430   6.989  19.182  1.00  0.00     0.034 C 
BRANCH  10  11
HETATM   11  C10 UNL     1      10.914   6.990  20.567  1.00  0.00     0.088 C 
BRANCH  11  12
HETATM   12  N4  UNL     1      10.215   7.037  21.718  1.00  0.00    -0.377 N 
ATOM     13  H4  UNL     1       9.236   6.798  21.562  1.00  0.00     0.164 HD
BRANCH  12  14
HETATM   14  C11 UNL     1      10.447   7.312  23.026  1.00  0.00     0.087 C 
BRANCH  14  15
HETATM   15  C12 UNL     1      10.979   6.236  23.921  1.00  0.00     0.274 C 
BRANCH  15  16
HETATM   16  N5  UNL     1       9.812   5.755  24.722  1.00  0.00    -0.075 N 
ATOM     17  H53 UNL     1      10.057   5.051  25.417  1.00  0.00     0.274 HD
ATOM     18  H52 UNL     1       9.451   6.452  25.374  1.00  0.00     0.274 HD
ATOM     19  H51 UNL     1       9.121   5.434  24.043  1.00  0.00     0.274 HD
ENDBRANCH  15  16
ENDBRANCH  14  15
ENDBRANCH  12  14
ENDBRANCH  11  12
ENDBRANCH  10  11
ENDBRANCH   9  10
ENDBRANCH   7   9
ENDBRANCH   6   7
ENDBRANCH   4   6
BRANCH   5  20
HETATM   20  O3  UNL     1      14.250   4.591  16.809  1.00  0.00    -0.391 OA
ATOM     21  H3  UNL     1      14.774   5.323  16.508  1.00  0.00     0.210 HD
ENDBRANCH   5  20
BRANCH   2  22
HETATM   22  O1  UNL     1      11.867   1.835  17.528  1.00  0.00    -0.369 OA
ATOM     23  H1  UNL     1      11.938   0.913  17.746  1.00  0.00     0.212 HD
ENDBRANCH   2  22
BRANCH   1  24
HETATM   24  N2  UNL     1      14.379   1.803  16.146  1.00  0.00    -0.298 N 
HETATM   25  C3  UNL     1      14.317   0.772  16.996  1.00  0.00     0.100 A 
HETATM   26  C2  UNL     1      15.448   0.026  17.343  1.00  0.00     0.065 A 
HETATM   27  C1  UNL     1      16.681   0.313  16.825  1.00  0.00     0.103 A 
HETATM   28  N6  UNL     1      16.719   1.368  15.960  1.00  0.00    -0.295 N 
HETATM   29  C14 UNL     1      15.640   2.047  15.659  1.00  0.00     0.328 A 
ATOM     30  H6  UNL     1      17.609   1.636  15.540  1.00  0.00     0.172 HD
HETATM   31  O4  UNL     1      15.759   3.016  14.845  1.00  0.00    -0.246 OA
BRANCH  27  32
HETATM   32  N1  UNL     1      17.759  -0.330  17.109  1.00  0.00    -0.385 N 
ATOM     33  H12 UNL     1      17.758  -1.030  17.850  1.00  0.00     0.157 HD
ATOM     34  H11 UNL     1      18.651  -0.200  16.632  1.00  0.00     0.157 HD
ENDBRANCH  27  32
ENDBRANCH   1  24
TORSDOF 13
ENDMDL
MODEL 4
REMARK VINA RESULT: -6.418152229      1.527      2.179
REMARK  13 active torsions:
REMARK  status: ('A' for Active; 'I' for Inactive)
REMARK    1  A    between atoms: N1_1  and  C1_4 
REMARK    2  A    between atoms: N2_7  and  C4_8 
REMARK    3  A    between atoms: C5_9  and  O1_10 
REMARK    4  A    between atoms: C6_13  and  C7_14 
REMARK    5  A    between atoms: C7_14  and  N3_15 
REMARK    6  A    between atoms: N3_15  and  C8_17 
REMARK    7  A    between atoms: C8_17  and  C9_18 
REMARK    8  A    between atoms: C9_18  and  C10_19 
REMARK    9  A    between atoms: C10_19  and  N4_20 
REMARK   10  A    between atoms: N4_20  and  C11_22 
REMARK   11  A    between atoms: C11_22  and  C12_23 
REMARK   12  A    between atoms: C12_23  and  N5_24 
REMARK   13  A    between atoms: C13_28  and  O3_29 
ROOT
HETATM    1  C4  UNL     1      11.341   4.164  15.320  1.00  0.00     0.180 C 
HETATM    2  C5  UNL     1      11.567   3.186  14.182  1.00  0.00     0.283 C 
HETATM    3  O2  UNL     1      11.853   2.026  14.908  1.00  0.00    -0.350 OA
HETATM    4  C6  UNL     1      12.799   2.426  15.864  1.00  0.00     0.173 C 
HETATM    5  C13 UNL     1      12.224   3.723  16.408  1.00  0.00     0.177 C 
ENDROOT
BRANCH   4   6
HETATM    6  C7  UNL     1      12.787   1.314  16.916  1.00  0.00     0.153 C 
BRANCH   6   7
HETATM    7  N3  UNL     1      13.056   0.097  16.301  1.00  0.00    -0.396 N 
ATOM      8  H3  UNL     1      12.799  -0.008  15.319  1.00  0.00     0.158 HD
BRANCH   7   9
HETATM    9  C8  UNL     1      13.652  -0.990  16.937  1.00  0.00     0.084 C 
BRANCH   9  10
HETATM   10  C9  UNL     1      14.879  -0.850  17.722  1.00  0.00     0.034 C 
BRANCH  10  11
HETATM   11  C10 UNL     1      16.217  -0.686  17.142  1.00  0.00     0.088 C 
BRANCH  11  12
HETATM   12  N4  UNL     1      16.768   0.392  16.552  1.00  0.00    -0.377 N 
ATOM     13  H4  UNL     1      17.634   0.144  16.072  1.00  0.00     0.164 HD
BRANCH  12  14
HETATM   14  C11 UNL     1      16.497   1.714  16.416  1.00  0.00     0.087 C 
BRANCH  14  15
HETATM   15  C12 UNL     1      16.386   2.305  15.044  1.00  0.00     0.274 C 
BRANCH  15  16
HETATM   16  N5  UNL     1      17.578   3.194  14.884  1.00  0.00    -0.075 N 
ATOM     17  H53 UNL     1      18.281   3.067  15.611  1.00  0.00     0.274 HD
ATOM     18  H52 UNL     1      18.171   2.942  14.093  1.00  0.00     0.274 HD
ATOM     19  H51 UNL     1      17.212   4.145  14.833  1.00  0.00     0.274 HD
ENDBRANCH  15  16
ENDBRANCH  14  15
ENDBRANCH  12  14
ENDBRANCH  11  12
ENDBRANCH  10  11
ENDBRANCH   9  10
ENDBRANCH   7   9
ENDBRANCH   6   7
ENDBRANCH   4   6
BRANCH   5  20
HETATM   20  O3  UNL     1      13.168   4.574  16.890  1.00  0.00    -0.391 OA
ATOM     21  H3  UNL     1      14.077   4.300  16.912  1.00  0.00     0.210 HD
ENDBRANCH   5  20
BRANCH   2  22
HETATM   22  O1  UNL     1      12.641   3.477  13.381  1.00  0.00    -0.369 OA
ATOM     23  H1  UNL     1      12.797   2.850  12.685  1.00  0.00     0.212 HD
ENDBRANCH   2  22
BRANCH   1  24
HETATM   24  N2  UNL     1      11.323   5.516  14.907  1.00  0.00    -0.298 N 
HETATM   25  C3  UNL     1      12.291   6.163  14.248  1.00  0.00     0.100 A 
HETATM   26  C2  UNL     1      12.169   7.507  13.880  1.00  0.00     0.065 A 
HETATM   27  C1  UNL     1      11.045   8.231  14.174  1.00  0.00     0.103 A 
HETATM   28  N6  UNL     1      10.072   7.549  14.846  1.00  0.00    -0.295 N 
HETATM   29  C14 UNL     1      10.220   6.290  15.177  1.00  0.00     0.328 A 
ATOM     30  H6  UNL     1       9.209   8.031  15.097  1.00  0.00     0.172 HD
HETATM   31  O4  UNL     1       9.267   5.726  15.801  1.00  0.00    -0.246 OA
BRANCH  27  32
HETATM   32  N1  UNL     1      10.875   9.469  13.869  1.00  0.00    -0.385 N 
ATOM     33  H12 UNL     1      11.040  10.196  14.565  1.00  0.00     0.157 HD
ATOM     34  H11 UNL     1      10.583   9.802  12.950  1.00  0.00     0.157 HD
ENDBRANCH  27  32
ENDBRANCH   1  24
TORSDOF 13
ENDMDL
MODEL 5
REMARK VINA RESULT: -6.401718099      2.106      7.073
REMARK  13 active torsions:
REMARK  status: ('A' for Active; 'I' for Inactive)
REMARK    1  A    between atoms: N1_1  and  C1_4 
REMARK    2  A    between atoms: N2_7  and  C4_8 
REMARK    3  A    between atoms: C5_9  and  O1_10 
REMARK    4  A    between atoms: C6_13  and  C7_14 
REMARK    5  A    between atoms: C7_14  and  N3_15 
REMARK    6  A    between atoms: N3_15  and  C8_17 
REMARK    7  A    between atoms: C8_17  and  C9_18 
REMARK    8  A    between atoms: C9_18  and  C10_19 
REMARK    9  A    between atoms: C10_19  and  N4_20 
REMARK   10  A    between atoms: N4_20  and  C11_22 
REMARK   11  A    between atoms: C11_22  and  C12_23 
REMARK   12  A    between atoms: C12_23  and  N5_24 
REMARK   13  A    between atoms: C13_28  and  O3_29 
ROOT
HETATM    1  C4  UNL     1      13.298   2.740  15.751  1.00  0.00     0.180 C 
HETATM    2  C5  UNL     1      11.940   2.219  16.183  1.00  0.00     0.283 C 
HETATM    3  O2  UNL     1      11.157   3.354  15.949  1.00  0.00    -0.350 OA
HETATM    4  C6  UNL     1      11.870   4.410  16.536  1.00  0.00     0.173 C 
HETATM    5  C13 UNL     1      13.297   4.174  16.066  1.00  0.00     0.177 C 
ENDROOT
BRANCH   4   6
HETATM    6  C7  UNL     1      11.272   5.677  15.919  1.00  0.00     0.153 C 
BRANCH   6   7
HETATM    7  N3  UNL     1      12.300   6.522  15.521  1.00  0.00    -0.396 N 
ATOM      8  H3  UNL     1      13.116   6.602  16.129  1.00  0.00     0.158 HD
BRANCH   7   9
HETATM    9  C8  UNL     1      12.291   7.270  14.345  1.00  0.00     0.084 C 
BRANCH   9  10
HETATM   10  C9  UNL     1      11.578   6.822  13.148  1.00  0.00     0.034 C 
BRANCH  10  11
HETATM   11  C10 UNL     1      11.856   5.567  12.441  1.00  0.00     0.088 C 
BRANCH  11  12
HETATM   12  N4  UNL     1      11.699   4.296  12.859  1.00  0.00    -0.377 N 
ATOM     13  H4  UNL     1      11.562   4.257  13.870  1.00  0.00     0.164 HD
BRANCH  12  14
HETATM   14  C11 UNL     1      11.671   3.054  12.316  1.00  0.00     0.087 C 
BRANCH  14  15
HETATM   15  C12 UNL     1      11.732   2.900  10.827  1.00  0.00     0.274 C 
BRANCH  15  16
HETATM   16  N5  UNL     1      10.485   2.173  10.439  1.00  0.00    -0.075 N 
ATOM     17  H53 UNL     1      10.065   1.647  11.205  1.00  0.00     0.274 HD
ATOM     18  H52 UNL     1       9.691   2.790  10.265  1.00  0.00     0.274 HD
ATOM     19  H51 UNL     1      10.737   1.595   9.637  1.00  0.00     0.274 HD
ENDBRANCH  15  16
ENDBRANCH  14  15
ENDBRANCH  12  14
ENDBRANCH  11  12
ENDBRANCH  10  11
ENDBRANCH   9  10
ENDBRANCH   7   9
ENDBRANCH   6   7
ENDBRANCH   4   6
BRANCH   5  20
HETATM   20  O3  UNL     1      14.235   4.674  16.913  1.00  0.00    -0.391 OA
ATOM     21  H3  UNL     1      14.273   4.358  17.809  1.00  0.00     0.210 HD
ENDBRANCH   5  20
BRANCH   2  22
HETATM   22  O1  UNL     1      11.849   1.891  17.511  1.00  0.00    -0.369 OA
ATOM     23  H1  UNL     1      11.382   2.524  18.044  1.00  0.00     0.212 HD
ENDBRANCH   2  22
BRANCH   1  24
HETATM   24  N2  UNL     1      14.373   1.912  16.151  1.00  0.00    -0.298 N 
HETATM   25  C3  UNL     1      14.309   0.867  16.983  1.00  0.00     0.100 A 
HETATM   26  C2  UNL     1      15.438   0.108  17.311  1.00  0.00     0.065 A 
HETATM   27  C1  UNL     1      16.670   0.397  16.790  1.00  0.00     0.103 A 
HETATM   28  N6  UNL     1      16.710   1.466  15.944  1.00  0.00    -0.295 N 
HETATM   29  C14 UNL     1      15.633   2.157  15.660  1.00  0.00     0.328 A 
ATOM     30  H6  UNL     1      17.599   1.736  15.523  1.00  0.00     0.172 HD
HETATM   31  O4  UNL     1      15.753   3.139  14.863  1.00  0.00    -0.246 OA
BRANCH  27  32
HETATM   32  N1  UNL     1      17.745  -0.258  17.056  1.00  0.00    -0.385 N 
ATOM     33  H12 UNL     1      18.063  -0.351  18.021  1.00  0.00     0.157 HD
ATOM     34  H11 UNL     1      18.329  -0.718  16.357  1.00  0.00     0.157 HD
ENDBRANCH  27  32
ENDBRANCH   1  24
TORSDOF 13
ENDMDL
