MODEL 1
REMARK VINA RESULT: -6.737420308      0.000      0.000
REMARK  9 active torsions:
REMARK  status: ('A' for Active; 'I' for Inactive)
REMARK    1  A    between atoms: C2_2  and  N1_3 
REMARK    2  A    between atoms: N1_3  and  C3_5 
REMARK    3  A    between atoms: C7_14  and  N4_15 
REMARK    4  A    between atoms: N4_15  and  C9_17 
REMARK    5  A    between atoms: C9_17  and  C10_18 
REMARK    6  A    between atoms: C10_18  and  O2_19 
REMARK    7  A    between atoms: C11_21  and  C12_22 
REMARK    8  A    between atoms: C12_22  and  C13_23 
REMARK    9  A    between atoms: N6_25  and  O3_27 
ROOT
HETATM    1  C3  UNL     1     -15.987  54.221  51.531  1.00  0.00     0.681 A 
HETATM    2  N2  UNL     1     -14.775  54.671  51.158  1.00  0.00    -0.155 N 
ATOM      3  H2  UNL     1     -13.947  54.140  51.429  1.00  0.00     0.187 HD
HETATM    4  C4  UNL     1     -14.617  55.798  50.439  1.00  0.00     0.272 A 
HETATM    5  O1  UNL     1     -13.495  56.212  50.094  1.00  0.00    -0.267 OA
HETATM    6  C5  UNL     1     -15.721  56.555  50.049  1.00  0.00     0.071 A 
HETATM    7  C6  UNL     1     -16.954  56.099  50.428  1.00  0.00     0.092 A 
HETATM    8  N3  UNL     1     -17.054  54.948  51.157  1.00  0.00    -0.189 N 
ATOM      9  H3  UNL     1     -17.982  54.624  51.431  1.00  0.00     0.184 HD
HETATM   10  C7  UNL     1     -17.508  57.132  49.823  1.00  0.00     0.066 A 
HETATM   11  C11 UNL     1     -16.199  57.611  49.421  1.00  0.00    -0.004 A 
ENDROOT
BRANCH  11  12
HETATM   12  C12 UNL     1     -15.619  58.765  48.645  1.00  0.00     0.117 C 
BRANCH  12  13
HETATM   13  C13 UNL     1     -16.498  59.137  47.546  1.00  0.00     0.117 C 
HETATM   14  N5  UNL     1     -17.323  58.173  46.918  1.00  0.00    -0.085 NA
HETATM   15  N6  UNL     1     -16.543  60.349  47.123  1.00  0.00    -0.259 N 
ATOM     16  H6  UNL     1     -15.945  61.036  47.582  1.00  0.00     0.195 HD
BRANCH  15  17
HETATM   17  O3  UNL     1     -17.338  60.780  46.100  1.00  0.00    -0.289 OA
ATOM     18  H3  UNL     1     -17.801  61.609  46.094  1.00  0.00     0.244 HD
ENDBRANCH  15  17
ENDBRANCH  12  13
ENDBRANCH  11  12
BRANCH  10  19
HETATM   19  N4  UNL     1     -18.834  57.592  49.635  1.00  0.00    -0.381 N 
HETATM   20  C8  UNL     1     -19.307  58.687  50.481  1.00  0.00     0.150 C 
BRANCH  19  21
HETATM   21  C9  UNL     1     -19.713  57.017  48.655  1.00  0.00     0.148 C 
BRANCH  21  22
HETATM   22  C10 UNL     1     -20.249  55.696  49.108  1.00  0.00     0.183 C 
BRANCH  22  23
HETATM   23  O2  UNL     1     -21.592  55.570  48.725  1.00  0.00    -0.399 OA
ATOM     24  H2  UNL     1     -21.702  54.798  48.183  1.00  0.00     0.209 HD
ENDBRANCH  22  23
ENDBRANCH  21  22
ENDBRANCH  19  21
ENDBRANCH  10  19
BRANCH   1  25
HETATM   25  N1  UNL     1     -16.148  53.131  52.224  1.00  0.00    -0.226 N 
ATOM     26  H1  UNL     1     -15.313  52.641  52.547  1.00  0.00     0.177 HD
BRANCH  25  27
HETATM   27  C2  UNL     1     -17.419  52.579  52.559  1.00  0.00     0.133 C 
HETATM   28  C1  UNL     1     -17.392  51.676  53.746  1.00  0.00     0.027 C 
ENDBRANCH  25  27
ENDBRANCH   1  25
TORSDOF 9
ENDMDL
MODEL 2
REMARK VINA RESULT: -6.230116218      1.067      1.067
REMARK  9 active torsions:
REMARK  status: ('A' for Active; 'I' for Inactive)
REMARK    1  A    between atoms: C2_2  and  N1_3 
REMARK    2  A    between atoms: N1_3  and  C3_5 
REMARK    3  A    between atoms: C7_14  and  N4_15 
REMARK    4  A    between atoms: N4_15  and  C9_17 
REMARK    5  A    between atoms: C9_17  and  C10_18 
REMARK    6  A    between atoms: C10_18  and  O2_19 
REMARK    7  A    between atoms: C11_21  and  C12_22 
REMARK    8  A    between atoms: C12_22  and  C13_23 
REMARK    9  A    between atoms: N6_25  and  O3_27 
ROOT
HETATM    1  C3  UNL     1     -15.856  54.070  51.785  1.00  0.00     0.681 A 
HETATM    2  N2  UNL     1     -14.665  54.523  51.354  1.00  0.00    -0.155 N 
ATOM      3  H2  UNL     1     -13.820  54.017  51.620  1.00  0.00     0.187 HD
HETATM    4  C4  UNL     1     -14.550  55.619  50.582  1.00  0.00     0.272 A 
HETATM    5  O1  UNL     1     -13.447  56.036  50.183  1.00  0.00    -0.267 OA
HETATM    6  C5  UNL     1     -15.679  56.340  50.195  1.00  0.00     0.071 A 
HETATM    7  C6  UNL     1     -16.891  55.882  50.633  1.00  0.00     0.092 A 
HETATM    8  N3  UNL     1     -16.947  54.762  51.415  1.00  0.00    -0.189 N 
ATOM      9  H3  UNL     1     -17.860  54.435  51.732  1.00  0.00     0.184 HD
HETATM   10  C7  UNL     1     -17.482  56.878  50.002  1.00  0.00     0.066 A 
HETATM   11  C11 UNL     1     -16.195  57.359  49.537  1.00  0.00    -0.004 A 
ENDROOT
BRANCH  11  12
HETATM   12  C12 UNL     1     -15.661  58.488  48.694  1.00  0.00     0.117 C 
BRANCH  12  13
HETATM   13  C13 UNL     1     -16.668  58.940  47.746  1.00  0.00     0.117 C 
HETATM   14  N5  UNL     1     -17.569  58.024  47.151  1.00  0.00    -0.085 NA
HETATM   15  N6  UNL     1     -16.760  60.182  47.429  1.00  0.00    -0.259 N 
ATOM     16  H6  UNL     1     -16.107  60.834  47.863  1.00  0.00     0.195 HD
BRANCH  15  17
HETATM   17  O3  UNL     1     -17.675  60.687  46.551  1.00  0.00    -0.289 OA
ATOM     18  H3  UNL     1     -18.599  60.467  46.553  1.00  0.00     0.244 HD
ENDBRANCH  15  17
ENDBRANCH  12  13
ENDBRANCH  11  12
BRANCH  10  19
HETATM   19  N4  UNL     1     -18.821  57.307  49.837  1.00  0.00    -0.381 N 
HETATM   20  C8  UNL     1     -19.189  58.624  50.356  1.00  0.00     0.150 C 
BRANCH  19  21
HETATM   21  C9  UNL     1     -19.813  56.495  49.190  1.00  0.00     0.148 C 
BRANCH  21  22
HETATM   22  C10 UNL     1     -19.360  55.075  49.061  1.00  0.00     0.183 C 
BRANCH  22  23
HETATM   23  O2  UNL     1     -20.373  54.210  49.499  1.00  0.00    -0.399 OA
ATOM     24  H2  UNL     1     -20.676  53.675  48.775  1.00  0.00     0.209 HD
ENDBRANCH  22  23
ENDBRANCH  21  22
ENDBRANCH  19  21
ENDBRANCH  10  19
BRANCH   1  25
HETATM   25  N1  UNL     1     -15.976  53.009  52.529  1.00  0.00    -0.226 N 
ATOM     26  H1  UNL     1     -16.896  52.792  52.912  1.00  0.00     0.177 HD
BRANCH  25  27
HETATM   27  C2  UNL     1     -14.897  52.129  52.843  1.00  0.00     0.133 C 
HETATM   28  C1  UNL     1     -14.207  52.453  54.125  1.00  0.00     0.027 C 
ENDBRANCH  25  27
ENDBRANCH   1  25
TORSDOF 9
ENDMDL
MODEL 3
REMARK VINA RESULT: -5.879332220      1.234      1.633
REMARK  9 active torsions:
REMARK  status: ('A' for Active; 'I' for Inactive)
REMARK    1  A    between atoms: C2_2  and  N1_3 
REMARK    2  A    between atoms: N1_3  and  C3_5 
REMARK    3  A    between atoms: C7_14  and  N4_15 
REMARK    4  A    between atoms: N4_15  and  C9_17 
REMARK    5  A    between atoms: C9_17  and  C10_18 
REMARK    6  A    between atoms: C10_18  and  O2_19 
REMARK    7  A    between atoms: C11_21  and  C12_22 
REMARK    8  A    between atoms: C12_22  and  C13_23 
REMARK    9  A    between atoms: N6_25  and  O3_27 
ROOT
HETATM    1  C3  UNL     1     -15.947  54.155  51.526  1.00  0.00     0.681 A 
HETATM    2  N2  UNL     1     -14.734  54.590  51.139  1.00  0.00    -0.155 N 
ATOM      3  H2  UNL     1     -13.910  54.051  51.404  1.00  0.00     0.187 HD
HETATM    4  C4  UNL     1     -14.571  55.713  50.414  1.00  0.00     0.272 A 
HETATM    5  O1  UNL     1     -13.448  56.114  50.057  1.00  0.00    -0.267 OA
HETATM    6  C5  UNL     1     -15.671  56.480  50.033  1.00  0.00     0.071 A 
HETATM    7  C6  UNL     1     -16.905  56.040  50.426  1.00  0.00     0.092 A 
HETATM    8  N3  UNL     1     -17.010  54.892  51.161  1.00  0.00    -0.189 N 
ATOM      9  H3  UNL     1     -17.939  54.579  51.445  1.00  0.00     0.184 HD
HETATM   10  C7  UNL     1     -17.454  57.077  49.823  1.00  0.00     0.066 A 
HETATM   11  C11 UNL     1     -16.144  57.539  49.406  1.00  0.00    -0.004 A 
ENDROOT
BRANCH  11  12
HETATM   12  C12 UNL     1     -15.560  58.684  48.620  1.00  0.00     0.117 C 
BRANCH  12  13
HETATM   13  C13 UNL     1     -16.460  59.082  47.548  1.00  0.00     0.117 C 
HETATM   14  N5  UNL     1     -17.349  58.149  46.962  1.00  0.00    -0.085 NA
HETATM   15  N6  UNL     1     -16.466  60.290  47.111  1.00  0.00    -0.259 N 
ATOM     16  H6  UNL     1     -15.823  60.955  47.539  1.00  0.00     0.195 HD
BRANCH  15  17
HETATM   17  O3  UNL     1     -17.277  60.744  46.111  1.00  0.00    -0.289 OA
ATOM     18  H3  UNL     1     -17.732  60.183  45.493  1.00  0.00     0.244 HD
ENDBRANCH  15  17
ENDBRANCH  12  13
ENDBRANCH  11  12
BRANCH  10  19
HETATM   19  N4  UNL     1     -18.776  57.550  49.647  1.00  0.00    -0.381 N 
HETATM   20  C8  UNL     1     -19.800  56.590  49.233  1.00  0.00     0.150 C 
BRANCH  19  21
HETATM   21  C9  UNL     1     -19.133  58.926  49.855  1.00  0.00     0.148 C 
BRANCH  21  22
HETATM   22  C10 UNL     1     -19.964  59.096  51.087  1.00  0.00     0.183 C 
BRANCH  22  23
HETATM   23  O2  UNL     1     -20.365  60.434  51.211  1.00  0.00    -0.399 OA
ATOM     24  H2  UNL     1     -19.719  60.920  51.709  1.00  0.00     0.209 HD
ENDBRANCH  22  23
ENDBRANCH  21  22
ENDBRANCH  19  21
ENDBRANCH  10  19
BRANCH   1  25
HETATM   25  N1  UNL     1     -16.112  53.069  52.224  1.00  0.00    -0.226 N 
ATOM     26  H1  UNL     1     -15.281  52.545  52.500  1.00  0.00     0.177 HD
BRANCH  25  27
HETATM   27  C2  UNL     1     -17.385  52.566  52.629  1.00  0.00     0.133 C 
HETATM   28  C1  UNL     1     -17.325  51.640  53.797  1.00  0.00     0.027 C 
ENDBRANCH  25  27
ENDBRANCH   1  25
TORSDOF 9
ENDMDL
MODEL 4
REMARK VINA RESULT: -5.851965350      2.346      3.813
REMARK  9 active torsions:
REMARK  status: ('A' for Active; 'I' for Inactive)
REMARK    1  A    between atoms: C2_2  and  N1_3 
REMARK    2  A    between atoms: N1_3  and  C3_5 
REMARK    3  A    between atoms: C7_14  and  N4_15 
REMARK    4  A    between atoms: N4_15  and  C9_17 
REMARK    5  A    between atoms: C9_17  and  C10_18 
REMARK    6  A    between atoms: C10_18  and  O2_19 
REMARK    7  A    between atoms: C11_21  and  C12_22 
REMARK    8  A    between atoms: C12_22  and  C13_23 
REMARK    9  A    between atoms: N6_25  and  O3_27 
ROOT
HETATM    1  C3  UNL     1     -14.955  53.409  52.271  1.00  0.00     0.681 A 
HETATM    2  N2  UNL     1     -16.174  52.840  52.293  1.00  0.00    -0.155 N 
ATOM      3  H2  UNL     1     -16.297  51.957  52.788  1.00  0.00     0.187 HD
HETATM    4  C4  UNL     1     -17.238  53.397  51.684  1.00  0.00     0.272 A 
HETATM    5  O1  UNL     1     -18.365  52.870  51.706  1.00  0.00    -0.267 OA
HETATM    6  C5  UNL     1     -17.113  54.603  50.995  1.00  0.00     0.071 A 
HETATM    7  C6  UNL     1     -15.873  55.182  50.971  1.00  0.00     0.092 A 
HETATM    8  N3  UNL     1     -14.830  54.571  51.608  1.00  0.00    -0.189 N 
ATOM      9  H3  UNL     1     -13.913  55.017  51.579  1.00  0.00     0.184 HD
HETATM   10  C7  UNL     1     -16.363  56.172  50.251  1.00  0.00     0.066 A 
HETATM   11  C11 UNL     1     -17.676  55.557  50.280  1.00  0.00    -0.004 A 
ENDROOT
BRANCH  11  12
HETATM   12  C12 UNL     1     -19.060  55.845  49.757  1.00  0.00     0.117 C 
BRANCH  12  13
HETATM   13  C13 UNL     1     -18.990  56.490  48.454  1.00  0.00     0.117 C 
HETATM   14  N5  UNL     1     -19.938  57.473  48.079  1.00  0.00    -0.085 NA
HETATM   15  N6  UNL     1     -18.067  56.180  47.616  1.00  0.00    -0.259 N 
ATOM     16  H6  UNL     1     -17.389  55.471  47.896  1.00  0.00     0.195 HD
BRANCH  15  17
HETATM   17  O3  UNL     1     -17.932  56.736  46.377  1.00  0.00    -0.289 OA
ATOM     18  H3  UNL     1     -18.594  56.697  45.697  1.00  0.00     0.244 HD
ENDBRANCH  15  17
ENDBRANCH  12  13
ENDBRANCH  11  12
BRANCH  10  19
HETATM   19  N4  UNL     1     -15.834  57.356  49.681  1.00  0.00    -0.381 N 
HETATM   20  C8  UNL     1     -14.382  57.459  49.538  1.00  0.00     0.150 C 
BRANCH  19  21
HETATM   21  C9  UNL     1     -16.671  58.442  49.252  1.00  0.00     0.148 C 
BRANCH  21  22
HETATM   22  C10 UNL     1     -16.215  59.000  47.941  1.00  0.00     0.183 C 
BRANCH  22  23
HETATM   23  O2  UNL     1     -17.325  59.289  47.134  1.00  0.00    -0.399 OA
ATOM     24  H2  UNL     1     -17.737  58.481  46.851  1.00  0.00     0.209 HD
ENDBRANCH  22  23
ENDBRANCH  21  22
ENDBRANCH  19  21
ENDBRANCH  10  19
BRANCH   1  25
HETATM   25  N1  UNL     1     -13.923  52.877  52.860  1.00  0.00    -0.226 N 
ATOM     26  H1  UNL     1     -13.028  52.895  52.369  1.00  0.00     0.177 HD
BRANCH  25  27
HETATM   27  C2  UNL     1     -13.965  52.270  54.150  1.00  0.00     0.133 C 
HETATM   28  C1  UNL     1     -12.661  52.297  54.874  1.00  0.00     0.027 C 
ENDBRANCH  25  27
ENDBRANCH   1  25
TORSDOF 9
ENDMDL
MODEL 5
REMARK VINA RESULT: -5.826801494      2.162      3.940
REMARK  9 active torsions:
REMARK  status: ('A' for Active; 'I' for Inactive)
REMARK    1  A    between atoms: C2_2  and  N1_3 
REMARK    2  A    between atoms: N1_3  and  C3_5 
REMARK    3  A    between atoms: C7_14  and  N4_15 
REMARK    4  A    between atoms: N4_15  and  C9_17 
REMARK    5  A    between atoms: C9_17  and  C10_18 
REMARK    6  A    between atoms: C10_18  and  O2_19 
REMARK    7  A    between atoms: C11_21  and  C12_22 
REMARK    8  A    between atoms: C12_22  and  C13_23 
REMARK    9  A    between atoms: N6_25  and  O3_27 
ROOT
HETATM    1  C3  UNL     1     -15.385  53.697  51.980  1.00  0.00     0.681 A 
HETATM    2  N2  UNL     1     -16.555  53.034  52.040  1.00  0.00    -0.155 N 
ATOM      3  H2  UNL     1     -16.623  52.209  52.636  1.00  0.00     0.187 HD
HETATM    4  C4  UNL     1     -17.637  53.422  51.340  1.00  0.00     0.272 A 
HETATM    5  O1  UNL     1     -18.718  52.808  51.398  1.00  0.00    -0.267 OA
HETATM    6  C5  UNL     1     -17.586  54.543  50.513  1.00  0.00     0.071 A 
HETATM    7  C6  UNL     1     -16.398  55.218  50.450  1.00  0.00     0.092 A 
HETATM    8  N3  UNL     1     -15.331  54.778  51.183  1.00  0.00    -0.189 N 
ATOM      9  H3  UNL     1     -14.453  55.294  51.123  1.00  0.00     0.184 HD
HETATM   10  C7  UNL     1     -16.941  56.070  49.602  1.00  0.00     0.066 A 
HETATM   11  C11 UNL     1     -18.200  55.354  49.673  1.00  0.00    -0.004 A 
ENDROOT
BRANCH  11  12
HETATM   12  C12 UNL     1     -19.582  55.459  49.083  1.00  0.00     0.117 C 
BRANCH  12  13
HETATM   13  C13 UNL     1     -20.067  56.829  49.156  1.00  0.00     0.117 C 
HETATM   14  N5  UNL     1     -20.996  57.322  48.207  1.00  0.00    -0.085 NA
HETATM   15  N6  UNL     1     -19.663  57.621  50.083  1.00  0.00    -0.259 N 
ATOM     16  H6  UNL     1     -18.995  57.257  50.762  1.00  0.00     0.195 HD
BRANCH  15  17
HETATM   17  O3  UNL     1     -20.068  58.917  50.221  1.00  0.00    -0.289 OA
ATOM     18  H3  UNL     1     -20.580  59.391  49.576  1.00  0.00     0.244 HD
ENDBRANCH  15  17
ENDBRANCH  12  13
ENDBRANCH  11  12
BRANCH  10  19
HETATM   19  N4  UNL     1     -16.489  57.218  48.906  1.00  0.00    -0.381 N 
HETATM   20  C8  UNL     1     -15.236  57.835  49.340  1.00  0.00     0.150 C 
BRANCH  19  21
HETATM   21  C9  UNL     1     -17.220  57.785  47.807  1.00  0.00     0.148 C 
BRANCH  21  22
HETATM   22  C10 UNL     1     -17.146  59.279  47.813  1.00  0.00     0.183 C 
BRANCH  22  23
HETATM   23  O2  UNL     1     -16.431  59.726  46.692  1.00  0.00    -0.399 OA
ATOM     24  H2  UNL     1     -17.031  60.077  46.045  1.00  0.00     0.209 HD
ENDBRANCH  22  23
ENDBRANCH  21  22
ENDBRANCH  19  21
ENDBRANCH  10  19
BRANCH   1  25
HETATM   25  N1  UNL     1     -14.335  53.329  52.655  1.00  0.00    -0.226 N 
ATOM     26  H1  UNL     1     -13.443  53.770  52.433  1.00  0.00     0.177 HD
BRANCH  25  27
HETATM   27  C2  UNL     1     -14.356  52.346  53.689  1.00  0.00     0.133 C 
HETATM   28  C1  UNL     1     -13.042  52.158  54.371  1.00  0.00     0.027 C 
ENDBRANCH  25  27
ENDBRANCH   1  25
TORSDOF 9
ENDMDL
