MODEL 1
REMARK VINA RESULT: -8.071189275      0.000      0.000
REMARK  9 active torsions:
REMARK  status: ('A' for Active; 'I' for Inactive)
REMARK    1  A    between atoms: C2_2  and  C5_5 
REMARK    2  A    between atoms: C6_7  and  N1_8 
REMARK    3  A    between atoms: N1_8  and  C7_10 
REMARK    4  A    between atoms: C7_10  and  C8_11 
REMARK    5  A    between atoms: C7_10  and  C15_21 
REMARK    6  A    between atoms: C8_11  and  N2_12 
REMARK    7  A    between atoms: N2_12  and  C9_15 
REMARK    8  A    between atoms: C18_24  and  C19_25 
REMARK    9  A    between atoms: C22_34  and  O1_35 
ROOT
HETATM    1  C7  UNL     1     -22.114   1.177  21.211  1.00  0.00     0.145 C 
ENDROOT
BRANCH   1   2
HETATM    2  N1  UNL     1     -22.577   2.097  20.285  1.00  0.00    -0.360 N 
ATOM      3  H1  UNL     1     -23.364   2.677  20.579  1.00  0.00     0.162 HD
BRANCH   2   4
HETATM    4  C6  UNL     1     -22.122   2.306  19.082  1.00  0.00     0.147 A 
HETATM    5  S1  UNL     1     -21.370   3.756  18.556  1.00  0.00    -0.054 SA
HETATM    6  C5  UNL     1     -21.101   3.317  16.927  1.00  0.00     0.044 A 
HETATM    7  C22 UNL     1     -21.616   2.047  16.885  1.00  0.00     0.156 A 
HETATM    8  N3  UNL     1     -22.121   1.565  17.980  1.00  0.00    -0.317 N 
ATOM      9  H3  UNL     1     -22.513   0.624  17.993  1.00  0.00     0.170 HD
BRANCH   6  10
HETATM   10  C2  UNL     1     -20.565   4.159  15.815  1.00  0.00    -0.013 C 
HETATM   11  C1  UNL     1     -19.372   3.644  15.117  1.00  0.00     0.020 C 
HETATM   12  C3  UNL     1     -20.205   5.527  16.452  1.00  0.00     0.020 C 
HETATM   13  C4  UNL     1     -21.696   4.440  14.826  1.00  0.00     0.020 C 
ENDBRANCH   6  10
BRANCH   7  14
HETATM   14  O1  UNL     1     -21.554   1.343  15.653  1.00  0.00    -0.345 OA
ATOM     15  H1  UNL     1     -21.715   0.406  15.666  1.00  0.00     0.219 HD
ENDBRANCH   7  14
ENDBRANCH   2   4
ENDBRANCH   1   2
BRANCH   1  16
HETATM   16  C8  UNL     1     -22.396   1.390  22.665  1.00  0.00     0.262 C 
BRANCH  16  17
HETATM   17  N2  UNL     1     -21.473   2.328  23.265  1.00  0.00    -0.069 N 
ATOM     18  H22 UNL     1     -21.366   2.209  24.273  1.00  0.00     0.277 HD
ATOM     19  H21 UNL     1     -20.498   2.158  23.019  1.00  0.00     0.277 HD
BRANCH  17  20
HETATM   20  C9  UNL     1     -21.969   3.693  22.867  1.00  0.00     0.186 C 
HETATM   21  C10 UNL     1     -20.809   4.465  22.464  1.00  0.00     0.033 C 
HETATM   22  C11 UNL     1     -20.732   5.883  22.952  1.00  0.00     0.002 C 
HETATM   23  C12 UNL     1     -22.078   6.383  23.486  1.00  0.00     0.000 C 
HETATM   24  C13 UNL     1     -22.363   5.446  24.663  1.00  0.00     0.002 C 
HETATM   25  C14 UNL     1     -22.766   4.141  24.040  1.00  0.00     0.033 C 
ENDBRANCH  17  20
ENDBRANCH  16  17
ENDBRANCH   1  16
BRANCH   1  26
HETATM   26  C15 UNL     1     -22.379  -0.253  20.909  1.00  0.00     0.005 A 
HETATM   27  C16 UNL     1     -21.298  -1.105  20.609  1.00  0.00     0.013 A 
HETATM   28  C17 UNL     1     -21.442  -2.423  20.251  1.00  0.00     0.017 A 
HETATM   29  C18 UNL     1     -22.676  -2.977  20.164  1.00  0.00     0.050 A 
HETATM   30  C20 UNL     1     -23.763  -2.171  20.447  1.00  0.00     0.059 A 
HETATM   31  C21 UNL     1     -23.612  -0.847  20.807  1.00  0.00     0.125 A 
HETATM   32  F4  UNL     1     -24.723  -0.114  21.070  1.00  0.00    -0.205 F 
BRANCH  29  33
HETATM   33  C19 UNL     1     -22.905  -4.408  19.838  1.00  0.00     0.417 C 
HETATM   34  F1  UNL     1     -22.926  -4.479  18.444  1.00  0.00    -0.166 F 
HETATM   35  F2  UNL     1     -24.153  -4.822  20.296  1.00  0.00    -0.166 F 
HETATM   36  F3  UNL     1     -21.906  -5.203  20.321  1.00  0.00    -0.166 F 
ENDBRANCH  29  33
ENDBRANCH   1  26
TORSDOF 9
ENDMDL
MODEL 2
REMARK VINA RESULT: -8.027089699      3.598      6.859
REMARK  9 active torsions:
REMARK  status: ('A' for Active; 'I' for Inactive)
REMARK    1  A    between atoms: C2_2  and  C5_5 
REMARK    2  A    between atoms: C6_7  and  N1_8 
REMARK    3  A    between atoms: N1_8  and  C7_10 
REMARK    4  A    between atoms: C7_10  and  C8_11 
REMARK    5  A    between atoms: C7_10  and  C15_21 
REMARK    6  A    between atoms: C8_11  and  N2_12 
REMARK    7  A    between atoms: N2_12  and  C9_15 
REMARK    8  A    between atoms: C18_24  and  C19_25 
REMARK    9  A    between atoms: C22_34  and  O1_35 
ROOT
HETATM    1  C7  UNL     1     -22.328   4.112  21.997  1.00  0.00     0.145 C 
ENDROOT
BRANCH   1   2
HETATM    2  N1  UNL     1     -21.256   4.691  22.656  1.00  0.00    -0.360 N 
ATOM      3  H1  UNL     1     -20.327   4.384  22.366  1.00  0.00     0.162 HD
BRANCH   2   4
HETATM    4  C6  UNL     1     -21.300   5.584  23.605  1.00  0.00     0.147 A 
HETATM    5  S1  UNL     1     -22.580   5.749  24.737  1.00  0.00    -0.054 SA
HETATM    6  C5  UNL     1     -21.979   7.099  25.592  1.00  0.00     0.044 A 
HETATM    7  C22 UNL     1     -20.798   7.347  24.942  1.00  0.00     0.156 A 
HETATM    8  N3  UNL     1     -20.482   6.571  23.950  1.00  0.00    -0.317 N 
ATOM      9  H3  UNL     1     -19.612   6.719  23.439  1.00  0.00     0.170 HD
BRANCH   6  10
HETATM   10  C2  UNL     1     -22.644   7.881  26.679  1.00  0.00    -0.013 C 
HETATM   11  C1  UNL     1     -21.808   8.232  27.842  1.00  0.00     0.020 C 
HETATM   12  C3  UNL     1     -23.824   7.004  27.174  1.00  0.00     0.020 C 
HETATM   13  C4  UNL     1     -23.276   9.130  26.066  1.00  0.00     0.020 C 
ENDBRANCH   6  10
BRANCH   7  14
HETATM   14  O1  UNL     1     -19.996   8.426  25.402  1.00  0.00    -0.345 OA
ATOM     15  H1  UNL     1     -19.124   8.228  25.723  1.00  0.00     0.219 HD
ENDBRANCH   7  14
ENDBRANCH   2   4
ENDBRANCH   1   2
BRANCH   1  16
HETATM   16  C8  UNL     1     -22.803   4.701  20.706  1.00  0.00     0.262 C 
BRANCH  16  17
HETATM   17  N2  UNL     1     -22.301   6.042  20.504  1.00  0.00    -0.069 N 
ATOM     18  H22 UNL     1     -23.031   6.753  20.475  1.00  0.00     0.277 HD
ATOM     19  H21 UNL     1     -21.799   6.417  21.309  1.00  0.00     0.277 HD
BRANCH  17  20
HETATM   20  C9  UNL     1     -21.470   5.977  19.250  1.00  0.00     0.186 C 
HETATM   21  C10 UNL     1     -21.940   4.836  18.487  1.00  0.00     0.033 C 
HETATM   22  C11 UNL     1     -20.894   3.955  17.868  1.00  0.00     0.002 C 
HETATM   23  C12 UNL     1     -19.517   4.626  17.838  1.00  0.00     0.000 C 
HETATM   24  C13 UNL     1     -19.197   4.844  19.319  1.00  0.00     0.002 C 
HETATM   25  C14 UNL     1     -20.068   5.990  19.747  1.00  0.00     0.033 C 
ENDBRANCH  17  20
ENDBRANCH  16  17
ENDBRANCH   1  16
BRANCH   1  26
HETATM   26  C15 UNL     1     -22.278   2.638  21.825  1.00  0.00     0.005 A 
HETATM   27  C16 UNL     1     -22.464   2.088  20.541  1.00  0.00     0.013 A 
HETATM   28  C17 UNL     1     -22.503   0.739  20.288  1.00  0.00     0.017 A 
HETATM   29  C18 UNL     1     -22.364  -0.151  21.299  1.00  0.00     0.050 A 
HETATM   30  C20 UNL     1     -22.183   0.350  22.575  1.00  0.00     0.059 A 
HETATM   31  C21 UNL     1     -22.144   1.706  22.824  1.00  0.00     0.125 A 
HETATM   32  F4  UNL     1     -21.965   2.128  24.102  1.00  0.00    -0.205 F 
BRANCH  29  33
HETATM   33  C19 UNL     1     -22.339  -1.622  21.092  1.00  0.00     0.417 C 
HETATM   34  F1  UNL     1     -21.466  -2.125  22.059  1.00  0.00    -0.166 F 
HETATM   35  F2  UNL     1     -21.807  -1.934  19.844  1.00  0.00    -0.166 F 
HETATM   36  F3  UNL     1     -23.575  -2.177  21.262  1.00  0.00    -0.166 F 
ENDBRANCH  29  33
ENDBRANCH   1  26
TORSDOF 9
ENDMDL
MODEL 3
REMARK VINA RESULT: -8.013236984      3.197      6.302
REMARK  9 active torsions:
REMARK  status: ('A' for Active; 'I' for Inactive)
REMARK    1  A    between atoms: C2_2  and  C5_5 
REMARK    2  A    between atoms: C6_7  and  N1_8 
REMARK    3  A    between atoms: N1_8  and  C7_10 
REMARK    4  A    between atoms: C7_10  and  C8_11 
REMARK    5  A    between atoms: C7_10  and  C15_21 
REMARK    6  A    between atoms: C8_11  and  N2_12 
REMARK    7  A    between atoms: N2_12  and  C9_15 
REMARK    8  A    between atoms: C18_24  and  C19_25 
REMARK    9  A    between atoms: C22_34  and  O1_35 
ROOT
HETATM    1  C7  UNL     1     -21.620   4.320  19.223  1.00  0.00     0.145 C 
ENDROOT
BRANCH   1   2
HETATM    2  N1  UNL     1     -20.284   4.538  18.925  1.00  0.00    -0.360 N 
ATOM      3  H1  UNL     1     -20.005   4.382  17.956  1.00  0.00     0.162 HD
BRANCH   2   4
HETATM    4  C6  UNL     1     -19.345   4.919  19.744  1.00  0.00     0.147 A 
HETATM    5  S1  UNL     1     -19.602   5.433  21.361  1.00  0.00    -0.054 SA
HETATM    6  C5  UNL     1     -17.984   5.802  21.763  1.00  0.00     0.044 A 
HETATM    7  C22 UNL     1     -17.324   5.496  20.601  1.00  0.00     0.156 A 
HETATM    8  N3  UNL     1     -18.031   5.055  19.605  1.00  0.00    -0.317 N 
ATOM      9  H3  UNL     1     -17.580   4.815  18.723  1.00  0.00     0.170 HD
BRANCH   6  10
HETATM   10  C2  UNL     1     -17.458   6.423  23.016  1.00  0.00    -0.013 C 
HETATM   11  C1  UNL     1     -16.502   7.534  22.848  1.00  0.00     0.020 C 
HETATM   12  C3  UNL     1     -16.749   5.283  23.793  1.00  0.00     0.020 C 
HETATM   13  C4  UNL     1     -18.641   6.851  23.884  1.00  0.00     0.020 C 
ENDBRANCH   6  10
BRANCH   7  14
HETATM   14  O1  UNL     1     -15.915   5.673  20.568  1.00  0.00    -0.345 OA
ATOM     15  H1  UNL     1     -15.410   5.118  19.986  1.00  0.00     0.219 HD
ENDBRANCH   7  14
ENDBRANCH   2   4
ENDBRANCH   1   2
BRANCH   1  16
HETATM   16  C8  UNL     1     -22.672   4.779  18.262  1.00  0.00     0.262 C 
BRANCH  16  17
HETATM   17  N2  UNL     1     -22.111   5.531  17.162  1.00  0.00    -0.069 N 
ATOM     18  H22 UNL     1     -22.335   6.526  17.191  1.00  0.00     0.277 HD
ATOM     19  H21 UNL     1     -21.097   5.634  17.210  1.00  0.00     0.277 HD
BRANCH  17  20
HETATM   20  C9  UNL     1     -22.590   4.840  15.913  1.00  0.00     0.186 C 
HETATM   21  C10 UNL     1     -23.788   4.104  16.269  1.00  0.00     0.033 C 
HETATM   22  C11 UNL     1     -23.916   2.710  15.726  1.00  0.00     0.002 C 
HETATM   23  C12 UNL     1     -22.930   2.441  14.586  1.00  0.00     0.000 C 
HETATM   24  C13 UNL     1     -21.562   2.613  15.252  1.00  0.00     0.002 C 
HETATM   25  C14 UNL     1     -21.395   4.093  15.436  1.00  0.00     0.033 C 
ENDBRANCH  17  20
ENDBRANCH  16  17
ENDBRANCH   1  16
BRANCH   1  26
HETATM   26  C15 UNL     1     -21.982   2.948  19.661  1.00  0.00     0.005 A 
HETATM   27  C16 UNL     1     -22.037   1.912  18.708  1.00  0.00     0.013 A 
HETATM   28  C17 UNL     1     -22.427   0.628  18.998  1.00  0.00     0.017 A 
HETATM   29  C18 UNL     1     -22.790   0.293  20.259  1.00  0.00     0.050 A 
HETATM   30  C20 UNL     1     -22.752   1.283  21.223  1.00  0.00     0.059 A 
HETATM   31  C21 UNL     1     -22.360   2.572  20.926  1.00  0.00     0.125 A 
HETATM   32  F4  UNL     1     -22.348   3.494  21.922  1.00  0.00    -0.205 F 
BRANCH  29  33
HETATM   33  C19 UNL     1     -23.167  -1.087  20.659  1.00  0.00     0.417 C 
HETATM   34  F1  UNL     1     -24.511  -1.019  21.033  1.00  0.00    -0.166 F 
HETATM   35  F2  UNL     1     -22.443  -1.491  21.777  1.00  0.00    -0.166 F 
HETATM   36  F3  UNL     1     -23.027  -1.970  19.626  1.00  0.00    -0.166 F 
ENDBRANCH  29  33
ENDBRANCH   1  26
TORSDOF 9
ENDMDL
MODEL 4
REMARK VINA RESULT: -7.918911964      3.178      6.688
REMARK  9 active torsions:
REMARK  status: ('A' for Active; 'I' for Inactive)
REMARK    1  A    between atoms: C2_2  and  C5_5 
REMARK    2  A    between atoms: C6_7  and  N1_8 
REMARK    3  A    between atoms: N1_8  and  C7_10 
REMARK    4  A    between atoms: C7_10  and  C8_11 
REMARK    5  A    between atoms: C7_10  and  C15_21 
REMARK    6  A    between atoms: C8_11  and  N2_12 
REMARK    7  A    between atoms: N2_12  and  C9_15 
REMARK    8  A    between atoms: C18_24  and  C19_25 
REMARK    9  A    between atoms: C22_34  and  O1_35 
ROOT
HETATM    1  C7  UNL     1     -22.098   3.795  21.470  1.00  0.00     0.145 C 
ENDROOT
BRANCH   1   2
HETATM    2  N1  UNL     1     -21.027   4.223  22.239  1.00  0.00    -0.360 N 
ATOM      3  H1  UNL     1     -20.142   3.738  22.092  1.00  0.00     0.162 HD
BRANCH   2   4
HETATM    4  C6  UNL     1     -21.024   5.176  23.127  1.00  0.00     0.147 A 
HETATM    5  S1  UNL     1     -22.336   5.548  24.170  1.00  0.00    -0.054 SA
HETATM    6  C5  UNL     1     -21.638   6.882  24.977  1.00  0.00     0.044 A 
HETATM    7  C22 UNL     1     -20.405   6.961  24.384  1.00  0.00     0.156 A 
HETATM    8  N3  UNL     1     -20.123   6.094  23.461  1.00  0.00    -0.317 N 
ATOM      9  H3  UNL     1     -19.217   6.116  22.994  1.00  0.00     0.170 HD
BRANCH   6  10
HETATM   10  C2  UNL     1     -22.271   7.798  25.974  1.00  0.00    -0.013 C 
HETATM   11  C1  UNL     1     -21.389   8.332  27.029  1.00  0.00     0.020 C 
HETATM   12  C3  UNL     1     -23.400   6.977  26.651  1.00  0.00     0.020 C 
HETATM   13  C4  UNL     1     -22.968   8.932  25.223  1.00  0.00     0.020 C 
ENDBRANCH   6  10
BRANCH   7  14
HETATM   14  O1  UNL     1     -19.517   7.979  24.825  1.00  0.00    -0.345 OA
ATOM     15  H1  UNL     1     -18.713   7.713  25.256  1.00  0.00     0.219 HD
ENDBRANCH   7  14
ENDBRANCH   2   4
ENDBRANCH   1   2
BRANCH   1  16
HETATM   16  C8  UNL     1     -22.349   4.432  20.139  1.00  0.00     0.262 C 
BRANCH  16  17
HETATM   17  N2  UNL     1     -21.167   5.077  19.614  1.00  0.00    -0.069 N 
ATOM     18  H22 UNL     1     -21.008   6.011  19.993  1.00  0.00     0.277 HD
ATOM     19  H21 UNL     1     -20.294   4.663  19.942  1.00  0.00     0.277 HD
BRANCH  17  20
HETATM   20  C9  UNL     1     -21.323   5.051  18.117  1.00  0.00     0.186 C 
HETATM   21  C10 UNL     1     -22.710   4.725  17.841  1.00  0.00     0.033 C 
HETATM   22  C11 UNL     1     -22.969   3.728  16.748  1.00  0.00     0.002 C 
HETATM   23  C12 UNL     1     -21.738   3.507  15.864  1.00  0.00     0.000 C 
HETATM   24  C13 UNL     1     -20.698   2.948  16.837  1.00  0.00     0.002 C 
HETATM   25  C14 UNL     1     -20.255   4.122  17.661  1.00  0.00     0.033 C 
ENDBRANCH  17  20
ENDBRANCH  16  17
ENDBRANCH   1  16
BRANCH   1  26
HETATM   26  C15 UNL     1     -22.239   2.327  21.297  1.00  0.00     0.005 A 
HETATM   27  C16 UNL     1     -22.379   1.797  19.999  1.00  0.00     0.013 A 
HETATM   28  C17 UNL     1     -22.583   0.465  19.738  1.00  0.00     0.017 A 
HETATM   29  C18 UNL     1     -22.665  -0.427  20.754  1.00  0.00     0.050 A 
HETATM   30  C20 UNL     1     -22.536   0.055  22.043  1.00  0.00     0.059 A 
HETATM   31  C21 UNL     1     -22.331   1.395  22.301  1.00  0.00     0.125 A 
HETATM   32  F4  UNL     1     -22.215   1.798  23.591  1.00  0.00    -0.205 F 
BRANCH  29  33
HETATM   33  C19 UNL     1     -22.828  -1.889  20.545  1.00  0.00     0.417 C 
HETATM   34  F1  UNL     1     -24.127  -2.188  20.961  1.00  0.00    -0.166 F 
HETATM   35  F2  UNL     1     -21.954  -2.603  21.359  1.00  0.00    -0.166 F 
HETATM   36  F3  UNL     1     -22.681  -2.232  19.231  1.00  0.00    -0.166 F 
ENDBRANCH  29  33
ENDBRANCH   1  26
TORSDOF 9
ENDMDL
MODEL 5
REMARK VINA RESULT: -7.899633577      3.743      6.911
REMARK  9 active torsions:
REMARK  status: ('A' for Active; 'I' for Inactive)
REMARK    1  A    between atoms: C2_2  and  C5_5 
REMARK    2  A    between atoms: C6_7  and  N1_8 
REMARK    3  A    between atoms: N1_8  and  C7_10 
REMARK    4  A    between atoms: C7_10  and  C8_11 
REMARK    5  A    between atoms: C7_10  and  C15_21 
REMARK    6  A    between atoms: C8_11  and  N2_12 
REMARK    7  A    between atoms: N2_12  and  C9_15 
REMARK    8  A    between atoms: C18_24  and  C19_25 
REMARK    9  A    between atoms: C22_34  and  O1_35 
ROOT
HETATM    1  C7  UNL     1     -22.632   4.254  21.958  1.00  0.00     0.145 C 
ENDROOT
BRANCH   1   2
HETATM    2  N1  UNL     1     -21.753   4.961  22.763  1.00  0.00    -0.360 N 
ATOM      3  H1  UNL     1     -20.760   4.847  22.558  1.00  0.00     0.162 HD
BRANCH   2   4
HETATM    4  C6  UNL     1     -22.053   5.755  23.752  1.00  0.00     0.147 A 
HETATM    5  S1  UNL     1     -21.890   7.463  23.721  1.00  0.00    -0.054 SA
HETATM    6  C5  UNL     1     -22.406   7.789  25.316  1.00  0.00     0.044 A 
HETATM    7  C22 UNL     1     -22.684   6.533  25.788  1.00  0.00     0.156 A 
HETATM    8  N3  UNL     1     -22.498   5.531  24.983  1.00  0.00    -0.317 N 
ATOM      9  H3  UNL     1     -22.693   4.580  25.293  1.00  0.00     0.170 HD
BRANCH   6  10
HETATM   10  C2  UNL     1     -22.419   9.097  26.039  1.00  0.00    -0.013 C 
HETATM   11  C1  UNL     1     -23.696   9.492  26.661  1.00  0.00     0.020 C 
HETATM   12  C3  UNL     1     -22.037  10.170  24.985  1.00  0.00     0.020 C 
HETATM   13  C4  UNL     1     -21.288   9.097  27.068  1.00  0.00     0.020 C 
ENDBRANCH   6  10
BRANCH   7  14
HETATM   14  O1  UNL     1     -23.163   6.411  27.120  1.00  0.00    -0.345 OA
ATOM     15  H1  UNL     1     -22.529   6.444  27.827  1.00  0.00     0.219 HD
ENDBRANCH   7  14
ENDBRANCH   2   4
ENDBRANCH   1   2
BRANCH   1  16
HETATM   16  C8  UNL     1     -22.934   4.755  20.581  1.00  0.00     0.262 C 
BRANCH  16  17
HETATM   17  N2  UNL     1     -22.455   6.104  20.377  1.00  0.00    -0.069 N 
ATOM     18  H22 UNL     1     -23.200   6.789  20.254  1.00  0.00     0.277 HD
ATOM     19  H21 UNL     1     -22.042   6.522  21.211  1.00  0.00     0.277 HD
BRANCH  17  20
HETATM   20  C9  UNL     1     -21.508   6.024  19.209  1.00  0.00     0.186 C 
HETATM   21  C10 UNL     1     -21.919   4.887  18.407  1.00  0.00     0.033 C 
HETATM   22  C11 UNL     1     -20.831   3.990  17.892  1.00  0.00     0.002 C 
HETATM   23  C12 UNL     1     -19.448   4.642  17.994  1.00  0.00     0.000 C 
HETATM   24  C13 UNL     1     -19.269   4.860  19.498  1.00  0.00     0.002 C 
HETATM   25  C14 UNL     1     -20.161   6.019  19.839  1.00  0.00     0.033 C 
ENDBRANCH  17  20
ENDBRANCH  16  17
ENDBRANCH   1  16
BRANCH   1  26
HETATM   26  C15 UNL     1     -22.404   2.789  21.861  1.00  0.00     0.005 A 
HETATM   27  C16 UNL     1     -22.504   2.159  20.605  1.00  0.00     0.013 A 
HETATM   28  C17 UNL     1     -22.379   0.804  20.420  1.00  0.00     0.017 A 
HETATM   29  C18 UNL     1     -22.148  -0.012  21.476  1.00  0.00     0.050 A 
HETATM   30  C20 UNL     1     -22.047   0.569  22.726  1.00  0.00     0.059 A 
HETATM   31  C21 UNL     1     -22.174   1.931  22.907  1.00  0.00     0.125 A 
HETATM   32  F4  UNL     1     -22.064   2.433  24.163  1.00  0.00    -0.205 F 
BRANCH  29  33
HETATM   33  C19 UNL     1     -21.946  -1.478  21.344  1.00  0.00     0.417 C 
HETATM   34  F1  UNL     1     -21.233  -1.865  22.481  1.00  0.00    -0.166 F 
HETATM   35  F2  UNL     1     -21.154  -1.767  20.236  1.00  0.00    -0.166 F 
HETATM   36  F3  UNL     1     -23.133  -2.151  21.300  1.00  0.00    -0.166 F 
ENDBRANCH  29  33
ENDBRANCH   1  26
TORSDOF 9
ENDMDL
