MODEL 1
REMARK VINA RESULT: -8.604715232      0.000      0.000
REMARK  9 active torsions:
REMARK  status: ('A' for Active; 'I' for Inactive)
REMARK    1  A    between atoms: C7_11  and  C8_12 
REMARK    2  A    between atoms: C8_12  and  O1_13 
REMARK    3  A    between atoms: C8_12  and  N1_15 
REMARK    4  A    between atoms: N1_15  and  C9_17 
REMARK    5  A    between atoms: C9_17  and  C10_18 
REMARK    6  A    between atoms: C10_18  and  C11_19 
REMARK    7  A    between atoms: C11_19  and  N2_20 
REMARK    8  A    between atoms: C12_21  and  O2_22 
REMARK    9  A    between atoms: C15_26  and  O3_27 
ROOT
HETATM    1  N1  UNL     1     -18.289  -5.534  17.600  1.00  0.00    -0.370 N 
ATOM      2  H1  UNL     1     -18.169  -4.769  16.936  1.00  0.00     0.161 HD
ENDROOT
BRANCH   1   3
HETATM    3  C8  UNL     1     -17.819  -6.768  17.152  1.00  0.00     0.148 C 
BRANCH   3   4
HETATM    4  C7  UNL     1     -16.492  -7.193  16.831  1.00  0.00     0.045 A 
HETATM    5  C2  UNL     1     -15.615  -7.762  17.685  1.00  0.00    -0.022 A 
HETATM    6  C1  UNL     1     -15.847  -7.915  19.122  1.00  0.00     0.051 C 
HETATM    7  C3  UNL     1     -14.350  -8.214  17.247  1.00  0.00     0.064 A 
HETATM    8 CL1  UNL     1     -13.218  -8.953  18.354  1.00  0.00    -0.082 Cl
HETATM    9  C4  UNL     1     -13.987  -8.078  15.933  1.00  0.00     0.079 A 
HETATM   10 CL2  UNL     1     -12.413  -8.638  15.372  1.00  0.00    -0.081 Cl
HETATM   11  C5  UNL     1     -14.855  -7.505  15.054  1.00  0.00     0.080 A 
HETATM   12 CL3  UNL     1     -14.401  -7.324  13.367  1.00  0.00    -0.081 Cl
HETATM   13  C6  UNL     1     -16.082  -7.071  15.493  1.00  0.00     0.072 A 
HETATM   14 CL4  UNL     1     -17.160  -6.337  14.306  1.00  0.00    -0.081 Cl
ENDBRANCH   3   4
BRANCH   3  15
HETATM   15  O1  UNL     1     -18.727  -7.691  17.003  1.00  0.00    -0.346 OA
ATOM     16  H1  UNL     1     -19.616  -7.392  17.158  1.00  0.00     0.219 HD
ENDBRANCH   3  15
ENDBRANCH   1   3
BRANCH   1  17
HETATM   17  C9  UNL     1     -18.904  -5.161  18.819  1.00  0.00     0.123 C 
BRANCH  17  18
HETATM   18  C10 UNL     1     -19.666  -3.915  18.942  1.00  0.00     0.040 C 
BRANCH  18  19
HETATM   19  C11 UNL     1     -21.074  -3.813  18.539  1.00  0.00     0.135 C 
BRANCH  19  20
HETATM   20  N2  UNL     1     -21.610  -2.498  18.996  1.00  0.00    -0.308 N 
HETATM   21  C12 UNL     1     -21.504  -1.362  18.290  1.00  0.00     0.151 A 
HETATM   22  C13 UNL     1     -22.102  -0.331  18.992  1.00  0.00     0.007 A 
HETATM   23  C14 UNL     1     -22.583  -0.867  20.161  1.00  0.00     0.007 A 
HETATM   24  C19 UNL     1     -22.270   1.127  18.666  1.00  0.00     0.070 C 
HETATM   25  C15 UNL     1     -22.256  -2.203  20.117  1.00  0.00     0.151 A 
HETATM   26  C16 UNL     1     -23.288   0.011  21.141  1.00  0.00     0.070 C 
HETATM   27  C17 UNL     1     -22.668   1.366  21.071  1.00  0.00    -0.026 C 
HETATM   28  C18 UNL     1     -22.203   1.879  19.946  1.00  0.00    -0.026 C 
BRANCH  21  29
HETATM   29  O2  UNL     1     -20.901  -1.184  17.042  1.00  0.00    -0.345 OA
ATOM     30  H2  UNL     1     -20.751  -1.838  16.370  1.00  0.00     0.219 HD
ENDBRANCH  21  29
BRANCH  25  31
HETATM   31  O3  UNL     1     -22.558  -3.133  21.115  1.00  0.00    -0.345 OA
ATOM     32  H3  UNL     1     -21.939  -3.428  21.774  1.00  0.00     0.219 HD
ENDBRANCH  25  31
ENDBRANCH  19  20
ENDBRANCH  18  19
ENDBRANCH  17  18
ENDBRANCH   1  17
TORSDOF 9
ENDMDL
MODEL 2
REMARK VINA RESULT: -8.412856314      0.688      2.196
REMARK  9 active torsions:
REMARK  status: ('A' for Active; 'I' for Inactive)
REMARK    1  A    between atoms: C7_11  and  C8_12 
REMARK    2  A    between atoms: C8_12  and  O1_13 
REMARK    3  A    between atoms: C8_12  and  N1_15 
REMARK    4  A    between atoms: N1_15  and  C9_17 
REMARK    5  A    between atoms: C9_17  and  C10_18 
REMARK    6  A    between atoms: C10_18  and  C11_19 
REMARK    7  A    between atoms: C11_19  and  N2_20 
REMARK    8  A    between atoms: C12_21  and  O2_22 
REMARK    9  A    between atoms: C15_26  and  O3_27 
ROOT
HETATM    1  N1  UNL     1     -18.238  -5.519  17.618  1.00  0.00    -0.370 N 
ATOM      2  H1  UNL     1     -17.966  -4.730  17.032  1.00  0.00     0.161 HD
ENDROOT
BRANCH   1   3
HETATM    3  C8  UNL     1     -17.859  -6.765  17.121  1.00  0.00     0.148 C 
BRANCH   3   4
HETATM    4  C7  UNL     1     -16.604  -7.212  16.599  1.00  0.00     0.045 A 
HETATM    5  C2  UNL     1     -16.184  -7.074  15.324  1.00  0.00    -0.022 A 
HETATM    6  C1  UNL     1     -17.014  -6.553  14.235  1.00  0.00     0.051 C 
HETATM    7  C3  UNL     1     -14.892  -7.487  14.926  1.00  0.00     0.064 A 
HETATM    8 CL1  UNL     1     -14.350  -7.304  13.276  1.00  0.00    -0.082 Cl
HETATM    9  C4  UNL     1     -14.036  -8.042  15.839  1.00  0.00     0.079 A 
HETATM   10 CL2  UNL     1     -12.422  -8.562  15.359  1.00  0.00    -0.081 Cl
HETATM   11  C5  UNL     1     -14.440  -8.193  17.131  1.00  0.00     0.080 A 
HETATM   12 CL3  UNL     1     -13.351  -8.906  18.311  1.00  0.00    -0.081 Cl
HETATM   13  C6  UNL     1     -15.698  -7.787  17.504  1.00  0.00     0.072 A 
HETATM   14 CL4  UNL     1     -16.160  -8.011  19.191  1.00  0.00    -0.081 Cl
ENDBRANCH   3   4
BRANCH   3  15
HETATM   15  O1  UNL     1     -18.788  -7.680  17.135  1.00  0.00    -0.346 OA
ATOM     16  H1  UNL     1     -19.665  -7.341  17.273  1.00  0.00     0.219 HD
ENDBRANCH   3  15
ENDBRANCH   1   3
BRANCH   1  17
HETATM   17  C9  UNL     1     -18.937  -5.162  18.795  1.00  0.00     0.123 C 
BRANCH  17  18
HETATM   18  C10 UNL     1     -19.686  -3.906  18.890  1.00  0.00     0.040 C 
BRANCH  18  19
HETATM   19  C11 UNL     1     -21.105  -3.808  18.528  1.00  0.00     0.135 C 
BRANCH  19  20
HETATM   20  N2  UNL     1     -21.630  -2.492  18.995  1.00  0.00    -0.308 N 
HETATM   21  C12 UNL     1     -21.528  -1.355  18.291  1.00  0.00     0.151 A 
HETATM   22  C13 UNL     1     -22.115  -0.324  19.003  1.00  0.00     0.007 A 
HETATM   23  C14 UNL     1     -22.585  -0.862  20.176  1.00  0.00     0.007 A 
HETATM   24  C19 UNL     1     -22.281   1.136  18.683  1.00  0.00     0.070 C 
HETATM   25  C15 UNL     1     -22.262  -2.199  20.123  1.00  0.00     0.151 A 
HETATM   26  C16 UNL     1     -23.275   0.015  21.166  1.00  0.00     0.070 C 
HETATM   27  C17 UNL     1     -22.650   1.368  21.093  1.00  0.00    -0.026 C 
HETATM   28  C18 UNL     1     -22.196   1.883  19.965  1.00  0.00    -0.026 C 
BRANCH  21  29
HETATM   29  O2  UNL     1     -20.939  -1.175  17.037  1.00  0.00    -0.345 OA
ATOM     30  H2  UNL     1     -21.029  -0.431  16.454  1.00  0.00     0.219 HD
ENDBRANCH  21  29
BRANCH  25  31
HETATM   31  O3  UNL     1     -22.557  -3.132  21.122  1.00  0.00    -0.345 OA
ATOM     32  H3  UNL     1     -23.187  -2.985  21.819  1.00  0.00     0.219 HD
ENDBRANCH  25  31
ENDBRANCH  19  20
ENDBRANCH  18  19
ENDBRANCH  17  18
ENDBRANCH   1  17
TORSDOF 9
ENDMDL
MODEL 3
REMARK VINA RESULT: -8.235165096      4.327     10.035
REMARK  9 active torsions:
REMARK  status: ('A' for Active; 'I' for Inactive)
REMARK    1  A    between atoms: C7_11  and  C8_12 
REMARK    2  A    between atoms: C8_12  and  O1_13 
REMARK    3  A    between atoms: C8_12  and  N1_15 
REMARK    4  A    between atoms: N1_15  and  C9_17 
REMARK    5  A    between atoms: C9_17  and  C10_18 
REMARK    6  A    between atoms: C10_18  and  C11_19 
REMARK    7  A    between atoms: C11_19  and  N2_20 
REMARK    8  A    between atoms: C12_21  and  O2_22 
REMARK    9  A    between atoms: C15_26  and  O3_27 
ROOT
HETATM    1  N1  UNL     1     -19.753  -3.814  18.283  1.00  0.00    -0.370 N 
ATOM      2  H1  UNL     1     -18.932  -3.210  18.245  1.00  0.00     0.161 HD
ENDROOT
BRANCH   1   3
HETATM    3  C8  UNL     1     -20.950  -3.186  17.940  1.00  0.00     0.148 C 
BRANCH   3   4
HETATM    4  C7  UNL     1     -21.928  -2.544  18.763  1.00  0.00     0.045 A 
HETATM    5  C2  UNL     1     -22.857  -3.167  19.518  1.00  0.00    -0.022 A 
HETATM    6  C1  UNL     1     -23.091  -4.612  19.510  1.00  0.00     0.051 C 
HETATM    7  C3  UNL     1     -23.734  -2.439  20.354  1.00  0.00     0.064 A 
HETATM    8 CL1  UNL     1     -24.933  -3.247  21.334  1.00  0.00    -0.082 Cl
HETATM    9  C4  UNL     1     -23.655  -1.072  20.410  1.00  0.00     0.079 A 
HETATM   10 CL2  UNL     1     -24.741  -0.151  21.448  1.00  0.00    -0.081 Cl
HETATM   11  C5  UNL     1     -22.726  -0.423  19.654  1.00  0.00     0.080 A 
HETATM   12 CL3  UNL     1     -22.617   1.329  19.717  1.00  0.00    -0.081 Cl
HETATM   13  C6  UNL     1     -21.881  -1.144  18.847  1.00  0.00     0.072 A 
HETATM   14 CL4  UNL     1     -20.701  -0.243  17.894  1.00  0.00    -0.081 Cl
ENDBRANCH   3   4
BRANCH   3  15
HETATM   15  O1  UNL     1     -21.229  -3.171  16.667  1.00  0.00    -0.346 OA
ATOM     16  H1  UNL     1     -20.468  -3.226  16.100  1.00  0.00     0.219 HD
ENDBRANCH   3  15
ENDBRANCH   1   3
BRANCH   1  17
HETATM   17  C9  UNL     1     -19.482  -5.146  18.673  1.00  0.00     0.123 C 
BRANCH  17  18
HETATM   18  C10 UNL     1     -18.248  -5.827  18.269  1.00  0.00     0.040 C 
BRANCH  18  19
HETATM   19  C11 UNL     1     -18.256  -7.068  17.486  1.00  0.00     0.135 C 
BRANCH  19  20
HETATM   20  N2  UNL     1     -16.870  -7.344  17.009  1.00  0.00    -0.308 N 
HETATM   21  C12 UNL     1     -16.519  -7.388  15.716  1.00  0.00     0.151 A 
HETATM   22  C13 UNL     1     -15.167  -7.665  15.618  1.00  0.00     0.007 A 
HETATM   23  C14 UNL     1     -14.690  -7.792  16.899  1.00  0.00     0.007 A 
HETATM   24  C19 UNL     1     -14.268  -7.820  14.423  1.00  0.00     0.070 C 
HETATM   25  C15 UNL     1     -15.776  -7.585  17.719  1.00  0.00     0.151 A 
HETATM   26  C16 UNL     1     -13.247  -8.096  17.123  1.00  0.00     0.070 C 
HETATM   27  C17 UNL     1     -12.782  -8.961  16.000  1.00  0.00    -0.026 C 
HETATM   28  C18 UNL     1     -13.243  -8.840  14.769  1.00  0.00    -0.026 C 
BRANCH  21  29
HETATM   29  O2  UNL     1     -17.338  -7.194  14.600  1.00  0.00    -0.345 OA
ATOM     30  H2  UNL     1     -17.137  -6.709  13.808  1.00  0.00     0.219 HD
ENDBRANCH  21  29
BRANCH  25  31
HETATM   31  O3  UNL     1     -15.741  -7.625  19.116  1.00  0.00    -0.345 OA
ATOM     32  H3  UNL     1     -15.030  -7.276  19.641  1.00  0.00     0.219 HD
ENDBRANCH  25  31
ENDBRANCH  19  20
ENDBRANCH  18  19
ENDBRANCH  17  18
ENDBRANCH   1  17
TORSDOF 9
ENDMDL
MODEL 4
REMARK VINA RESULT: -8.129791180      1.362      1.605
REMARK  9 active torsions:
REMARK  status: ('A' for Active; 'I' for Inactive)
REMARK    1  A    between atoms: C7_11  and  C8_12 
REMARK    2  A    between atoms: C8_12  and  O1_13 
REMARK    3  A    between atoms: C8_12  and  N1_15 
REMARK    4  A    between atoms: N1_15  and  C9_17 
REMARK    5  A    between atoms: C9_17  and  C10_18 
REMARK    6  A    between atoms: C10_18  and  C11_19 
REMARK    7  A    between atoms: C11_19  and  N2_20 
REMARK    8  A    between atoms: C12_21  and  O2_22 
REMARK    9  A    between atoms: C15_26  and  O3_27 
ROOT
HETATM    1  N1  UNL     1     -18.114  -5.738  17.535  1.00  0.00    -0.370 N 
ATOM      2  H1  UNL     1     -18.091  -4.954  16.883  1.00  0.00     0.161 HD
ENDROOT
BRANCH   1   3
HETATM    3  C8  UNL     1     -17.638  -6.940  17.012  1.00  0.00     0.148 C 
BRANCH   3   4
HETATM    4  C7  UNL     1     -16.309  -7.339  16.666  1.00  0.00     0.045 A 
HETATM    5  C2  UNL     1     -15.417  -7.920  17.495  1.00  0.00    -0.022 A 
HETATM    6  C1  UNL     1     -15.633  -8.117  18.930  1.00  0.00     0.051 C 
HETATM    7  C3  UNL     1     -14.150  -8.343  17.033  1.00  0.00     0.064 A 
HETATM    8 CL1  UNL     1     -12.999  -9.099  18.107  1.00  0.00    -0.082 Cl
HETATM    9  C4  UNL     1     -13.802  -8.165  15.720  1.00  0.00     0.079 A 
HETATM   10 CL2  UNL     1     -12.226  -8.688  15.128  1.00  0.00    -0.081 Cl
HETATM   11  C5  UNL     1     -14.686  -7.578  14.866  1.00  0.00     0.080 A 
HETATM   12 CL3  UNL     1     -14.251  -7.344  13.180  1.00  0.00    -0.081 Cl
HETATM   13  C6  UNL     1     -15.914  -7.173  15.329  1.00  0.00     0.072 A 
HETATM   14 CL4  UNL     1     -17.013  -6.420  14.173  1.00  0.00    -0.081 Cl
ENDBRANCH   3   4
BRANCH   3  15
HETATM   15  O1  UNL     1     -18.542  -7.856  16.804  1.00  0.00    -0.346 OA
ATOM     16  H1  UNL     1     -18.721  -8.027  15.887  1.00  0.00     0.219 HD
ENDBRANCH   3  15
ENDBRANCH   1   3
BRANCH   1  17
HETATM   17  C9  UNL     1     -18.623  -5.420  18.816  1.00  0.00     0.123 C 
BRANCH  17  18
HETATM   18  C10 UNL     1     -20.023  -5.029  19.008  1.00  0.00     0.040 C 
BRANCH  18  19
HETATM   19  C11 UNL     1     -20.632  -3.909  18.281  1.00  0.00     0.135 C 
BRANCH  19  20
HETATM   20  N2  UNL     1     -21.223  -2.960  19.269  1.00  0.00    -0.308 N 
HETATM   21  C12 UNL     1     -22.541  -2.771  19.427  1.00  0.00     0.151 A 
HETATM   22  C13 UNL     1     -22.752  -1.830  20.419  1.00  0.00     0.007 A 
HETATM   23  C14 UNL     1     -21.516  -1.441  20.872  1.00  0.00     0.007 A 
HETATM   24  C19 UNL     1     -24.018  -1.256  20.992  1.00  0.00     0.070 C 
HETATM   25  C15 UNL     1     -20.607  -2.164  20.133  1.00  0.00     0.151 A 
HETATM   26  C16 UNL     1     -21.414  -0.421  21.956  1.00  0.00     0.070 C 
HETATM   27  C17 UNL     1     -22.551   0.532  21.796  1.00  0.00    -0.026 C 
HETATM   28  C18 UNL     1     -23.739   0.157  21.358  1.00  0.00    -0.026 C 
BRANCH  21  29
HETATM   29  O2  UNL     1     -23.584  -3.392  18.734  1.00  0.00    -0.345 OA
ATOM     30  H2  UNL     1     -24.426  -3.668  19.076  1.00  0.00     0.219 HD
ENDBRANCH  21  29
BRANCH  25  31
HETATM   31  O3  UNL     1     -19.219  -2.079  20.268  1.00  0.00    -0.345 OA
ATOM     32  H3  UNL     1     -18.691  -1.373  19.911  1.00  0.00     0.219 HD
ENDBRANCH  25  31
ENDBRANCH  19  20
ENDBRANCH  18  19
ENDBRANCH  17  18
ENDBRANCH   1  17
TORSDOF 9
ENDMDL
MODEL 5
REMARK VINA RESULT: -8.069743410      1.551      2.720
REMARK  9 active torsions:
REMARK  status: ('A' for Active; 'I' for Inactive)
REMARK    1  A    between atoms: C7_11  and  C8_12 
REMARK    2  A    between atoms: C8_12  and  O1_13 
REMARK    3  A    between atoms: C8_12  and  N1_15 
REMARK    4  A    between atoms: N1_15  and  C9_17 
REMARK    5  A    between atoms: C9_17  and  C10_18 
REMARK    6  A    between atoms: C10_18  and  C11_19 
REMARK    7  A    between atoms: C11_19  and  N2_20 
REMARK    8  A    between atoms: C12_21  and  O2_22 
REMARK    9  A    between atoms: C15_26  and  O3_27 
ROOT
HETATM    1  N1  UNL     1     -17.955  -5.687  17.641  1.00  0.00    -0.370 N 
ATOM      2  H1  UNL     1     -17.700  -4.849  17.119  1.00  0.00     0.161 HD
ENDROOT
BRANCH   1   3
HETATM    3  C8  UNL     1     -17.621  -6.886  17.011  1.00  0.00     0.148 C 
BRANCH   3   4
HETATM    4  C7  UNL     1     -16.375  -7.332  16.470  1.00  0.00     0.045 A 
HETATM    5  C2  UNL     1     -15.957  -7.158  15.199  1.00  0.00    -0.022 A 
HETATM    6  C1  UNL     1     -16.782  -6.589  14.132  1.00  0.00     0.051 C 
HETATM    7  C3  UNL     1     -14.672  -7.575  14.784  1.00  0.00     0.064 A 
HETATM    8 CL1  UNL     1     -14.131  -7.345  13.139  1.00  0.00    -0.082 Cl
HETATM    9  C4  UNL     1     -13.821  -8.173  15.675  1.00  0.00     0.079 A 
HETATM   10 CL2  UNL     1     -12.216  -8.699  15.172  1.00  0.00    -0.081 Cl
HETATM   11  C5  UNL     1     -14.224  -8.362  16.963  1.00  0.00     0.080 A 
HETATM   12 CL3  UNL     1     -13.141  -9.129  18.115  1.00  0.00    -0.081 Cl
HETATM   13  C6  UNL     1     -15.474  -7.950  17.352  1.00  0.00     0.072 A 
HETATM   14 CL4  UNL     1     -15.935  -8.223  19.033  1.00  0.00    -0.081 Cl
ENDBRANCH   3   4
BRANCH   3  15
HETATM   15  O1  UNL     1     -18.594  -7.747  16.896  1.00  0.00    -0.346 OA
ATOM     16  H1  UNL     1     -19.412  -7.371  16.592  1.00  0.00     0.219 HD
ENDBRANCH   3  15
ENDBRANCH   1   3
BRANCH   1  17
HETATM   17  C9  UNL     1     -18.588  -5.434  18.881  1.00  0.00     0.123 C 
BRANCH  17  18
HETATM   18  C10 UNL     1     -20.002  -5.054  18.956  1.00  0.00     0.040 C 
BRANCH  18  19
HETATM   19  C11 UNL     1     -20.541  -3.890  18.242  1.00  0.00     0.135 C 
BRANCH  19  20
HETATM   20  N2  UNL     1     -21.160  -2.963  19.234  1.00  0.00    -0.308 N 
HETATM   21  C12 UNL     1     -22.483  -2.792  19.371  1.00  0.00     0.151 A 
HETATM   22  C13 UNL     1     -22.722  -1.869  20.374  1.00  0.00     0.007 A 
HETATM   23  C14 UNL     1     -21.498  -1.472  20.854  1.00  0.00     0.007 A 
HETATM   24  C19 UNL     1     -24.004  -1.319  20.933  1.00  0.00     0.070 C 
HETATM   25  C15 UNL     1     -20.569  -2.174  20.121  1.00  0.00     0.151 A 
HETATM   26  C16 UNL     1     -21.428  -0.468  21.955  1.00  0.00     0.070 C 
HETATM   27  C17 UNL     1     -22.572   0.474  21.790  1.00  0.00    -0.026 C 
HETATM   28  C18 UNL     1     -23.748   0.092  21.325  1.00  0.00    -0.026 C 
BRANCH  21  29
HETATM   29  O2  UNL     1     -23.505  -3.415  18.651  1.00  0.00    -0.345 OA
ATOM     30  H2  UNL     1     -23.442  -4.188  18.102  1.00  0.00     0.219 HD
ENDBRANCH  21  29
BRANCH  25  31
HETATM   31  O3  UNL     1     -19.183  -2.074  20.281  1.00  0.00    -0.345 OA
ATOM     32  H3  UNL     1     -18.719  -1.254  20.405  1.00  0.00     0.219 HD
ENDBRANCH  25  31
ENDBRANCH  19  20
ENDBRANCH  18  19
ENDBRANCH  17  18
ENDBRANCH   1  17
TORSDOF 9
ENDMDL
