MODEL 1
REMARK VINA RESULT: -8.070090329      0.000      0.000
REMARK  9 active torsions:
REMARK  status: ('A' for Active; 'I' for Inactive)
REMARK    1  A    between atoms: C3_3  and  N1_4 
REMARK    2  A    between atoms: C3_3  and  C7_14 
REMARK       I    between atoms: N1_4  and  C4_6 
REMARK    3  A    between atoms: C4_6  and  C5_8 
REMARK    4  A    between atoms: C5_8  and  N2_9 
REMARK    5  A    between atoms: C7_14  and  N5_15 
REMARK    6  A    between atoms: C7_14  and  C15_27 
REMARK    7  A    between atoms: N5_15  and  C8_17 
REMARK    8  A    between atoms: C8_17  and  N6_19 
REMARK    9  A    between atoms: N6_19  and  C9_21 
ROOT
HETATM    1  C1  UNL     1      11.436  18.021  14.110  1.00  0.00     0.099 C 
HETATM    2  C2  UNL     1      11.739  17.162  14.936  1.00  0.00    -0.160 C 
HETATM    3  C3  UNL     1      12.054  16.125  15.898  1.00  0.00     0.174 C 
ENDROOT
BRANCH   3   4
HETATM    4  N1  UNL     1      11.249  16.218  17.070  1.00  0.00    -0.344 N 
HETATM    5  C4  UNL     1      10.520  15.096  17.543  1.00  0.00     0.236 C 
HETATM    6  O1  UNL     1      10.620  14.026  16.882  1.00  0.00    -0.272 OA
ATOM      7  H1  UNL     1      11.195  17.103  17.574  1.00  0.00     0.163 HD
BRANCH   5   8
HETATM    8  C5  UNL     1       9.666  15.108  18.741  1.00  0.00     0.224 C 
BRANCH   8   9
HETATM    9  N2  UNL     1      10.245  15.968  19.735  1.00  0.00    -0.358 N 
HETATM   10  C6  UNL     1       9.614  16.582  20.647  1.00  0.00     0.197 C 
HETATM   11  N3  UNL     1      10.387  17.397  21.545  1.00  0.00    -0.067 NA
HETATM   12  N4  UNL     1       8.217  16.448  20.750  1.00  0.00    -0.067 NA
ATOM     13  H2  UNL     1      11.256  16.097  19.704  1.00  0.00     0.162 HD
ENDBRANCH   8   9
ENDBRANCH   5   8
ENDBRANCH   3   4
BRANCH   3  14
HETATM   14  C7  UNL     1      13.507  15.915  16.107  1.00  0.00     0.121 C 
BRANCH  14  15
HETATM   15  N5  UNL     1      13.956  16.518  17.360  1.00  0.00    -0.359 N 
ATOM     16  H5  UNL     1      13.995  17.533  17.448  1.00  0.00     0.162 HD
BRANCH  15  17
HETATM   17  C8  UNL     1      14.336  15.708  18.447  1.00  0.00     0.172 C 
HETATM   18  S1  UNL     1      13.941  14.118  18.343  1.00  0.00    -0.041 SA
BRANCH  17  19
HETATM   19  N6  UNL     1      14.982  16.174  19.604  1.00  0.00    -0.333 N 
ATOM     20  H6  UNL     1      14.406  16.291  20.438  1.00  0.00     0.168 HD
BRANCH  19  21
HETATM   21  C9  UNL     1      16.354  16.497  19.723  1.00  0.00     0.034 A 
HETATM   22  C10 UNL     1      17.146  16.680  18.630  1.00  0.00     0.029 A 
HETATM   23  C11 UNL     1      18.512  16.964  18.820  1.00  0.00     0.002 A 
HETATM   24  C12 UNL     1      19.022  17.054  20.084  1.00  0.00     0.000 A 
HETATM   25  C13 UNL     1      18.223  16.871  21.206  1.00  0.00     0.002 A 
HETATM   26  C14 UNL     1      16.892  16.593  21.018  1.00  0.00     0.029 A 
ENDBRANCH  19  21
ENDBRANCH  17  19
ENDBRANCH  15  17
ENDBRANCH  14  15
BRANCH  14  27
HETATM   27  C15 UNL     1      14.432  16.451  15.063  1.00  0.00     0.003 C 
HETATM   28  C16 UNL     1      15.432  17.461  15.472  1.00  0.00     0.011 C 
HETATM   29  C17 UNL     1      15.162  15.340  14.306  1.00  0.00     0.011 C 
ENDBRANCH  14  27
ENDBRANCH   3  14
TORSDOF 9
ENDMDL
MODEL 2
REMARK VINA RESULT: -7.643638735      2.751      4.984
REMARK  9 active torsions:
REMARK  status: ('A' for Active; 'I' for Inactive)
REMARK    1  A    between atoms: C3_3  and  N1_4 
REMARK    2  A    between atoms: C3_3  and  C7_14 
REMARK       I    between atoms: N1_4  and  C4_6 
REMARK    3  A    between atoms: C4_6  and  C5_8 
REMARK    4  A    between atoms: C5_8  and  N2_9 
REMARK    5  A    between atoms: C7_14  and  N5_15 
REMARK    6  A    between atoms: C7_14  and  C15_27 
REMARK    7  A    between atoms: N5_15  and  C8_17 
REMARK    8  A    between atoms: C8_17  and  N6_19 
REMARK    9  A    between atoms: N6_19  and  C9_21 
ROOT
HETATM    1  C1  UNL     1      14.388  15.463  14.471  1.00  0.00     0.099 C 
HETATM    2  C2  UNL     1      13.268  15.645  14.945  1.00  0.00    -0.160 C 
HETATM    3  C3  UNL     1      11.928  15.846  15.460  1.00  0.00     0.174 C 
ENDROOT
BRANCH   3   4
HETATM    4  N1  UNL     1      11.328  17.031  14.944  1.00  0.00    -0.344 N 
HETATM    5  C4  UNL     1      10.079  16.980  14.273  1.00  0.00     0.236 C 
HETATM    6  O1  UNL     1       9.534  15.847  14.158  1.00  0.00    -0.272 OA
ATOM      7  H1  UNL     1      11.802  17.926  15.058  1.00  0.00     0.163 HD
BRANCH   5   8
HETATM    8  C5  UNL     1       9.391  18.153  13.710  1.00  0.00     0.224 C 
BRANCH   8   9
HETATM    9  N2  UNL     1       8.512  17.733  12.655  1.00  0.00    -0.358 N 
HETATM   10  C6  UNL     1       8.737  17.841  11.411  1.00  0.00     0.197 C 
HETATM   11  N3  UNL     1       7.721  17.355  10.516  1.00  0.00    -0.067 NA
HETATM   12  N4  UNL     1       9.939  18.415  10.960  1.00  0.00    -0.067 NA
ATOM     13  H2  UNL     1       7.626  17.308  12.930  1.00  0.00     0.162 HD
ENDBRANCH   8   9
ENDBRANCH   5   8
ENDBRANCH   3   4
BRANCH   3  14
HETATM   14  C7  UNL     1      11.801  15.621  16.920  1.00  0.00     0.121 C 
BRANCH  14  15
HETATM   15  N5  UNL     1      12.647  14.515  17.363  1.00  0.00    -0.359 N 
ATOM     16  H5  UNL     1      12.560  13.602  16.918  1.00  0.00     0.162 HD
BRANCH  15  17
HETATM   17  C8  UNL     1      13.582  14.700  18.399  1.00  0.00     0.172 C 
HETATM   18  S1  UNL     1      14.032  13.352  19.222  1.00  0.00    -0.041 SA
BRANCH  17  19
HETATM   19  N6  UNL     1      14.109  15.942  18.788  1.00  0.00    -0.333 N 
ATOM     20  H6  UNL     1      13.446  16.708  18.904  1.00  0.00     0.168 HD
BRANCH  19  21
HETATM   21  C9  UNL     1      15.472  16.232  19.034  1.00  0.00     0.034 A 
HETATM   22  C10 UNL     1      15.977  16.287  20.298  1.00  0.00     0.029 A 
HETATM   23  C11 UNL     1      17.335  16.617  20.473  1.00  0.00     0.002 A 
HETATM   24  C12 UNL     1      18.122  16.874  19.387  1.00  0.00     0.000 A 
HETATM   25  C13 UNL     1      17.617  16.819  18.094  1.00  0.00     0.002 A 
HETATM   26  C14 UNL     1      16.294  16.498  17.925  1.00  0.00     0.029 A 
ENDBRANCH  19  21
ENDBRANCH  17  19
ENDBRANCH  15  17
ENDBRANCH  14  15
BRANCH  14  27
HETATM   27  C15 UNL     1      10.439  15.304  17.447  1.00  0.00     0.003 C 
HETATM   28  C16 UNL     1       9.919  13.933  17.250  1.00  0.00     0.011 C 
HETATM   29  C17 UNL     1      10.289  15.660  18.927  1.00  0.00     0.011 C 
ENDBRANCH  14  27
ENDBRANCH   3  14
TORSDOF 9
ENDMDL
MODEL 3
REMARK VINA RESULT: -7.490995026      1.677      2.382
REMARK  9 active torsions:
REMARK  status: ('A' for Active; 'I' for Inactive)
REMARK    1  A    between atoms: C3_3  and  N1_4 
REMARK    2  A    between atoms: C3_3  and  C7_14 
REMARK       I    between atoms: N1_4  and  C4_6 
REMARK    3  A    between atoms: C4_6  and  C5_8 
REMARK    4  A    between atoms: C5_8  and  N2_9 
REMARK    5  A    between atoms: C7_14  and  N5_15 
REMARK    6  A    between atoms: C7_14  and  C15_27 
REMARK    7  A    between atoms: N5_15  and  C8_17 
REMARK    8  A    between atoms: C8_17  and  N6_19 
REMARK    9  A    between atoms: N6_19  and  C9_21 
ROOT
HETATM    1  C1  UNL     1       9.316  17.226  13.891  1.00  0.00     0.099 C 
HETATM    2  C2  UNL     1      10.382  17.053  14.480  1.00  0.00    -0.160 C 
HETATM    3  C3  UNL     1      11.619  16.805  15.192  1.00  0.00     0.174 C 
ENDROOT
BRANCH   3   4
HETATM    4  N1  UNL     1      11.492  17.053  16.589  1.00  0.00    -0.344 N 
HETATM    5  C4  UNL     1      11.604  15.995  17.528  1.00  0.00     0.236 C 
HETATM    6  O1  UNL     1      11.818  14.840  17.069  1.00  0.00    -0.272 OA
ATOM      7  H1  UNL     1      11.318  18.002  16.918  1.00  0.00     0.163 HD
BRANCH   5   8
HETATM    8  C5  UNL     1      11.484  16.164  18.986  1.00  0.00     0.224 C 
BRANCH   8   9
HETATM    9  N2  UNL     1      10.109  16.019  19.373  1.00  0.00    -0.358 N 
HETATM   10  C6  UNL     1       9.577  16.499  20.420  1.00  0.00     0.197 C 
HETATM   11  N3  UNL     1       8.177  16.237  20.623  1.00  0.00    -0.067 NA
HETATM   12  N4  UNL     1      10.350  17.251  21.322  1.00  0.00    -0.067 NA
ATOM     13  H2  UNL     1       9.505  15.482  18.751  1.00  0.00     0.162 HD
ENDBRANCH   8   9
ENDBRANCH   5   8
ENDBRANCH   3   4
BRANCH   3  14
HETATM   14  C7  UNL     1      12.822  17.363  14.526  1.00  0.00     0.121 C 
BRANCH  14  15
HETATM   15  N5  UNL     1      13.988  17.309  15.405  1.00  0.00    -0.359 N 
ATOM     16  H5  UNL     1      14.268  18.139  15.926  1.00  0.00     0.162 HD
BRANCH  15  17
HETATM   17  C8  UNL     1      14.729  16.119  15.537  1.00  0.00     0.172 C 
HETATM   18  S1  UNL     1      15.337  15.484  14.151  1.00  0.00    -0.041 SA
BRANCH  17  19
HETATM   19  N6  UNL     1      14.940  15.439  16.747  1.00  0.00    -0.333 N 
ATOM     20  H6  UNL     1      14.475  14.537  16.856  1.00  0.00     0.168 HD
BRANCH  19  21
HETATM   21  C9  UNL     1      15.735  15.884  17.829  1.00  0.00     0.034 A 
HETATM   22  C10 UNL     1      16.933  16.503  17.632  1.00  0.00     0.029 A 
HETATM   23  C11 UNL     1      17.691  16.889  18.755  1.00  0.00     0.002 A 
HETATM   24  C12 UNL     1      17.223  16.642  20.014  1.00  0.00     0.000 A 
HETATM   25  C13 UNL     1      16.002  16.012  20.226  1.00  0.00     0.002 A 
HETATM   26  C14 UNL     1      15.265  15.637  19.131  1.00  0.00     0.029 A 
ENDBRANCH  19  21
ENDBRANCH  17  19
ENDBRANCH  15  17
ENDBRANCH  14  15
BRANCH  14  27
HETATM   27  C15 UNL     1      12.749  18.781  14.061  1.00  0.00     0.003 C 
HETATM   28  C16 UNL     1      12.916  19.852  15.069  1.00  0.00     0.011 C 
HETATM   29  C17 UNL     1      13.709  19.064  12.905  1.00  0.00     0.011 C 
ENDBRANCH  14  27
ENDBRANCH   3  14
TORSDOF 9
ENDMDL
MODEL 4
REMARK VINA RESULT: -7.480701231      2.959      5.174
REMARK  9 active torsions:
REMARK  status: ('A' for Active; 'I' for Inactive)
REMARK    1  A    between atoms: C3_3  and  N1_4 
REMARK    2  A    between atoms: C3_3  and  C7_14 
REMARK       I    between atoms: N1_4  and  C4_6 
REMARK    3  A    between atoms: C4_6  and  C5_8 
REMARK    4  A    between atoms: C5_8  and  N2_9 
REMARK    5  A    between atoms: C7_14  and  N5_15 
REMARK    6  A    between atoms: C7_14  and  C15_27 
REMARK    7  A    between atoms: N5_15  and  C8_17 
REMARK    8  A    between atoms: C8_17  and  N6_19 
REMARK    9  A    between atoms: N6_19  and  C9_21 
ROOT
HETATM    1  C1  UNL     1      13.681  15.381  14.872  1.00  0.00     0.099 C 
HETATM    2  C2  UNL     1      12.528  15.596  15.243  1.00  0.00    -0.160 C 
HETATM    3  C3  UNL     1      11.154  15.837  15.634  1.00  0.00     0.174 C 
ENDROOT
BRANCH   3   4
HETATM    4  N1  UNL     1      10.640  17.041  15.073  1.00  0.00    -0.344 N 
HETATM    5  C4  UNL     1       9.646  17.006  14.061  1.00  0.00     0.236 C 
HETATM    6  O1  UNL     1       9.246  15.869  13.689  1.00  0.00    -0.272 OA
ATOM      7  H1  UNL     1      10.991  17.940  15.403  1.00  0.00     0.163 HD
BRANCH   5   8
HETATM    8  C5  UNL     1       9.063  18.200  13.429  1.00  0.00     0.224 C 
BRANCH   8   9
HETATM    9  N2  UNL     1       9.676  18.411  12.147  1.00  0.00    -0.358 N 
HETATM   10  C6  UNL     1       9.192  18.072  11.025  1.00  0.00     0.197 C 
HETATM   11  N3  UNL     1       9.970  18.377   9.855  1.00  0.00    -0.067 NA
HETATM   12  N4  UNL     1       7.943  17.427  10.964  1.00  0.00    -0.067 NA
ATOM     13  H2  UNL     1      10.584  18.876  12.138  1.00  0.00     0.162 HD
ENDBRANCH   8   9
ENDBRANCH   5   8
ENDBRANCH   3   4
BRANCH   3  14
HETATM   14  C7  UNL     1      10.886  15.610  17.076  1.00  0.00     0.121 C 
BRANCH  14  15
HETATM   15  N5  UNL     1      11.984  14.885  17.712  1.00  0.00    -0.359 N 
ATOM     16  H5  UNL     1      12.096  13.886  17.543  1.00  0.00     0.162 HD
BRANCH  15  17
HETATM   17  C8  UNL     1      12.889  15.556  18.557  1.00  0.00     0.172 C 
HETATM   18  S1  UNL     1      12.469  17.077  19.009  1.00  0.00    -0.041 SA
BRANCH  17  19
HETATM   19  N6  UNL     1      14.116  15.031  18.992  1.00  0.00    -0.333 N 
ATOM     20  H6  UNL     1      14.110  14.071  19.338  1.00  0.00     0.168 HD
BRANCH  19  21
HETATM   21  C9  UNL     1      15.360  15.706  18.997  1.00  0.00     0.034 A 
HETATM   22  C10 UNL     1      15.959  16.115  17.844  1.00  0.00     0.029 A 
HETATM   23  C11 UNL     1      17.214  16.748  17.918  1.00  0.00     0.002 A 
HETATM   24  C12 UNL     1      17.810  16.945  19.131  1.00  0.00     0.000 A 
HETATM   25  C13 UNL     1      17.208  16.533  20.313  1.00  0.00     0.002 A 
HETATM   26  C14 UNL     1      15.985  15.915  20.239  1.00  0.00     0.029 A 
ENDBRANCH  19  21
ENDBRANCH  17  19
ENDBRANCH  15  17
ENDBRANCH  14  15
BRANCH  14  27
HETATM   27  C15 UNL     1       9.655  14.841  17.429  1.00  0.00     0.003 C 
HETATM   28  C16 UNL     1       9.632  13.391  17.134  1.00  0.00     0.011 C 
HETATM   29  C17 UNL     1       9.247  15.034  18.891  1.00  0.00     0.011 C 
ENDBRANCH  14  27
ENDBRANCH   3  14
TORSDOF 9
ENDMDL
MODEL 5
REMARK VINA RESULT: -7.455211697      3.094      5.884
REMARK  9 active torsions:
REMARK  status: ('A' for Active; 'I' for Inactive)
REMARK    1  A    between atoms: C3_3  and  N1_4 
REMARK    2  A    between atoms: C3_3  and  C7_14 
REMARK       I    between atoms: N1_4  and  C4_6 
REMARK    3  A    between atoms: C4_6  and  C5_8 
REMARK    4  A    between atoms: C5_8  and  N2_9 
REMARK    5  A    between atoms: C7_14  and  N5_15 
REMARK    6  A    between atoms: C7_14  and  C15_27 
REMARK    7  A    between atoms: N5_15  and  C8_17 
REMARK    8  A    between atoms: C8_17  and  N6_19 
REMARK    9  A    between atoms: N6_19  and  C9_21 
ROOT
HETATM    1  C1  UNL     1      12.305  19.530  15.264  1.00  0.00     0.099 C 
HETATM    2  C2  UNL     1      12.945  18.507  15.501  1.00  0.00    -0.160 C 
HETATM    3  C3  UNL     1      13.740  17.326  15.772  1.00  0.00     0.174 C 
ENDROOT
BRANCH   3   4
HETATM    4  N1  UNL     1      14.231  16.726  14.576  1.00  0.00    -0.344 N 
HETATM    5  C4  UNL     1      15.614  16.760  14.259  1.00  0.00     0.236 C 
HETATM    6  O1  UNL     1      16.376  17.343  15.079  1.00  0.00    -0.272 OA
ATOM      7  H1  UNL     1      13.580  16.266  13.941  1.00  0.00     0.163 HD
BRANCH   5   8
HETATM    8  C5  UNL     1      16.202  16.167  13.048  1.00  0.00     0.224 C 
BRANCH   8   9
HETATM    9  N2  UNL     1      17.512  16.715  12.834  1.00  0.00    -0.358 N 
HETATM   10  C6  UNL     1      17.831  17.553  11.937  1.00  0.00     0.197 C 
HETATM   11  N3  UNL     1      19.204  17.977  11.894  1.00  0.00    -0.067 NA
HETATM   12  N4  UNL     1      16.858  18.029  11.040  1.00  0.00    -0.067 NA
ATOM     13  H2  UNL     1      18.254  16.403  13.460  1.00  0.00     0.162 HD
ENDBRANCH   8   9
ENDBRANCH   5   8
ENDBRANCH   3   4
BRANCH   3  14
HETATM   14  C7  UNL     1      13.145  16.412  16.777  1.00  0.00     0.121 C 
BRANCH  14  15
HETATM   15  N5  UNL     1      14.077  15.349  17.146  1.00  0.00    -0.359 N 
ATOM     16  H5  UNL     1      14.482  14.758  16.422  1.00  0.00     0.162 HD
BRANCH  15  17
HETATM   17  C8  UNL     1      14.419  15.136  18.495  1.00  0.00     0.172 C 
HETATM   18  S1  UNL     1      14.214  13.610  19.065  1.00  0.00    -0.041 SA
BRANCH  17  19
HETATM   19  N6  UNL     1      14.876  16.134  19.371  1.00  0.00    -0.333 N 
ATOM     20  H6  UNL     1      14.167  16.716  19.817  1.00  0.00     0.168 HD
BRANCH  19  21
HETATM   21  C9  UNL     1      16.226  16.409  19.695  1.00  0.00     0.034 A 
HETATM   22  C10 UNL     1      16.657  16.467  20.986  1.00  0.00     0.029 A 
HETATM   23  C11 UNL     1      18.006  16.782  21.238  1.00  0.00     0.002 A 
HETATM   24  C12 UNL     1      18.859  17.020  20.198  1.00  0.00     0.000 A 
HETATM   25  C13 UNL     1      18.430  16.961  18.878  1.00  0.00     0.002 A 
HETATM   26  C14 UNL     1      17.115  16.656  18.634  1.00  0.00     0.029 A 
ENDBRANCH  19  21
ENDBRANCH  17  19
ENDBRANCH  15  17
ENDBRANCH  14  15
BRANCH  14  27
HETATM   27  C15 UNL     1      11.882  15.709  16.397  1.00  0.00     0.003 C 
HETATM   28  C16 UNL     1      11.979  14.307  15.935  1.00  0.00     0.011 C 
HETATM   29  C17 UNL     1      10.826  15.772  17.502  1.00  0.00     0.011 C 
ENDBRANCH  14  27
ENDBRANCH   3  14
TORSDOF 9
ENDMDL
