MODEL 1
REMARK VINA RESULT: -8.823669811      0.000      0.000
REMARK  18 active torsions:
REMARK  status: ('A' for Active; 'I' for Inactive)
REMARK    1  A    between atoms: C2_2  and  C3_3 
REMARK    2  A    between atoms: C3_3  and  C4_4 
REMARK    3  A    between atoms: C4_4  and  C5_5 
REMARK    4  A    between atoms: C5_5  and  O1_6 
REMARK    5  A    between atoms: O1_6  and  C6_7 
REMARK       I    between atoms: C6_7  and  N1_9 
REMARK    6  A    between atoms: C9_13  and  O3_14 
REMARK    7  A    between atoms: C9_13  and  C10_16 
REMARK    8  A    between atoms: C10_16  and  C11_17 
REMARK    9  A    between atoms: C11_17  and  C12_18 
REMARK   10  A    between atoms: C12_18  and  C13_19 
REMARK   11  A    between atoms: C13_19  and  N3_20 
REMARK       I    between atoms: N6_25  and  C15_27 
REMARK   12  A    between atoms: C15_27  and  C16_29 
REMARK   13  A    between atoms: C16_29  and  C23_40 
REMARK       I    between atoms: N7_30  and  C17_32 
REMARK   14  A    between atoms: C17_32  and  O6_34 
REMARK   15  A    between atoms: O6_34  and  C18_35 
REMARK   16  A    between atoms: C18_35  and  C19_36 
REMARK   17  A    between atoms: C23_40  and  C24_41 
REMARK   18  A    between atoms: C24_41  and  C25_42 
ROOT
HETATM    1  C10 UNL     1      20.062  29.777  13.005  1.00  0.00     0.063 C 
HETATM    2  N6  UNL     1      19.600  30.854  13.598  1.00  0.00    -0.321 N 
ATOM      3  H6  UNL     1      18.645  30.748  13.940  1.00  0.00     0.169 HD
HETATM    4  C15 UNL     1      20.128  32.081  13.852  1.00  0.00     0.274 C 
HETATM    5  O4  UNL     1      20.787  32.667  12.942  1.00  0.00    -0.266 OA
ENDROOT
BRANCH   1   6
HETATM    6  C9  UNL     1      19.185  28.640  12.924  1.00  0.00     0.161 C 
HETATM    7  N2  UNL     1      18.636  27.935  11.896  1.00  0.00    -0.357 N 
HETATM    8  C8  UNL     1      18.758  28.030  10.498  1.00  0.00     0.145 C 
HETATM    9  C32 UNL     1      17.708  26.819  12.318  1.00  0.00     0.145 C 
HETATM   10  C7  UNL     1      19.562  26.772  10.081  1.00  0.00     0.148 C 
HETATM   11  N1  UNL     1      18.747  25.638  10.391  1.00  0.00    -0.325 N 
HETATM   12  C6  UNL     1      19.018  24.436   9.671  1.00  0.00     0.362 C 
HETATM   13  C33 UNL     1      17.704  25.693  11.366  1.00  0.00     0.148 C 
HETATM   14  O2  UNL     1      18.330  23.424   9.940  1.00  0.00    -0.238 OA
BRANCH  12  15
HETATM   15  O1  UNL     1      19.981  24.326   8.711  1.00  0.00    -0.304 OA
BRANCH  15  16
HETATM   16  C5  UNL     1      19.779  24.299   7.315  1.00  0.00     0.180 C 
BRANCH  16  17
HETATM   17  C4  UNL     1      18.753  25.255   6.812  1.00  0.00     0.027 C 
BRANCH  17  18
HETATM   18  C3  UNL     1      19.440  26.529   6.380  1.00  0.00     0.002 C 
BRANCH  18  19
HETATM   19  C2  UNL     1      18.630  27.745   6.675  1.00  0.00    -0.004 C 
HETATM   20  C1  UNL     1      18.309  28.442   5.364  1.00  0.00     0.005 C 
ENDBRANCH  18  19
ENDBRANCH  17  18
ENDBRANCH  16  17
ENDBRANCH  15  16
ENDBRANCH  12  15
BRANCH   6  21
HETATM   21  O3  UNL     1      18.872  28.222  14.173  1.00  0.00    -0.345 OA
ATOM     22  H3  UNL     1      19.563  27.786  14.656  1.00  0.00     0.219 HD
ENDBRANCH   6  21
ENDBRANCH   1   6
BRANCH   1  23
HETATM   23  C11 UNL     1      21.397  29.894  12.431  1.00  0.00     0.063 C 
BRANCH  23  24
HETATM   24  C12 UNL     1      22.455  29.009  13.008  1.00  0.00     0.026 C 
BRANCH  24  25
HETATM   25  C13 UNL     1      22.344  27.671  12.255  1.00  0.00     0.122 C 
BRANCH  25  26
HETATM   26  N3  UNL     1      23.067  27.826  11.013  1.00  0.00    -0.367 N 
HETATM   27  C14 UNL     1      24.001  26.960  10.716  1.00  0.00     0.196 C 
HETATM   28  N4  UNL     1      24.265  25.912  11.610  1.00  0.00    -0.067 NA
HETATM   29  N5  UNL     1      24.734  27.096   9.485  1.00  0.00    -0.067 NA
ATOM     30  H3  UNL     1      22.854  28.597  10.381  1.00  0.00     0.161 HD
ENDBRANCH  25  26
ENDBRANCH  24  25
ENDBRANCH  23  24
ENDBRANCH   1  23
BRANCH   4  31
HETATM   31  C16 UNL     1      19.994  32.808  15.128  1.00  0.00     0.127 C 
HETATM   32  N7  UNL     1      18.979  32.763  15.841  1.00  0.00    -0.296 N 
HETATM   33  C17 UNL     1      17.745  32.222  15.929  1.00  0.00     0.365 C 
ATOM     34  H7  UNL     1      19.132  33.352  16.661  1.00  0.00     0.171 HD
HETATM   35  O5  UNL     1      17.606  30.986  16.238  1.00  0.00    -0.238 OA
BRANCH  33  36
HETATM   36  O6  UNL     1      16.528  32.899  15.711  1.00  0.00    -0.303 OA
BRANCH  36  37
HETATM   37  C18 UNL     1      15.665  33.248  16.805  1.00  0.00     0.189 C 
BRANCH  37  38
HETATM   38  C19 UNL     1      15.896  34.710  17.107  1.00  0.00    -0.029 C 
HETATM   39  C20 UNL     1      16.994  34.892  18.139  1.00  0.00     0.016 C 
HETATM   40  C21 UNL     1      14.605  35.318  17.648  1.00  0.00     0.016 C 
HETATM   41  C22 UNL     1      16.277  35.411  15.845  1.00  0.00     0.016 C 
ENDBRANCH  37  38
ENDBRANCH  36  37
ENDBRANCH  33  36
BRANCH  31  42
HETATM   42  C23 UNL     1      21.106  33.629  15.609  1.00  0.00     0.037 C 
HETATM   43  N8  UNL     1      22.299  33.168  15.679  1.00  0.00    -0.396 N 
HETATM   44  C31 UNL     1      22.832  31.904  15.358  1.00  0.00     0.146 C 
ATOM     45  H8  UNL     1      22.985  33.835  16.031  1.00  0.00     0.159 HD
BRANCH  42  46
HETATM   46  C24 UNL     1      20.928  35.037  16.031  1.00  0.00     0.064 C 
BRANCH  46  47
HETATM   47  C25 UNL     1      21.709  35.306  17.332  1.00  0.00    -0.009 C 
HETATM   48  C26 UNL     1      22.334  36.660  17.354  1.00  0.00     0.005 C 
HETATM   49  C27 UNL     1      21.914  37.384  18.615  1.00  0.00     0.000 C 
HETATM   50  C28 UNL     1      22.105  36.587  19.862  1.00  0.00     0.000 C 
HETATM   51  C29 UNL     1      21.450  35.228  19.789  1.00  0.00     0.000 C 
HETATM   52  C30 UNL     1      20.712  35.136  18.452  1.00  0.00     0.005 C 
ENDBRANCH  46  47
ENDBRANCH  42  46
ENDBRANCH  31  42
ENDBRANCH   4  31
TORSDOF 18
ENDMDL
MODEL 2
REMARK VINA RESULT: -8.822432267      1.171      1.757
REMARK  18 active torsions:
REMARK  status: ('A' for Active; 'I' for Inactive)
REMARK    1  A    between atoms: C2_2  and  C3_3 
REMARK    2  A    between atoms: C3_3  and  C4_4 
REMARK    3  A    between atoms: C4_4  and  C5_5 
REMARK    4  A    between atoms: C5_5  and  O1_6 
REMARK    5  A    between atoms: O1_6  and  C6_7 
REMARK       I    between atoms: C6_7  and  N1_9 
REMARK    6  A    between atoms: C9_13  and  O3_14 
REMARK    7  A    between atoms: C9_13  and  C10_16 
REMARK    8  A    between atoms: C10_16  and  C11_17 
REMARK    9  A    between atoms: C11_17  and  C12_18 
REMARK   10  A    between atoms: C12_18  and  C13_19 
REMARK   11  A    between atoms: C13_19  and  N3_20 
REMARK       I    between atoms: N6_25  and  C15_27 
REMARK   12  A    between atoms: C15_27  and  C16_29 
REMARK   13  A    between atoms: C16_29  and  C23_40 
REMARK       I    between atoms: N7_30  and  C17_32 
REMARK   14  A    between atoms: C17_32  and  O6_34 
REMARK   15  A    between atoms: O6_34  and  C18_35 
REMARK   16  A    between atoms: C18_35  and  C19_36 
REMARK   17  A    between atoms: C23_40  and  C24_41 
REMARK   18  A    between atoms: C24_41  and  C25_42 
ROOT
HETATM    1  C10 UNL     1      19.819  29.870  12.606  1.00  0.00     0.063 C 
HETATM    2  N6  UNL     1      19.304  30.833  13.337  1.00  0.00    -0.321 N 
ATOM      3  H6  UNL     1      18.435  30.566  13.800  1.00  0.00     0.169 HD
HETATM    4  C15 UNL     1      19.685  32.110  13.606  1.00  0.00     0.274 C 
HETATM    5  O4  UNL     1      20.112  32.836  12.660  1.00  0.00    -0.266 OA
ENDROOT
BRANCH   1   6
HETATM    6  C9  UNL     1      19.109  28.621  12.564  1.00  0.00     0.161 C 
HETATM    7  N2  UNL     1      18.437  27.943  11.593  1.00  0.00    -0.357 N 
HETATM    8  C8  UNL     1      18.218  28.195  10.227  1.00  0.00     0.145 C 
HETATM    9  C32 UNL     1      17.792  26.655  12.051  1.00  0.00     0.145 C 
HETATM   10  C7  UNL     1      19.066  27.132   9.483  1.00  0.00     0.148 C 
HETATM   11  N1  UNL     1      18.505  25.855   9.806  1.00  0.00    -0.325 N 
HETATM   12  C6  UNL     1      18.761  24.791   8.891  1.00  0.00     0.362 C 
HETATM   13  C33 UNL     1      17.719  25.644  10.980  1.00  0.00     0.148 C 
HETATM   14  O2  UNL     1      18.297  23.659   9.163  1.00  0.00    -0.238 OA
BRANCH  12  15
HETATM   15  O1  UNL     1      19.481  24.935   7.741  1.00  0.00    -0.304 OA
BRANCH  15  16
HETATM   16  C5  UNL     1      20.655  24.235   7.389  1.00  0.00     0.180 C 
BRANCH  16  17
HETATM   17  C4  UNL     1      21.838  24.525   8.247  1.00  0.00     0.027 C 
BRANCH  17  18
HETATM   18  C3  UNL     1      22.342  25.913   7.933  1.00  0.00     0.002 C 
BRANCH  18  19
HETATM   19  C2  UNL     1      23.815  25.949   7.704  1.00  0.00    -0.004 C 
HETATM   20  C1  UNL     1      24.141  25.060   6.515  1.00  0.00     0.005 C 
ENDBRANCH  18  19
ENDBRANCH  17  18
ENDBRANCH  16  17
ENDBRANCH  15  16
ENDBRANCH  12  15
BRANCH   6  21
HETATM   21  O3  UNL     1      19.153  28.035  13.783  1.00  0.00    -0.345 OA
ATOM     22  H3  UNL     1      19.457  27.136  13.807  1.00  0.00     0.219 HD
ENDBRANCH   6  21
ENDBRANCH   1   6
BRANCH   1  23
HETATM   23  C11 UNL     1      21.023  30.218  11.861  1.00  0.00     0.063 C 
BRANCH  23  24
HETATM   24  C12 UNL     1      21.748  29.091  11.196  1.00  0.00     0.026 C 
BRANCH  24  25
HETATM   25  C13 UNL     1      22.567  28.405  12.302  1.00  0.00     0.122 C 
BRANCH  25  26
HETATM   26  N3  UNL     1      22.812  27.049  11.865  1.00  0.00    -0.367 N 
HETATM   27  C14 UNL     1      24.032  26.701  11.543  1.00  0.00     0.196 C 
HETATM   28  N4  UNL     1      25.057  27.655  11.635  1.00  0.00    -0.067 NA
HETATM   29  N5  UNL     1      24.298  25.357  11.105  1.00  0.00    -0.067 NA
ATOM     30  H3  UNL     1      22.049  26.376  11.808  1.00  0.00     0.161 HD
ENDBRANCH  25  26
ENDBRANCH  24  25
ENDBRANCH  23  24
ENDBRANCH   1  23
BRANCH   4  31
HETATM   31  C16 UNL     1      19.643  32.739  14.940  1.00  0.00     0.127 C 
HETATM   32  N7  UNL     1      18.665  32.670  15.701  1.00  0.00    -0.296 N 
HETATM   33  C17 UNL     1      17.419  32.162  15.813  1.00  0.00     0.365 C 
ATOM     34  H7  UNL     1      18.881  33.188  16.553  1.00  0.00     0.171 HD
HETATM   35  O5  UNL     1      17.253  30.911  16.034  1.00  0.00    -0.238 OA
BRANCH  33  36
HETATM   36  O6  UNL     1      16.217  32.891  15.714  1.00  0.00    -0.303 OA
BRANCH  36  37
HETATM   37  C18 UNL     1      15.475  33.265  16.885  1.00  0.00     0.189 C 
BRANCH  37  38
HETATM   38  C19 UNL     1      15.747  34.730  17.137  1.00  0.00    -0.029 C 
HETATM   39  C20 UNL     1      16.228  35.425  15.876  1.00  0.00     0.016 C 
HETATM   40  C21 UNL     1      16.821  34.863  18.213  1.00  0.00     0.016 C 
HETATM   41  C22 UNL     1      14.491  35.380  17.614  1.00  0.00     0.016 C 
ENDBRANCH  37  38
ENDBRANCH  36  37
ENDBRANCH  33  36
BRANCH  31  42
HETATM   42  C23 UNL     1      20.806  33.485  15.420  1.00  0.00     0.037 C 
HETATM   43  N8  UNL     1      21.977  32.965  15.439  1.00  0.00    -0.396 N 
HETATM   44  C31 UNL     1      22.438  31.690  15.052  1.00  0.00     0.146 C 
ATOM     45  H8  UNL     1      22.704  33.583  15.797  1.00  0.00     0.159 HD
BRANCH  42  46
HETATM   46  C24 UNL     1      20.709  34.882  15.903  1.00  0.00     0.064 C 
BRANCH  46  47
HETATM   47  C25 UNL     1      21.510  35.051  17.209  1.00  0.00    -0.009 C 
HETATM   48  C26 UNL     1      22.341  36.289  17.213  1.00  0.00     0.005 C 
HETATM   49  C27 UNL     1      22.030  37.098  18.453  1.00  0.00     0.000 C 
HETATM   50  C28 UNL     1      22.078  36.307  19.718  1.00  0.00     0.000 C 
HETATM   51  C29 UNL     1      21.216  35.068  19.663  1.00  0.00     0.000 C 
HETATM   52  C30 UNL     1      20.487  35.066  18.319  1.00  0.00     0.005 C 
ENDBRANCH  46  47
ENDBRANCH  42  46
ENDBRANCH  31  42
ENDBRANCH   4  31
TORSDOF 18
ENDMDL
MODEL 3
REMARK VINA RESULT: -8.593735822      2.671     11.618
REMARK  18 active torsions:
REMARK  status: ('A' for Active; 'I' for Inactive)
REMARK    1  A    between atoms: C2_2  and  C3_3 
REMARK    2  A    between atoms: C3_3  and  C4_4 
REMARK    3  A    between atoms: C4_4  and  C5_5 
REMARK    4  A    between atoms: C5_5  and  O1_6 
REMARK    5  A    between atoms: O1_6  and  C6_7 
REMARK       I    between atoms: C6_7  and  N1_9 
REMARK    6  A    between atoms: C9_13  and  O3_14 
REMARK    7  A    between atoms: C9_13  and  C10_16 
REMARK    8  A    between atoms: C10_16  and  C11_17 
REMARK    9  A    between atoms: C11_17  and  C12_18 
REMARK   10  A    between atoms: C12_18  and  C13_19 
REMARK   11  A    between atoms: C13_19  and  N3_20 
REMARK       I    between atoms: N6_25  and  C15_27 
REMARK   12  A    between atoms: C15_27  and  C16_29 
REMARK   13  A    between atoms: C16_29  and  C23_40 
REMARK       I    between atoms: N7_30  and  C17_32 
REMARK   14  A    between atoms: C17_32  and  O6_34 
REMARK   15  A    between atoms: O6_34  and  C18_35 
REMARK   16  A    between atoms: C18_35  and  C19_36 
REMARK   17  A    between atoms: C23_40  and  C24_41 
REMARK   18  A    between atoms: C24_41  and  C25_42 
ROOT
HETATM    1  C10 UNL     1      19.349  31.892  14.899  1.00  0.00     0.063 C 
HETATM    2  N6  UNL     1      19.772  31.045  13.987  1.00  0.00    -0.321 N 
ATOM      3  H6  UNL     1      20.727  30.725  14.148  1.00  0.00     0.169 HD
HETATM    4  C15 UNL     1      19.205  30.506  12.876  1.00  0.00     0.274 C 
HETATM    5  O4  UNL     1      18.535  31.254  12.103  1.00  0.00    -0.266 OA
ENDROOT
BRANCH   1   6
HETATM    6  C9  UNL     1      20.261  32.235  15.955  1.00  0.00     0.161 C 
HETATM    7  N2  UNL     1      20.830  33.397  16.378  1.00  0.00    -0.357 N 
HETATM    8  C8  UNL     1      20.704  34.733  15.957  1.00  0.00     0.145 C 
HETATM    9  C32 UNL     1      21.794  33.248  17.534  1.00  0.00     0.145 C 
HETATM   10  C7  UNL     1      19.940  35.444  17.103  1.00  0.00     0.148 C 
HETATM   11  N1  UNL     1      20.791  35.408  18.253  1.00  0.00    -0.325 N 
HETATM   12  C6  UNL     1      20.557  36.394  19.256  1.00  0.00     0.362 C 
HETATM   13  C33 UNL     1      21.832  34.440  18.399  1.00  0.00     0.148 C 
HETATM   14  O2  UNL     1      21.277  36.370  20.282  1.00  0.00    -0.238 OA
BRANCH  12  15
HETATM   15  O1  UNL     1      19.597  37.359  19.164  1.00  0.00    -0.304 OA
BRANCH  15  16
HETATM   16  C5  UNL     1      19.807  38.742  18.976  1.00  0.00     0.180 C 
BRANCH  16  17
HETATM   17  C4  UNL     1      19.203  39.305  17.735  1.00  0.00     0.027 C 
BRANCH  17  18
HETATM   18  C3  UNL     1      17.969  38.507  17.387  1.00  0.00     0.002 C 
BRANCH  18  19
HETATM   19  C2  UNL     1      16.708  39.236  17.703  1.00  0.00    -0.004 C 
HETATM   20  C1  UNL     1      15.874  38.375  18.637  1.00  0.00     0.005 C 
ENDBRANCH  18  19
ENDBRANCH  17  18
ENDBRANCH  16  17
ENDBRANCH  15  16
ENDBRANCH  12  15
BRANCH   6  21
HETATM   21  O3  UNL     1      20.589  31.120  16.649  1.00  0.00    -0.345 OA
ATOM     22  H3  UNL     1      21.041  30.440  16.164  1.00  0.00     0.219 HD
ENDBRANCH   6  21
ENDBRANCH   1   6
BRANCH   1  23
HETATM   23  C11 UNL     1      18.015  32.440  14.681  1.00  0.00     0.063 C 
BRANCH  23  24
HETATM   24  C12 UNL     1      16.912  31.869  15.514  1.00  0.00     0.026 C 
BRANCH  24  25
HETATM   25  C13 UNL     1      15.792  32.924  15.510  1.00  0.00     0.122 C 
BRANCH  25  26
HETATM   26  N3  UNL     1      15.438  33.168  16.890  1.00  0.00    -0.367 N 
HETATM   27  C14 UNL     1      15.628  34.362  17.388  1.00  0.00     0.196 C 
HETATM   28  N4  UNL     1      16.166  35.363  16.566  1.00  0.00    -0.067 NA
HETATM   29  N5  UNL     1      15.283  34.626  18.760  1.00  0.00    -0.067 NA
ATOM     30  H3  UNL     1      15.048  32.422  17.465  1.00  0.00     0.161 HD
ENDBRANCH  25  26
ENDBRANCH  24  25
ENDBRANCH  23  24
ENDBRANCH   1  23
BRANCH   4  31
HETATM   31  C16 UNL     1      19.305  29.088  12.482  1.00  0.00     0.127 C 
HETATM   32  N7  UNL     1      20.338  28.411  12.610  1.00  0.00    -0.296 N 
HETATM   33  C17 UNL     1      21.616  28.464  13.043  1.00  0.00     0.365 C 
ATOM     34  H7  UNL     1      20.154  27.470  12.262  1.00  0.00     0.171 HD
HETATM   35  O5  UNL     1      21.869  28.475  14.298  1.00  0.00    -0.238 OA
BRANCH  33  36
HETATM   36  O6  UNL     1      22.763  28.507  12.225  1.00  0.00    -0.303 OA
BRANCH  36  37
HETATM   37  C18 UNL     1      22.711  28.099  10.849  1.00  0.00     0.189 C 
BRANCH  37  38
HETATM   38  C19 UNL     1      23.628  26.908  10.701  1.00  0.00    -0.029 C 
HETATM   39  C20 UNL     1      24.349  26.930   9.366  1.00  0.00     0.016 C 
HETATM   40  C21 UNL     1      22.804  25.627  10.795  1.00  0.00     0.016 C 
HETATM   41  C22 UNL     1      24.630  26.928  11.808  1.00  0.00     0.016 C 
ENDBRANCH  37  38
ENDBRANCH  36  37
ENDBRANCH  33  36
BRANCH  31  42
HETATM   42  C23 UNL     1      18.138  28.416  11.910  1.00  0.00     0.037 C 
HETATM   43  N8  UNL     1      17.300  27.786  12.646  1.00  0.00    -0.396 N 
HETATM   44  C31 UNL     1      17.252  27.579  14.040  1.00  0.00     0.146 C 
ATOM     45  H8  UNL     1      16.530  27.358  12.132  1.00  0.00     0.159 HD
BRANCH  42  46
HETATM   46  C24 UNL     1      17.846  28.428  10.459  1.00  0.00     0.064 C 
BRANCH  46  47
HETATM   47  C25 UNL     1      18.377  27.141   9.799  1.00  0.00    -0.009 C 
HETATM   48  C26 UNL     1      17.305  26.370   9.105  1.00  0.00     0.005 C 
HETATM   49  C27 UNL     1      17.723  26.105   7.675  1.00  0.00     0.000 C 
HETATM   50  C28 UNL     1      19.093  25.528   7.543  1.00  0.00     0.000 C 
HETATM   51  C29 UNL     1      20.141  26.348   8.258  1.00  0.00     0.000 C 
HETATM   52  C30 UNL     1      19.451  27.585   8.835  1.00  0.00     0.005 C 
ENDBRANCH  46  47
ENDBRANCH  42  46
ENDBRANCH  31  42
ENDBRANCH   4  31
TORSDOF 18
ENDMDL
MODEL 4
REMARK VINA RESULT: -8.527043886      2.429      5.170
REMARK  18 active torsions:
REMARK  status: ('A' for Active; 'I' for Inactive)
REMARK    1  A    between atoms: C2_2  and  C3_3 
REMARK    2  A    between atoms: C3_3  and  C4_4 
REMARK    3  A    between atoms: C4_4  and  C5_5 
REMARK    4  A    between atoms: C5_5  and  O1_6 
REMARK    5  A    between atoms: O1_6  and  C6_7 
REMARK       I    between atoms: C6_7  and  N1_9 
REMARK    6  A    between atoms: C9_13  and  O3_14 
REMARK    7  A    between atoms: C9_13  and  C10_16 
REMARK    8  A    between atoms: C10_16  and  C11_17 
REMARK    9  A    between atoms: C11_17  and  C12_18 
REMARK   10  A    between atoms: C12_18  and  C13_19 
REMARK   11  A    between atoms: C13_19  and  N3_20 
REMARK       I    between atoms: N6_25  and  C15_27 
REMARK   12  A    between atoms: C15_27  and  C16_29 
REMARK   13  A    between atoms: C16_29  and  C23_40 
REMARK       I    between atoms: N7_30  and  C17_32 
REMARK   14  A    between atoms: C17_32  and  O6_34 
REMARK   15  A    between atoms: O6_34  and  C18_35 
REMARK   16  A    between atoms: C18_35  and  C19_36 
REMARK   17  A    between atoms: C23_40  and  C24_41 
REMARK   18  A    between atoms: C24_41  and  C25_42 
ROOT
HETATM    1  C10 UNL     1      19.960  28.153  12.125  1.00  0.00     0.063 C 
HETATM    2  N6  UNL     1      19.864  28.910  13.195  1.00  0.00    -0.321 N 
ATOM      3  H6  UNL     1      20.767  29.136  13.610  1.00  0.00     0.169 HD
HETATM    4  C15 UNL     1      18.813  29.454  13.864  1.00  0.00     0.274 C 
HETATM    5  O4  UNL     1      17.784  28.744  14.074  1.00  0.00    -0.266 OA
ENDROOT
BRANCH   1   6
HETATM    6  C9  UNL     1      21.279  27.765  11.706  1.00  0.00     0.161 C 
HETATM    7  N2  UNL     1      21.853  26.584  11.347  1.00  0.00    -0.357 N 
HETATM    8  C8  UNL     1      21.348  25.279  11.206  1.00  0.00     0.145 C 
HETATM    9  C32 UNL     1      23.328  26.668  11.027  1.00  0.00     0.145 C 
HETATM   10  C7  UNL     1      21.359  25.009   9.680  1.00  0.00     0.148 C 
HETATM   11  N1  UNL     1      22.730  25.013   9.269  1.00  0.00    -0.325 N 
HETATM   12  C6  UNL     1      23.041  24.313   8.065  1.00  0.00     0.362 C 
HETATM   13  C33 UNL     1      23.748  25.676  10.020  1.00  0.00     0.148 C 
HETATM   14  O2  UNL     1      24.232  24.321   7.674  1.00  0.00    -0.238 OA
BRANCH  12  15
HETATM   15  O1  UNL     1      22.120  23.640   7.317  1.00  0.00    -0.304 OA
BRANCH  15  16
HETATM   16  C5  UNL     1      21.581  24.047   6.078  1.00  0.00     0.180 C 
BRANCH  16  17
HETATM   17  C4  UNL     1      21.451  25.522   5.906  1.00  0.00     0.027 C 
BRANCH  17  18
HETATM   18  C3  UNL     1      20.079  25.949   6.368  1.00  0.00     0.002 C 
BRANCH  18  19
HETATM   19  C2  UNL     1      19.355  26.757   5.346  1.00  0.00    -0.004 C 
HETATM   20  C1  UNL     1      18.639  27.898   6.049  1.00  0.00     0.005 C 
ENDBRANCH  18  19
ENDBRANCH  17  18
ENDBRANCH  16  17
ENDBRANCH  15  16
ENDBRANCH  12  15
BRANCH   6  21
HETATM   21  O3  UNL     1      22.083  28.855  11.681  1.00  0.00    -0.345 OA
ATOM     22  H3  UNL     1      21.859  29.557  12.280  1.00  0.00     0.219 HD
ENDBRANCH   6  21
ENDBRANCH   1   6
BRANCH   1  23
HETATM   23  C11 UNL     1      18.695  27.736  11.529  1.00  0.00     0.063 C 
BRANCH  23  24
HETATM   24  C12 UNL     1      18.655  27.645  10.038  1.00  0.00     0.026 C 
BRANCH  24  25
HETATM   25  C13 UNL     1      17.717  26.470   9.712  1.00  0.00     0.122 C 
BRANCH  25  26
HETATM   26  N3  UNL     1      17.826  25.529  10.804  1.00  0.00    -0.367 N 
HETATM   27  C14 UNL     1      17.924  24.254  10.529  1.00  0.00     0.196 C 
HETATM   28  N4  UNL     1      17.921  23.845   9.187  1.00  0.00    -0.067 NA
HETATM   29  N5  UNL     1      18.032  23.300  11.602  1.00  0.00    -0.067 NA
ATOM     30  H3  UNL     1      17.825  25.854  11.770  1.00  0.00     0.161 HD
ENDBRANCH  25  26
ENDBRANCH  24  25
ENDBRANCH  23  24
ENDBRANCH   1  23
BRANCH   4  31
HETATM   31  C16 UNL     1      18.767  30.834  14.382  1.00  0.00     0.127 C 
HETATM   32  N7  UNL     1      19.377  31.783  13.862  1.00  0.00    -0.296 N 
HETATM   33  C17 UNL     1      20.197  32.108  12.840  1.00  0.00     0.365 C 
ATOM     34  H7  UNL     1      19.188  32.626  14.405  1.00  0.00     0.171 HD
HETATM   35  O5  UNL     1      19.737  32.188  11.647  1.00  0.00    -0.238 OA
BRANCH  33  36
HETATM   36  O6  UNL     1      21.575  32.388  12.944  1.00  0.00    -0.303 OA
BRANCH  36  37
HETATM   37  C18 UNL     1      22.078  33.281  13.950  1.00  0.00     0.189 C 
BRANCH  37  38
HETATM   38  C19 UNL     1      22.864  32.447  14.934  1.00  0.00    -0.029 C 
HETATM   39  C20 UNL     1      22.827  30.976  14.562  1.00  0.00     0.016 C 
HETATM   40  C21 UNL     1      22.264  32.618  16.327  1.00  0.00     0.016 C 
HETATM   41  C22 UNL     1      24.280  32.921  14.948  1.00  0.00     0.016 C 
ENDBRANCH  37  38
ENDBRANCH  36  37
ENDBRANCH  33  36
BRANCH  31  42
HETATM   42  C23 UNL     1      17.963  31.133  15.567  1.00  0.00     0.037 C 
HETATM   43  N8  UNL     1      18.374  30.847  16.746  1.00  0.00    -0.396 N 
HETATM   44  C31 UNL     1      19.565  30.243  17.199  1.00  0.00     0.146 C 
ATOM     45  H8  UNL     1      17.724  31.102  17.489  1.00  0.00     0.159 HD
BRANCH  42  46
HETATM   46  C24 UNL     1      16.638  31.788  15.483  1.00  0.00     0.064 C 
BRANCH  46  47
HETATM   47  C25 UNL     1      16.597  33.026  16.399  1.00  0.00    -0.009 C 
HETATM   48  C26 UNL     1      17.186  34.234  15.753  1.00  0.00     0.005 C 
HETATM   49  C27 UNL     1      16.190  35.372  15.817  1.00  0.00     0.000 C 
HETATM   50  C28 UNL     1      15.623  35.604  17.177  1.00  0.00     0.000 C 
HETATM   51  C29 UNL     1      15.035  34.351  17.783  1.00  0.00     0.000 C 
HETATM   52  C30 UNL     1      15.142  33.235  16.743  1.00  0.00     0.005 C 
ENDBRANCH  46  47
ENDBRANCH  42  46
ENDBRANCH  31  42
ENDBRANCH   4  31
TORSDOF 18
ENDMDL
MODEL 5
REMARK VINA RESULT: -8.526251047      2.705     11.577
REMARK  18 active torsions:
REMARK  status: ('A' for Active; 'I' for Inactive)
REMARK    1  A    between atoms: C2_2  and  C3_3 
REMARK    2  A    between atoms: C3_3  and  C4_4 
REMARK    3  A    between atoms: C4_4  and  C5_5 
REMARK    4  A    between atoms: C5_5  and  O1_6 
REMARK    5  A    between atoms: O1_6  and  C6_7 
REMARK       I    between atoms: C6_7  and  N1_9 
REMARK    6  A    between atoms: C9_13  and  O3_14 
REMARK    7  A    between atoms: C9_13  and  C10_16 
REMARK    8  A    between atoms: C10_16  and  C11_17 
REMARK    9  A    between atoms: C11_17  and  C12_18 
REMARK   10  A    between atoms: C12_18  and  C13_19 
REMARK   11  A    between atoms: C13_19  and  N3_20 
REMARK       I    between atoms: N6_25  and  C15_27 
REMARK   12  A    between atoms: C15_27  and  C16_29 
REMARK   13  A    between atoms: C16_29  and  C23_40 
REMARK       I    between atoms: N7_30  and  C17_32 
REMARK   14  A    between atoms: C17_32  and  O6_34 
REMARK   15  A    between atoms: O6_34  and  C18_35 
REMARK   16  A    between atoms: C18_35  and  C19_36 
REMARK   17  A    between atoms: C23_40  and  C24_41 
REMARK   18  A    between atoms: C24_41  and  C25_42 
ROOT
HETATM    1  C10 UNL     1      19.309  31.840  15.005  1.00  0.00     0.063 C 
HETATM    2  N6  UNL     1      19.711  31.025  14.055  1.00  0.00    -0.321 N 
ATOM      3  H6  UNL     1      20.684  30.738  14.155  1.00  0.00     0.169 HD
HETATM    4  C15 UNL     1      19.101  30.486  12.966  1.00  0.00     0.274 C 
HETATM    5  O4  UNL     1      18.363  31.222  12.247  1.00  0.00    -0.266 OA
ENDROOT
BRANCH   1   6
HETATM    6  C9  UNL     1      20.266  32.198  16.016  1.00  0.00     0.161 C 
HETATM    7  N2  UNL     1      20.849  33.366  16.400  1.00  0.00    -0.357 N 
HETATM    8  C8  UNL     1      20.699  34.697  15.971  1.00  0.00     0.145 C 
HETATM    9  C32 UNL     1      21.864  33.233  17.513  1.00  0.00     0.145 C 
HETATM   10  C7  UNL     1      19.983  35.417  17.142  1.00  0.00     0.148 C 
HETATM   11  N1  UNL     1      20.886  35.397  18.253  1.00  0.00    -0.325 N 
HETATM   12  C6  UNL     1      20.693  36.394  19.255  1.00  0.00     0.362 C 
HETATM   13  C33 UNL     1      21.936  34.435  18.363  1.00  0.00     0.148 C 
HETATM   14  O2  UNL     1      21.458  36.383  20.247  1.00  0.00    -0.238 OA
BRANCH  12  15
HETATM   15  O1  UNL     1      19.726  37.354  19.195  1.00  0.00    -0.304 OA
BRANCH  15  16
HETATM   16  C5  UNL     1      19.917  38.727  18.928  1.00  0.00     0.180 C 
BRANCH  16  17
HETATM   17  C4  UNL     1      20.355  39.039  17.539  1.00  0.00     0.027 C 
BRANCH  17  18
HETATM   18  C3  UNL     1      19.256  39.800  16.837  1.00  0.00     0.002 C 
BRANCH  18  19
HETATM   19  C2  UNL     1      19.779  40.896  15.973  1.00  0.00    -0.004 C 
HETATM   20  C1  UNL     1      20.990  40.379  15.216  1.00  0.00     0.005 C 
ENDBRANCH  18  19
ENDBRANCH  17  18
ENDBRANCH  16  17
ENDBRANCH  15  16
ENDBRANCH  12  15
BRANCH   6  21
HETATM   21  O3  UNL     1      20.629  31.091  16.706  1.00  0.00    -0.345 OA
ATOM     22  H3  UNL     1      19.967  30.714  17.273  1.00  0.00     0.219 HD
ENDBRANCH   6  21
ENDBRANCH   1   6
BRANCH   1  23
HETATM   23  C11 UNL     1      17.946  32.342  14.873  1.00  0.00     0.063 C 
BRANCH  23  24
HETATM   24  C12 UNL     1      16.912  31.710  15.748  1.00  0.00     0.026 C 
BRANCH  24  25
HETATM   25  C13 UNL     1      16.011  32.859  16.234  1.00  0.00     0.122 C 
BRANCH  25  26
HETATM   26  N3  UNL     1      16.811  33.675  17.120  1.00  0.00    -0.367 N 
HETATM   27  C14 UNL     1      16.208  34.396  18.029  1.00  0.00     0.196 C 
HETATM   28  N4  UNL     1      14.809  34.352  18.113  1.00  0.00    -0.067 NA
HETATM   29  N5  UNL     1      16.986  35.216  18.920  1.00  0.00    -0.067 NA
ATOM     30  H3  UNL     1      17.828  33.688  17.037  1.00  0.00     0.161 HD
ENDBRANCH  25  26
ENDBRANCH  24  25
ENDBRANCH  23  24
ENDBRANCH   1  23
BRANCH   4  31
HETATM   31  C16 UNL     1      19.231  29.080  12.538  1.00  0.00     0.127 C 
HETATM   32  N7  UNL     1      20.277  28.422  12.650  1.00  0.00    -0.296 N 
HETATM   33  C17 UNL     1      21.555  28.491  13.081  1.00  0.00     0.365 C 
ATOM     34  H7  UNL     1      20.112  27.485  12.279  1.00  0.00     0.171 HD
HETATM   35  O5  UNL     1      21.811  28.478  14.336  1.00  0.00    -0.238 OA
BRANCH  33  36
HETATM   36  O6  UNL     1      22.700  28.577  12.262  1.00  0.00    -0.303 OA
BRANCH  36  37
HETATM   37  C18 UNL     1      22.656  28.188  10.881  1.00  0.00     0.189 C 
BRANCH  37  38
HETATM   38  C19 UNL     1      23.482  26.930  10.746  1.00  0.00    -0.029 C 
HETATM   39  C20 UNL     1      22.617  25.688  10.867  1.00  0.00     0.016 C 
HETATM   40  C21 UNL     1      24.538  26.903  11.848  1.00  0.00     0.016 C 
HETATM   41  C22 UNL     1      24.161  26.936   9.417  1.00  0.00     0.016 C 
ENDBRANCH  37  38
ENDBRANCH  36  37
ENDBRANCH  33  36
BRANCH  31  42
HETATM   42  C23 UNL     1      18.077  28.397  11.953  1.00  0.00     0.037 C 
HETATM   43  N8  UNL     1      17.248  27.741  12.677  1.00  0.00    -0.396 N 
HETATM   44  C31 UNL     1      17.200  27.511  14.067  1.00  0.00     0.146 C 
ATOM     45  H8  UNL     1      16.487  27.308  12.154  1.00  0.00     0.159 HD
BRANCH  42  46
HETATM   46  C24 UNL     1      17.788  28.427  10.501  1.00  0.00     0.064 C 
BRANCH  46  47
HETATM   47  C25 UNL     1      18.354  27.167   9.820  1.00  0.00    -0.009 C 
HETATM   48  C26 UNL     1      17.294  26.346   9.164  1.00  0.00     0.005 C 
HETATM   49  C27 UNL     1      17.671  26.102   7.720  1.00  0.00     0.000 C 
HETATM   50  C28 UNL     1      19.061  25.590   7.536  1.00  0.00     0.000 C 
HETATM   51  C29 UNL     1      20.095  26.458   8.214  1.00  0.00     0.000 C 
HETATM   52  C30 UNL     1      19.370  27.661   8.819  1.00  0.00     0.005 C 
ENDBRANCH  46  47
ENDBRANCH  42  46
ENDBRANCH  31  42
ENDBRANCH   4  31
TORSDOF 18
ENDMDL
