MODEL 1
REMARK VINA RESULT: -9.206777007      0.000      0.000
REMARK  15 active torsions:
REMARK  status: ('A' for Active; 'I' for Inactive)
REMARK    1  A    between atoms: O1_2  and  C2_3 
REMARK    2  A    between atoms: C2_3  and  C3_5 
REMARK    3  A    between atoms: C3_5  and  N1_6 
REMARK    4  A    between atoms: C3_5  and  C28_43 
REMARK       I    between atoms: N1_6  and  C4_8 
REMARK    5  A    between atoms: C4_8  and  C5_10 
REMARK    6  A    between atoms: N2_11  and  C6_12 
REMARK    7  A    between atoms: C6_12  and  C7_13 
REMARK    8  A    between atoms: C7_13  and  C8_15 
REMARK    9  A    between atoms: C8_15  and  C9_16 
REMARK   10  A    between atoms: C8_15  and  N3_23 
REMARK   11  A    between atoms: C9_16  and  C10_17 
REMARK       I    between atoms: N3_23  and  C15_25 
REMARK   12  A    between atoms: C15_25  and  O7_27 
REMARK   13  A    between atoms: O7_27  and  C16_28 
REMARK   14  A    between atoms: C16_28  and  C17_29 
REMARK   15  A    between atoms: N4_37  and  C23_38 
ROOT
HETATM    1  C5  UNL     1      21.046  32.222  16.873  1.00  0.00     0.289 C 
HETATM    2  N2  UNL     1      21.489  32.197  15.498  1.00  0.00    -0.297 N 
HETATM    3  C22 UNL     1      20.579  33.342  15.317  1.00  0.00     0.325 C 
HETATM    4  O9  UNL     1      20.608  34.383  14.628  1.00  0.00    -0.247 OA
HETATM    5  N4  UNL     1      19.767  32.650  16.254  1.00  0.00    -0.299 N 
ENDROOT
BRANCH   2   6
HETATM    6  C6  UNL     1      22.373  31.659  14.516  1.00  0.00     0.210 C 
BRANCH   6   7
HETATM    7  C7  UNL     1      21.616  31.205  13.305  1.00  0.00     0.167 C 
HETATM    8  O4  UNL     1      21.267  32.071  12.532  1.00  0.00    -0.294 OA
BRANCH   7   9
HETATM    9  C8  UNL     1      21.397  29.779  13.153  1.00  0.00     0.158 C 
BRANCH   9  10
HETATM   10  C9  UNL     1      22.056  29.094  12.037  1.00  0.00     0.040 C 
BRANCH  10  11
HETATM   11  C10 UNL     1      22.647  27.730  12.343  1.00  0.00     0.012 C 
HETATM   12  C11 UNL     1      24.103  27.797  11.997  1.00  0.00     0.009 C 
HETATM   13  C12 UNL     1      24.692  26.572  11.389  1.00  0.00     0.027 C 
HETATM   14  C13 UNL     1      23.643  25.921  10.484  1.00  0.00     0.167 C 
HETATM   15  O5  UNL     1      22.600  25.538  11.349  1.00  0.00    -0.391 OA
HETATM   16  C14 UNL     1      21.857  26.683  11.651  1.00  0.00     0.172 C 
ENDBRANCH  10  11
ENDBRANCH   9  10
BRANCH   9  17
HETATM   17  N3  UNL     1      19.981  29.433  13.293  1.00  0.00    -0.325 N 
HETATM   18  C15 UNL     1      19.316  29.120  14.471  1.00  0.00     0.361 C 
HETATM   19  O6  UNL     1      19.851  29.080  15.628  1.00  0.00    -0.238 OA
ATOM     20  H3  UNL     1      19.427  29.421  12.438  1.00  0.00     0.165 HD
BRANCH  18  21
HETATM   21  O7  UNL     1      17.938  28.814  14.438  1.00  0.00    -0.301 OA
BRANCH  21  22
HETATM   22  C16 UNL     1      17.507  27.677  13.717  1.00  0.00     0.212 C 
BRANCH  22  23
HETATM   23  C17 UNL     1      17.190  27.977  12.297  1.00  0.00     0.145 C 
HETATM   24  C18 UNL     1      18.210  27.227  11.391  1.00  0.00     0.034 C 
HETATM   25  C19 UNL     1      17.562  27.143  10.045  1.00  0.00     0.005 C 
HETATM   26  C20 UNL     1      17.249  28.546   9.591  1.00  0.00     0.026 C 
HETATM   27  C21 UNL     1      16.674  29.421  10.649  1.00  0.00     0.168 C 
HETATM   28  O8  UNL     1      17.288  29.291  11.910  1.00  0.00    -0.384 OA
ENDBRANCH  22  23
ENDBRANCH  21  22
ENDBRANCH  18  21
ENDBRANCH   9  17
ENDBRANCH   7   9
ENDBRANCH   6   7
ENDBRANCH   2   6
BRANCH   1  29
HETATM   29  C4  UNL     1      21.680  33.387  17.559  1.00  0.00     0.261 C 
HETATM   30  N1  UNL     1      21.024  34.305  18.383  1.00  0.00    -0.344 N 
ATOM     31  H1  UNL     1      20.030  34.203  18.593  1.00  0.00     0.163 HD
HETATM   32  O3  UNL     1      22.925  33.583  17.392  1.00  0.00    -0.269 OA
BRANCH  30  33
HETATM   33  C3  UNL     1      21.783  35.394  18.926  1.00  0.00     0.188 C 
BRANCH  33  34
HETATM   34  C2  UNL     1      21.904  35.411  20.396  1.00  0.00     0.281 C 
HETATM   35  O2  UNL     1      21.114  34.779  21.158  1.00  0.00    -0.263 OA
BRANCH  34  36
HETATM   36  O1  UNL     1      22.926  36.148  20.968  1.00  0.00    -0.325 OA
HETATM   37  C1  UNL     1      23.966  35.581  21.724  1.00  0.00     0.213 C 
ENDBRANCH  34  36
ENDBRANCH  33  34
BRANCH  33  38
HETATM   38  C28 UNL     1      21.370  36.759  18.469  1.00  0.00     0.018 C 
HETATM   39  C29 UNL     1      19.962  36.813  17.927  1.00  0.00     0.007 C 
HETATM   40  C30 UNL     1      19.544  38.240  17.735  1.00  0.00     0.000 C 
HETATM   41  C31 UNL     1      20.494  38.999  16.837  1.00  0.00     0.000 C 
HETATM   42  C32 UNL     1      21.952  38.749  17.162  1.00  0.00     0.000 C 
HETATM   43  C33 UNL     1      22.282  37.306  17.357  1.00  0.00     0.007 C 
ENDBRANCH  33  38
ENDBRANCH  30  33
ENDBRANCH   1  29
BRANCH   5  44
HETATM   44  C23 UNL     1      18.397  32.446  16.498  1.00  0.00     0.091 C 
HETATM   45  C24 UNL     1      17.687  33.656  17.080  1.00  0.00     0.025 C 
HETATM   46  C25 UNL     1      16.234  33.321  16.834  1.00  0.00     0.002 C 
HETATM   47  C26 UNL     1      16.204  32.351  15.670  1.00  0.00     0.002 C 
HETATM   48  C27 UNL     1      17.663  32.293  15.186  1.00  0.00     0.025 C 
ENDBRANCH   5  44
TORSDOF 15
ENDMDL
MODEL 2
REMARK VINA RESULT: -8.965262476      2.463     10.477
REMARK  15 active torsions:
REMARK  status: ('A' for Active; 'I' for Inactive)
REMARK    1  A    between atoms: O1_2  and  C2_3 
REMARK    2  A    between atoms: C2_3  and  C3_5 
REMARK    3  A    between atoms: C3_5  and  N1_6 
REMARK    4  A    between atoms: C3_5  and  C28_43 
REMARK       I    between atoms: N1_6  and  C4_8 
REMARK    5  A    between atoms: C4_8  and  C5_10 
REMARK    6  A    between atoms: N2_11  and  C6_12 
REMARK    7  A    between atoms: C6_12  and  C7_13 
REMARK    8  A    between atoms: C7_13  and  C8_15 
REMARK    9  A    between atoms: C8_15  and  C9_16 
REMARK   10  A    between atoms: C8_15  and  N3_23 
REMARK   11  A    between atoms: C9_16  and  C10_17 
REMARK       I    between atoms: N3_23  and  C15_25 
REMARK   12  A    between atoms: C15_25  and  O7_27 
REMARK   13  A    between atoms: O7_27  and  C16_28 
REMARK   14  A    between atoms: C16_28  and  C17_29 
REMARK   15  A    between atoms: N4_37  and  C23_38 
ROOT
HETATM    1  C5  UNL     1      19.745  30.141  13.777  1.00  0.00     0.289 C 
HETATM    2  N2  UNL     1      18.777  31.209  13.683  1.00  0.00    -0.297 N 
HETATM    3  C22 UNL     1      19.807  31.901  12.888  1.00  0.00     0.325 C 
HETATM    4  O9  UNL     1      19.783  32.668  11.902  1.00  0.00    -0.247 OA
HETATM    5  N4  UNL     1      20.708  31.270  13.786  1.00  0.00    -0.299 N 
ENDROOT
BRANCH   2   6
HETATM    6  C6  UNL     1      17.450  31.671  13.930  1.00  0.00     0.210 C 
BRANCH   6   7
HETATM    7  C7  UNL     1      17.244  31.953  15.388  1.00  0.00     0.167 C 
HETATM    8  O4  UNL     1      17.142  30.987  16.114  1.00  0.00    -0.294 OA
BRANCH   7   9
HETATM    9  C8  UNL     1      17.216  33.344  15.799  1.00  0.00     0.158 C 
BRANCH   9  10
HETATM   10  C9  UNL     1      16.033  34.140  15.460  1.00  0.00     0.040 C 
BRANCH  10  11
HETATM   11  C10 UNL     1      15.423  34.948  16.591  1.00  0.00     0.012 C 
HETATM   12  C11 UNL     1      16.084  36.292  16.573  1.00  0.00     0.009 C 
HETATM   13  C12 UNL     1      16.357  36.908  17.901  1.00  0.00     0.027 C 
HETATM   14  C13 UNL     1      16.733  35.801  18.888  1.00  0.00     0.167 C 
HETATM   15  O5  UNL     1      15.583  34.997  18.993  1.00  0.00    -0.391 OA
HETATM   16  C14 UNL     1      15.528  34.183  17.857  1.00  0.00     0.172 C 
ENDBRANCH  10  11
ENDBRANCH   9  10
BRANCH   9  17
HETATM   17  N3  UNL     1      18.478  34.022  15.494  1.00  0.00    -0.325 N 
HETATM   18  C15 UNL     1      19.447  34.420  16.406  1.00  0.00     0.361 C 
HETATM   19  O6  UNL     1      19.377  34.258  17.669  1.00  0.00    -0.238 OA
ATOM     20  H3  UNL     1      18.665  34.221  14.512  1.00  0.00     0.165 HD
BRANCH  18  21
HETATM   21  O7  UNL     1      20.619  35.059  15.948  1.00  0.00    -0.301 OA
BRANCH  21  22
HETATM   22  C16 UNL     1      21.447  35.722  16.884  1.00  0.00     0.212 C 
BRANCH  22  23
HETATM   23  C17 UNL     1      21.179  37.181  16.962  1.00  0.00     0.145 C 
HETATM   24  C18 UNL     1      22.384  37.871  17.667  1.00  0.00     0.034 C 
HETATM   25  C19 UNL     1      22.308  39.312  17.271  1.00  0.00     0.005 C 
HETATM   26  C20 UNL     1      20.960  39.840  17.693  1.00  0.00     0.026 C 
HETATM   27  C21 UNL     1      19.824  38.921  17.412  1.00  0.00     0.168 C 
HETATM   28  O8  UNL     1      20.084  37.566  17.697  1.00  0.00    -0.384 OA
ENDBRANCH  22  23
ENDBRANCH  21  22
ENDBRANCH  18  21
ENDBRANCH   9  17
ENDBRANCH   7   9
ENDBRANCH   6   7
ENDBRANCH   2   6
BRANCH   1  29
HETATM   29  C4  UNL     1      19.813  29.440  12.461  1.00  0.00     0.261 C 
HETATM   30  N1  UNL     1      18.784  28.691  11.881  1.00  0.00    -0.344 N 
ATOM     31  H1  UNL     1      17.876  28.606  12.339  1.00  0.00     0.163 HD
HETATM   32  O3  UNL     1      20.890  29.513  11.790  1.00  0.00    -0.269 OA
BRANCH  30  33
HETATM   33  C3  UNL     1      19.039  28.046  10.625  1.00  0.00     0.188 C 
BRANCH  33  34
HETATM   34  C2  UNL     1      18.187  28.484   9.504  1.00  0.00     0.281 C 
HETATM   35  O2  UNL     1      18.259  27.975   8.346  1.00  0.00    -0.263 OA
BRANCH  34  36
HETATM   36  O1  UNL     1      17.268  29.494   9.726  1.00  0.00    -0.325 OA
HETATM   37  C1  UNL     1      16.134  29.349  10.545  1.00  0.00     0.213 C 
ENDBRANCH  34  36
ENDBRANCH  33  34
BRANCH  33  38
HETATM   38  C28 UNL     1      19.045  26.548  10.659  1.00  0.00     0.018 C 
HETATM   39  C29 UNL     1      17.969  25.962  11.541  1.00  0.00     0.007 C 
HETATM   40  C30 UNL     1      17.880  24.481  11.321  1.00  0.00     0.000 C 
HETATM   41  C31 UNL     1      19.203  23.788  11.554  1.00  0.00     0.000 C 
HETATM   42  C32 UNL     1      20.376  24.507  10.920  1.00  0.00     0.000 C 
HETATM   43  C33 UNL     1      20.379  25.979  11.170  1.00  0.00     0.007 C 
ENDBRANCH  33  38
ENDBRANCH  30  33
ENDBRANCH   1  29
BRANCH   5  44
HETATM   44  C23 UNL     1      21.935  31.559  14.407  1.00  0.00     0.091 C 
HETATM   45  C24 UNL     1      22.575  32.854  13.940  1.00  0.00     0.025 C 
HETATM   46  C25 UNL     1      23.589  33.120  15.030  1.00  0.00     0.002 C 
HETATM   47  C26 UNL     1      23.093  32.399  16.267  1.00  0.00     0.002 C 
HETATM   48  C27 UNL     1      21.705  31.870  15.868  1.00  0.00     0.025 C 
ENDBRANCH   5  44
TORSDOF 15
ENDMDL
MODEL 3
REMARK VINA RESULT: -8.880356762      3.526     10.990
REMARK  15 active torsions:
REMARK  status: ('A' for Active; 'I' for Inactive)
REMARK    1  A    between atoms: O1_2  and  C2_3 
REMARK    2  A    between atoms: C2_3  and  C3_5 
REMARK    3  A    between atoms: C3_5  and  N1_6 
REMARK    4  A    between atoms: C3_5  and  C28_43 
REMARK       I    between atoms: N1_6  and  C4_8 
REMARK    5  A    between atoms: C4_8  and  C5_10 
REMARK    6  A    between atoms: N2_11  and  C6_12 
REMARK    7  A    between atoms: C6_12  and  C7_13 
REMARK    8  A    between atoms: C7_13  and  C8_15 
REMARK    9  A    between atoms: C8_15  and  C9_16 
REMARK   10  A    between atoms: C8_15  and  N3_23 
REMARK   11  A    between atoms: C9_16  and  C10_17 
REMARK       I    between atoms: N3_23  and  C15_25 
REMARK   12  A    between atoms: C15_25  and  O7_27 
REMARK   13  A    between atoms: O7_27  and  C16_28 
REMARK   14  A    between atoms: C16_28  and  C17_29 
REMARK   15  A    between atoms: N4_37  and  C23_38 
ROOT
HETATM    1  C5  UNL     1      19.139  25.775  11.140  1.00  0.00     0.289 C 
HETATM    2  N2  UNL     1      18.701  27.133  11.364  1.00  0.00    -0.297 N 
HETATM    3  C22 UNL     1      19.757  27.497  10.403  1.00  0.00     0.325 C 
HETATM    4  O9  UNL     1      19.869  28.368   9.515  1.00  0.00    -0.247 OA
HETATM    5  N4  UNL     1      20.466  26.426  11.007  1.00  0.00    -0.299 N 
ENDROOT
BRANCH   2   6
HETATM    6  C6  UNL     1      17.756  28.023  11.957  1.00  0.00     0.210 C 
BRANCH   6   7
HETATM    7  C7  UNL     1      18.011  28.174  13.426  1.00  0.00     0.167 C 
HETATM    8  O4  UNL     1      17.452  27.382  14.154  1.00  0.00    -0.294 OA
BRANCH   7   9
HETATM    9  C8  UNL     1      18.921  29.226  13.837  1.00  0.00     0.158 C 
BRANCH   9  10
HETATM   10  C9  UNL     1      20.349  28.910  13.923  1.00  0.00     0.040 C 
BRANCH  10  11
HETATM   11  C10 UNL     1      21.299  29.931  13.322  1.00  0.00     0.012 C 
HETATM   12  C11 UNL     1      22.153  30.445  14.441  1.00  0.00     0.009 C 
HETATM   13  C12 UNL     1      22.497  31.893  14.394  1.00  0.00     0.027 C 
HETATM   14  C13 UNL     1      21.302  32.663  13.827  1.00  0.00     0.167 C 
HETATM   15  O5  UNL     1      21.153  32.192  12.510  1.00  0.00    -0.391 OA
HETATM   16  C14 UNL     1      20.522  30.946  12.572  1.00  0.00     0.172 C 
ENDBRANCH  10  11
ENDBRANCH   9  10
BRANCH   9  17
HETATM   17  N3  UNL     1      18.415  29.950  15.006  1.00  0.00    -0.325 N 
HETATM   18  C15 UNL     1      17.587  31.065  14.997  1.00  0.00     0.361 C 
HETATM   19  O6  UNL     1      17.141  31.639  13.950  1.00  0.00    -0.238 OA
ATOM     20  H3  UNL     1      18.700  29.598  15.920  1.00  0.00     0.165 HD
BRANCH  18  21
HETATM   21  O7  UNL     1      17.179  31.644  16.218  1.00  0.00    -0.301 OA
BRANCH  21  22
HETATM   22  C16 UNL     1      17.933  32.715  16.753  1.00  0.00     0.212 C 
BRANCH  22  23
HETATM   23  C17 UNL     1      17.090  33.866  17.166  1.00  0.00     0.145 C 
HETATM   24  C18 UNL     1      15.594  33.483  16.970  1.00  0.00     0.034 C 
HETATM   25  C19 UNL     1      14.823  34.421  17.844  1.00  0.00     0.005 C 
HETATM   26  C20 UNL     1      15.160  35.830  17.425  1.00  0.00     0.026 C 
HETATM   27  C21 UNL     1      16.606  36.064  17.161  1.00  0.00     0.168 C 
HETATM   28  O8  UNL     1      17.245  35.029  16.451  1.00  0.00    -0.384 OA
ENDBRANCH  22  23
ENDBRANCH  21  22
ENDBRANCH  18  21
ENDBRANCH   9  17
ENDBRANCH   7   9
ENDBRANCH   6   7
ENDBRANCH   2   6
BRANCH   1  29
HETATM   29  C4  UNL     1      18.664  25.335   9.795  1.00  0.00     0.261 C 
HETATM   30  N1  UNL     1      19.361  25.488   8.593  1.00  0.00    -0.344 N 
ATOM     31  H1  UNL     1      20.293  25.904   8.577  1.00  0.00     0.163 HD
HETATM   32  O3  UNL     1      17.529  24.771   9.708  1.00  0.00    -0.269 OA
BRANCH  30  33
HETATM   33  C3  UNL     1      18.732  25.046   7.382  1.00  0.00     0.188 C 
BRANCH  33  34
HETATM   34  C2  UNL     1      19.354  23.874   6.737  1.00  0.00     0.281 C 
HETATM   35  O2  UNL     1      18.764  22.759   6.620  1.00  0.00    -0.263 OA
BRANCH  34  36
HETATM   36  O1  UNL     1      20.638  23.997   6.237  1.00  0.00    -0.325 OA
HETATM   37  C1  UNL     1      21.765  23.404   6.830  1.00  0.00     0.213 C 
ENDBRANCH  34  36
ENDBRANCH  33  34
BRANCH  33  38
HETATM   38  C28 UNL     1      18.521  26.102   6.341  1.00  0.00     0.018 C 
HETATM   39  C29 UNL     1      18.169  27.453   6.917  1.00  0.00     0.007 C 
HETATM   40  C30 UNL     1      18.227  28.496   5.841  1.00  0.00     0.000 C 
HETATM   41  C31 UNL     1      17.331  28.161   4.670  1.00  0.00     0.000 C 
HETATM   42  C32 UNL     1      17.436  26.715   4.231  1.00  0.00     0.000 C 
HETATM   43  C33 UNL     1      17.390  25.743   5.362  1.00  0.00     0.007 C 
ENDBRANCH  33  38
ENDBRANCH  30  33
ENDBRANCH   1  29
BRANCH   5  44
HETATM   44  C23 UNL     1      21.795  26.109  11.338  1.00  0.00     0.091 C 
HETATM   45  C24 UNL     1      22.553  25.394  10.234  1.00  0.00     0.025 C 
HETATM   46  C25 UNL     1      23.991  25.570  10.669  1.00  0.00     0.002 C 
HETATM   47  C26 UNL     1      24.028  26.799  11.554  1.00  0.00     0.002 C 
HETATM   48  C27 UNL     1      22.606  27.379  11.459  1.00  0.00     0.025 C 
ENDBRANCH   5  44
TORSDOF 15
ENDMDL
MODEL 4
REMARK VINA RESULT: -8.786792184      2.227     10.238
REMARK  15 active torsions:
REMARK  status: ('A' for Active; 'I' for Inactive)
REMARK    1  A    between atoms: O1_2  and  C2_3 
REMARK    2  A    between atoms: C2_3  and  C3_5 
REMARK    3  A    between atoms: C3_5  and  N1_6 
REMARK    4  A    between atoms: C3_5  and  C28_43 
REMARK       I    between atoms: N1_6  and  C4_8 
REMARK    5  A    between atoms: C4_8  and  C5_10 
REMARK    6  A    between atoms: N2_11  and  C6_12 
REMARK    7  A    between atoms: C6_12  and  C7_13 
REMARK    8  A    between atoms: C7_13  and  C8_15 
REMARK    9  A    between atoms: C8_15  and  C9_16 
REMARK   10  A    between atoms: C8_15  and  N3_23 
REMARK   11  A    between atoms: C9_16  and  C10_17 
REMARK       I    between atoms: N3_23  and  C15_25 
REMARK   12  A    between atoms: C15_25  and  O7_27 
REMARK   13  A    between atoms: O7_27  and  C16_28 
REMARK   14  A    between atoms: C16_28  and  C17_29 
REMARK   15  A    between atoms: N4_37  and  C23_38 
ROOT
HETATM    1  C5  UNL     1      19.999  30.100  13.989  1.00  0.00     0.289 C 
HETATM    2  N2  UNL     1      19.043  31.141  13.690  1.00  0.00    -0.297 N 
HETATM    3  C22 UNL     1      20.138  31.750  12.915  1.00  0.00     0.325 C 
HETATM    4  O9  UNL     1      20.201  32.400  11.851  1.00  0.00    -0.247 OA
HETATM    5  N4  UNL     1      20.956  31.234  13.955  1.00  0.00    -0.299 N 
ENDROOT
BRANCH   2   6
HETATM    6  C6  UNL     1      17.698  31.614  13.766  1.00  0.00     0.210 C 
BRANCH   6   7
HETATM    7  C7  UNL     1      17.298  31.863  15.188  1.00  0.00     0.167 C 
HETATM    8  O4  UNL     1      17.087  30.882  15.868  1.00  0.00    -0.294 OA
BRANCH   7   9
HETATM    9  C8  UNL     1      17.229  33.244  15.627  1.00  0.00     0.158 C 
BRANCH   9  10
HETATM   10  C9  UNL     1      16.038  34.022  15.273  1.00  0.00     0.040 C 
BRANCH  10  11
HETATM   11  C10 UNL     1      15.364  34.769  16.410  1.00  0.00     0.012 C 
HETATM   12  C11 UNL     1      16.027  36.109  16.505  1.00  0.00     0.009 C 
HETATM   13  C12 UNL     1      16.223  36.650  17.879  1.00  0.00     0.027 C 
HETATM   14  C13 UNL     1      16.539  35.488  18.823  1.00  0.00     0.167 C 
HETATM   15  O5  UNL     1      15.384  34.685  18.816  1.00  0.00    -0.391 OA
HETATM   16  C14 UNL     1      15.395  33.935  17.635  1.00  0.00     0.172 C 
ENDBRANCH  10  11
ENDBRANCH   9  10
BRANCH   9  17
HETATM   17  N3  UNL     1      18.484  33.954  15.372  1.00  0.00    -0.325 N 
HETATM   18  C15 UNL     1      19.377  34.430  16.323  1.00  0.00     0.361 C 
HETATM   19  O6  UNL     1      19.230  34.323  17.585  1.00  0.00    -0.238 OA
ATOM     20  H3  UNL     1      18.727  34.115  14.395  1.00  0.00     0.165 HD
BRANCH  18  21
HETATM   21  O7  UNL     1      20.554  35.091  15.911  1.00  0.00    -0.301 OA
BRANCH  21  22
HETATM   22  C16 UNL     1      21.368  35.710  16.887  1.00  0.00     0.212 C 
BRANCH  22  23
HETATM   23  C17 UNL     1      21.162  37.179  16.967  1.00  0.00     0.145 C 
HETATM   24  C18 UNL     1      22.369  37.811  17.719  1.00  0.00     0.034 C 
HETATM   25  C19 UNL     1      22.370  39.256  17.331  1.00  0.00     0.005 C 
HETATM   26  C20 UNL     1      21.033  39.840  17.710  1.00  0.00     0.026 C 
HETATM   27  C21 UNL     1      19.868  38.974  17.381  1.00  0.00     0.168 C 
HETATM   28  O8  UNL     1      20.059  37.607  17.665  1.00  0.00    -0.384 OA
ENDBRANCH  22  23
ENDBRANCH  21  22
ENDBRANCH  18  21
ENDBRANCH   9  17
ENDBRANCH   7   9
ENDBRANCH   6   7
ENDBRANCH   2   6
BRANCH   1  29
HETATM   29  C4  UNL     1      20.184  29.256  12.772  1.00  0.00     0.261 C 
HETATM   30  N1  UNL     1      21.241  28.370  12.547  1.00  0.00    -0.344 N 
ATOM     31  H1  UNL     1      21.963  28.225  13.253  1.00  0.00     0.163 HD
HETATM   32  O3  UNL     1      19.319  29.334  11.844  1.00  0.00    -0.269 OA
BRANCH  30  33
HETATM   33  C3  UNL     1      21.284  27.669  11.295  1.00  0.00     0.188 C 
BRANCH  33  34
HETATM   34  C2  UNL     1      20.672  26.327  11.300  1.00  0.00     0.281 C 
HETATM   35  O2  UNL     1      21.222  25.322  11.840  1.00  0.00    -0.263 OA
BRANCH  34  36
HETATM   36  O1  UNL     1      19.442  26.158  10.690  1.00  0.00    -0.325 OA
HETATM   37  C1  UNL     1      18.233  26.027  11.395  1.00  0.00     0.213 C 
ENDBRANCH  34  36
ENDBRANCH  33  34
BRANCH  33  38
HETATM   38  C28 UNL     1      22.636  27.571  10.658  1.00  0.00     0.018 C 
HETATM   39  C29 UNL     1      22.759  26.427   9.680  1.00  0.00     0.007 C 
HETATM   40  C30 UNL     1      24.038  26.553   8.907  1.00  0.00     0.000 C 
HETATM   41  C31 UNL     1      25.249  26.622   9.811  1.00  0.00     0.000 C 
HETATM   42  C32 UNL     1      25.063  27.554  10.989  1.00  0.00     0.000 C 
HETATM   43  C33 UNL     1      23.758  27.378  11.691  1.00  0.00     0.007 C 
ENDBRANCH  33  38
ENDBRANCH  30  33
ENDBRANCH   1  29
BRANCH   5  44
HETATM   44  C23 UNL     1      22.124  31.604  14.645  1.00  0.00     0.091 C 
HETATM   45  C24 UNL     1      22.763  32.885  14.137  1.00  0.00     0.025 C 
HETATM   46  C25 UNL     1      23.681  33.257  15.278  1.00  0.00     0.002 C 
HETATM   47  C26 UNL     1      23.111  32.608  16.523  1.00  0.00     0.002 C 
HETATM   48  C27 UNL     1      21.773  32.008  16.059  1.00  0.00     0.025 C 
ENDBRANCH   5  44
TORSDOF 15
ENDMDL
MODEL 5
REMARK VINA RESULT: -8.784615652      2.718     10.970
REMARK  15 active torsions:
REMARK  status: ('A' for Active; 'I' for Inactive)
REMARK    1  A    between atoms: O1_2  and  C2_3 
REMARK    2  A    between atoms: C2_3  and  C3_5 
REMARK    3  A    between atoms: C3_5  and  N1_6 
REMARK    4  A    between atoms: C3_5  and  C28_43 
REMARK       I    between atoms: N1_6  and  C4_8 
REMARK    5  A    between atoms: C4_8  and  C5_10 
REMARK    6  A    between atoms: N2_11  and  C6_12 
REMARK    7  A    between atoms: C6_12  and  C7_13 
REMARK    8  A    between atoms: C7_13  and  C8_15 
REMARK    9  A    between atoms: C8_15  and  C9_16 
REMARK   10  A    between atoms: C8_15  and  N3_23 
REMARK   11  A    between atoms: C9_16  and  C10_17 
REMARK       I    between atoms: N3_23  and  C15_25 
REMARK   12  A    between atoms: C15_25  and  O7_27 
REMARK   13  A    between atoms: O7_27  and  C16_28 
REMARK   14  A    between atoms: C16_28  and  C17_29 
REMARK   15  A    between atoms: N4_37  and  C23_38 
ROOT
HETATM    1  C5  UNL     1      19.688  27.532  12.298  1.00  0.00     0.289 C 
HETATM    2  N2  UNL     1      19.611  28.764  11.546  1.00  0.00    -0.297 N 
HETATM    3  C22 UNL     1      20.249  27.994  10.464  1.00  0.00     0.325 C 
HETATM    4  O9  UNL     1      20.150  27.987   9.219  1.00  0.00    -0.247 OA
HETATM    5  N4  UNL     1      20.946  27.364  11.528  1.00  0.00    -0.299 N 
ENDROOT
BRANCH   2   6
HETATM    6  C6  UNL     1      19.140  30.108  11.461  1.00  0.00     0.210 C 
BRANCH   6   7
HETATM    7  C7  UNL     1      17.974  30.325  12.378  1.00  0.00     0.167 C 
HETATM    8  O4  UNL     1      16.890  29.974  11.963  1.00  0.00    -0.294 OA
BRANCH   7   9
HETATM    9  C8  UNL     1      18.250  30.904  13.679  1.00  0.00     0.158 C 
BRANCH   9  10
HETATM   10  C9  UNL     1      17.408  32.014  14.134  1.00  0.00     0.040 C 
BRANCH  10  11
HETATM   11  C10 UNL     1      17.087  32.047  15.617  1.00  0.00     0.012 C 
HETATM   12  C11 UNL     1      15.657  32.477  15.745  1.00  0.00     0.009 C 
HETATM   13  C12 UNL     1      15.339  33.371  16.892  1.00  0.00     0.027 C 
HETATM   14  C13 UNL     1      16.523  34.313  17.122  1.00  0.00     0.167 C 
HETATM   15  O5  UNL     1      17.593  33.475  17.488  1.00  0.00    -0.391 OA
HETATM   16  C14 UNL     1      18.087  32.884  16.321  1.00  0.00     0.172 C 
ENDBRANCH  10  11
ENDBRANCH   9  10
BRANCH   9  17
HETATM   17  N3  UNL     1      19.682  31.145  13.868  1.00  0.00    -0.325 N 
HETATM   18  C15 UNL     1      20.557  30.389  14.638  1.00  0.00     0.361 C 
HETATM   19  O6  UNL     1      20.235  29.356  15.311  1.00  0.00    -0.238 OA
ATOM     20  H3  UNL     1      20.077  31.951  13.386  1.00  0.00     0.165 HD
BRANCH  18  21
HETATM   21  O7  UNL     1      21.919  30.752  14.711  1.00  0.00    -0.301 OA
BRANCH  21  22
HETATM   22  C16 UNL     1      22.315  32.023  14.235  1.00  0.00     0.212 C 
BRANCH  22  23
HETATM   23  C17 UNL     1      22.141  33.100  15.243  1.00  0.00     0.145 C 
HETATM   24  C18 UNL     1      22.080  32.451  16.657  1.00  0.00     0.034 C 
HETATM   25  C19 UNL     1      22.415  33.550  17.616  1.00  0.00     0.005 C 
HETATM   26  C20 UNL     1      21.426  34.668  17.407  1.00  0.00     0.026 C 
HETATM   27  C21 UNL     1      21.139  34.977  15.979  1.00  0.00     0.168 C 
HETATM   28  O8  UNL     1      20.989  33.843  15.156  1.00  0.00    -0.384 OA
ENDBRANCH  22  23
ENDBRANCH  21  22
ENDBRANCH  18  21
ENDBRANCH   9  17
ENDBRANCH   7   9
ENDBRANCH   6   7
ENDBRANCH   2   6
BRANCH   1  29
HETATM   29  C4  UNL     1      18.655  26.588  11.776  1.00  0.00     0.261 C 
HETATM   30  N1  UNL     1      18.898  25.492  10.943  1.00  0.00    -0.344 N 
ATOM     31  H1  UNL     1      19.848  25.252  10.658  1.00  0.00     0.163 HD
HETATM   32  O3  UNL     1      17.442  26.778  12.102  1.00  0.00    -0.269 OA
BRANCH  30  33
HETATM   33  C3  UNL     1      17.777  24.715  10.499  1.00  0.00     0.188 C 
BRANCH  33  34
HETATM   34  C2  UNL     1      17.614  23.407  11.159  1.00  0.00     0.281 C 
HETATM   35  O2  UNL     1      18.319  23.041  12.146  1.00  0.00    -0.263 OA
BRANCH  34  36
HETATM   36  O1  UNL     1      16.647  22.539  10.681  1.00  0.00    -0.325 OA
HETATM   37  C1  UNL     1      15.591  22.042  11.464  1.00  0.00     0.213 C 
ENDBRANCH  34  36
ENDBRANCH  33  34
BRANCH  33  38
HETATM   38  C28 UNL     1      17.677  24.515   9.018  1.00  0.00     0.018 C 
HETATM   39  C29 UNL     1      19.015  24.334   8.343  1.00  0.00     0.007 C 
HETATM   40  C30 UNL     1      18.814  23.889   6.925  1.00  0.00     0.000 C 
HETATM   41  C31 UNL     1      17.942  24.845   6.143  1.00  0.00     0.000 C 
HETATM   42  C32 UNL     1      16.711  25.291   6.904  1.00  0.00     0.000 C 
HETATM   43  C33 UNL     1      16.993  25.698   8.312  1.00  0.00     0.007 C 
ENDBRANCH  33  38
ENDBRANCH  30  33
ENDBRANCH   1  29
BRANCH   5  44
HETATM   44  C23 UNL     1      22.223  26.828  11.768  1.00  0.00     0.091 C 
HETATM   45  C24 UNL     1      22.765  25.989  10.624  1.00  0.00     0.025 C 
HETATM   46  C25 UNL     1      24.240  25.921  10.951  1.00  0.00     0.002 C 
HETATM   47  C26 UNL     1      24.550  27.131  11.809  1.00  0.00     0.002 C 
HETATM   48  C27 UNL     1      23.244  27.942  11.806  1.00  0.00     0.025 C 
ENDBRANCH   5  44
TORSDOF 15
ENDMDL
