MODEL 1
REMARK VINA RESULT: -7.905961025      0.000      0.000
REMARK  15 active torsions:
REMARK  status: ('A' for Active; 'I' for Inactive)
REMARK    1  A    between atoms: C2_2  and  C3_3 
REMARK    2  A    between atoms: N1_5  and  C5_6 
REMARK    3  A    between atoms: C7_11  and  N3_12 
REMARK    4  A    between atoms: N4_15  and  C10_16 
REMARK    5  A    between atoms: C10_16  and  N5_18 
REMARK    6  A    between atoms: N5_18  and  C11_20 
REMARK    7  A    between atoms: C11_20  and  C12_21 
REMARK    8  A    between atoms: C12_21  and  C13_22 
REMARK    9  A    between atoms: C13_22  and  C14_23 
REMARK   10  A    between atoms: C14_23  and  N6_24 
REMARK   11  A    between atoms: N6_24  and  S2_26 
REMARK   12  A    between atoms: S2_26  and  C15_29 
REMARK   13  A    between atoms: C23_38  and  C24_39 
REMARK   14  A    between atoms: C24_39  and  O3_40 
REMARK   15  A    between atoms: O3_40  and  C25_41 
ROOT
HETATM    1  C5  UNL     1      18.727  30.886  13.206  1.00  0.00     0.126 A 
HETATM    2  N2  UNL     1      17.497  30.457  12.800  1.00  0.00    -0.330 N 
ATOM      3  H2  UNL     1      16.673  30.909  13.199  1.00  0.00     0.168 HD
HETATM    4  C6  UNL     1      17.311  29.472  11.905  1.00  0.00     0.132 A 
HETATM    5 CL1  UNL     1      15.669  28.997  11.431  1.00  0.00    -0.062 Cl
HETATM    6  C7  UNL     1      18.391  28.845  11.353  1.00  0.00     0.071 A 
HETATM    7  C19 UNL     1      19.666  29.267  11.749  1.00  0.00     0.060 A 
HETATM    8  C20 UNL     1      19.838  30.295  12.682  1.00  0.00     0.080 A 
HETATM    9 CL2  UNL     1      21.437  30.831  13.142  1.00  0.00    -0.080 Cl
ENDROOT
BRANCH   6  10
HETATM   10  N3  UNL     1      18.295  27.750  10.412  1.00  0.00    -0.375 N 
HETATM   11  C8  UNL     1      18.161  28.026   9.006  1.00  0.00     0.143 C 
HETATM   12  C9  UNL     1      19.065  27.263   8.168  1.00  0.00     0.145 C 
HETATM   13  N4  UNL     1      19.442  25.939   8.675  1.00  0.00    -0.355 N 
HETATM   14  C17 UNL     1      18.992  25.422   9.912  1.00  0.00     0.145 C 
HETATM   15  C18 UNL     1      18.308  26.393  10.839  1.00  0.00     0.143 C 
BRANCH  13  16
HETATM   16  C10 UNL     1      20.290  25.215   7.805  1.00  0.00     0.169 C 
HETATM   17  S1  UNL     1      20.343  25.809   6.205  1.00  0.00    -0.041 SA
BRANCH  16  18
HETATM   18  N5  UNL     1      21.079  24.107   8.043  1.00  0.00    -0.367 N 
ATOM     19  H5  UNL     1      20.950  23.663   8.952  1.00  0.00     0.161 HD
BRANCH  18  20
HETATM   20  C11 UNL     1      22.037  23.503   7.203  1.00  0.00     0.122 C 
BRANCH  20  21
HETATM   21  C12 UNL     1      23.470  23.741   7.722  1.00  0.00     0.021 C 
BRANCH  21  22
HETATM   22  C13 UNL     1      23.959  25.103   7.353  1.00  0.00     0.022 C 
BRANCH  22  23
HETATM   23  C14 UNL     1      24.374  25.918   8.572  1.00  0.00     0.132 C 
BRANCH  23  24
HETATM   24  N6  UNL     1      23.269  26.449   9.273  1.00  0.00    -0.320 N 
ATOM     25  H6  UNL     1      22.633  27.126   8.852  1.00  0.00     0.172 HD
BRANCH  24  26
HETATM   26  S2  UNL     1      23.065  25.888  10.856  1.00  0.00     0.226 S 
HETATM   27  O1  UNL     1      24.392  25.374  11.422  1.00  0.00    -0.206 OA
HETATM   28  O2  UNL     1      22.161  24.650  10.809  1.00  0.00    -0.206 OA
BRANCH  26  29
HETATM   29  C15 UNL     1      22.429  27.046  11.997  1.00  0.00     0.158 C 
HETATM   30  C16 UNL     1      23.430  28.074  12.397  1.00  0.00     0.023 C 
ENDBRANCH  26  29
ENDBRANCH  24  26
ENDBRANCH  23  24
ENDBRANCH  22  23
ENDBRANCH  21  22
ENDBRANCH  20  21
ENDBRANCH  18  20
ENDBRANCH  16  18
ENDBRANCH  13  16
ENDBRANCH   6  10
BRANCH   1  31
HETATM   31  N1  UNL     1      18.751  31.919  14.220  1.00  0.00    -0.365 N 
HETATM   32  C4  UNL     1      17.783  32.953  14.054  1.00  0.00     0.129 C 
HETATM   33  C3  UNL     1      17.530  33.895  15.145  1.00  0.00     0.009 C 
HETATM   34  C23 UNL     1      18.395  33.778  16.366  1.00  0.00     0.016 C 
HETATM   35  C22 UNL     1      18.841  32.338  16.569  1.00  0.00     0.027 C 
HETATM   36  C21 UNL     1      19.643  31.899  15.331  1.00  0.00     0.125 C 
BRANCH  33  37
HETATM   37  C2  UNL     1      16.051  34.006  15.413  1.00  0.00     0.002 C 
HETATM   38  C1  UNL     1      15.331  32.725  15.614  1.00  0.00     0.005 C 
ENDBRANCH  33  37
BRANCH  34  39
HETATM   39  C24 UNL     1      17.726  34.216  17.611  1.00  0.00     0.173 C 
BRANCH  39  40
HETATM   40  O3  UNL     1      18.142  35.423  18.139  1.00  0.00    -0.386 OA
BRANCH  40  41
HETATM   41  C25 UNL     1      17.067  36.183  18.517  1.00  0.00     0.113 C 
HETATM   42  C26 UNL     1      15.780  35.450  18.663  1.00  0.00     0.039 C 
HETATM   43  C27 UNL     1      16.859  37.188  17.360  1.00  0.00     0.039 C 
ENDBRANCH  40  41
ENDBRANCH  39  40
ENDBRANCH  34  39
ENDBRANCH   1  31
TORSDOF 15
ENDMDL
MODEL 2
REMARK VINA RESULT: -7.840655689      1.789      2.516
REMARK  15 active torsions:
REMARK  status: ('A' for Active; 'I' for Inactive)
REMARK    1  A    between atoms: C2_2  and  C3_3 
REMARK    2  A    between atoms: N1_5  and  C5_6 
REMARK    3  A    between atoms: C7_11  and  N3_12 
REMARK    4  A    between atoms: N4_15  and  C10_16 
REMARK    5  A    between atoms: C10_16  and  N5_18 
REMARK    6  A    between atoms: N5_18  and  C11_20 
REMARK    7  A    between atoms: C11_20  and  C12_21 
REMARK    8  A    between atoms: C12_21  and  C13_22 
REMARK    9  A    between atoms: C13_22  and  C14_23 
REMARK   10  A    between atoms: C14_23  and  N6_24 
REMARK   11  A    between atoms: N6_24  and  S2_26 
REMARK   12  A    between atoms: S2_26  and  C15_29 
REMARK   13  A    between atoms: C23_38  and  C24_39 
REMARK   14  A    between atoms: C24_39  and  O3_40 
REMARK   15  A    between atoms: O3_40  and  C25_41 
ROOT
HETATM    1  C5  UNL     1      18.559  30.123  13.142  1.00  0.00     0.126 A 
HETATM    2  N2  UNL     1      17.623  29.131  13.160  1.00  0.00    -0.330 N 
ATOM      3  H2  UNL     1      16.960  29.109  13.935  1.00  0.00     0.168 HD
HETATM    4  C6  UNL     1      17.527  28.181  12.214  1.00  0.00     0.132 A 
HETATM    5 CL1  UNL     1      16.264  26.942  12.321  1.00  0.00    -0.062 Cl
HETATM    6  C7  UNL     1      18.401  28.180  11.164  1.00  0.00     0.071 A 
HETATM    7  C19 UNL     1      19.371  29.188  11.118  1.00  0.00     0.060 A 
HETATM    8  C20 UNL     1      19.453  30.169  12.113  1.00  0.00     0.080 A 
HETATM    9 CL2  UNL     1      20.650  31.440  12.024  1.00  0.00    -0.080 Cl
ENDROOT
BRANCH   6  10
HETATM   10  N3  UNL     1      18.405  27.180  10.118  1.00  0.00    -0.375 N 
HETATM   11  C8  UNL     1      17.863  27.499   8.824  1.00  0.00     0.143 C 
HETATM   12  C9  UNL     1      18.722  27.122   7.718  1.00  0.00     0.145 C 
HETATM   13  N4  UNL     1      19.577  25.951   7.945  1.00  0.00    -0.355 N 
HETATM   14  C17 UNL     1      19.606  25.232   9.162  1.00  0.00     0.145 C 
HETATM   15  C18 UNL     1      18.913  25.870  10.338  1.00  0.00     0.143 C 
BRANCH  13  16
HETATM   16  C10 UNL     1      20.364  25.595   6.826  1.00  0.00     0.169 C 
HETATM   17  S1  UNL     1      19.766  26.153   5.327  1.00  0.00    -0.041 SA
BRANCH  16  18
HETATM   18  N5  UNL     1      21.536  24.867   6.752  1.00  0.00    -0.367 N 
ATOM     19  H5  UNL     1      21.590  24.058   7.370  1.00  0.00     0.161 HD
BRANCH  18  20
HETATM   20  C11 UNL     1      22.668  25.088   5.940  1.00  0.00     0.122 C 
BRANCH  20  21
HETATM   21  C12 UNL     1      23.966  25.093   6.774  1.00  0.00     0.021 C 
BRANCH  21  22
HETATM   22  C13 UNL     1      23.673  25.267   8.227  1.00  0.00     0.022 C 
BRANCH  22  23
HETATM   23  C14 UNL     1      24.679  26.180   8.915  1.00  0.00     0.132 C 
BRANCH  23  24
HETATM   24  N6  UNL     1      24.060  27.195   9.678  1.00  0.00    -0.320 N 
ATOM     25  H6  UNL     1      23.726  28.061   9.258  1.00  0.00     0.172 HD
BRANCH  24  26
HETATM   26  S2  UNL     1      23.909  26.881  11.334  1.00  0.00     0.226 S 
HETATM   27  O1  UNL     1      24.999  27.609  12.123  1.00  0.00    -0.206 OA
HETATM   28  O2  UNL     1      24.197  25.391  11.562  1.00  0.00    -0.206 OA
BRANCH  26  29
HETATM   29  C15 UNL     1      22.376  27.307  12.052  1.00  0.00     0.158 C 
HETATM   30  C16 UNL     1      22.486  28.428  13.026  1.00  0.00     0.023 C 
ENDBRANCH  26  29
ENDBRANCH  24  26
ENDBRANCH  23  24
ENDBRANCH  22  23
ENDBRANCH  21  22
ENDBRANCH  20  21
ENDBRANCH  18  20
ENDBRANCH  16  18
ENDBRANCH  13  16
ENDBRANCH   6  10
BRANCH   1  31
HETATM   31  N1  UNL     1      18.561  31.034  14.268  1.00  0.00    -0.365 N 
HETATM   32  C4  UNL     1      19.430  30.670  15.338  1.00  0.00     0.129 C 
HETATM   33  C3  UNL     1      19.721  31.634  16.399  1.00  0.00     0.009 C 
HETATM   34  C23 UNL     1      18.992  32.946  16.352  1.00  0.00     0.016 C 
HETATM   35  C22 UNL     1      18.674  33.329  14.915  1.00  0.00     0.027 C 
HETATM   36  C21 UNL     1      17.788  32.230  14.305  1.00  0.00     0.125 C 
BRANCH  33  37
HETATM   37  C2  UNL     1      21.208  31.733  16.630  1.00  0.00     0.002 C 
HETATM   38  C1  UNL     1      22.056  31.669  15.415  1.00  0.00     0.005 C 
ENDBRANCH  33  37
BRANCH  34  39
HETATM   39  C24 UNL     1      19.748  34.066  16.955  1.00  0.00     0.173 C 
BRANCH  39  40
HETATM   40  O3  UNL     1      20.541  34.803  16.096  1.00  0.00    -0.386 OA
BRANCH  40  41
HETATM   41  C25 UNL     1      21.611  35.338  16.763  1.00  0.00     0.113 C 
HETATM   42  C26 UNL     1      21.743  34.941  18.192  1.00  0.00     0.039 C 
HETATM   43  C27 UNL     1      21.361  36.865  16.764  1.00  0.00     0.039 C 
ENDBRANCH  40  41
ENDBRANCH  39  40
ENDBRANCH  34  39
ENDBRANCH   1  31
TORSDOF 15
ENDMDL
MODEL 3
REMARK VINA RESULT: -7.814762463      3.146      5.352
REMARK  15 active torsions:
REMARK  status: ('A' for Active; 'I' for Inactive)
REMARK    1  A    between atoms: C2_2  and  C3_3 
REMARK    2  A    between atoms: N1_5  and  C5_6 
REMARK    3  A    between atoms: C7_11  and  N3_12 
REMARK    4  A    between atoms: N4_15  and  C10_16 
REMARK    5  A    between atoms: C10_16  and  N5_18 
REMARK    6  A    between atoms: N5_18  and  C11_20 
REMARK    7  A    between atoms: C11_20  and  C12_21 
REMARK    8  A    between atoms: C12_21  and  C13_22 
REMARK    9  A    between atoms: C13_22  and  C14_23 
REMARK   10  A    between atoms: C14_23  and  N6_24 
REMARK   11  A    between atoms: N6_24  and  S2_26 
REMARK   12  A    between atoms: S2_26  and  C15_29 
REMARK   13  A    between atoms: C23_38  and  C24_39 
REMARK   14  A    between atoms: C24_39  and  O3_40 
REMARK   15  A    between atoms: O3_40  and  C25_41 
ROOT
HETATM    1  C5  UNL     1      18.540  33.282  15.699  1.00  0.00     0.126 A 
HETATM    2  N2  UNL     1      19.835  33.608  15.420  1.00  0.00    -0.330 N 
ATOM      3  H2  UNL     1      20.188  34.506  15.752  1.00  0.00     0.168 HD
HETATM    4  C6  UNL     1      20.671  32.811  14.732  1.00  0.00     0.132 A 
HETATM    5 CL1  UNL     1      22.344  33.320  14.435  1.00  0.00    -0.062 Cl
HETATM    6  C7  UNL     1      20.231  31.603  14.271  1.00  0.00     0.071 A 
HETATM    7  C19 UNL     1      18.907  31.241  14.545  1.00  0.00     0.060 A 
HETATM    8  C20 UNL     1      18.052  32.085  15.264  1.00  0.00     0.080 A 
HETATM    9 CL2  UNL     1      16.411  31.605  15.625  1.00  0.00    -0.080 Cl
ENDROOT
BRANCH   6  10
HETATM   10  N3  UNL     1      21.040  30.694  13.489  1.00  0.00    -0.375 N 
HETATM   11  C8  UNL     1      21.916  29.766  14.155  1.00  0.00     0.143 C 
HETATM   12  C9  UNL     1      21.813  28.405  13.665  1.00  0.00     0.145 C 
HETATM   13  N4  UNL     1      21.444  28.262  12.251  1.00  0.00    -0.355 N 
HETATM   14  C17 UNL     1      21.172  29.359  11.403  1.00  0.00     0.145 C 
HETATM   15  C18 UNL     1      21.014  30.702  12.067  1.00  0.00     0.143 C 
BRANCH  13  16
HETATM   16  C10 UNL     1      21.397  26.920  11.808  1.00  0.00     0.169 C 
HETATM   17  S1  UNL     1      22.906  26.271  11.342  1.00  0.00    -0.041 SA
BRANCH  16  18
HETATM   18  N5  UNL     1      20.328  26.054  11.689  1.00  0.00    -0.367 N 
ATOM     19  H5  UNL     1      19.912  25.747  12.569  1.00  0.00     0.161 HD
BRANCH  18  20
HETATM   20  C11 UNL     1      19.730  25.536  10.522  1.00  0.00     0.122 C 
BRANCH  20  21
HETATM   21  C12 UNL     1      19.809  26.543   9.355  1.00  0.00     0.021 C 
BRANCH  21  22
HETATM   22  C13 UNL     1      18.635  26.404   8.443  1.00  0.00     0.022 C 
BRANCH  22  23
HETATM   23  C14 UNL     1      17.355  26.954   9.059  1.00  0.00     0.132 C 
BRANCH  23  24
HETATM   24  N6  UNL     1      17.468  28.313   9.427  1.00  0.00    -0.320 N 
ATOM     25  H6  UNL     1      17.878  29.010   8.806  1.00  0.00     0.172 HD
BRANCH  24  26
HETATM   26  S2  UNL     1      16.881  28.710  10.963  1.00  0.00     0.226 S 
HETATM   27  O1  UNL     1      15.456  29.263  10.869  1.00  0.00    -0.206 OA
HETATM   28  O2  UNL     1      17.714  29.881  11.501  1.00  0.00    -0.206 OA
BRANCH  26  29
HETATM   29  C15 UNL     1      16.858  27.411  12.128  1.00  0.00     0.158 C 
HETATM   30  C16 UNL     1      17.618  27.733  13.368  1.00  0.00     0.023 C 
ENDBRANCH  26  29
ENDBRANCH  24  26
ENDBRANCH  23  24
ENDBRANCH  22  23
ENDBRANCH  21  22
ENDBRANCH  20  21
ENDBRANCH  18  20
ENDBRANCH  16  18
ENDBRANCH  13  16
ENDBRANCH   6  10
BRANCH   1  31
HETATM   31  N1  UNL     1      17.758  34.277  16.401  1.00  0.00    -0.365 N 
HETATM   32  C4  UNL     1      18.317  34.728  17.632  1.00  0.00     0.129 C 
HETATM   33  C3  UNL     1      17.766  35.912  18.292  1.00  0.00     0.009 C 
HETATM   34  C23 UNL     1      16.551  36.540  17.672  1.00  0.00     0.016 C 
HETATM   35  C22 UNL     1      16.548  36.322  16.166  1.00  0.00     0.027 C 
HETATM   36  C21 UNL     1      16.536  34.808  15.895  1.00  0.00     0.125 C 
BRANCH  33  37
HETATM   37  C2  UNL     1      18.868  36.872  18.660  1.00  0.00     0.002 C 
HETATM   38  C1  UNL     1      20.085  36.816  17.814  1.00  0.00     0.005 C 
ENDBRANCH  33  37
BRANCH  34  39
HETATM   39  C24 UNL     1      16.448  37.996  17.912  1.00  0.00     0.173 C 
BRANCH  39  40
HETATM   40  O3  UNL     1      16.727  38.816  16.835  1.00  0.00    -0.386 OA
BRANCH  40  41
HETATM   41  C25 UNL     1      17.249  40.009  17.258  1.00  0.00     0.113 C 
HETATM   42  C26 UNL     1      16.510  41.226  16.825  1.00  0.00     0.039 C 
HETATM   43  C27 UNL     1      18.644  40.096  16.592  1.00  0.00     0.039 C 
ENDBRANCH  40  41
ENDBRANCH  39  40
ENDBRANCH  34  39
ENDBRANCH   1  31
TORSDOF 15
ENDMDL
MODEL 4
REMARK VINA RESULT: -7.700536222      3.915     11.422
REMARK  15 active torsions:
REMARK  status: ('A' for Active; 'I' for Inactive)
REMARK    1  A    between atoms: C2_2  and  C3_3 
REMARK    2  A    between atoms: N1_5  and  C5_6 
REMARK    3  A    between atoms: C7_11  and  N3_12 
REMARK    4  A    between atoms: N4_15  and  C10_16 
REMARK    5  A    between atoms: C10_16  and  N5_18 
REMARK    6  A    between atoms: N5_18  and  C11_20 
REMARK    7  A    between atoms: C11_20  and  C12_21 
REMARK    8  A    between atoms: C12_21  and  C13_22 
REMARK    9  A    between atoms: C13_22  and  C14_23 
REMARK   10  A    between atoms: C14_23  and  N6_24 
REMARK   11  A    between atoms: N6_24  and  S2_26 
REMARK   12  A    between atoms: S2_26  and  C15_29 
REMARK   13  A    between atoms: C23_38  and  C24_39 
REMARK   14  A    between atoms: C24_39  and  O3_40 
REMARK   15  A    between atoms: O3_40  and  C25_41 
ROOT
HETATM    1  C5  UNL     1      18.518  28.310  10.896  1.00  0.00     0.126 A 
HETATM    2  N2  UNL     1      19.710  28.787  11.358  1.00  0.00    -0.330 N 
ATOM      3  H2  UNL     1      20.567  28.447  10.922  1.00  0.00     0.168 HD
HETATM    4  C6  UNL     1      19.816  29.681  12.357  1.00  0.00     0.132 A 
HETATM    5 CL1  UNL     1      21.412  30.252  12.876  1.00  0.00    -0.062 Cl
HETATM    6  C7  UNL     1      18.688  30.156  12.963  1.00  0.00     0.071 A 
HETATM    7  C19 UNL     1      17.451  29.686  12.507  1.00  0.00     0.060 A 
HETATM    8  C20 UNL     1      17.362  28.756  11.466  1.00  0.00     0.080 A 
HETATM    9 CL2  UNL     1      15.809  28.201  10.886  1.00  0.00    -0.080 Cl
ENDROOT
BRANCH   6  10
HETATM   10  N3  UNL     1      18.699  31.088  14.070  1.00  0.00    -0.375 N 
HETATM   11  C8  UNL     1      18.800  30.595  15.418  1.00  0.00     0.143 C 
HETATM   12  C9  UNL     1      19.795  31.279  16.221  1.00  0.00     0.145 C 
HETATM   13  N4  UNL     1      20.033  32.687  15.880  1.00  0.00    -0.355 N 
HETATM   14  C17 UNL     1      19.372  33.354  14.823  1.00  0.00     0.145 C 
HETATM   15  C18 UNL     1      18.589  32.492  13.867  1.00  0.00     0.143 C 
BRANCH  13  16
HETATM   16  C10 UNL     1      20.979  33.324  16.716  1.00  0.00     0.169 C 
HETATM   17  S1  UNL     1      22.602  33.147  16.219  1.00  0.00    -0.041 SA
BRANCH  16  18
HETATM   18  N5  UNL     1      20.798  34.063  17.869  1.00  0.00    -0.367 N 
ATOM     19  H5  UNL     1      20.316  33.581  18.628  1.00  0.00     0.161 HD
BRANCH  18  20
HETATM   20  C11 UNL     1      21.188  35.391  18.142  1.00  0.00     0.122 C 
BRANCH  20  21
HETATM   21  C12 UNL     1      20.161  36.402  17.591  1.00  0.00     0.021 C 
BRANCH  21  22
HETATM   22  C13 UNL     1      19.240  36.876  18.667  1.00  0.00     0.022 C 
BRANCH  22  23
HETATM   23  C14 UNL     1      17.814  37.065  18.165  1.00  0.00     0.132 C 
BRANCH  23  24
HETATM   24  N6  UNL     1      17.479  36.166  17.129  1.00  0.00    -0.320 N 
ATOM     25  H6  UNL     1      17.710  36.351  16.153  1.00  0.00     0.172 HD
BRANCH  24  26
HETATM   26  S2  UNL     1      16.668  34.760  17.609  1.00  0.00     0.226 S 
HETATM   27  O1  UNL     1      15.910  34.995  18.918  1.00  0.00    -0.206 OA
HETATM   28  O2  UNL     1      17.722  33.701  17.958  1.00  0.00    -0.206 OA
BRANCH  26  29
HETATM   29  C15 UNL     1      15.529  34.108  16.459  1.00  0.00     0.158 C 
HETATM   30  C16 UNL     1      15.731  32.655  16.205  1.00  0.00     0.023 C 
ENDBRANCH  26  29
ENDBRANCH  24  26
ENDBRANCH  23  24
ENDBRANCH  22  23
ENDBRANCH  21  22
ENDBRANCH  20  21
ENDBRANCH  18  20
ENDBRANCH  16  18
ENDBRANCH  13  16
ENDBRANCH   6  10
BRANCH   1  31
HETATM   31  N1  UNL     1      18.583  27.308   9.852  1.00  0.00    -0.365 N 
HETATM   32  C4  UNL     1      18.839  25.981  10.304  1.00  0.00     0.129 C 
HETATM   33  C3  UNL     1      18.662  24.853   9.388  1.00  0.00     0.009 C 
HETATM   34  C23 UNL     1      18.309  25.175   7.965  1.00  0.00     0.016 C 
HETATM   35  C22 UNL     1      17.510  26.468   7.892  1.00  0.00     0.027 C 
HETATM   36  C21 UNL     1      18.370  27.602   8.474  1.00  0.00     0.125 C 
BRANCH  33  37
HETATM   37  C2  UNL     1      17.823  23.778  10.031  1.00  0.00     0.002 C 
HETATM   38  C1  UNL     1      18.003  23.604  11.493  1.00  0.00     0.005 C 
ENDBRANCH  33  37
BRANCH  34  39
HETATM   39  C24 UNL     1      17.511  24.121   7.299  1.00  0.00     0.173 C 
BRANCH  39  40
HETATM   40  O3  UNL     1      16.273  24.501   6.818  1.00  0.00    -0.386 OA
BRANCH  40  41
HETATM   41  C25 UNL     1      15.602  23.423   6.304  1.00  0.00     0.113 C 
HETATM   42  C26 UNL     1      14.124  23.571   6.206  1.00  0.00     0.039 C 
HETATM   43  C27 UNL     1      15.852  22.276   7.312  1.00  0.00     0.039 C 
ENDBRANCH  40  41
ENDBRANCH  39  40
ENDBRANCH  34  39
ENDBRANCH   1  31
TORSDOF 15
ENDMDL
MODEL 5
REMARK VINA RESULT: -7.578120711      4.052     10.794
REMARK  15 active torsions:
REMARK  status: ('A' for Active; 'I' for Inactive)
REMARK    1  A    between atoms: C2_2  and  C3_3 
REMARK    2  A    between atoms: N1_5  and  C5_6 
REMARK    3  A    between atoms: C7_11  and  N3_12 
REMARK    4  A    between atoms: N4_15  and  C10_16 
REMARK    5  A    between atoms: C10_16  and  N5_18 
REMARK    6  A    between atoms: N5_18  and  C11_20 
REMARK    7  A    between atoms: C11_20  and  C12_21 
REMARK    8  A    between atoms: C12_21  and  C13_22 
REMARK    9  A    between atoms: C13_22  and  C14_23 
REMARK   10  A    between atoms: C14_23  and  N6_24 
REMARK   11  A    between atoms: N6_24  and  S2_26 
REMARK   12  A    between atoms: S2_26  and  C15_29 
REMARK   13  A    between atoms: C23_38  and  C24_39 
REMARK   14  A    between atoms: C24_39  and  O3_40 
REMARK   15  A    between atoms: O3_40  and  C25_41 
ROOT
HETATM    1  C5  UNL     1      20.276  28.672  13.001  1.00  0.00     0.126 A 
HETATM    2  N2  UNL     1      19.869  28.900  14.283  1.00  0.00    -0.330 N 
ATOM      3  H2  UNL     1      19.198  28.253  14.697  1.00  0.00     0.168 HD
HETATM    4  C6  UNL     1      20.304  29.930  15.029  1.00  0.00     0.132 A 
HETATM    5 CL1  UNL     1      19.726  30.130  16.694  1.00  0.00    -0.062 Cl
HETATM    6  C7  UNL     1      21.201  30.816  14.504  1.00  0.00     0.071 A 
HETATM    7  C19 UNL     1      21.638  30.605  13.191  1.00  0.00     0.060 A 
HETATM    8  C20 UNL     1      21.174  29.526  12.431  1.00  0.00     0.080 A 
HETATM    9 CL2  UNL     1      21.752  29.259  10.803  1.00  0.00    -0.080 Cl
ENDROOT
BRANCH   6  10
HETATM   10  N3  UNL     1      21.699  31.975  15.212  1.00  0.00    -0.375 N 
HETATM   11  C8  UNL     1      21.611  33.276  14.602  1.00  0.00     0.143 C 
HETATM   12  C9  UNL     1      21.071  34.300  15.476  1.00  0.00     0.145 C 
HETATM   13  N4  UNL     1      21.334  34.120  16.909  1.00  0.00    -0.355 N 
HETATM   14  C17 UNL     1      22.040  33.016  17.438  1.00  0.00     0.145 C 
HETATM   15  C18 UNL     1      22.298  31.867  16.498  1.00  0.00     0.143 C 
BRANCH  13  16
HETATM   16  C10 UNL     1      20.826  35.163  17.716  1.00  0.00     0.169 C 
HETATM   17  S1  UNL     1      21.863  36.510  17.876  1.00  0.00    -0.041 SA
BRANCH  16  18
HETATM   18  N5  UNL     1      19.628  35.266  18.397  1.00  0.00    -0.367 N 
ATOM     19  H5  UNL     1      19.240  34.386  18.737  1.00  0.00     0.161 HD
BRANCH  18  20
HETATM   20  C11 UNL     1      18.867  36.417  18.686  1.00  0.00     0.122 C 
BRANCH  20  21
HETATM   21  C12 UNL     1      17.354  36.118  18.639  1.00  0.00     0.021 C 
BRANCH  21  22
HETATM   22  C13 UNL     1      16.714  36.757  17.452  1.00  0.00     0.022 C 
BRANCH  22  23
HETATM   23  C14 UNL     1      16.172  35.731  16.465  1.00  0.00     0.132 C 
BRANCH  23  24
HETATM   24  N6  UNL     1      17.183  35.163  15.659  1.00  0.00    -0.320 N 
ATOM     25  H6  UNL     1      17.823  35.735  15.109  1.00  0.00     0.172 HD
BRANCH  24  26
HETATM   26  S2  UNL     1      17.266  33.474  15.665  1.00  0.00     0.226 S 
HETATM   27  O1  UNL     1      15.878  32.866  15.880  1.00  0.00    -0.206 OA
HETATM   28  O2  UNL     1      18.070  33.043  16.899  1.00  0.00    -0.206 OA
BRANCH  26  29
HETATM   29  C15 UNL     1      17.938  32.739  14.231  1.00  0.00     0.158 C 
HETATM   30  C16 UNL     1      17.322  31.421  13.914  1.00  0.00     0.023 C 
ENDBRANCH  26  29
ENDBRANCH  24  26
ENDBRANCH  23  24
ENDBRANCH  22  23
ENDBRANCH  21  22
ENDBRANCH  20  21
ENDBRANCH  18  20
ENDBRANCH  16  18
ENDBRANCH  13  16
ENDBRANCH   6  10
BRANCH   1  31
HETATM   31  N1  UNL     1      19.666  27.551  12.317  1.00  0.00    -0.365 N 
HETATM   32  C4  UNL     1      18.247  27.613  12.198  1.00  0.00     0.129 C 
HETATM   33  C3  UNL     1      17.550  26.688  11.304  1.00  0.00     0.009 C 
HETATM   34  C23 UNL     1      18.378  25.636  10.624  1.00  0.00     0.016 C 
HETATM   35  C22 UNL     1      19.796  26.137  10.397  1.00  0.00     0.027 C 
HETATM   36  C21 UNL     1      20.417  26.474  11.763  1.00  0.00     0.125 C 
BRANCH  33  37
HETATM   37  C2  UNL     1      16.600  27.438  10.405  1.00  0.00     0.002 C 
HETATM   38  C1  UNL     1      16.300  28.835  10.801  1.00  0.00     0.005 C 
ENDBRANCH  33  37
BRANCH  34  39
HETATM   39  C24 UNL     1      17.840  25.213   9.313  1.00  0.00     0.173 C 
BRANCH  39  40
HETATM   40  O3  UNL     1      18.743  25.154   8.269  1.00  0.00    -0.386 OA
BRANCH  40  41
HETATM   41  C25 UNL     1      18.198  25.675   7.127  1.00  0.00     0.113 C 
HETATM   42  C26 UNL     1      18.229  27.159   7.017  1.00  0.00     0.039 C 
HETATM   43  C27 UNL     1      16.702  25.282   7.179  1.00  0.00     0.039 C 
ENDBRANCH  40  41
ENDBRANCH  39  40
ENDBRANCH  34  39
ENDBRANCH   1  31
TORSDOF 15
ENDMDL
