MODEL 1
REMARK VINA RESULT: -7.112775630      0.000      0.000
REMARK  3 active torsions:
REMARK  status: ('A' for Active; 'I' for Inactive)
REMARK    1  A    between atoms: C2_2  and  C4_4 
REMARK    2  A    between atoms: C4_4  and  N1_6 
REMARK       I    between atoms: N1_6  and  C6_8 
REMARK       I    between atoms: C6_8  and  N2_10 
REMARK    3  A    between atoms: N3_13  and  C9_14 
ROOT
HETATM    1  N1  UNL     1      49.153  54.097   9.657  1.00  0.00    -0.338 N 
ATOM      2  H1  UNL     1      48.551  54.447   8.911  1.00  0.00     0.164 HD
HETATM    3  C6  UNL     1      48.977  52.783  10.112  1.00  0.00     0.318 C 
HETATM    4  O1  UNL     1      49.758  52.402  11.045  1.00  0.00    -0.247 OA
HETATM    5  N2  UNL     1      48.014  51.853   9.627  1.00  0.00    -0.331 N 
HETATM    6  C7  UNL     1      47.904  50.543  10.163  1.00  0.00     0.147 C 
HETATM    7  C8  UNL     1      46.588  49.869   9.952  1.00  0.00     0.145 C 
HETATM    8  N3  UNL     1      45.938  50.269   8.713  1.00  0.00    -0.353 N 
HETATM    9  C10 UNL     1      46.749  51.030   7.817  1.00  0.00     0.100 C 
HETATM   10  C11 UNL     1      46.150  51.431   6.527  1.00  0.00     0.034 C 
HETATM   11  C12 UNL     1      47.146  52.291   8.571  1.00  0.00     0.152 C 
ENDROOT
BRANCH   1  12
HETATM   12  C4  UNL     1      50.161  54.969  10.209  1.00  0.00     0.085 C 
HETATM   13  C5  UNL     1      51.109  55.442   9.109  1.00  0.00     0.032 C 
BRANCH  12  14
HETATM   14  C2  UNL     1      49.545  56.208  10.817  1.00  0.00    -0.000 C 
HETATM   15  C1  UNL     1      48.859  55.913  12.127  1.00  0.00     0.011 C 
HETATM   16  C3  UNL     1      50.654  57.202  11.102  1.00  0.00     0.011 C 
ENDBRANCH  12  14
ENDBRANCH   1  12
BRANCH   8  17
HETATM   17  C9  UNL     1      44.598  49.874   8.522  1.00  0.00     0.183 C 
HETATM   18  N4  UNL     1      43.476  50.697   8.862  1.00  0.00    -0.070 NA
HETATM   19  S1  UNL     1      44.216  48.418   7.889  1.00  0.00    -0.044 SA
ENDBRANCH   8  17
TORSDOF 3
ENDMDL
MODEL 2
REMARK VINA RESULT: -6.911988917      2.700      4.072
REMARK  3 active torsions:
REMARK  status: ('A' for Active; 'I' for Inactive)
REMARK    1  A    between atoms: C2_2  and  C4_4 
REMARK    2  A    between atoms: C4_4  and  N1_6 
REMARK       I    between atoms: N1_6  and  C6_8 
REMARK       I    between atoms: C6_8  and  N2_10 
REMARK    3  A    between atoms: N3_13  and  C9_14 
ROOT
HETATM    1  N1  UNL     1      49.607  53.661  10.704  1.00  0.00    -0.338 N 
ATOM      2  H1  UNL     1      50.371  53.286  11.266  1.00  0.00     0.164 HD
HETATM    3  C6  UNL     1      48.722  52.771  10.078  1.00  0.00     0.318 C 
HETATM    4  O1  UNL     1      47.788  53.298   9.389  1.00  0.00    -0.247 OA
HETATM    5  N2  UNL     1      48.779  51.350  10.148  1.00  0.00    -0.331 N 
HETATM    6  C7  UNL     1      47.839  50.530   9.468  1.00  0.00     0.147 C 
HETATM    7  C8  UNL     1      48.283  49.130   9.200  1.00  0.00     0.145 C 
HETATM    8  N3  UNL     1      49.184  48.614  10.220  1.00  0.00    -0.353 N 
HETATM    9  C10 UNL     1      49.298  49.418  11.395  1.00  0.00     0.100 C 
HETATM   10  C11 UNL     1      50.171  48.923  12.478  1.00  0.00     0.034 C 
HETATM   11  C12 UNL     1      49.829  50.768  10.934  1.00  0.00     0.152 C 
ENDROOT
BRANCH   1  12
HETATM   12  C4  UNL     1      49.469  55.092  10.577  1.00  0.00     0.085 C 
HETATM   13  C5  UNL     1      48.747  55.661  11.796  1.00  0.00     0.032 C 
BRANCH  12  14
HETATM   14  C2  UNL     1      50.816  55.771  10.510  1.00  0.00    -0.000 C 
HETATM   15  C1  UNL     1      51.369  55.794   9.108  1.00  0.00     0.011 C 
HETATM   16  C3  UNL     1      50.647  57.212  10.952  1.00  0.00     0.011 C 
ENDBRANCH  12  14
ENDBRANCH   1  12
BRANCH   8  17
HETATM   17  C9  UNL     1      49.841  47.395   9.954  1.00  0.00     0.183 C 
HETATM   18  N4  UNL     1      51.115  47.311   9.304  1.00  0.00    -0.070 NA
HETATM   19  S1  UNL     1      49.186  45.959  10.375  1.00  0.00    -0.044 SA
ENDBRANCH   8  17
TORSDOF 3
ENDMDL
MODEL 3
REMARK VINA RESULT: -6.813924697      3.690      4.863
REMARK  3 active torsions:
REMARK  status: ('A' for Active; 'I' for Inactive)
REMARK    1  A    between atoms: C2_2  and  C4_4 
REMARK    2  A    between atoms: C4_4  and  N1_6 
REMARK       I    between atoms: N1_6  and  C6_8 
REMARK       I    between atoms: C6_8  and  N2_10 
REMARK    3  A    between atoms: N3_13  and  C9_14 
ROOT
HETATM    1  N1  UNL     1      49.571  50.674   9.576  1.00  0.00    -0.338 N 
ATOM      2  H1  UNL     1      48.992  50.109   8.954  1.00  0.00     0.164 HD
HETATM    3  C6  UNL     1      49.751  50.256  10.902  1.00  0.00     0.318 C 
HETATM    4  O1  UNL     1      50.484  51.001  11.632  1.00  0.00    -0.247 OA
HETATM    5  N2  UNL     1      49.194  49.086  11.492  1.00  0.00    -0.331 N 
HETATM    6  C7  UNL     1      49.426  48.752  12.853  1.00  0.00     0.147 C 
HETATM    7  C8  UNL     1      48.421  47.836  13.471  1.00  0.00     0.145 C 
HETATM    8  N3  UNL     1      47.845  46.898  12.518  1.00  0.00    -0.353 N 
HETATM    9  C10 UNL     1      48.491  46.850  11.245  1.00  0.00     0.100 C 
HETATM   10  C11 UNL     1      47.970  45.888  10.252  1.00  0.00     0.034 C 
HETATM   11  C12 UNL     1      48.378  48.249  10.658  1.00  0.00     0.152 C 
ENDROOT
BRANCH   1  12
HETATM   12  C4  UNL     1      50.180  51.877   9.064  1.00  0.00     0.085 C 
HETATM   13  C5  UNL     1      51.140  51.538   7.925  1.00  0.00     0.032 C 
BRANCH  12  14
HETATM   14  C2  UNL     1      49.145  52.820   8.496  1.00  0.00    -0.000 C 
HETATM   15  C1  UNL     1      47.880  52.100   8.102  1.00  0.00     0.011 C 
HETATM   16  C3  UNL     1      48.775  53.826   9.570  1.00  0.00     0.011 C 
ENDBRANCH  12  14
ENDBRANCH   1  12
BRANCH   8  17
HETATM   17  C9  UNL     1      46.729  46.145  12.937  1.00  0.00     0.183 C 
HETATM   18  N4  UNL     1      46.834  44.858  13.556  1.00  0.00    -0.070 NA
HETATM   19  S1  UNL     1      45.203  46.694  12.742  1.00  0.00    -0.044 SA
ENDBRANCH   8  17
TORSDOF 3
ENDMDL
MODEL 4
REMARK VINA RESULT: -6.600292841      3.520      4.962
REMARK  3 active torsions:
REMARK  status: ('A' for Active; 'I' for Inactive)
REMARK    1  A    between atoms: C2_2  and  C4_4 
REMARK    2  A    between atoms: C4_4  and  N1_6 
REMARK       I    between atoms: N1_6  and  C6_8 
REMARK       I    between atoms: C6_8  and  N2_10 
REMARK    3  A    between atoms: N3_13  and  C9_14 
ROOT
HETATM    1  N1  UNL     1      48.610  51.385   9.642  1.00  0.00    -0.338 N 
ATOM      2  H1  UNL     1      49.464  50.970  10.017  1.00  0.00     0.164 HD
HETATM    3  C6  UNL     1      47.372  50.839  10.010  1.00  0.00     0.318 C 
HETATM    4  O1  UNL     1      46.341  51.398   9.511  1.00  0.00    -0.247 OA
HETATM    5  N2  UNL     1      47.173  49.731  10.882  1.00  0.00    -0.331 N 
HETATM    6  C7  UNL     1      45.875  49.243  11.187  1.00  0.00     0.147 C 
HETATM    7  C8  UNL     1      45.815  47.831  11.667  1.00  0.00     0.145 C 
HETATM    8  N3  UNL     1      46.999  47.434  12.414  1.00  0.00    -0.353 N 
HETATM    9  C10 UNL     1      47.886  48.499  12.760  1.00  0.00     0.100 C 
HETATM   10  C11 UNL     1      49.086  48.157  13.551  1.00  0.00     0.034 C 
HETATM   11  C12 UNL     1      48.341  49.116  11.446  1.00  0.00     0.152 C 
ENDROOT
BRANCH   1  12
HETATM   12  C4  UNL     1      48.714  52.514   8.751  1.00  0.00     0.085 C 
HETATM   13  C5  UNL     1      48.779  53.813   9.552  1.00  0.00     0.032 C 
BRANCH  12  14
HETATM   14  C2  UNL     1      49.976  52.448   7.922  1.00  0.00    -0.000 C 
HETATM   15  C1  UNL     1      50.779  53.721   8.012  1.00  0.00     0.011 C 
HETATM   16  C3  UNL     1      50.844  51.328   8.462  1.00  0.00     0.011 C 
ENDBRANCH  12  14
ENDBRANCH   1  12
BRANCH   8  17
HETATM   17  C9  UNL     1      47.151  46.066  12.717  1.00  0.00     0.183 C 
HETATM   18  N4  UNL     1      46.743  45.482  13.960  1.00  0.00    -0.070 NA
HETATM   19  S1  UNL     1      47.820  45.022  11.654  1.00  0.00    -0.044 SA
ENDBRANCH   8  17
TORSDOF 3
ENDMDL
MODEL 5
REMARK VINA RESULT: -6.600239296      3.416      4.338
REMARK  3 active torsions:
REMARK  status: ('A' for Active; 'I' for Inactive)
REMARK    1  A    between atoms: C2_2  and  C4_4 
REMARK    2  A    between atoms: C4_4  and  N1_6 
REMARK       I    between atoms: N1_6  and  C6_8 
REMARK       I    between atoms: C6_8  and  N2_10 
REMARK    3  A    between atoms: N3_13  and  C9_14 
ROOT
HETATM    1  N1  UNL     1      49.396  51.076   9.672  1.00  0.00    -0.338 N 
ATOM      2  H1  UNL     1      48.750  50.636   9.016  1.00  0.00     0.164 HD
HETATM    3  C6  UNL     1      49.640  50.455  10.905  1.00  0.00     0.318 C 
HETATM    4  O1  UNL     1      50.455  51.051  11.683  1.00  0.00    -0.247 OA
HETATM    5  N2  UNL     1      49.063  49.233  11.353  1.00  0.00    -0.331 N 
HETATM    6  C7  UNL     1      49.365  48.688  12.630  1.00  0.00     0.147 C 
HETATM    7  C8  UNL     1      48.357  47.731  13.175  1.00  0.00     0.145 C 
HETATM    8  N3  UNL     1      47.674  46.972  12.137  1.00  0.00    -0.353 N 
HETATM    9  C10 UNL     1      48.233  47.091  10.828  1.00  0.00     0.100 C 
HETATM   10  C11 UNL     1      47.601  46.313   9.743  1.00  0.00     0.034 C 
HETATM   11  C12 UNL     1      48.154  48.567  10.465  1.00  0.00     0.152 C 
ENDROOT
BRANCH   1  12
HETATM   12  C4  UNL     1      50.031  52.318   9.302  1.00  0.00     0.085 C 
HETATM   13  C5  UNL     1      50.762  52.159   7.970  1.00  0.00     0.032 C 
BRANCH  12  14
HETATM   14  C2  UNL     1      49.016  53.421   9.115  1.00  0.00    -0.000 C 
HETATM   15  C1  UNL     1      47.607  52.941   9.357  1.00  0.00     0.011 C 
HETATM   16  C3  UNL     1      49.303  54.511  10.130  1.00  0.00     0.011 C 
ENDBRANCH  12  14
ENDBRANCH   1  12
BRANCH   8  17
HETATM   17  C9  UNL     1      46.551  46.210  12.518  1.00  0.00     0.183 C 
HETATM   18  N4  UNL     1      45.243  46.767  12.698  1.00  0.00    -0.070 NA
HETATM   19  S1  UNL     1      46.658  44.603  12.791  1.00  0.00    -0.044 SA
ENDBRANCH   8  17
TORSDOF 3
ENDMDL
