MODEL 1
REMARK VINA RESULT: -5.353425957      0.000      0.000
REMARK  4 active torsions:
REMARK  status: ('A' for Active; 'I' for Inactive)
REMARK    1  A    between atoms: N1_1  and  C1_5 
REMARK    2  A    between atoms: C1_5  and  C2_6 
REMARK    3  A    between atoms: C5_10  and  N2_11 
REMARK       I    between atoms: N2_11  and  C6_13 
REMARK       I    between atoms: C6_13  and  N3_15 
REMARK    4  A    between atoms: N3_15  and  C7_17 
ROOT
HETATM    1  N2  UNL     1       5.795   7.516  11.966  1.00  0.00    -0.337 N 
ATOM      2  H2  UNL     1       5.203   8.248  11.575  1.00  0.00     0.164 HD
HETATM    3  C6  UNL     1       5.212   6.542  12.813  1.00  0.00     0.317 C 
HETATM    4  O1  UNL     1       5.961   5.647  13.282  1.00  0.00    -0.247 OA
HETATM    5  N3  UNL     1       3.842   6.517  13.161  1.00  0.00    -0.329 N 
ATOM      6  H3  UNL     1       3.239   7.246  12.781  1.00  0.00     0.165 HD
ENDROOT
BRANCH   1   7
HETATM    7  C5  UNL     1       7.195   7.503  11.641  1.00  0.00     0.101 C 
HETATM    8  C2  UNL     1       7.952   8.429  12.544  1.00  0.00     0.044 C 
HETATM    9  C3  UNL     1       9.405   8.334  12.107  1.00  0.00     0.082 C 
HETATM   10  S1  UNL     1       9.182   8.412  10.282  1.00  0.00    -0.167 SA
HETATM   11  C4  UNL     1       7.381   8.051  10.221  1.00  0.00     0.099 C 
BRANCH   8  12
HETATM   12  C1  UNL     1       7.530   9.872  12.372  1.00  0.00     0.237 C 
BRANCH  12  13
HETATM   13  N1  UNL     1       6.801  10.288  13.558  1.00  0.00    -0.079 N 
ATOM     14  H13 UNL     1       5.853   9.911  13.585  1.00  0.00     0.274 HD
ATOM     15  H12 UNL     1       7.153   9.847  14.407  1.00  0.00     0.274 HD
ATOM     16  H11 UNL     1       6.818  11.306  13.612  1.00  0.00     0.274 HD
ENDBRANCH  12  13
ENDBRANCH   8  12
ENDBRANCH   1   7
BRANCH   5  17
HETATM   17  C7  UNL     1       3.242   5.515  14.028  1.00  0.00     0.156 C 
HETATM   18  C8  UNL     1       3.386   6.068  15.493  1.00  0.00     0.064 C 
HETATM   19  C9  UNL     1       2.027   6.501  16.049  1.00  0.00    -0.028 C 
HETATM   20  C10 UNL     1       0.935   5.581  16.210  1.00  0.00    -0.030 C 
HETATM   21  C11 UNL     1      -0.122   5.359  15.137  1.00  0.00     0.038 C 
HETATM   22  C12 UNL     1       0.509   4.902  13.780  1.00  0.00     0.086 C 
HETATM   23  C13 UNL     1       1.887   5.179  13.868  1.00  0.00    -0.157 C 
ENDBRANCH   5  17
TORSDOF 4
ENDMDL
MODEL 2
REMARK VINA RESULT: -5.243982529      4.130      4.814
REMARK  4 active torsions:
REMARK  status: ('A' for Active; 'I' for Inactive)
REMARK    1  A    between atoms: N1_1  and  C1_5 
REMARK    2  A    between atoms: C1_5  and  C2_6 
REMARK    3  A    between atoms: C5_10  and  N2_11 
REMARK       I    between atoms: N2_11  and  C6_13 
REMARK       I    between atoms: C6_13  and  N3_15 
REMARK    4  A    between atoms: N3_15  and  C7_17 
ROOT
HETATM    1  N2  UNL     1       8.012   5.249  15.364  1.00  0.00    -0.337 N 
ATOM      2  H2  UNL     1       8.013   4.262  15.109  1.00  0.00     0.164 HD
HETATM    3  C6  UNL     1       6.842   6.015  15.137  1.00  0.00     0.317 C 
HETATM    4  O1  UNL     1       6.863   7.230  15.461  1.00  0.00    -0.247 OA
HETATM    5  N3  UNL     1       5.656   5.495  14.570  1.00  0.00    -0.329 N 
ATOM      6  H3  UNL     1       5.644   4.510  14.306  1.00  0.00     0.165 HD
ENDROOT
BRANCH   1   7
HETATM    7  C5  UNL     1       9.197   5.822  15.942  1.00  0.00     0.101 C 
HETATM    8  C2  UNL     1      10.421   5.306  15.248  1.00  0.00     0.044 C 
HETATM    9  C3  UNL     1      11.599   5.972  15.942  1.00  0.00     0.082 C 
HETATM   10  S1  UNL     1      11.079   5.764  17.695  1.00  0.00    -0.167 SA
HETATM   11  C4  UNL     1       9.311   5.361  17.400  1.00  0.00     0.099 C 
BRANCH   8  12
HETATM   12  C1  UNL     1      10.592   3.812  15.418  1.00  0.00     0.237 C 
BRANCH  12  13
HETATM   13  N1  UNL     1      11.725   3.379  14.620  1.00  0.00    -0.079 N 
ATOM     14  H13 UNL     1      11.725   3.793  13.687  1.00  0.00     0.274 HD
ATOM     15  H12 UNL     1      12.607   3.772  14.949  1.00  0.00     0.274 HD
ATOM     16  H11 UNL     1      11.737   2.360  14.595  1.00  0.00     0.274 HD
ENDBRANCH  12  13
ENDBRANCH   8  12
ENDBRANCH   1   7
BRANCH   5  17
HETATM   17  C7  UNL     1       4.453   6.280  14.341  1.00  0.00     0.156 C 
HETATM   18  C8  UNL     1       3.670   5.545  13.191  1.00  0.00     0.064 C 
HETATM   19  C9  UNL     1       2.409   4.869  13.734  1.00  0.00    -0.028 C 
HETATM   20  C10 UNL     1       1.348   5.612  14.355  1.00  0.00    -0.030 C 
HETATM   21  C11 UNL     1       1.277   5.850  15.858  1.00  0.00     0.038 C 
HETATM   22  C12 UNL     1       2.556   6.573  16.396  1.00  0.00     0.086 C 
HETATM   23  C13 UNL     1       3.531   6.462  15.386  1.00  0.00    -0.157 C 
ENDBRANCH   5  17
TORSDOF 4
ENDMDL
MODEL 3
REMARK VINA RESULT: -5.197091995      2.731      3.930
REMARK  4 active torsions:
REMARK  status: ('A' for Active; 'I' for Inactive)
REMARK    1  A    between atoms: N1_1  and  C1_5 
REMARK    2  A    between atoms: C1_5  and  C2_6 
REMARK    3  A    between atoms: C5_10  and  N2_11 
REMARK       I    between atoms: N2_11  and  C6_13 
REMARK       I    between atoms: C6_13  and  N3_15 
REMARK    4  A    between atoms: N3_15  and  C7_17 
ROOT
HETATM    1  N2  UNL     1       8.715   8.429  11.417  1.00  0.00    -0.337 N 
ATOM      2  H2  UNL     1       9.302   8.399  12.250  1.00  0.00     0.164 HD
HETATM    3  C6  UNL     1       7.338   8.122  11.537  1.00  0.00     0.317 C 
HETATM    4  O1  UNL     1       6.632   8.167  10.497  1.00  0.00    -0.247 OA
HETATM    5  N3  UNL     1       6.711   7.768  12.754  1.00  0.00    -0.329 N 
ATOM      6  H3  UNL     1       7.287   7.729  13.595  1.00  0.00     0.165 HD
ENDROOT
BRANCH   1   7
HETATM    7  C5  UNL     1       9.309   8.782  10.157  1.00  0.00     0.101 C 
HETATM    8  C2  UNL     1      10.181   7.669   9.658  1.00  0.00     0.044 C 
HETATM    9  C3  UNL     1      10.752   8.155   8.335  1.00  0.00     0.082 C 
HETATM   10  S1  UNL     1      11.214   9.871   8.812  1.00  0.00    -0.167 SA
HETATM   11  C4  UNL     1      10.237   9.984  10.364  1.00  0.00     0.099 C 
BRANCH   8  12
HETATM   12  C1  UNL     1      11.353   7.400  10.576  1.00  0.00     0.237 C 
BRANCH  12  13
HETATM   13  N1  UNL     1      12.190   6.377   9.974  1.00  0.00    -0.079 N 
ATOM     14  H13 UNL     1      11.720   5.887   9.213  1.00  0.00     0.274 HD
ATOM     15  H12 UNL     1      12.961   6.771   9.434  1.00  0.00     0.274 HD
ATOM     16  H11 UNL     1      12.511   5.745  10.707  1.00  0.00     0.274 HD
ENDBRANCH  12  13
ENDBRANCH   8  12
ENDBRANCH   1   7
BRANCH   5  17
HETATM   17  C7  UNL     1       5.296   7.457  12.879  1.00  0.00     0.156 C 
HETATM   18  C8  UNL     1       5.199   5.886  12.894  1.00  0.00     0.064 C 
HETATM   19  C9  UNL     1       4.824   5.376  14.287  1.00  0.00    -0.028 C 
HETATM   20  C10 UNL     1       3.589   5.732  14.928  1.00  0.00    -0.030 C 
HETATM   21  C11 UNL     1       3.460   6.925  15.865  1.00  0.00     0.038 C 
HETATM   22  C12 UNL     1       3.879   8.263  15.170  1.00  0.00     0.086 C 
HETATM   23  C13 UNL     1       4.582   7.902  14.004  1.00  0.00    -0.157 C 
ENDBRANCH   5  17
TORSDOF 4
ENDMDL
MODEL 4
REMARK VINA RESULT: -5.023857171      3.347      7.529
REMARK  4 active torsions:
REMARK  status: ('A' for Active; 'I' for Inactive)
REMARK    1  A    between atoms: N1_1  and  C1_5 
REMARK    2  A    between atoms: C1_5  and  C2_6 
REMARK    3  A    between atoms: C5_10  and  N2_11 
REMARK       I    between atoms: N2_11  and  C6_13 
REMARK       I    between atoms: C6_13  and  N3_15 
REMARK    4  A    between atoms: N3_15  and  C7_17 
ROOT
HETATM    1  N2  UNL     1       2.065   6.669  14.141  1.00  0.00    -0.337 N 
ATOM      2  H2  UNL     1       1.744   7.604  13.890  1.00  0.00     0.164 HD
HETATM    3  C6  UNL     1       3.347   6.245  13.713  1.00  0.00     0.317 C 
HETATM    4  O1  UNL     1       3.723   5.090  14.036  1.00  0.00    -0.247 OA
HETATM    5  N3  UNL     1       4.225   7.043  12.944  1.00  0.00    -0.329 N 
ATOM      6  H3  UNL     1       3.915   7.979  12.681  1.00  0.00     0.165 HD
ENDROOT
BRANCH   1   7
HETATM    7  C5  UNL     1       1.204   5.822  14.920  1.00  0.00     0.101 C 
HETATM    8  C2  UNL     1      -0.223   5.990  14.495  1.00  0.00     0.044 C 
HETATM    9  C3  UNL     1      -1.031   5.056  15.383  1.00  0.00     0.082 C 
HETATM   10  S1  UNL     1      -0.250   5.427  17.007  1.00  0.00    -0.167 SA
HETATM   11  C4  UNL     1       1.263   6.267  16.387  1.00  0.00     0.099 C 
BRANCH   8  12
HETATM   12  C1  UNL     1      -0.736   7.392  14.741  1.00  0.00     0.237 C 
BRANCH  12  13
HETATM   13  N1  UNL     1      -1.475   7.830  13.570  1.00  0.00    -0.079 N 
ATOM     14  H13 UNL     1      -0.982   7.628  12.699  1.00  0.00     0.274 HD
ATOM     15  H12 UNL     1      -2.304   7.262  13.397  1.00  0.00     0.274 HD
ATOM     16  H11 UNL     1      -1.695   8.820  13.673  1.00  0.00     0.274 HD
ENDBRANCH  12  13
ENDBRANCH   8  12
ENDBRANCH   1   7
BRANCH   5  17
HETATM   17  C7  UNL     1       5.543   6.611  12.507  1.00  0.00     0.156 C 
HETATM   18  C8  UNL     1       5.481   6.557  10.936  1.00  0.00     0.064 C 
HETATM   19  C9  UNL     1       6.303   7.691  10.319  1.00  0.00    -0.028 C 
HETATM   20  C10 UNL     1       7.719   7.816  10.532  1.00  0.00    -0.030 C 
HETATM   21  C11 UNL     1       8.312   8.655  11.656  1.00  0.00     0.038 C 
HETATM   22  C12 UNL     1       7.796   8.198  13.061  1.00  0.00     0.086 C 
HETATM   23  C13 UNL     1       6.671   7.384  12.827  1.00  0.00    -0.157 C 
ENDBRANCH   5  17
TORSDOF 4
ENDMDL
MODEL 5
REMARK VINA RESULT: -4.974258857      3.511      7.621
REMARK  4 active torsions:
REMARK  status: ('A' for Active; 'I' for Inactive)
REMARK    1  A    between atoms: N1_1  and  C1_5 
REMARK    2  A    between atoms: C1_5  and  C2_6 
REMARK    3  A    between atoms: C5_10  and  N2_11 
REMARK       I    between atoms: N2_11  and  C6_13 
REMARK       I    between atoms: C6_13  and  N3_15 
REMARK    4  A    between atoms: N3_15  and  C7_17 
ROOT
HETATM    1  N2  UNL     1       1.859   7.596  13.917  1.00  0.00    -0.337 N 
ATOM      2  H2  UNL     1       1.522   8.342  13.308  1.00  0.00     0.164 HD
HETATM    3  C6  UNL     1       3.172   7.099  13.731  1.00  0.00     0.317 C 
HETATM    4  O1  UNL     1       3.566   6.181  14.495  1.00  0.00    -0.247 OA
HETATM    5  N3  UNL     1       4.062   7.574  12.741  1.00  0.00    -0.329 N 
ATOM      6  H3  UNL     1       3.738   8.317  12.122  1.00  0.00     0.165 HD
ENDROOT
BRANCH   1   7
HETATM    7  C5  UNL     1       0.987   7.081  14.937  1.00  0.00     0.101 C 
HETATM    8  C2  UNL     1      -0.002   6.122  14.347  1.00  0.00     0.044 C 
HETATM    9  C3  UNL     1      -0.863   5.652  15.508  1.00  0.00     0.082 C 
HETATM   10  S1  UNL     1      -1.162   7.265  16.341  1.00  0.00    -0.167 SA
HETATM   11  C4  UNL     1       0.161   8.237  15.515  1.00  0.00     0.099 C 
BRANCH   8  12
HETATM   12  C1  UNL     1      -0.925   6.788  13.350  1.00  0.00     0.237 C 
BRANCH  12  13
HETATM   13  N1  UNL     1      -1.912   5.817  12.909  1.00  0.00    -0.079 N 
ATOM     14  H13 UNL     1      -1.898   5.678  11.898  1.00  0.00     0.274 HD
ATOM     15  H12 UNL     1      -1.673   4.865  13.186  1.00  0.00     0.274 HD
ATOM     16  H11 UNL     1      -2.828   6.104  13.251  1.00  0.00     0.274 HD
ENDBRANCH  12  13
ENDBRANCH   8  12
ENDBRANCH   1   7
BRANCH   5  17
HETATM   17  C7  UNL     1       5.413   7.067  12.552  1.00  0.00     0.156 C 
HETATM   18  C8  UNL     1       5.547   6.757  11.016  1.00  0.00     0.064 C 
HETATM   19  C9  UNL     1       6.470   7.769  10.334  1.00  0.00    -0.028 C 
HETATM   20  C10 UNL     1       7.851   7.918  10.704  1.00  0.00    -0.030 C 
HETATM   21  C11 UNL     1       8.321   8.927  11.744  1.00  0.00     0.038 C 
HETATM   22  C12 UNL     1       7.621   8.710  13.127  1.00  0.00     0.086 C 
HETATM   23  C13 UNL     1       6.512   7.876  12.885  1.00  0.00    -0.157 C 
ENDBRANCH   5  17
TORSDOF 4
ENDMDL
