MODEL 1
REMARK VINA RESULT: -6.256283576      0.000      0.000
REMARK  4 active torsions:
REMARK  status: ('A' for Active; 'I' for Inactive)
REMARK    1  A    between atoms: C4_7  and  N3_8 
REMARK    2  A    between atoms: N3_8  and  C5_10 
REMARK    3  A    between atoms: C5_10  and  C6_11 
REMARK    4  A    between atoms: N5_20  and  C13_22 
ROOT
HETATM    1  N1  UNL     1      10.345  10.874  12.119  1.00  0.00    -0.191 NA
HETATM    2  C1  UNL     1       9.458  10.137  12.011  1.00  0.00     0.104 C 
HETATM    3  C2  UNL     1       8.345   9.240  11.916  1.00  0.00     0.104 A 
HETATM    4  C3  UNL     1       7.431   9.241  12.980  1.00  0.00     0.132 A 
HETATM    5  N2  UNL     1       6.378   8.421  12.932  1.00  0.00    -0.200 N 
ATOM      6  H2  UNL     1       5.711   8.417  13.704  1.00  0.00     0.183 HD
HETATM    7  C4  UNL     1       6.184   7.598  11.883  1.00  0.00     0.679 A 
HETATM    8  N4  UNL     1       7.036   7.588  10.877  1.00  0.00    -0.175 N 
ATOM      9  H4  UNL     1       6.867   6.955  10.094  1.00  0.00     0.186 HD
HETATM   10  C12 UNL     1       8.157   8.409  10.845  1.00  0.00     0.139 A 
HETATM   11  N5  UNL     1       8.902   8.334   9.861  1.00  0.00    -0.370 N 
ATOM     12  H5  UNL     1       8.531   7.637   9.215  1.00  0.00     0.161 HD
ENDROOT
BRANCH  11  13
HETATM   13  C13 UNL     1      10.041   8.854   9.344  1.00  0.00     0.083 C 
HETATM   14  C14 UNL     1       9.960   9.795   8.150  1.00  0.00     0.025 C 
HETATM   15  C15 UNL     1      11.207   9.104   7.583  1.00  0.00     0.004 C 
HETATM   16  C16 UNL     1      10.836   7.893   8.402  1.00  0.00     0.025 C 
ENDBRANCH  11  13
BRANCH   7  17
HETATM   17  N3  UNL     1       5.134   6.836  11.922  1.00  0.00    -0.226 N 
ATOM     18  H3  UNL     1       4.428   6.961  11.197  1.00  0.00     0.177 HD
BRANCH  17  19
HETATM   19  C5  UNL     1       4.902   5.822  12.925  1.00  0.00     0.142 C 
BRANCH  19  20
HETATM   20  C6  UNL     1       3.439   5.827  13.319  1.00  0.00     0.004 C 
HETATM   21  C7  UNL     1       3.181   4.849  14.426  1.00  0.00     0.006 C 
HETATM   22  C8  UNL     1       2.418   5.510  15.550  1.00  0.00     0.000 C 
HETATM   23  C9  UNL     1       1.162   6.161  15.055  1.00  0.00     0.000 C 
HETATM   24  C10 UNL     1       1.458   7.117  13.917  1.00  0.00     0.000 C 
HETATM   25  C11 UNL     1       2.960   7.181  13.730  1.00  0.00     0.006 C 
ENDBRANCH  19  20
ENDBRANCH  17  19
ENDBRANCH   7  17
TORSDOF 4
ENDMDL
MODEL 2
REMARK VINA RESULT: -6.166637171      1.080      1.197
REMARK  4 active torsions:
REMARK  status: ('A' for Active; 'I' for Inactive)
REMARK    1  A    between atoms: C4_7  and  N3_8 
REMARK    2  A    between atoms: N3_8  and  C5_10 
REMARK    3  A    between atoms: C5_10  and  C6_11 
REMARK    4  A    between atoms: N5_20  and  C13_22 
ROOT
HETATM    1  N1  UNL     1      11.505   9.034  12.526  1.00  0.00    -0.191 NA
HETATM    2  C1  UNL     1      10.394   8.750  12.368  1.00  0.00     0.104 C 
HETATM    3  C2  UNL     1       9.015   8.393  12.217  1.00  0.00     0.104 A 
HETATM    4  C3  UNL     1       8.310   8.058  13.382  1.00  0.00     0.132 A 
HETATM    5  N2  UNL     1       7.022   7.720  13.287  1.00  0.00    -0.200 N 
ATOM      6  H2  UNL     1       6.504   7.475  14.132  1.00  0.00     0.183 HD
HETATM    7  C4  UNL     1       6.395   7.695  12.095  1.00  0.00     0.679 A 
HETATM    8  N4  UNL     1       7.047   8.007  10.992  1.00  0.00    -0.175 N 
ATOM      9  H4  UNL     1       6.549   7.980  10.101  1.00  0.00     0.186 HD
HETATM   10  C12 UNL     1       8.388   8.372  11.000  1.00  0.00     0.139 A 
HETATM   11  N5  UNL     1       8.920   8.648   9.919  1.00  0.00    -0.370 N 
ATOM     12  H5  UNL     1       8.229   8.551   9.174  1.00  0.00     0.161 HD
ENDROOT
BRANCH  11  13
HETATM   13  C13 UNL     1      10.101   9.036   9.379  1.00  0.00     0.083 C 
HETATM   14  C14 UNL     1      10.105   9.870   8.106  1.00  0.00     0.025 C 
HETATM   15  C15 UNL     1      11.304   9.041   7.626  1.00  0.00     0.004 C 
HETATM   16  C16 UNL     1      10.833   7.938   8.541  1.00  0.00     0.025 C 
ENDBRANCH  11  13
BRANCH   7  17
HETATM   17  N3  UNL     1       5.143   7.354  12.098  1.00  0.00    -0.226 N 
ATOM     18  H3  UNL     1       4.480   7.973  11.630  1.00  0.00     0.177 HD
BRANCH  17  19
HETATM   19  C5  UNL     1       4.627   6.156  12.719  1.00  0.00     0.142 C 
BRANCH  19  20
HETATM   20  C6  UNL     1       3.624   6.534  13.789  1.00  0.00     0.004 C 
HETATM   21  C7  UNL     1       2.446   5.605  13.769  1.00  0.00     0.006 C 
HETATM   22  C8  UNL     1       2.167   5.073  15.156  1.00  0.00     0.000 C 
HETATM   23  C9  UNL     1       2.006   6.182  16.151  1.00  0.00     0.000 C 
HETATM   24  C10 UNL     1       3.200   7.117  16.120  1.00  0.00     0.000 C 
HETATM   25  C11 UNL     1       4.223   6.547  15.158  1.00  0.00     0.006 C 
ENDBRANCH  19  20
ENDBRANCH  17  19
ENDBRANCH   7  17
TORSDOF 4
ENDMDL
MODEL 3
REMARK VINA RESULT: -6.029373300      2.092      3.566
REMARK  4 active torsions:
REMARK  status: ('A' for Active; 'I' for Inactive)
REMARK    1  A    between atoms: C4_7  and  N3_8 
REMARK    2  A    between atoms: N3_8  and  C5_10 
REMARK    3  A    between atoms: C5_10  and  C6_11 
REMARK    4  A    between atoms: N5_20  and  C13_22 
ROOT
HETATM    1  N1  UNL     1       8.777   8.234   9.803  1.00  0.00    -0.191 NA
HETATM    2  C1  UNL     1       7.862   7.957  10.458  1.00  0.00     0.104 C 
HETATM    3  C2  UNL     1       6.723   7.580  11.240  1.00  0.00     0.104 A 
HETATM    4  C3  UNL     1       5.986   6.470  10.803  1.00  0.00     0.132 A 
HETATM    5  N2  UNL     1       4.917   6.084  11.502  1.00  0.00    -0.200 N 
ATOM      6  H2  UNL     1       4.377   5.277  11.189  1.00  0.00     0.183 HD
HETATM    7  C4  UNL     1       4.539   6.742  12.616  1.00  0.00     0.679 A 
HETATM    8  N4  UNL     1       5.223   7.787  13.037  1.00  0.00    -0.175 N 
ATOM      9  H4  UNL     1       4.916   8.269  13.883  1.00  0.00     0.186 HD
HETATM   10  C12 UNL     1       6.349   8.256  12.370  1.00  0.00     0.139 A 
HETATM   11  N5  UNL     1       6.929   9.243  12.836  1.00  0.00    -0.370 N 
ATOM     12  H5  UNL     1       6.442   9.548  13.679  1.00  0.00     0.161 HD
ENDROOT
BRANCH  11  13
HETATM   13  C13 UNL     1       7.988  10.060  12.617  1.00  0.00     0.083 C 
HETATM   14  C14 UNL     1       9.108  10.127  13.646  1.00  0.00     0.025 C 
HETATM   15  C15 UNL     1       9.169  11.642  13.407  1.00  0.00     0.004 C 
HETATM   16  C16 UNL     1       7.735  11.567  12.943  1.00  0.00     0.025 C 
ENDBRANCH  11  13
BRANCH   7  17
HETATM   17  N3  UNL     1       3.487   6.296  13.232  1.00  0.00    -0.226 N 
ATOM     18  H3  UNL     1       2.618   6.821  13.130  1.00  0.00     0.177 HD
BRANCH  17  19
HETATM   19  C5  UNL     1       3.466   5.106  14.050  1.00  0.00     0.142 C 
BRANCH  19  20
HETATM   20  C6  UNL     1       2.693   5.382  15.323  1.00  0.00     0.004 C 
HETATM   21  C7  UNL     1       3.210   6.615  16.005  1.00  0.00     0.006 C 
HETATM   22  C8  UNL     1       2.072   7.551  16.339  1.00  0.00     0.000 C 
HETATM   23  C9  UNL     1       1.004   6.862  17.132  1.00  0.00     0.000 C 
HETATM   24  C10 UNL     1       0.530   5.606  16.428  1.00  0.00     0.000 C 
HETATM   25  C11 UNL     1       1.226   5.525  15.084  1.00  0.00     0.006 C 
ENDBRANCH  19  20
ENDBRANCH  17  19
ENDBRANCH   7  17
TORSDOF 4
ENDMDL
MODEL 4
REMARK VINA RESULT: -6.001660982      3.865      5.490
REMARK  4 active torsions:
REMARK  status: ('A' for Active; 'I' for Inactive)
REMARK    1  A    between atoms: C4_7  and  N3_8 
REMARK    2  A    between atoms: N3_8  and  C5_10 
REMARK    3  A    between atoms: C5_10  and  C6_11 
REMARK    4  A    between atoms: N5_20  and  C13_22 
ROOT
HETATM    1  N1  UNL     1      11.436   6.830  15.688  1.00  0.00    -0.191 NA
HETATM    2  C1  UNL     1      10.336   6.793  15.328  1.00  0.00     0.104 C 
HETATM    3  C2  UNL     1       8.983   6.782  14.857  1.00  0.00     0.104 A 
HETATM    4  C3  UNL     1       8.613   7.789  13.953  1.00  0.00     0.132 A 
HETATM    5  N2  UNL     1       7.362   7.816  13.488  1.00  0.00    -0.200 N 
ATOM      6  H2  UNL     1       7.087   8.547  12.830  1.00  0.00     0.183 HD
HETATM    7  C4  UNL     1       6.456   6.896  13.873  1.00  0.00     0.679 A 
HETATM    8  N4  UNL     1       6.791   5.945  14.722  1.00  0.00    -0.175 N 
ATOM      9  H4  UNL     1       6.087   5.260  14.998  1.00  0.00     0.186 HD
HETATM   10  C12 UNL     1       8.072   5.842  15.254  1.00  0.00     0.139 A 
HETATM   11  N5  UNL     1       8.297   4.918  16.044  1.00  0.00    -0.370 N 
ATOM     12  H5  UNL     1       7.447   4.368  16.165  1.00  0.00     0.161 HD
ENDROOT
BRANCH  11  13
HETATM   13  C13 UNL     1       9.283   4.382  16.804  1.00  0.00     0.083 C 
HETATM   14  C14 UNL     1       9.856   3.021  16.437  1.00  0.00     0.025 C 
HETATM   15  C15 UNL     1       9.893   2.687  17.935  1.00  0.00     0.004 C 
HETATM   16  C16 UNL     1       8.799   3.708  18.128  1.00  0.00     0.025 C 
ENDBRANCH  11  13
BRANCH   7  17
HETATM   17  N3  UNL     1       5.264   7.001  13.370  1.00  0.00    -0.226 N 
ATOM     18  H3  UNL     1       4.796   7.904  13.440  1.00  0.00     0.177 HD
BRANCH  17  19
HETATM   19  C5  UNL     1       4.558   5.922  12.717  1.00  0.00     0.142 C 
BRANCH  19  20
HETATM   20  C6  UNL     1       3.174   5.789  13.317  1.00  0.00     0.004 C 
HETATM   21  C7  UNL     1       3.210   4.953  14.563  1.00  0.00     0.006 C 
HETATM   22  C8  UNL     1       2.504   5.661  15.696  1.00  0.00     0.000 C 
HETATM   23  C9  UNL     1       1.111   6.062  15.314  1.00  0.00     0.000 C 
HETATM   24  C10 UNL     1       1.112   6.876  14.036  1.00  0.00     0.000 C 
HETATM   25  C11 UNL     1       2.551   7.111  13.624  1.00  0.00     0.006 C 
ENDBRANCH  19  20
ENDBRANCH  17  19
ENDBRANCH   7  17
TORSDOF 4
ENDMDL
MODEL 5
REMARK VINA RESULT: -5.956296329      2.860      5.060
REMARK  4 active torsions:
REMARK  status: ('A' for Active; 'I' for Inactive)
REMARK    1  A    between atoms: C4_7  and  N3_8 
REMARK    2  A    between atoms: N3_8  and  C5_10 
REMARK    3  A    between atoms: C5_10  and  C6_11 
REMARK    4  A    between atoms: N5_20  and  C13_22 
ROOT
HETATM    1  N1  UNL     1       6.987   5.757  14.925  1.00  0.00    -0.191 NA
HETATM    2  C1  UNL     1       5.925   6.190  14.760  1.00  0.00     0.104 C 
HETATM    3  C2  UNL     1       4.602   6.712  14.596  1.00  0.00     0.104 A 
HETATM    4  C3  UNL     1       3.714   6.551  15.670  1.00  0.00     0.132 A 
HETATM    5  N2  UNL     1       2.470   7.023  15.561  1.00  0.00    -0.200 N 
ATOM      6  H2  UNL     1       1.820   6.908  16.338  1.00  0.00     0.183 HD
HETATM    7  C4  UNL     1       2.059   7.649  14.440  1.00  0.00     0.679 A 
HETATM    8  N4  UNL     1       2.884   7.807  13.424  1.00  0.00    -0.175 N 
ATOM      9  H4  UNL     1       2.549   8.284  12.586  1.00  0.00     0.186 HD
HETATM   10  C12 UNL     1       4.196   7.347  13.454  1.00  0.00     0.139 A 
HETATM   11  N5  UNL     1       4.899   7.539  12.456  1.00  0.00    -0.370 N 
ATOM     12  H5  UNL     1       4.350   8.032  11.751  1.00  0.00     0.161 HD
ENDROOT
BRANCH  11  13
HETATM   13  C13 UNL     1       6.147   7.322  11.972  1.00  0.00     0.083 C 
HETATM   14  C14 UNL     1       7.200   8.414  12.100  1.00  0.00     0.025 C 
HETATM   15  C15 UNL     1       7.675   8.052  10.686  1.00  0.00     0.004 C 
HETATM   16  C16 UNL     1       6.294   7.502  10.427  1.00  0.00     0.025 C 
ENDBRANCH  11  13
BRANCH   7  17
HETATM   17  N3  UNL     1       0.834   8.075  14.423  1.00  0.00    -0.226 N 
ATOM     18  H3  UNL     1       0.668   9.037  14.126  1.00  0.00     0.177 HD
BRANCH  17  19
HETATM   19  C5  UNL     1      -0.311   7.277  14.795  1.00  0.00     0.142 C 
BRANCH  19  20
HETATM   20  C6  UNL     1      -0.776   6.471  13.600  1.00  0.00     0.004 C 
HETATM   21  C7  UNL     1      -0.410   5.024  13.757  1.00  0.00     0.006 C 
HETATM   22  C8  UNL     1      -1.613   4.144  13.511  1.00  0.00     0.000 C 
HETATM   23  C9  UNL     1      -2.248   4.435  12.185  1.00  0.00     0.000 C 
HETATM   24  C10 UNL     1      -2.574   5.909  12.050  1.00  0.00     0.000 C 
HETATM   25  C11 UNL     1      -2.246   6.588  13.365  1.00  0.00     0.006 C 
ENDBRANCH  19  20
ENDBRANCH  17  19
ENDBRANCH   7  17
TORSDOF 4
ENDMDL
