MODEL 1
REMARK VINA RESULT: -7.301513128      0.000      0.000
REMARK  3 active torsions:
REMARK  status: ('A' for Active; 'I' for Inactive)
REMARK    1  A    between atoms: S1_2  and  N1_4 
REMARK    2  A    between atoms: S1_2  and  C6_11 
REMARK    3  A    between atoms: N1_4  and  C1_6 
ROOT
HETATM    1  N1  UNL     1      -2.998  -5.077  16.442  1.00  0.00    -0.309 N 
ATOM      2  H1  UNL     1      -2.253  -5.774  16.425  1.00  0.00     0.173 HD
ENDROOT
BRANCH   1   3
HETATM    3  S1  UNL     1      -2.751  -3.712  15.549  1.00  0.00     0.231 S 
HETATM    4  O1  UNL     1      -3.653  -3.775  14.316  1.00  0.00    -0.206 OA
HETATM    5  O2  UNL     1      -1.351  -3.428  15.114  1.00  0.00    -0.206 OA
BRANCH   3   6
HETATM    6  C6  UNL     1      -3.283  -2.268  16.441  1.00  0.00     0.129 A 
HETATM    7  C7  UNL     1      -3.629  -1.007  15.722  1.00  0.00     0.023 A 
HETATM    8  C8  UNL     1      -4.707  -1.871  16.251  1.00  0.00     0.023 A 
ENDBRANCH   3   6
ENDBRANCH   1   3
BRANCH   1   9
HETATM    9  C1  UNL     1      -4.090  -5.373  17.199  1.00  0.00     0.044 A 
HETATM   10  C2  UNL     1      -5.527  -5.202  16.882  1.00  0.00     0.032 A 
HETATM   11  C3  UNL     1      -5.904  -6.487  17.633  1.00  0.00     0.010 A 
HETATM   12  C4  UNL     1      -4.425  -6.711  17.854  1.00  0.00     0.017 A 
HETATM   13  C5  UNL     1      -3.767  -5.674  18.683  1.00  0.00     0.039 A 
ENDBRANCH   1   9
TORSDOF 3
ENDMDL
MODEL 2
REMARK VINA RESULT: -7.072108224      2.508      3.001
REMARK  3 active torsions:
REMARK  status: ('A' for Active; 'I' for Inactive)
REMARK    1  A    between atoms: S1_2  and  N1_4 
REMARK    2  A    between atoms: S1_2  and  C6_11 
REMARK    3  A    between atoms: N1_4  and  C1_6 
ROOT
HETATM    1  N1  UNL     1      -5.547  -5.495  16.721  1.00  0.00    -0.309 N 
ATOM      2  H1  UNL     1      -5.616  -5.329  15.717  1.00  0.00     0.173 HD
ENDROOT
BRANCH   1   3
HETATM    3  S1  UNL     1      -4.087  -5.182  17.422  1.00  0.00     0.231 S 
HETATM    4  O1  UNL     1      -3.059  -6.156  16.846  1.00  0.00    -0.206 OA
HETATM    5  O2  UNL     1      -4.024  -5.235  18.914  1.00  0.00    -0.206 OA
BRANCH   3   6
HETATM    6  C6  UNL     1      -3.501  -3.565  16.971  1.00  0.00     0.129 A 
HETATM    7  C7  UNL     1      -3.407  -3.155  15.539  1.00  0.00     0.023 A 
HETATM    8  C8  UNL     1      -4.514  -2.646  16.378  1.00  0.00     0.023 A 
ENDBRANCH   3   6
ENDBRANCH   1   3
BRANCH   1   9
HETATM    9  C1  UNL     1      -6.671  -5.951  17.341  1.00  0.00     0.044 A 
HETATM   10  C2  UNL     1      -7.629  -5.222  18.204  1.00  0.00     0.032 A 
HETATM   11  C3  UNL     1      -8.819  -6.022  17.654  1.00  0.00     0.010 A 
HETATM   12  C4  UNL     1      -7.849  -6.679  16.698  1.00  0.00     0.017 A 
HETATM   13  C5  UNL     1      -6.801  -7.494  17.357  1.00  0.00     0.039 A 
ENDBRANCH   1   9
TORSDOF 3
ENDMDL
MODEL 3
REMARK VINA RESULT: -6.918681589      2.233      4.341
REMARK  3 active torsions:
REMARK  status: ('A' for Active; 'I' for Inactive)
REMARK    1  A    between atoms: S1_2  and  N1_4 
REMARK    2  A    between atoms: S1_2  and  C6_11 
REMARK    3  A    between atoms: N1_4  and  C1_6 
ROOT
HETATM    1  N1  UNL     1      -3.029  -3.789  17.487  1.00  0.00    -0.309 N 
ATOM      2  H1  UNL     1      -2.277  -3.355  18.023  1.00  0.00     0.173 HD
ENDROOT
BRANCH   1   3
HETATM    3  S1  UNL     1      -3.487  -5.304  17.953  1.00  0.00     0.231 S 
HETATM    4  O1  UNL     1      -2.854  -5.601  19.313  1.00  0.00    -0.206 OA
HETATM    5  O2  UNL     1      -3.177  -6.426  17.017  1.00  0.00    -0.206 OA
BRANCH   3   6
HETATM    6  C6  UNL     1      -5.242  -5.377  18.231  1.00  0.00     0.129 A 
HETATM    7  C7  UNL     1      -6.204  -5.230  17.099  1.00  0.00     0.023 A 
HETATM    8  C8  UNL     1      -5.942  -6.569  17.672  1.00  0.00     0.023 A 
ENDBRANCH   3   6
ENDBRANCH   1   3
BRANCH   1   9
HETATM    9  C1  UNL     1      -3.547  -3.057  16.463  1.00  0.00     0.044 A 
HETATM   10  C2  UNL     1      -4.445  -1.880  16.510  1.00  0.00     0.032 A 
HETATM   11  C3  UNL     1      -3.761  -1.239  15.294  1.00  0.00     0.010 A 
HETATM   12  C4  UNL     1      -2.780  -2.389  15.324  1.00  0.00     0.017 A 
HETATM   13  C5  UNL     1      -3.387  -3.718  15.071  1.00  0.00     0.039 A 
ENDBRANCH   1   9
TORSDOF 3
ENDMDL
MODEL 4
REMARK VINA RESULT: -6.871077807      2.072      2.544
REMARK  3 active torsions:
REMARK  status: ('A' for Active; 'I' for Inactive)
REMARK    1  A    between atoms: S1_2  and  N1_4 
REMARK    2  A    between atoms: S1_2  and  C6_11 
REMARK    3  A    between atoms: N1_4  and  C1_6 
ROOT
HETATM    1  N1  UNL     1      -4.697  -5.218  18.123  1.00  0.00    -0.309 N 
ATOM      2  H1  UNL     1      -4.999  -4.755  18.980  1.00  0.00     0.173 HD
ENDROOT
BRANCH   1   3
HETATM    3  S1  UNL     1      -3.152  -4.920  17.629  1.00  0.00     0.231 S 
HETATM    4  O1  UNL     1      -2.732  -6.031  16.666  1.00  0.00    -0.206 OA
HETATM    5  O2  UNL     1      -2.112  -4.780  18.693  1.00  0.00    -0.206 OA
BRANCH   3   6
HETATM    6  C6  UNL     1      -3.071  -3.421  16.674  1.00  0.00     0.129 A 
HETATM    7  C7  UNL     1      -3.708  -3.335  15.327  1.00  0.00     0.023 A 
HETATM    8  C8  UNL     1      -4.359  -2.694  16.490  1.00  0.00     0.023 A 
ENDBRANCH   3   6
ENDBRANCH   1   3
BRANCH   1   9
HETATM    9  C1  UNL     1      -5.612  -6.018  17.509  1.00  0.00     0.044 A 
HETATM   10  C2  UNL     1      -5.654  -7.496  17.414  1.00  0.00     0.032 A 
HETATM   11  C3  UNL     1      -7.187  -7.514  17.506  1.00  0.00     0.010 A 
HETATM   12  C4  UNL     1      -7.125  -6.018  17.715  1.00  0.00     0.017 A 
HETATM   13  C5  UNL     1      -6.577  -5.262  16.563  1.00  0.00     0.039 A 
ENDBRANCH   1   9
TORSDOF 3
ENDMDL
MODEL 5
REMARK VINA RESULT: -6.793292727      2.545      4.496
REMARK  3 active torsions:
REMARK  status: ('A' for Active; 'I' for Inactive)
REMARK    1  A    between atoms: S1_2  and  N1_4 
REMARK    2  A    between atoms: S1_2  and  C6_11 
REMARK    3  A    between atoms: N1_4  and  C1_6 
ROOT
HETATM    1  N1  UNL     1      -3.306  -4.517  17.167  1.00  0.00    -0.309 N 
ATOM      2  H1  UNL     1      -2.318  -4.484  17.420  1.00  0.00     0.173 HD
ENDROOT
BRANCH   1   3
HETATM    3  S1  UNL     1      -4.200  -5.728  17.841  1.00  0.00     0.231 S 
HETATM    4  O1  UNL     1      -4.479  -5.366  19.300  1.00  0.00    -0.206 OA
HETATM    5  O2  UNL     1      -3.629  -7.108  17.783  1.00  0.00    -0.206 OA
BRANCH   3   6
HETATM    6  C6  UNL     1      -5.801  -5.836  17.073  1.00  0.00     0.129 A 
HETATM    7  C7  UNL     1      -6.794  -6.861  17.510  1.00  0.00     0.023 A 
HETATM    8  C8  UNL     1      -6.961  -5.452  17.928  1.00  0.00     0.023 A 
ENDBRANCH   3   6
ENDBRANCH   1   3
BRANCH   1   9
HETATM    9  C1  UNL     1      -3.746  -3.556  16.309  1.00  0.00     0.044 A 
HETATM   10  C2  UNL     1      -4.710  -2.456  16.545  1.00  0.00     0.032 A 
HETATM   11  C3  UNL     1      -3.930  -1.501  15.630  1.00  0.00     0.010 A 
HETATM   12  C4  UNL     1      -2.894  -2.592  15.486  1.00  0.00     0.017 A 
HETATM   13  C5  UNL     1      -3.391  -3.823  14.825  1.00  0.00     0.039 A 
ENDBRANCH   1   9
TORSDOF 3
ENDMDL
