MODEL 1
REMARK VINA RESULT: -9.016234983      0.000      0.000
REMARK  10 active torsions:
REMARK  status: ('A' for Active; 'I' for Inactive)
REMARK    1  A    between atoms: C2_9  and  S1_10 
REMARK    2  A    between atoms: S1_10  and  C3_11 
REMARK    3  A    between atoms: C3_11  and  C4_12 
REMARK    4  A    between atoms: C4_12  and  C5_13 
REMARK    5  A    between atoms: C5_13  and  C6_14 
REMARK    6  A    between atoms: C6_14  and  N5_15 
REMARK    7  A    between atoms: C6_14  and  C7_19 
REMARK       I    between atoms: C7_19  and  N6_21 
REMARK       I    between atoms: N6_21  and  C8_23 
REMARK       I    between atoms: C8_23  and  N7_24 
REMARK       I    between atoms: C8_23  and  N8_28 
REMARK    8  A    between atoms: N9_32  and  N10_34 
REMARK    9  A    between atoms: C9_35  and  C10_36 
REMARK   10  A    between atoms: C14_42  and  N12_43 
ROOT
HETATM    1  C4  UNL     1       7.900 -24.130 -29.921  1.00  0.00     0.016 C 
HETATM    2  N9  UNL     1       7.733 -23.842 -31.170  1.00  0.00    -0.297 N 
ATOM      3  H9  UNL     1       8.185 -23.002 -31.528  1.00  0.00     0.187 HD
ENDROOT
BRANCH   1   4
HETATM    4  C3  UNL     1       8.733 -23.237 -29.102  1.00  0.00     0.136 C 
BRANCH   4   5
HETATM    5  S1  UNL     1       8.357 -23.319 -27.340  1.00  0.00    -0.085 SA
BRANCH   5   6
HETATM    6  C2  UNL     1       9.772 -23.103 -26.320  1.00  0.00     0.178 A 
HETATM    7  N1  UNL     1       9.958 -21.979 -25.566  1.00  0.00    -0.259 N 
HETATM    8  C1  UNL     1       9.081 -20.836 -25.462  1.00  0.00     0.181 C 
HETATM    9  N2  UNL     1      11.096 -22.083 -24.919  1.00  0.00    -0.224 N 
HETATM   10  N3  UNL     1      11.650 -23.239 -25.233  1.00  0.00    -0.226 N 
ATOM     11  H2  UNL     1      11.486 -21.389 -24.281  1.00  0.00     0.210 HD
HETATM   12  N4  UNL     1      10.837 -23.854 -26.087  1.00  0.00    -0.263 N 
ATOM     13  H3  UNL     1      12.540 -23.596 -24.884  1.00  0.00     0.210 HD
ATOM     14  H4  UNL     1      11.008 -24.771 -26.501  1.00  0.00     0.190 HD
ENDBRANCH   5   6
ENDBRANCH   4   5
ENDBRANCH   1   4
BRANCH   1  15
HETATM   15  C5  UNL     1       7.302 -25.345 -29.386  1.00  0.00     0.097 C 
BRANCH  15  16
HETATM   16  C6  UNL     1       8.076 -26.604 -29.488  1.00  0.00     0.280 C 
BRANCH  16  17
HETATM   17  N5  UNL     1       7.431 -27.721 -30.090  1.00  0.00    -0.066 N 
ATOM     18  H53 UNL     1       6.665 -28.032 -29.493  1.00  0.00     0.275 HD
ATOM     19  H52 UNL     1       6.916 -27.411 -30.914  1.00  0.00     0.275 HD
ATOM     20  H51 UNL     1       8.014 -28.521 -30.338  1.00  0.00     0.275 HD
ENDBRANCH  16  17
BRANCH  16  21
HETATM   21  C7  UNL     1       8.791 -26.990 -28.219  1.00  0.00     0.251 C 
HETATM   22  O1  UNL     1       8.173 -27.043 -27.123  1.00  0.00    -0.271 OA
HETATM   23  N6  UNL     1      10.171 -27.307 -28.210  1.00  0.00    -0.310 N 
HETATM   24  C8  UNL     1      10.824 -27.671 -26.990  1.00  0.00     0.482 C 
ATOM     25  H6  UNL     1      10.703 -27.276 -29.080  1.00  0.00     0.166 HD
HETATM   26  N7  UNL     1      11.965 -26.842 -26.669  1.00  0.00    -0.033 N 
HETATM   27  N8  UNL     1      11.323 -29.042 -27.148  1.00  0.00    -0.033 N 
ATOM     28  H73 UNL     1      12.630 -26.830 -27.443  1.00  0.00     0.278 HD
ATOM     29  H72 UNL     1      11.701 -25.857 -26.655  1.00  0.00     0.278 HD
ATOM     30  H71 UNL     1      12.431 -27.101 -25.800  1.00  0.00     0.278 HD
ATOM     31  H83 UNL     1      10.594 -29.702 -27.420  1.00  0.00     0.278 HD
ATOM     32  H82 UNL     1      11.921 -29.156 -27.967  1.00  0.00     0.278 HD
ATOM     33  H81 UNL     1      11.789 -29.301 -26.278  1.00  0.00     0.278 HD
ENDBRANCH  16  21
ENDBRANCH  15  16
ENDBRANCH   1  15
BRANCH   2  34
HETATM   34  N10 UNL     1       6.968 -24.608 -32.068  1.00  0.00    -0.210 N 
HETATM   35  C9  UNL     1       5.631 -24.478 -32.251  1.00  0.00     0.157 A 
HETATM   36  N14 UNL     1       5.322 -25.381 -33.218  1.00  0.00    -0.281 N 
HETATM   37  N15 UNL     1       6.395 -26.010 -33.588  1.00  0.00    -0.273 N 
ATOM     38  H14 UNL     1       4.388 -25.542 -33.595  1.00  0.00     0.188 HD
HETATM   39  C17 UNL     1       7.471 -25.554 -32.884  1.00  0.00     0.214 A 
ATOM     40  H15 UNL     1       6.428 -26.738 -34.301  1.00  0.00     0.189 HD
HETATM   41  S2  UNL     1       9.005 -26.101 -33.035  1.00  0.00    -0.037 SA
BRANCH  35  42
HETATM   42  C10 UNL     1       4.684 -23.580 -31.585  1.00  0.00     0.040 A 
HETATM   43  C11 UNL     1       4.627 -23.141 -30.297  1.00  0.00     0.104 A 
HETATM   44  N11 UNL     1       3.582 -22.291 -30.125  1.00  0.00    -0.364 N 
HETATM   45  C12 UNL     1       2.929 -22.155 -31.304  1.00  0.00     0.048 A 
ATOM     46  H11 UNL     1       3.331 -21.830 -29.250  1.00  0.00     0.165 HD
HETATM   47  C13 UNL     1       1.826 -21.431 -31.693  1.00  0.00     0.078 A 
HETATM   48  C16 UNL     1       3.610 -22.957 -32.223  1.00  0.00     0.021 A 
HETATM   49  C14 UNL     1       1.372 -21.482 -32.984  1.00  0.00     0.100 A 
HETATM   50  N13 UNL     1       2.013 -22.242 -33.869  1.00  0.00    -0.352 N 
HETATM   51  C15 UNL     1       3.092 -22.954 -33.503  1.00  0.00     0.104 A 
ATOM     52  H13 UNL     1       1.681 -22.285 -34.833  1.00  0.00     0.166 HD
BRANCH  49  53
HETATM   53  N12 UNL     1       0.322 -20.799 -33.370  1.00  0.00    -0.385 N 
ATOM     54 2H12 UNL     1      -0.407 -20.581 -32.691  1.00  0.00     0.157 HD
ATOM     55 1H12 UNL     1       0.217 -20.480 -34.333  1.00  0.00     0.157 HD
ENDBRANCH  49  53
ENDBRANCH  35  42
ENDBRANCH   2  34
TORSDOF 10
ENDMDL
MODEL 2
REMARK VINA RESULT: -8.956306060      1.138      1.390
REMARK  10 active torsions:
REMARK  status: ('A' for Active; 'I' for Inactive)
REMARK    1  A    between atoms: C2_9  and  S1_10 
REMARK    2  A    between atoms: S1_10  and  C3_11 
REMARK    3  A    between atoms: C3_11  and  C4_12 
REMARK    4  A    between atoms: C4_12  and  C5_13 
REMARK    5  A    between atoms: C5_13  and  C6_14 
REMARK    6  A    between atoms: C6_14  and  N5_15 
REMARK    7  A    between atoms: C6_14  and  C7_19 
REMARK       I    between atoms: C7_19  and  N6_21 
REMARK       I    between atoms: N6_21  and  C8_23 
REMARK       I    between atoms: C8_23  and  N7_24 
REMARK       I    between atoms: C8_23  and  N8_28 
REMARK    8  A    between atoms: N9_32  and  N10_34 
REMARK    9  A    between atoms: C9_35  and  C10_36 
REMARK   10  A    between atoms: C14_42  and  N12_43 
ROOT
HETATM    1  C4  UNL     1       7.827 -24.001 -29.542  1.00  0.00     0.016 C 
HETATM    2  N9  UNL     1       7.408 -23.413 -30.614  1.00  0.00    -0.297 N 
ATOM      3  H9  UNL     1       7.849 -22.531 -30.875  1.00  0.00     0.187 HD
ENDROOT
BRANCH   1   4
HETATM    4  C3  UNL     1       8.910 -23.369 -28.774  1.00  0.00     0.136 C 
BRANCH   4   5
HETATM    5  S1  UNL     1       8.521 -23.156 -27.026  1.00  0.00    -0.085 SA
BRANCH   5   6
HETATM    6  C2  UNL     1       9.941 -22.862 -26.032  1.00  0.00     0.178 A 
HETATM    7  N1  UNL     1      10.089 -21.719 -25.299  1.00  0.00    -0.259 N 
HETATM    8  C1  UNL     1       9.165 -20.614 -25.199  1.00  0.00     0.181 C 
HETATM    9  N2  UNL     1      11.241 -21.764 -24.669  1.00  0.00    -0.224 N 
HETATM   10  N3  UNL     1      11.840 -22.900 -24.973  1.00  0.00    -0.226 N 
ATOM     11  H2  UNL     1      11.610 -21.042 -24.048  1.00  0.00     0.210 HD
HETATM   12  N4  UNL     1      11.041 -23.563 -25.804  1.00  0.00    -0.263 N 
ATOM     13  H3  UNL     1      12.749 -23.212 -24.633  1.00  0.00     0.210 HD
ATOM     14  H4  UNL     1      11.246 -24.478 -26.207  1.00  0.00     0.190 HD
ENDBRANCH   5   6
ENDBRANCH   4   5
ENDBRANCH   1   4
BRANCH   1  15
HETATM   15  C5  UNL     1       7.248 -25.282 -29.162  1.00  0.00     0.097 C 
BRANCH  15  16
HETATM   16  C6  UNL     1       8.066 -26.501 -29.364  1.00  0.00     0.280 C 
BRANCH  16  17
HETATM   17  N5  UNL     1       7.459 -27.589 -30.052  1.00  0.00    -0.066 N 
ATOM     18  H53 UNL     1       6.658 -27.249 -30.584  1.00  0.00     0.275 HD
ATOM     19  H52 UNL     1       8.072 -27.897 -30.806  1.00  0.00     0.275 HD
ATOM     20  H51 UNL     1       7.177 -28.396 -29.495  1.00  0.00     0.275 HD
ENDBRANCH  16  17
BRANCH  16  21
HETATM   21  C7  UNL     1       8.799 -26.960 -28.130  1.00  0.00     0.251 C 
HETATM   22  O1  UNL     1       8.188 -27.116 -27.040  1.00  0.00    -0.271 OA
HETATM   23  N6  UNL     1      10.188 -27.234 -28.149  1.00  0.00    -0.310 N 
HETATM   24  C8  UNL     1      10.858 -27.669 -26.962  1.00  0.00     0.482 C 
ATOM     25  H6  UNL     1      10.714 -27.120 -29.015  1.00  0.00     0.166 HD
HETATM   26  N7  UNL     1      11.974 -26.832 -26.581  1.00  0.00    -0.033 N 
HETATM   27  N8  UNL     1      11.398 -29.008 -27.224  1.00  0.00    -0.033 N 
ATOM     28  H73 UNL     1      12.634 -26.741 -27.354  1.00  0.00     0.278 HD
ATOM     29  H72 UNL     1      11.680 -25.859 -26.492  1.00  0.00     0.278 HD
ATOM     30  H71 UNL     1      12.452 -27.142 -25.735  1.00  0.00     0.278 HD
ATOM     31  H83 UNL     1      10.689 -29.667 -27.545  1.00  0.00     0.278 HD
ATOM     32  H82 UNL     1      11.995 -29.041 -28.052  1.00  0.00     0.278 HD
ATOM     33  H81 UNL     1      11.876 -29.318 -26.378  1.00  0.00     0.278 HD
ENDBRANCH  16  21
ENDBRANCH  15  16
ENDBRANCH   1  15
BRANCH   2  34
HETATM   34  N10 UNL     1       6.386 -23.905 -31.445  1.00  0.00    -0.210 N 
HETATM   35  C9  UNL     1       5.068 -23.623 -31.299  1.00  0.00     0.157 A 
HETATM   36  N14 UNL     1       4.456 -24.276 -32.322  1.00  0.00    -0.281 N 
HETATM   37  N15 UNL     1       5.342 -24.906 -33.031  1.00  0.00    -0.273 N 
ATOM     38  H14 UNL     1       3.453 -24.272 -32.505  1.00  0.00     0.188 HD
HETATM   39  C17 UNL     1       6.588 -24.702 -32.513  1.00  0.00     0.214 A 
ATOM     40  H15 UNL     1       5.136 -25.471 -33.855  1.00  0.00     0.189 HD
HETATM   41  S2  UNL     1       7.975 -25.339 -33.099  1.00  0.00    -0.037 SA
BRANCH  35  42
HETATM   42  C10 UNL     1       4.399 -22.804 -30.286  1.00  0.00     0.040 A 
HETATM   43  C11 UNL     1       4.758 -22.497 -29.008  1.00  0.00     0.104 A 
HETATM   44  N11 UNL     1       3.841 -21.676 -28.435  1.00  0.00    -0.364 N 
HETATM   45  C12 UNL     1       2.856 -21.427 -29.331  1.00  0.00     0.048 A 
ATOM     46  H11 UNL     1       3.886 -21.307 -27.485  1.00  0.00     0.165 HD
HETATM   47  C13 UNL     1       1.704 -20.676 -29.282  1.00  0.00     0.078 A 
HETATM   48  C16 UNL     1       3.195 -22.127 -30.491  1.00  0.00     0.021 A 
HETATM   49  C14 UNL     1       0.869 -20.599 -30.365  1.00  0.00     0.100 A 
HETATM   50  N13 UNL     1       1.181 -21.262 -31.476  1.00  0.00    -0.352 N 
HETATM   51  C15 UNL     1       2.304 -22.000 -31.538  1.00  0.00     0.104 A 
ATOM     52  H13 UNL     1       0.565 -21.211 -32.286  1.00  0.00     0.166 HD
BRANCH  49  53
HETATM   53  N12 UNL     1      -0.232 -19.889 -30.334  1.00  0.00    -0.385 N 
ATOM     54 2H12 UNL     1      -0.245 -18.972 -30.782  1.00  0.00     0.157 HD
ATOM     55 1H12 UNL     1      -1.075 -20.230 -29.873  1.00  0.00     0.157 HD
ENDBRANCH  49  53
ENDBRANCH  35  42
ENDBRANCH   2  34
TORSDOF 10
ENDMDL
MODEL 3
REMARK VINA RESULT: -8.826655504      2.181      3.312
REMARK  10 active torsions:
REMARK  status: ('A' for Active; 'I' for Inactive)
REMARK    1  A    between atoms: C2_9  and  S1_10 
REMARK    2  A    between atoms: S1_10  and  C3_11 
REMARK    3  A    between atoms: C3_11  and  C4_12 
REMARK    4  A    between atoms: C4_12  and  C5_13 
REMARK    5  A    between atoms: C5_13  and  C6_14 
REMARK    6  A    between atoms: C6_14  and  N5_15 
REMARK    7  A    between atoms: C6_14  and  C7_19 
REMARK       I    between atoms: C7_19  and  N6_21 
REMARK       I    between atoms: N6_21  and  C8_23 
REMARK       I    between atoms: C8_23  and  N7_24 
REMARK       I    between atoms: C8_23  and  N8_28 
REMARK    8  A    between atoms: N9_32  and  N10_34 
REMARK    9  A    between atoms: C9_35  and  C10_36 
REMARK   10  A    between atoms: C14_42  and  N12_43 
ROOT
HETATM    1  C4  UNL     1       9.059 -24.968 -28.099  1.00  0.00     0.016 C 
HETATM    2  N9  UNL     1       8.671 -24.364 -29.174  1.00  0.00    -0.297 N 
ATOM      3  H9  UNL     1       9.158 -23.509 -29.441  1.00  0.00     0.187 HD
ENDROOT
BRANCH   1   4
HETATM    4  C3  UNL     1      10.176 -24.390 -27.336  1.00  0.00     0.136 C 
BRANCH   4   5
HETATM    5  S1  UNL     1       9.840 -22.731 -26.714  1.00  0.00    -0.085 SA
BRANCH   5   6
HETATM    6  C2  UNL     1      10.490 -22.451 -25.104  1.00  0.00     0.178 A 
HETATM    7  N1  UNL     1      10.083 -21.401 -24.331  1.00  0.00    -0.259 N 
HETATM    8  C1  UNL     1       9.099 -20.397 -24.660  1.00  0.00     0.181 C 
HETATM    9  N2  UNL     1      10.739 -21.432 -23.193  1.00  0.00    -0.224 N 
HETATM   10  N3  UNL     1      11.556 -22.468 -23.210  1.00  0.00    -0.226 N 
ATOM     11  H2  UNL     1      10.634 -20.767 -22.426  1.00  0.00     0.210 HD
HETATM   12  N4  UNL     1      11.398 -23.084 -24.378  1.00  0.00    -0.263 N 
ATOM     13  H3  UNL     1      12.193 -22.745 -22.463  1.00  0.00     0.210 HD
ATOM     14  H4  UNL     1      11.903 -23.921 -24.671  1.00  0.00     0.190 HD
ENDBRANCH   5   6
ENDBRANCH   4   5
ENDBRANCH   1   4
BRANCH   1  15
HETATM   15  C5  UNL     1       8.412 -26.213 -27.711  1.00  0.00     0.097 C 
BRANCH  15  16
HETATM   16  C6  UNL     1       9.226 -27.451 -27.721  1.00  0.00     0.280 C 
BRANCH  16  17
HETATM   17  N5  UNL     1      10.614 -27.318 -28.006  1.00  0.00    -0.066 N 
ATOM     18  H53 UNL     1      11.066 -26.799 -27.254  1.00  0.00     0.275 HD
ATOM     19  H52 UNL     1      11.067 -28.227 -27.909  1.00  0.00     0.275 HD
ATOM     20  H51 UNL     1      10.871 -26.906 -28.903  1.00  0.00     0.275 HD
ENDBRANCH  16  17
BRANCH  16  21
HETATM   21  C7  UNL     1       8.604 -28.588 -28.491  1.00  0.00     0.251 C 
HETATM   22  O1  UNL     1       9.106 -29.742 -28.451  1.00  0.00    -0.271 OA
HETATM   23  N6  UNL     1       7.443 -28.405 -29.278  1.00  0.00    -0.310 N 
HETATM   24  C8  UNL     1       6.874 -29.502 -29.999  1.00  0.00     0.482 C 
ATOM     25  H6  UNL     1       7.008 -27.484 -29.333  1.00  0.00     0.166 HD
HETATM   26  N7  UNL     1       6.743 -29.264 -31.419  1.00  0.00    -0.033 N 
HETATM   27  N8  UNL     1       5.519 -29.719 -29.476  1.00  0.00    -0.033 N 
ATOM     28  H73 UNL     1       6.216 -28.407 -31.593  1.00  0.00     0.278 HD
ATOM     29  H72 UNL     1       7.641 -28.996 -31.823  1.00  0.00     0.278 HD
ATOM     30  H71 UNL     1       6.338 -30.046 -31.933  1.00  0.00     0.278 HD
ATOM     31  H83 UNL     1       5.500 -29.855 -28.465  1.00  0.00     0.278 HD
ATOM     32  H82 UNL     1       4.941 -28.880 -29.510  1.00  0.00     0.278 HD
ATOM     33  H81 UNL     1       5.114 -30.502 -29.990  1.00  0.00     0.278 HD
ENDBRANCH  16  21
ENDBRANCH  15  16
ENDBRANCH   1  15
BRANCH   2  34
HETATM   34  N10 UNL     1       7.622 -24.805 -30.000  1.00  0.00    -0.210 N 
HETATM   35  C9  UNL     1       6.318 -24.470 -29.839  1.00  0.00     0.157 A 
HETATM   36  N14 UNL     1       5.670 -25.086 -30.862  1.00  0.00    -0.281 N 
HETATM   37  N15 UNL     1       6.523 -25.744 -31.586  1.00  0.00    -0.273 N 
ATOM     38  H14 UNL     1       4.666 -25.039 -31.036  1.00  0.00     0.188 HD
HETATM   39  C17 UNL     1       7.781 -25.598 -31.078  1.00  0.00     0.214 A 
ATOM     40  H15 UNL     1       6.287 -26.291 -32.414  1.00  0.00     0.189 HD
HETATM   41  S2  UNL     1       9.135 -26.284 -31.683  1.00  0.00    -0.037 SA
BRANCH  35  42
HETATM   42  C10 UNL     1       5.692 -23.635 -28.811  1.00  0.00     0.040 A 
HETATM   43  C11 UNL     1       5.785 -23.674 -27.452  1.00  0.00     0.104 A 
HETATM   44  N11 UNL     1       5.047 -22.683 -26.891  1.00  0.00    -0.364 N 
HETATM   45  C12 UNL     1       4.450 -21.970 -27.876  1.00  0.00     0.048 A 
ATOM     46  H11 UNL     1       4.956 -22.504 -25.891  1.00  0.00     0.165 HD
HETATM   47  C13 UNL     1       3.610 -20.880 -27.876  1.00  0.00     0.078 A 
HETATM   48  C16 UNL     1       4.848 -22.557 -29.080  1.00  0.00     0.021 A 
HETATM   49  C14 UNL     1       3.147 -20.350 -29.051  1.00  0.00     0.100 A 
HETATM   50  N13 UNL     1       3.518 -20.901 -30.204  1.00  0.00    -0.352 N 
HETATM   51  C15 UNL     1       4.339 -21.966 -30.219  1.00  0.00     0.104 A 
ATOM     52  H13 UNL     1       3.177 -20.512 -31.083  1.00  0.00     0.166 HD
BRANCH  49  53
HETATM   53  N12 UNL     1       2.345 -19.313 -29.068  1.00  0.00    -0.385 N 
ATOM     54 2H12 UNL     1       2.727 -18.387 -28.873  1.00  0.00     0.157 HD
ATOM     55 1H12 UNL     1       1.351 -19.410 -29.270  1.00  0.00     0.157 HD
ENDBRANCH  49  53
ENDBRANCH  35  42
ENDBRANCH   2  34
TORSDOF 10
ENDMDL
MODEL 4
REMARK VINA RESULT: -8.699108290      2.721      5.121
REMARK  10 active torsions:
REMARK  status: ('A' for Active; 'I' for Inactive)
REMARK    1  A    between atoms: C2_9  and  S1_10 
REMARK    2  A    between atoms: S1_10  and  C3_11 
REMARK    3  A    between atoms: C3_11  and  C4_12 
REMARK    4  A    between atoms: C4_12  and  C5_13 
REMARK    5  A    between atoms: C5_13  and  C6_14 
REMARK    6  A    between atoms: C6_14  and  N5_15 
REMARK    7  A    between atoms: C6_14  and  C7_19 
REMARK       I    between atoms: C7_19  and  N6_21 
REMARK       I    between atoms: N6_21  and  C8_23 
REMARK       I    between atoms: C8_23  and  N7_24 
REMARK       I    between atoms: C8_23  and  N8_28 
REMARK    8  A    between atoms: N9_32  and  N10_34 
REMARK    9  A    between atoms: C9_35  and  C10_36 
REMARK   10  A    between atoms: C14_42  and  N12_43 
ROOT
HETATM    1  C4  UNL     1       8.462 -26.277 -30.523  1.00  0.00     0.016 C 
HETATM    2  N9  UNL     1       8.270 -27.428 -31.078  1.00  0.00    -0.297 N 
ATOM      3  H9  UNL     1       9.075 -27.894 -31.496  1.00  0.00     0.187 HD
ENDROOT
BRANCH   1   4
HETATM    4  C3  UNL     1       9.822 -25.717 -30.523  1.00  0.00     0.136 C 
BRANCH   4   5
HETATM    5  S1  UNL     1      10.191 -24.725 -29.063  1.00  0.00    -0.085 SA
BRANCH   5   6
HETATM    6  C2  UNL     1      10.829 -25.672 -27.726  1.00  0.00     0.178 A 
HETATM    7  N1  UNL     1      10.059 -26.020 -26.652  1.00  0.00    -0.259 N 
HETATM    8  C1  UNL     1       8.666 -25.709 -26.432  1.00  0.00     0.181 C 
HETATM    9  N2  UNL     1      10.792 -26.710 -25.808  1.00  0.00    -0.224 N 
HETATM   10  N3  UNL     1      12.011 -26.816 -26.304  1.00  0.00    -0.226 N 
ATOM     11  H2  UNL     1      10.474 -27.099 -24.920  1.00  0.00     0.210 HD
HETATM   12  N4  UNL     1      12.024 -26.180 -27.472  1.00  0.00    -0.263 N 
ATOM     13  H3  UNL     1      12.798 -27.297 -25.870  1.00  0.00     0.210 HD
ATOM     14  H4  UNL     1      12.837 -26.098 -28.084  1.00  0.00     0.190 HD
ENDBRANCH   5   6
ENDBRANCH   4   5
ENDBRANCH   1   4
BRANCH   1  15
HETATM   15  C5  UNL     1       7.342 -25.602 -29.880  1.00  0.00     0.097 C 
BRANCH  15  16
HETATM   16  C6  UNL     1       6.674 -24.507 -30.621  1.00  0.00     0.280 C 
BRANCH  16  17
HETATM   17  N5  UNL     1       7.402 -23.896 -31.681  1.00  0.00    -0.066 N 
ATOM     18  H53 UNL     1       8.152 -24.519 -31.980  1.00  0.00     0.275 HD
ATOM     19  H52 UNL     1       6.824 -23.878 -32.521  1.00  0.00     0.275 HD
ATOM     20  H51 UNL     1       7.782 -22.964 -31.513  1.00  0.00     0.275 HD
ENDBRANCH  16  17
BRANCH  16  21
HETATM   21  C7  UNL     1       6.011 -23.482 -29.737  1.00  0.00     0.251 C 
HETATM   22  O1  UNL     1       6.647 -22.935 -28.798  1.00  0.00    -0.271 OA
HETATM   23  N6  UNL     1       4.662 -23.098 -29.928  1.00  0.00    -0.310 N 
HETATM   24  C8  UNL     1       4.058 -22.122 -29.073  1.00  0.00     0.482 C 
ATOM     25  H6  UNL     1       4.117 -23.519 -30.680  1.00  0.00     0.166 HD
HETATM   26  N7  UNL     1       2.858 -22.587 -28.413  1.00  0.00    -0.033 N 
HETATM   27  N8  UNL     1       3.670 -20.981 -29.910  1.00  0.00    -0.033 N 
ATOM     28  H73 UNL     1       2.184 -22.934 -29.096  1.00  0.00     0.278 HD
ATOM     29  H72 UNL     1       3.041 -23.450 -27.900  1.00  0.00     0.278 HD
ATOM     30  H71 UNL     1       2.427 -21.892 -27.804  1.00  0.00     0.278 HD
ATOM     31  H83 UNL     1       4.446 -20.605 -30.455  1.00  0.00     0.278 HD
ATOM     32  H82 UNL     1       3.072 -21.247 -30.693  1.00  0.00     0.278 HD
ATOM     33  H81 UNL     1       3.239 -20.285 -29.301  1.00  0.00     0.278 HD
ENDBRANCH  16  21
ENDBRANCH  15  16
ENDBRANCH   1  15
BRANCH   2  34
HETATM   34  N10 UNL     1       7.027 -28.081 -31.146  1.00  0.00    -0.210 N 
HETATM   35  C9  UNL     1       6.139 -27.950 -32.163  1.00  0.00     0.157 A 
HETATM   36  N14 UNL     1       5.107 -28.770 -31.834  1.00  0.00    -0.281 N 
HETATM   37  N15 UNL     1       5.355 -29.352 -30.700  1.00  0.00    -0.273 N 
ATOM     38  H14 UNL     1       4.265 -28.908 -32.392  1.00  0.00     0.188 HD
HETATM   39  C17 UNL     1       6.567 -28.945 -30.221  1.00  0.00     0.214 A 
ATOM     40  H15 UNL     1       4.736 -30.015 -30.236  1.00  0.00     0.189 HD
HETATM   41  S2  UNL     1       7.239 -29.426 -28.810  1.00  0.00    -0.037 SA
BRANCH  35  42
HETATM   42  C10 UNL     1       6.223 -27.125 -33.370  1.00  0.00     0.040 A 
HETATM   43  C11 UNL     1       7.049 -27.207 -34.451  1.00  0.00     0.104 A 
HETATM   44  N11 UNL     1       6.752 -26.240 -35.357  1.00  0.00    -0.364 N 
HETATM   45  C12 UNL     1       5.720 -25.499 -34.886  1.00  0.00     0.048 A 
ATOM     46  H11 UNL     1       7.229 -26.095 -36.247  1.00  0.00     0.165 HD
HETATM   47  C13 UNL     1       5.031 -24.418 -35.383  1.00  0.00     0.078 A 
HETATM   48  C16 UNL     1       5.382 -26.045 -33.644  1.00  0.00     0.021 A 
HETATM   49  C14 UNL     1       4.003 -23.854 -34.674  1.00  0.00     0.100 A 
HETATM   50  N13 UNL     1       3.671 -24.365 -33.491  1.00  0.00    -0.352 N 
HETATM   51  C15 UNL     1       4.336 -25.422 -32.994  1.00  0.00     0.104 A 
ATOM     52  H13 UNL     1       2.907 -23.950 -32.958  1.00  0.00     0.166 HD
BRANCH  49  53
HETATM   53  N12 UNL     1       3.337 -22.823 -35.134  1.00  0.00    -0.385 N 
ATOM     54 2H12 UNL     1       2.605 -22.973 -35.829  1.00  0.00     0.157 HD
ATOM     55 1H12 UNL     1       3.533 -21.875 -34.815  1.00  0.00     0.157 HD
ENDBRANCH  49  53
ENDBRANCH  35  42
ENDBRANCH   2  34
TORSDOF 10
ENDMDL
MODEL 5
REMARK VINA RESULT: -8.676986148      2.226      4.727
REMARK  10 active torsions:
REMARK  status: ('A' for Active; 'I' for Inactive)
REMARK    1  A    between atoms: C2_9  and  S1_10 
REMARK    2  A    between atoms: S1_10  and  C3_11 
REMARK    3  A    between atoms: C3_11  and  C4_12 
REMARK    4  A    between atoms: C4_12  and  C5_13 
REMARK    5  A    between atoms: C5_13  and  C6_14 
REMARK    6  A    between atoms: C6_14  and  N5_15 
REMARK    7  A    between atoms: C6_14  and  C7_19 
REMARK       I    between atoms: C7_19  and  N6_21 
REMARK       I    between atoms: N6_21  and  C8_23 
REMARK       I    between atoms: C8_23  and  N7_24 
REMARK       I    between atoms: C8_23  and  N8_28 
REMARK    8  A    between atoms: N9_32  and  N10_34 
REMARK    9  A    between atoms: C9_35  and  C10_36 
REMARK   10  A    between atoms: C14_42  and  N12_43 
ROOT
HETATM    1  C4  UNL     1       7.978 -24.085 -29.538  1.00  0.00     0.016 C 
HETATM    2  N9  UNL     1       7.704 -23.616 -30.710  1.00  0.00    -0.297 N 
ATOM      3  H9  UNL     1       8.253 -22.825 -31.045  1.00  0.00     0.187 HD
ENDROOT
BRANCH   1   4
HETATM    4  C3  UNL     1       9.061 -23.455 -28.767  1.00  0.00     0.136 C 
BRANCH   4   5
HETATM    5  S1  UNL     1       8.620 -23.118 -27.051  1.00  0.00    -0.085 SA
BRANCH   5   6
HETATM    6  C2  UNL     1      10.015 -22.825 -26.023  1.00  0.00     0.178 A 
HETATM    7  N1  UNL     1      10.140 -21.688 -25.277  1.00  0.00    -0.259 N 
HETATM    8  C1  UNL     1       9.207 -20.589 -25.187  1.00  0.00     0.181 C 
HETATM    9  N2  UNL     1      11.278 -21.732 -24.620  1.00  0.00    -0.224 N 
HETATM   10  N3  UNL     1      11.890 -22.861 -24.922  1.00  0.00    -0.226 N 
ATOM     11  H2  UNL     1      11.628 -21.014 -23.985  1.00  0.00     0.210 HD
HETATM   12  N4  UNL     1      11.114 -23.522 -25.776  1.00  0.00    -0.263 N 
ATOM     13  H3  UNL     1      12.793 -23.171 -24.564  1.00  0.00     0.210 HD
ATOM     14  H4  UNL     1      11.333 -24.432 -26.182  1.00  0.00     0.190 HD
ENDBRANCH   5   6
ENDBRANCH   4   5
ENDBRANCH   1   4
BRANCH   1  15
HETATM   15  C5  UNL     1       7.242 -25.241 -29.044  1.00  0.00     0.097 C 
BRANCH  15  16
HETATM   16  C6  UNL     1       7.875 -26.574 -29.173  1.00  0.00     0.280 C 
BRANCH  16  17
HETATM   17  N5  UNL     1       7.057 -27.645 -29.631  1.00  0.00    -0.066 N 
ATOM     18  H53 UNL     1       7.625 -28.486 -29.731  1.00  0.00     0.275 HD
ATOM     19  H52 UNL     1       6.425 -27.931 -28.883  1.00  0.00     0.275 HD
ATOM     20  H51 UNL     1       6.522 -27.494 -30.486  1.00  0.00     0.275 HD
ENDBRANCH  16  17
BRANCH  16  21
HETATM   21  C7  UNL     1       8.706 -26.977 -27.981  1.00  0.00     0.251 C 
HETATM   22  O1  UNL     1       8.184 -27.086 -26.841  1.00  0.00    -0.271 OA
HETATM   23  N6  UNL     1      10.091 -27.247 -28.098  1.00  0.00    -0.310 N 
HETATM   24  C8  UNL     1      10.855 -27.627 -26.950  1.00  0.00     0.482 C 
ATOM     25  H6  UNL     1      10.547 -27.170 -29.008  1.00  0.00     0.166 HD
HETATM   26  N7  UNL     1      11.993 -26.771 -26.696  1.00  0.00    -0.033 N 
HETATM   27  N8  UNL     1      11.382 -28.975 -27.197  1.00  0.00    -0.033 N 
ATOM     28  H73 UNL     1      12.589 -26.712 -27.522  1.00  0.00     0.278 HD
ATOM     29  H72 UNL     1      11.700 -25.797 -26.626  1.00  0.00     0.278 HD
ATOM     30  H71 UNL     1      12.538 -27.042 -25.878  1.00  0.00     0.278 HD
ATOM     31  H83 UNL     1      10.653 -29.650 -27.431  1.00  0.00     0.278 HD
ATOM     32  H82 UNL     1      11.911 -29.042 -28.066  1.00  0.00     0.278 HD
ATOM     33  H81 UNL     1      11.927 -29.246 -26.378  1.00  0.00     0.278 HD
ENDBRANCH  16  21
ENDBRANCH  15  16
ENDBRANCH   1  15
BRANCH   2  34
HETATM   34  N10 UNL     1       6.701 -24.122 -31.556  1.00  0.00    -0.210 N 
HETATM   35  C9  UNL     1       6.903 -25.042 -32.531  1.00  0.00     0.157 A 
HETATM   36  N14 UNL     1       5.674 -25.258 -33.068  1.00  0.00    -0.281 N 
HETATM   37  N15 UNL     1       4.796 -24.520 -32.461  1.00  0.00    -0.273 N 
ATOM     38  H14 UNL     1       5.472 -25.901 -33.833  1.00  0.00     0.188 HD
HETATM   39  C17 UNL     1       5.401 -23.777 -31.489  1.00  0.00     0.214 A 
ATOM     40  H15 UNL     1       3.800 -24.499 -32.678  1.00  0.00     0.189 HD
HETATM   41  S2  UNL     1       4.650 -22.704 -30.510  1.00  0.00    -0.037 SA
BRANCH  35  42
HETATM   42  C10 UNL     1       8.146 -25.692 -32.953  1.00  0.00     0.040 A 
HETATM   43  C11 UNL     1       8.792 -26.786 -32.461  1.00  0.00     0.104 A 
HETATM   44  N11 UNL     1       9.910 -27.050 -33.186  1.00  0.00    -0.364 N 
HETATM   45  C12 UNL     1      10.021 -26.129 -34.173  1.00  0.00     0.048 A 
ATOM     46  H11 UNL     1      10.560 -27.817 -33.015  1.00  0.00     0.165 HD
HETATM   47  C13 UNL     1      10.940 -25.926 -35.175  1.00  0.00     0.078 A 
HETATM   48  C16 UNL     1       8.923 -25.276 -34.036  1.00  0.00     0.021 A 
HETATM   49  C14 UNL     1      10.801 -24.888 -36.058  1.00  0.00     0.100 A 
HETATM   50  N13 UNL     1       9.759 -24.068 -35.938  1.00  0.00    -0.352 N 
HETATM   51  C15 UNL     1       8.853 -24.254 -34.963  1.00  0.00     0.104 A 
ATOM     52  H13 UNL     1       9.649 -23.292 -36.590  1.00  0.00     0.166 HD
BRANCH  49  53
HETATM   53  N12 UNL     1      11.669 -24.681 -37.018  1.00  0.00    -0.385 N 
ATOM     54 2H12 UNL     1      12.506 -25.262 -37.064  1.00  0.00     0.157 HD
ATOM     55 1H12 UNL     1      11.527 -23.954 -37.719  1.00  0.00     0.157 HD
ENDBRANCH  49  53
ENDBRANCH  35  42
ENDBRANCH   2  34
TORSDOF 10
ENDMDL
