MODEL 1
REMARK VINA RESULT: -6.058227671      0.000      0.000
REMARK  4 active torsions:
REMARK  status: ('A' for Active; 'I' for Inactive)
REMARK    1  A    between atoms: N1_1  and  C1_5 
REMARK    2  A    between atoms: C1_5  and  C2_6 
REMARK    3  A    between atoms: C2_6  and  S1_7 
REMARK    4  A    between atoms: S1_7  and  N2_10 
ROOT
HETATM    1  S1  UNL     1     -35.011   5.596  19.574  1.00  0.00     0.213 S 
HETATM    2  O1  UNL     1     -35.908   4.758  20.479  1.00  0.00    -0.211 OA
HETATM    3  O2  UNL     1     -34.098   4.553  18.922  1.00  0.00    -0.211 OA
ENDROOT
BRANCH   1   4
HETATM    4  C2  UNL     1     -35.874   6.370  18.297  1.00  0.00     0.196 C 
BRANCH   4   5
HETATM    5  C1  UNL     1     -35.268   6.477  16.961  1.00  0.00     0.137 C 
HETATM    6  C9  UNL     1     -34.092   7.304  16.680  1.00  0.00     0.040 C 
HETATM    7  C10 UNL     1     -34.949   8.389  16.020  1.00  0.00     0.005 C 
HETATM    8  C11 UNL     1     -36.093   7.404  16.053  1.00  0.00     0.040 C 
BRANCH   5   9
HETATM    9  N1  UNL     1     -35.257   5.160  16.283  1.00  0.00    -0.069 N 
ATOM     10  H13 UNL     1     -34.701   4.476  16.796  1.00  0.00     0.275 HD
ATOM     11  H12 UNL     1     -36.163   4.696  16.342  1.00  0.00     0.275 HD
ATOM     12  H11 UNL     1     -34.943   5.254  15.316  1.00  0.00     0.275 HD
ENDBRANCH   5   9
ENDBRANCH   4   5
ENDBRANCH   1   4
BRANCH   1  13
HETATM   13  N2  UNL     1     -34.034   6.549  20.561  1.00  0.00    -0.211 NA
HETATM   14  C3  UNL     1     -34.588   7.812  20.951  1.00  0.00     0.107 C 
HETATM   15  C4  UNL     1     -34.331   8.924  19.984  1.00  0.00     0.015 C 
HETATM   16  C5  UNL     1     -32.890   9.285  19.823  1.00  0.00     0.001 C 
HETATM   17  C6  UNL     1     -32.011   8.842  20.951  1.00  0.00     0.001 C 
HETATM   18  C7  UNL     1     -31.756   7.364  20.964  1.00  0.00     0.015 C 
HETATM   19  C8  UNL     1     -32.700   6.600  20.067  1.00  0.00     0.107 C 
ENDBRANCH   1  13
TORSDOF 4
ENDMDL
MODEL 2
REMARK VINA RESULT: -5.784221607      2.424      3.532
REMARK  4 active torsions:
REMARK  status: ('A' for Active; 'I' for Inactive)
REMARK    1  A    between atoms: N1_1  and  C1_5 
REMARK    2  A    between atoms: C1_5  and  C2_6 
REMARK    3  A    between atoms: C2_6  and  S1_7 
REMARK    4  A    between atoms: S1_7  and  N2_10 
ROOT
HETATM    1  S1  UNL     1     -35.737   5.682  20.210  1.00  0.00     0.213 S 
HETATM    2  O1  UNL     1     -36.028   4.490  21.115  1.00  0.00    -0.211 OA
HETATM    3  O2  UNL     1     -35.261   5.028  18.910  1.00  0.00    -0.211 OA
ENDROOT
BRANCH   1   4
HETATM    4  C2  UNL     1     -37.147   6.596  19.822  1.00  0.00     0.196 C 
BRANCH   4   5
HETATM    5  C1  UNL     1     -38.257   6.676  20.782  1.00  0.00     0.137 C 
HETATM    6  C9  UNL     1     -39.276   7.728  20.743  1.00  0.00     0.040 C 
HETATM    7  C10 UNL     1     -38.633   8.466  21.922  1.00  0.00     0.005 C 
HETATM    8  C11 UNL     1     -37.780   7.237  22.133  1.00  0.00     0.040 C 
BRANCH   5   9
HETATM    9  N1  UNL     1     -38.794   5.327  21.078  1.00  0.00    -0.069 N 
ATOM     10  H13 UNL     1     -39.800   5.349  21.245  1.00  0.00     0.275 HD
ATOM     11  H12 UNL     1     -38.790   4.729  20.251  1.00  0.00     0.275 HD
ATOM     12  H11 UNL     1     -38.291   4.899  21.855  1.00  0.00     0.275 HD
ENDBRANCH   5   9
ENDBRANCH   4   5
ENDBRANCH   1   4
BRANCH   1  13
HETATM   13  N2  UNL     1     -34.414   6.503  20.854  1.00  0.00    -0.211 NA
HETATM   14  C3  UNL     1     -34.659   7.856  21.260  1.00  0.00     0.107 C 
HETATM   15  C4  UNL     1     -34.487   8.867  20.170  1.00  0.00     0.015 C 
HETATM   16  C5  UNL     1     -33.094   8.978  19.641  1.00  0.00     0.001 C 
HETATM   17  C6  UNL     1     -32.038   8.445  20.560  1.00  0.00     0.001 C 
HETATM   18  C7  UNL     1     -32.012   6.947  20.634  1.00  0.00     0.015 C 
HETATM   19  C8  UNL     1     -33.252   6.312  20.053  1.00  0.00     0.107 C 
ENDBRANCH   1  13
TORSDOF 4
ENDMDL
MODEL 3
REMARK VINA RESULT: -5.735368593      2.773      4.692
REMARK  4 active torsions:
REMARK  status: ('A' for Active; 'I' for Inactive)
REMARK    1  A    between atoms: N1_1  and  C1_5 
REMARK    2  A    between atoms: C1_5  and  C2_6 
REMARK    3  A    between atoms: C2_6  and  S1_7 
REMARK    4  A    between atoms: S1_7  and  N2_10 
ROOT
HETATM    1  S1  UNL     1     -35.741   6.414  19.946  1.00  0.00     0.213 S 
HETATM    2  O1  UNL     1     -35.589   6.858  18.495  1.00  0.00    -0.211 OA
HETATM    3  O2  UNL     1     -35.572   4.894  19.868  1.00  0.00    -0.211 OA
ENDROOT
BRANCH   1   4
HETATM    4  C2  UNL     1     -34.482   7.003  20.968  1.00  0.00     0.196 C 
BRANCH   4   5
HETATM    5  C1  UNL     1     -33.107   7.097  20.458  1.00  0.00     0.137 C 
HETATM    6  C9  UNL     1     -31.943   7.295  21.325  1.00  0.00     0.040 C 
HETATM    7  C10 UNL     1     -31.839   8.773  20.938  1.00  0.00     0.005 C 
HETATM    8  C11 UNL     1     -32.838   8.482  19.843  1.00  0.00     0.040 C 
BRANCH   5   9
HETATM    9  N1  UNL     1     -32.885   6.124  19.363  1.00  0.00    -0.069 N 
ATOM     10  H13 UNL     1     -33.109   5.172  19.652  1.00  0.00     0.275 HD
ATOM     11  H12 UNL     1     -33.578   6.226  18.621  1.00  0.00     0.275 HD
ATOM     12  H11 UNL     1     -31.933   6.196  19.002  1.00  0.00     0.275 HD
ENDBRANCH   5   9
ENDBRANCH   4   5
ENDBRANCH   1   4
BRANCH   1  13
HETATM   13  N2  UNL     1     -37.336   6.704  20.405  1.00  0.00    -0.211 NA
HETATM   14  C3  UNL     1     -37.834   8.019  20.126  1.00  0.00     0.107 C 
HETATM   15  C4  UNL     1     -37.565   9.023  21.202  1.00  0.00     0.015 C 
HETATM   16  C5  UNL     1     -38.241   8.734  22.503  1.00  0.00     0.001 C 
HETATM   17  C6  UNL     1     -39.412   7.806  22.399  1.00  0.00     0.001 C 
HETATM   18  C7  UNL     1     -39.022   6.379  22.155  1.00  0.00     0.015 C 
HETATM   19  C8  UNL     1     -37.583   6.231  21.725  1.00  0.00     0.107 C 
ENDBRANCH   1  13
TORSDOF 4
ENDMDL
MODEL 4
REMARK VINA RESULT: -5.656797433      2.288      2.987
REMARK  4 active torsions:
REMARK  status: ('A' for Active; 'I' for Inactive)
REMARK    1  A    between atoms: N1_1  and  C1_5 
REMARK    2  A    between atoms: C1_5  and  C2_6 
REMARK    3  A    between atoms: C2_6  and  S1_7 
REMARK    4  A    between atoms: S1_7  and  N2_10 
ROOT
HETATM    1  S1  UNL     1     -34.845   6.043  17.512  1.00  0.00     0.213 S 
HETATM    2  O1  UNL     1     -34.931   4.663  16.870  1.00  0.00    -0.211 OA
HETATM    3  O2  UNL     1     -33.384   6.130  17.962  1.00  0.00    -0.211 OA
ENDROOT
BRANCH   1   4
HETATM    4  C2  UNL     1     -35.098   7.328  16.390  1.00  0.00     0.196 C 
BRANCH   4   5
HETATM    5  C1  UNL     1     -34.491   7.264  15.053  1.00  0.00     0.137 C 
HETATM    6  C9  UNL     1     -34.481   8.397  14.123  1.00  0.00     0.040 C 
HETATM    7  C10 UNL     1     -35.607   7.784  13.283  1.00  0.00     0.005 C 
HETATM    8  C11 UNL     1     -35.400   6.510  14.068  1.00  0.00     0.040 C 
BRANCH   5   9
HETATM    9  N1  UNL     1     -33.221   6.502  15.088  1.00  0.00    -0.069 N 
ATOM     10  H13 UNL     1     -33.175   5.884  15.899  1.00  0.00     0.275 HD
ATOM     11  H12 UNL     1     -33.184   5.794  14.354  1.00  0.00     0.275 HD
ATOM     12  H11 UNL     1     -32.420   7.131  15.046  1.00  0.00     0.275 HD
ENDBRANCH   5   9
ENDBRANCH   4   5
ENDBRANCH   1   4
BRANCH   1  13
HETATM   13  N2  UNL     1     -35.784   6.016  18.911  1.00  0.00    -0.211 NA
HETATM   14  C3  UNL     1     -36.226   7.293  19.388  1.00  0.00     0.107 C 
HETATM   15  C4  UNL     1     -35.261   7.978  20.304  1.00  0.00     0.015 C 
HETATM   16  C5  UNL     1     -35.016   7.264  21.593  1.00  0.00     0.001 C 
HETATM   17  C6  UNL     1     -36.080   6.281  21.968  1.00  0.00     0.001 C 
HETATM   18  C7  UNL     1     -36.056   5.030  21.140  1.00  0.00     0.015 C 
HETATM   19  C8  UNL     1     -35.208   5.167  19.899  1.00  0.00     0.107 C 
ENDBRANCH   1  13
TORSDOF 4
ENDMDL
MODEL 5
REMARK VINA RESULT: -5.653225047      2.961      5.143
REMARK  4 active torsions:
REMARK  status: ('A' for Active; 'I' for Inactive)
REMARK    1  A    between atoms: N1_1  and  C1_5 
REMARK    2  A    between atoms: C1_5  and  C2_6 
REMARK    3  A    between atoms: C2_6  and  S1_7 
REMARK    4  A    between atoms: S1_7  and  N2_10 
ROOT
HETATM    1  S1  UNL     1     -35.876   6.426  20.995  1.00  0.00     0.213 S 
HETATM    2  O1  UNL     1     -35.620   5.545  19.777  1.00  0.00    -0.211 OA
HETATM    3  O2  UNL     1     -36.202   5.415  22.098  1.00  0.00    -0.211 OA
ENDROOT
BRANCH   1   4
HETATM    4  C2  UNL     1     -34.475   7.290  21.510  1.00  0.00     0.196 C 
BRANCH   4   5
HETATM    5  C1  UNL     1     -33.390   7.564  20.556  1.00  0.00     0.137 C 
HETATM    6  C9  UNL     1     -32.169   6.758  20.478  1.00  0.00     0.040 C 
HETATM    7  C10 UNL     1     -31.354   7.828  21.211  1.00  0.00     0.005 C 
HETATM    8  C11 UNL     1     -32.532   8.754  21.020  1.00  0.00     0.040 C 
BRANCH   5   9
HETATM    9  N1  UNL     1     -33.938   7.958  19.237  1.00  0.00    -0.069 N 
ATOM     10  H13 UNL     1     -33.372   7.596  18.469  1.00  0.00     0.275 HD
ATOM     11  H12 UNL     1     -34.809   7.470  19.028  1.00  0.00     0.275 HD
ATOM     12  H11 UNL     1     -34.050   8.971  19.179  1.00  0.00     0.275 HD
ENDBRANCH   5   9
ENDBRANCH   4   5
ENDBRANCH   1   4
BRANCH   1  13
HETATM   13  N2  UNL     1     -37.286   7.302  20.706  1.00  0.00    -0.211 NA
HETATM   14  C3  UNL     1     -37.371   8.576  21.358  1.00  0.00     0.107 C 
HETATM   15  C4  UNL     1     -37.939   8.524  22.741  1.00  0.00     0.015 C 
HETATM   16  C5  UNL     1     -39.362   8.075  22.811  1.00  0.00     0.001 C 
HETATM   17  C6  UNL     1     -40.116   8.206  21.525  1.00  0.00     0.001 C 
HETATM   18  C7  UNL     1     -39.726   7.186  20.497  1.00  0.00     0.015 C 
HETATM   19  C8  UNL     1     -38.439   6.476  20.838  1.00  0.00     0.107 C 
ENDBRANCH   1  13
TORSDOF 4
ENDMDL
