MODEL 1
REMARK VINA RESULT: -5.197024078      0.000      0.000
REMARK  3 active torsions:
REMARK  status: ('A' for Active; 'I' for Inactive)
REMARK    1  A    between atoms: C2_2  and  S1_12 
REMARK    2  A    between atoms: N1_3  and  C3_5 
REMARK    3  A    between atoms: S1_12  and  N3_13 
ROOT
HETATM    1  C1  UNL     1     -36.823   7.020  14.435  1.00  0.00     0.081 C 
HETATM    2  C2  UNL     1     -35.495   6.349  14.445  1.00  0.00     0.095 C 
HETATM    3  N1  UNL     1     -35.109   5.584  13.489  1.00  0.00    -0.337 N 
ATOM      4  H1  UNL     1     -34.184   5.162  13.573  1.00  0.00     0.168 HD
ENDROOT
BRANCH   3   5
HETATM    5  C3  UNL     1     -35.858   5.280  12.331  1.00  0.00     0.105 A 
HETATM    6  C4  UNL     1     -35.706   6.103  11.240  1.00  0.00     0.048 A 
HETATM    7  C5  UNL     1     -36.408   5.858  10.083  1.00  0.00     0.005 A 
HETATM    8  C6  UNL     1     -37.276   4.769  10.026  1.00  0.00     0.017 A 
HETATM    9  C7  UNL     1     -37.395   3.970  11.148  1.00  0.00     0.089 A 
HETATM   10  N2  UNL     1     -36.704   4.218  12.274  1.00  0.00    -0.352 N 
ATOM     11  H2  UNL     1     -36.815   3.609  13.084  1.00  0.00     0.166 HD
ENDBRANCH   3   5
BRANCH   2  12
HETATM   12  S1  UNL     1     -34.445   6.623  15.810  1.00  0.00     0.156 S 
HETATM   13  O1  UNL     1     -32.878   6.939  15.396  1.00  0.00    -0.229 OA
BRANCH  12  14
HETATM   14  N3  UNL     1     -34.592   5.314  16.921  1.00  0.00    -0.345 NA
ATOM     15  H32 UNL     1     -35.215   5.525  17.700  1.00  0.00     0.166 HD
ATOM     16  H31 UNL     1     -33.662   5.004  17.206  1.00  0.00     0.166 HD
ENDBRANCH  12  14
ENDBRANCH   2  12
TORSDOF 3
ENDMDL
MODEL 2
REMARK VINA RESULT: -5.165357563      0.888      1.403
REMARK  3 active torsions:
REMARK  status: ('A' for Active; 'I' for Inactive)
REMARK    1  A    between atoms: C2_2  and  S1_12 
REMARK    2  A    between atoms: N1_3  and  C3_5 
REMARK    3  A    between atoms: S1_12  and  N3_13 
ROOT
HETATM    1  C1  UNL     1     -36.794   7.101  14.221  1.00  0.00     0.081 C 
HETATM    2  C2  UNL     1     -35.462   6.438  14.204  1.00  0.00     0.095 C 
HETATM    3  N1  UNL     1     -35.060   5.737  13.207  1.00  0.00    -0.337 N 
ATOM      4  H1  UNL     1     -34.133   5.316  13.275  1.00  0.00     0.168 HD
ENDROOT
BRANCH   3   5
HETATM    5  C3  UNL     1     -35.793   5.500  12.024  1.00  0.00     0.105 A 
HETATM    6  C4  UNL     1     -36.586   4.376  11.982  1.00  0.00     0.048 A 
HETATM    7  C5  UNL     1     -37.325   4.091  10.857  1.00  0.00     0.005 A 
HETATM    8  C6  UNL     1     -37.262   4.949   9.761  1.00  0.00     0.017 A 
HETATM    9  C7  UNL     1     -36.451   6.066   9.850  1.00  0.00     0.089 A 
HETATM   10  N2  UNL     1     -35.734   6.336  10.954  1.00  0.00    -0.352 N 
ATOM     11  H2  UNL     1     -35.145   7.168  10.989  1.00  0.00     0.166 HD
ENDBRANCH   3   5
BRANCH   2  12
HETATM   12  S1  UNL     1     -34.428   6.634  15.595  1.00  0.00     0.156 S 
HETATM   13  O1  UNL     1     -32.839   6.880  15.220  1.00  0.00    -0.229 OA
BRANCH  12  14
HETATM   14  N3  UNL     1     -34.662   5.313  16.676  1.00  0.00    -0.345 NA
ATOM     15  H32 UNL     1     -34.455   4.411  16.249  1.00  0.00     0.166 HD
ATOM     16  H31 UNL     1     -35.594   5.372  17.088  1.00  0.00     0.166 HD
ENDBRANCH  12  14
ENDBRANCH   2  12
TORSDOF 3
ENDMDL
MODEL 3
REMARK VINA RESULT: -5.092032291      7.395      8.430
REMARK  3 active torsions:
REMARK  status: ('A' for Active; 'I' for Inactive)
REMARK    1  A    between atoms: C2_2  and  S1_12 
REMARK    2  A    between atoms: N1_3  and  C3_5 
REMARK    3  A    between atoms: S1_12  and  N3_13 
ROOT
HETATM    1  C1  UNL     1     -35.590   7.680  20.516  1.00  0.00     0.081 C 
HETATM    2  C2  UNL     1     -34.417   7.158  19.763  1.00  0.00     0.095 C 
HETATM    3  N1  UNL     1     -33.512   7.932  19.285  1.00  0.00    -0.337 N 
ATOM      4  H1  UNL     1     -32.741   7.494  18.781  1.00  0.00     0.168 HD
ENDROOT
BRANCH   3   5
HETATM    5  C3  UNL     1     -33.495   9.339  19.399  1.00  0.00     0.105 A 
HETATM    6  C4  UNL     1     -32.753   9.886  20.421  1.00  0.00     0.048 A 
HETATM    7  C5  UNL     1     -32.697  11.251  20.584  1.00  0.00     0.005 A 
HETATM    8  C6  UNL     1     -33.399  12.075  19.705  1.00  0.00     0.017 A 
HETATM    9  C7  UNL     1     -34.131  11.479  18.694  1.00  0.00     0.089 A 
HETATM   10  N2  UNL     1     -34.178  10.145  18.543  1.00  0.00    -0.352 N 
ATOM     11  H2  UNL     1     -34.727   9.737  17.787  1.00  0.00     0.166 HD
ENDBRANCH   3   5
BRANCH   2  12
HETATM   12  S1  UNL     1     -34.288   5.434  19.534  1.00  0.00     0.156 S 
HETATM   13  O1  UNL     1     -34.436   4.954  17.961  1.00  0.00    -0.229 OA
BRANCH  12  14
HETATM   14  N3  UNL     1     -35.393   4.630  20.584  1.00  0.00    -0.345 NA
ATOM     15  H32 UNL     1     -36.112   5.253  20.952  1.00  0.00     0.166 HD
ATOM     16  H31 UNL     1     -34.874   4.126  21.303  1.00  0.00     0.166 HD
ENDBRANCH  12  14
ENDBRANCH   2  12
TORSDOF 3
ENDMDL
MODEL 4
REMARK VINA RESULT: -5.083593101      1.344      1.576
REMARK  3 active torsions:
REMARK  status: ('A' for Active; 'I' for Inactive)
REMARK    1  A    between atoms: C2_2  and  S1_12 
REMARK    2  A    between atoms: N1_3  and  C3_5 
REMARK    3  A    between atoms: S1_12  and  N3_13 
ROOT
HETATM    1  C1  UNL     1     -35.281   7.585  13.033  1.00  0.00     0.081 C 
HETATM    2  C2  UNL     1     -35.426   6.554  14.096  1.00  0.00     0.095 C 
HETATM    3  N1  UNL     1     -36.222   5.554  13.974  1.00  0.00    -0.337 N 
ATOM      4  H1  UNL     1     -36.263   4.892  14.749  1.00  0.00     0.168 HD
ENDROOT
BRANCH   3   5
HETATM    5  C3  UNL     1     -37.045   5.295  12.856  1.00  0.00     0.105 A 
HETATM    6  C4  UNL     1     -36.584   4.397  11.921  1.00  0.00     0.048 A 
HETATM    7  C5  UNL     1     -37.340   4.103  10.810  1.00  0.00     0.005 A 
HETATM    8  C6  UNL     1     -38.577   4.723  10.640  1.00  0.00     0.017 A 
HETATM    9  C7  UNL     1     -38.998   5.618  11.607  1.00  0.00     0.089 A 
HETATM   10  N2  UNL     1     -38.251   5.898  12.689  1.00  0.00    -0.352 N 
ATOM     11  H2  UNL     1     -38.590   6.563  13.383  1.00  0.00     0.166 HD
ENDBRANCH   3   5
BRANCH   2  12
HETATM   12  S1  UNL     1     -34.474   6.728  15.547  1.00  0.00     0.156 S 
HETATM   13  O1  UNL     1     -32.871   7.006  15.268  1.00  0.00    -0.229 OA
BRANCH  12  14
HETATM   14  N3  UNL     1     -34.748   5.376  16.579  1.00  0.00    -0.345 NA
ATOM     15  H32 UNL     1     -33.926   4.780  16.676  1.00  0.00     0.166 HD
ATOM     16  H31 UNL     1     -35.586   4.879  16.275  1.00  0.00     0.166 HD
ENDBRANCH  12  14
ENDBRANCH   2  12
TORSDOF 3
ENDMDL
MODEL 5
REMARK VINA RESULT: -4.973569457      3.611      6.007
REMARK  3 active torsions:
REMARK  status: ('A' for Active; 'I' for Inactive)
REMARK    1  A    between atoms: C2_2  and  S1_12 
REMARK    2  A    between atoms: N1_3  and  C3_5 
REMARK    3  A    between atoms: S1_12  and  N3_13 
ROOT
HETATM    1  C1  UNL     1     -33.502   7.554  15.387  1.00  0.00     0.081 C 
HETATM    2  C2  UNL     1     -34.256   6.326  15.017  1.00  0.00     0.095 C 
HETATM    3  N1  UNL     1     -34.904   5.635  15.883  1.00  0.00    -0.337 N 
ATOM      4  H1  UNL     1     -35.394   4.806  15.547  1.00  0.00     0.168 HD
ENDROOT
BRANCH   3   5
HETATM    5  C3  UNL     1     -34.993   5.927  17.262  1.00  0.00     0.105 A 
HETATM    6  C4  UNL     1     -35.973   6.806  17.664  1.00  0.00     0.048 A 
HETATM    7  C5  UNL     1     -36.111   7.130  18.993  1.00  0.00     0.005 A 
HETATM    8  C6  UNL     1     -35.249   6.562  19.929  1.00  0.00     0.017 A 
HETATM    9  C7  UNL     1     -34.280   5.685  19.478  1.00  0.00     0.089 A 
HETATM   10  N2  UNL     1     -34.154   5.374  18.176  1.00  0.00    -0.352 N 
ATOM     11  H2  UNL     1     -33.428   4.724  17.875  1.00  0.00     0.166 HD
ENDBRANCH   3   5
BRANCH   2  12
HETATM   12  S1  UNL     1     -34.246   5.827  13.346  1.00  0.00     0.156 S 
HETATM   13  O1  UNL     1     -34.408   7.071  12.273  1.00  0.00    -0.229 OA
BRANCH  12  14
HETATM   14  N3  UNL     1     -35.418   4.586  13.110  1.00  0.00    -0.345 NA
ATOM     15  H32 UNL     1     -34.999   3.661  13.008  1.00  0.00     0.166 HD
ATOM     16  H31 UNL     1     -36.040   4.846  12.345  1.00  0.00     0.166 HD
ENDBRANCH  12  14
ENDBRANCH   2  12
TORSDOF 3
ENDMDL
