MODEL 1
REMARK VINA RESULT: -6.564470471      0.000      0.000
REMARK  9 active torsions:
REMARK  status: ('A' for Active; 'I' for Inactive)
REMARK    1  A    between atoms: C3_5  and  C4_6 
REMARK    2  A    between atoms: C4_6  and  C5_7 
REMARK    3  A    between atoms: C7_11  and  N3_12 
REMARK    4  A    between atoms: C8_17  and  O1_18 
REMARK    5  A    between atoms: C9_22  and  N6_23 
REMARK    6  A    between atoms: N6_23  and  C10_25 
REMARK    7  A    between atoms: C10_25  and  C11_26 
REMARK    8  A    between atoms: C13_30  and  O2_31 
REMARK    9  A    between atoms: C17_35  and  O3_36 
ROOT
HETATM    1  C1  UNL     1     -12.797 -13.758   5.142  1.00  0.00     0.047 C 
HETATM    2  C2  UNL     1     -13.514 -12.771   5.685  1.00  0.00     0.068 A 
HETATM    3  N1  UNL     1     -14.702 -12.858   6.305  1.00  0.00    -0.340 N 
ATOM      4  H1  UNL     1     -15.225 -13.722   6.444  1.00  0.00     0.167 HD
HETATM    5  C3  UNL     1     -15.104 -11.644   6.717  1.00  0.00     0.108 A 
HETATM    6  N5  UNL     1     -14.146 -10.784   6.345  1.00  0.00    -0.327 N 
ATOM      7  H5  UNL     1     -14.163  -9.779   6.519  1.00  0.00     0.169 HD
HETATM    8  C9  UNL     1     -13.157 -11.441   5.711  1.00  0.00     0.129 A 
ENDROOT
BRANCH   8   9
HETATM    9  N6  UNL     1     -11.936 -10.903   5.157  1.00  0.00    -0.370 N 
ATOM     10  H6  UNL     1     -11.119 -10.803   5.759  1.00  0.00     0.161 HD
BRANCH   9  11
HETATM   11  C10 UNL     1     -11.841 -10.504   3.779  1.00  0.00     0.164 C 
BRANCH  11  12
HETATM   12  C11 UNL     1     -12.646  -9.356   3.382  1.00  0.00     0.009 A 
HETATM   13  C12 UNL     1     -12.390  -8.105   3.870  1.00  0.00     0.102 A 
HETATM   14  N7  UNL     1     -13.117  -7.008   3.550  1.00  0.00    -0.346 N 
HETATM   15  C13 UNL     1     -14.154  -7.115   2.710  1.00  0.00     0.150 A 
ATOM     16  H7  UNL     1     -12.875  -6.100   3.948  1.00  0.00     0.167 HD
HETATM   17  C15 UNL     1     -14.459  -8.355   2.187  1.00  0.00     0.023 A 
HETATM   18  C16 UNL     1     -15.617  -8.458   1.255  1.00  0.00     0.056 C 
HETATM   19  C17 UNL     1     -13.728  -9.485   2.502  1.00  0.00     0.087 A 
BRANCH  15  20
HETATM   20  O2  UNL     1     -14.918  -5.984   2.369  1.00  0.00    -0.340 OA
HETATM   21  C14 UNL     1     -15.795  -5.435   3.310  1.00  0.00     0.211 C 
ENDBRANCH  15  20
BRANCH  19  22
HETATM   22  O3  UNL     1     -14.036 -10.719   1.978  1.00  0.00    -0.355 OA
HETATM   23  C18 UNL     1     -14.959 -11.619   2.522  1.00  0.00     0.210 C 
ENDBRANCH  19  22
ENDBRANCH  11  12
ENDBRANCH   9  11
ENDBRANCH   8   9
BRANCH   5  24
HETATM   24  C4  UNL     1     -16.247 -11.369   7.370  1.00  0.00     0.065 C 
BRANCH  24  25
HETATM   25  C5  UNL     1     -17.443 -10.968   6.660  1.00  0.00     0.035 A 
HETATM   26  C6  UNL     1     -18.393 -11.902   6.305  1.00  0.00     0.122 A 
HETATM   27  N2  UNL     1     -19.519 -11.571   5.644  1.00  0.00    -0.201 N 
HETATM   28  C7  UNL     1     -19.718 -10.265   5.317  1.00  0.00     0.677 A 
ATOM     29  H2  UNL     1     -20.206 -12.282   5.394  1.00  0.00     0.183 HD
HETATM   30  N4  UNL     1     -18.802  -9.339   5.655  1.00  0.00    -0.170 N 
HETATM   31  C8  UNL     1     -17.670  -9.645   6.315  1.00  0.00     0.167 A 
ATOM     32  H4  UNL     1     -18.972  -8.366   5.400  1.00  0.00     0.186 HD
BRANCH  28  33
HETATM   33  N3  UNL     1     -20.802  -9.981   4.686  1.00  0.00    -0.234 N 
ATOM     34  H32 UNL     1     -21.381  -9.172   4.912  1.00  0.00     0.174 HD
ATOM     35  H31 UNL     1     -21.075 -10.609   3.931  1.00  0.00     0.174 HD
ENDBRANCH  28  33
BRANCH  31  36
HETATM   36  O1  UNL     1     -16.718  -8.702   6.670  1.00  0.00    -0.345 OA
ATOM     37  H1  UNL     1     -16.834  -7.810   6.365  1.00  0.00     0.219 HD
ENDBRANCH  31  36
ENDBRANCH  24  25
ENDBRANCH   5  24
TORSDOF 9
ENDMDL
MODEL 2
REMARK VINA RESULT: -6.471883097      1.834      4.877
REMARK  9 active torsions:
REMARK  status: ('A' for Active; 'I' for Inactive)
REMARK    1  A    between atoms: C3_5  and  C4_6 
REMARK    2  A    between atoms: C4_6  and  C5_7 
REMARK    3  A    between atoms: C7_11  and  N3_12 
REMARK    4  A    between atoms: C8_17  and  O1_18 
REMARK    5  A    between atoms: C9_22  and  N6_23 
REMARK    6  A    between atoms: N6_23  and  C10_25 
REMARK    7  A    between atoms: C10_25  and  C11_26 
REMARK    8  A    between atoms: C13_30  and  O2_31 
REMARK    9  A    between atoms: C17_35  and  O3_36 
ROOT
HETATM    1  C1  UNL     1     -19.823  -7.155   3.697  1.00  0.00     0.047 C 
HETATM    2  C2  UNL     1     -18.860  -7.747   4.409  1.00  0.00     0.068 A 
HETATM    3  N1  UNL     1     -18.932  -8.899   5.096  1.00  0.00    -0.340 N 
ATOM      4  H1  UNL     1     -19.761  -9.488   5.161  1.00  0.00     0.167 HD
HETATM    5  C3  UNL     1     -17.754  -9.166   5.685  1.00  0.00     0.108 A 
HETATM    6  N5  UNL     1     -16.933  -8.158   5.357  1.00  0.00    -0.327 N 
ATOM      7  H5  UNL     1     -15.961  -8.076   5.655  1.00  0.00     0.169 HD
HETATM    8  C9  UNL     1     -17.578  -7.272   4.577  1.00  0.00     0.129 A 
ENDROOT
BRANCH   8   9
HETATM    9  N6  UNL     1     -17.068  -6.052   3.995  1.00  0.00    -0.370 N 
ATOM     10  H6  UNL     1     -17.347  -5.156   4.396  1.00  0.00     0.161 HD
BRANCH   9  11
HETATM   11  C10 UNL     1     -16.177  -6.065   2.867  1.00  0.00     0.164 C 
BRANCH  11  12
HETATM   12  C11 UNL     1     -15.164  -7.112   2.857  1.00  0.00     0.009 A 
HETATM   13  C12 UNL     1     -14.071  -7.052   3.677  1.00  0.00     0.102 A 
HETATM   14  N7  UNL     1     -13.090  -7.986   3.695  1.00  0.00    -0.346 N 
HETATM   15  C13 UNL     1     -13.159  -9.043   2.877  1.00  0.00     0.150 A 
ATOM     16  H7  UNL     1     -12.300  -7.884   4.331  1.00  0.00     0.167 HD
HETATM   17  C15 UNL     1     -14.240  -9.155   2.026  1.00  0.00     0.023 A 
HETATM   18  C16 UNL     1     -14.301 -10.337   1.121  1.00  0.00     0.056 C 
HETATM   19  C17 UNL     1     -15.250  -8.213   1.994  1.00  0.00     0.087 A 
BRANCH  15  20
HETATM   20  O2  UNL     1     -12.147 -10.021   2.885  1.00  0.00    -0.340 OA
HETATM   21  C14 UNL     1     -11.312 -10.141   4.000  1.00  0.00     0.211 C 
ENDBRANCH  15  20
BRANCH  19  22
HETATM   22  O3  UNL     1     -16.325  -8.328   1.145  1.00  0.00    -0.355 OA
HETATM   23  C18 UNL     1     -17.454  -9.122   1.374  1.00  0.00     0.210 C 
ENDBRANCH  19  22
ENDBRANCH  11  12
ENDBRANCH   9  11
ENDBRANCH   8   9
BRANCH   5  24
HETATM   24  C4  UNL     1     -17.477 -10.237   6.449  1.00  0.00     0.065 C 
BRANCH  24  25
HETATM   25  C5  UNL     1     -16.141 -10.789   6.516  1.00  0.00     0.035 A 
HETATM   26  C6  UNL     1     -15.799 -11.890   5.760  1.00  0.00     0.122 A 
HETATM   27  N2  UNL     1     -14.567 -12.435   5.793  1.00  0.00    -0.201 N 
HETATM   28  C7  UNL     1     -13.632 -11.873   6.606  1.00  0.00     0.677 A 
ATOM     29  H2  UNL     1     -14.341 -13.250   5.223  1.00  0.00     0.183 HD
HETATM   30  N4  UNL     1     -13.947 -10.797   7.351  1.00  0.00    -0.170 N 
HETATM   31  C8  UNL     1     -15.169 -10.235   7.334  1.00  0.00     0.167 A 
ATOM     32  H4  UNL     1     -13.229 -10.391   7.952  1.00  0.00     0.186 HD
BRANCH  28  33
HETATM   33  N3  UNL     1     -12.466 -12.415   6.615  1.00  0.00    -0.234 N 
ATOM     34  H32 UNL     1     -12.131 -13.025   5.870  1.00  0.00     0.174 HD
ATOM     35  H31 UNL     1     -11.869 -12.212   7.416  1.00  0.00     0.174 HD
ENDBRANCH  28  33
BRANCH  31  36
HETATM   36  O1  UNL     1     -15.507  -9.128   8.096  1.00  0.00    -0.345 OA
ATOM     37  H1  UNL     1     -16.074  -9.255   8.848  1.00  0.00     0.219 HD
ENDBRANCH  31  36
ENDBRANCH  24  25
ENDBRANCH   5  24
TORSDOF 9
ENDMDL
MODEL 3
REMARK VINA RESULT: -6.407908509      2.115      5.953
REMARK  9 active torsions:
REMARK  status: ('A' for Active; 'I' for Inactive)
REMARK    1  A    between atoms: C3_5  and  C4_6 
REMARK    2  A    between atoms: C4_6  and  C5_7 
REMARK    3  A    between atoms: C7_11  and  N3_12 
REMARK    4  A    between atoms: C8_17  and  O1_18 
REMARK    5  A    between atoms: C9_22  and  N6_23 
REMARK    6  A    between atoms: N6_23  and  C10_25 
REMARK    7  A    between atoms: C10_25  and  C11_26 
REMARK    8  A    between atoms: C13_30  and  O2_31 
REMARK    9  A    between atoms: C17_35  and  O3_36 
ROOT
HETATM    1  C1  UNL     1     -11.598 -12.032   6.684  1.00  0.00     0.047 C 
HETATM    2  C2  UNL     1     -12.313 -11.246   5.875  1.00  0.00     0.068 A 
HETATM    3  N1  UNL     1     -11.887 -10.566   4.797  1.00  0.00    -0.340 N 
ATOM      4  H1  UNL     1     -10.929 -10.566   4.449  1.00  0.00     0.167 HD
HETATM    5  C3  UNL     1     -12.905  -9.886   4.243  1.00  0.00     0.108 A 
HETATM    6  N5  UNL     1     -13.985 -10.149   4.991  1.00  0.00    -0.327 N 
ATOM      7  H5  UNL     1     -14.919  -9.776   4.820  1.00  0.00     0.169 HD
HETATM    8  C9  UNL     1     -13.658 -10.979   5.999  1.00  0.00     0.129 A 
ENDROOT
BRANCH   8   9
HETATM    9  N6  UNL     1     -14.516 -11.519   7.028  1.00  0.00    -0.370 N 
ATOM     10  H6  UNL     1     -14.464 -12.515   7.245  1.00  0.00     0.161 HD
BRANCH   9  11
HETATM   11  C10 UNL     1     -15.440 -10.693   7.754  1.00  0.00     0.164 C 
BRANCH  11  12
HETATM   12  C11 UNL     1     -16.854 -10.998   7.579  1.00  0.00     0.009 A 
HETATM   13  C12 UNL     1     -17.542 -11.736   8.501  1.00  0.00     0.102 A 
HETATM   14  N7  UNL     1     -18.851 -12.064   8.378  1.00  0.00    -0.346 N 
HETATM   15  C13 UNL     1     -19.544 -11.661   7.306  1.00  0.00     0.150 A 
ATOM     16  H7  UNL     1     -19.309 -12.619   9.102  1.00  0.00     0.167 HD
HETATM   17  C15 UNL     1     -18.899 -10.913   6.343  1.00  0.00     0.023 A 
HETATM   18  C16 UNL     1     -19.684 -10.472   5.155  1.00  0.00     0.056 C 
HETATM   19  C17 UNL     1     -17.566 -10.568   6.451  1.00  0.00     0.087 A 
BRANCH  15  20
HETATM   20  O2  UNL     1     -20.904 -11.995   7.166  1.00  0.00    -0.340 OA
HETATM   21  C14 UNL     1     -21.845 -11.436   8.036  1.00  0.00     0.211 C 
ENDBRANCH  15  20
BRANCH  19  22
HETATM   22  O3  UNL     1     -16.927  -9.822   5.488  1.00  0.00    -0.355 OA
HETATM   23  C18 UNL     1     -17.012  -8.431   5.356  1.00  0.00     0.210 C 
ENDBRANCH  19  22
ENDBRANCH  11  12
ENDBRANCH   9  11
ENDBRANCH   8   9
BRANCH   5  24
HETATM   24  C4  UNL     1     -12.830  -9.102   3.153  1.00  0.00     0.065 C 
BRANCH  24  25
HETATM   25  C5  UNL     1     -13.955  -8.299   2.724  1.00  0.00     0.035 A 
HETATM   26  C6  UNL     1     -14.909  -8.825   1.878  1.00  0.00     0.122 A 
HETATM   27  N2  UNL     1     -15.971  -8.112   1.455  1.00  0.00    -0.201 N 
HETATM   28  C7  UNL     1     -16.100  -6.827   1.881  1.00  0.00     0.677 A 
ATOM     29  H2  UNL     1     -16.662  -8.527   0.829  1.00  0.00     0.183 HD
HETATM   30  N4  UNL     1     -15.179  -6.296   2.707  1.00  0.00    -0.170 N 
HETATM   31  C8  UNL     1     -14.111  -6.988   3.144  1.00  0.00     0.167 A 
ATOM     32  H4  UNL     1     -15.296  -5.330   3.015  1.00  0.00     0.186 HD
BRANCH  28  33
HETATM   33  N3  UNL     1     -17.123  -6.173   1.460  1.00  0.00    -0.234 N 
ATOM     34  H32 UNL     1     -17.670  -6.459   0.648  1.00  0.00     0.174 HD
ATOM     35  H31 UNL     1     -17.380  -5.333   1.977  1.00  0.00     0.174 HD
ENDBRANCH  28  33
BRANCH  31  36
HETATM   36  O1  UNL     1     -13.155  -6.454   3.994  1.00  0.00    -0.345 OA
ATOM     37  H1  UNL     1     -13.009  -6.880   4.830  1.00  0.00     0.219 HD
ENDBRANCH  31  36
ENDBRANCH  24  25
ENDBRANCH   5  24
TORSDOF 9
ENDMDL
MODEL 4
REMARK VINA RESULT: -6.281052166      2.362      5.239
REMARK  9 active torsions:
REMARK  status: ('A' for Active; 'I' for Inactive)
REMARK    1  A    between atoms: C3_5  and  C4_6 
REMARK    2  A    between atoms: C4_6  and  C5_7 
REMARK    3  A    between atoms: C7_11  and  N3_12 
REMARK    4  A    between atoms: C8_17  and  O1_18 
REMARK    5  A    between atoms: C9_22  and  N6_23 
REMARK    6  A    between atoms: N6_23  and  C10_25 
REMARK    7  A    between atoms: C10_25  and  C11_26 
REMARK    8  A    between atoms: C13_30  and  O2_31 
REMARK    9  A    between atoms: C17_35  and  O3_36 
ROOT
HETATM    1  C1  UNL     1     -19.724  -6.859   4.540  1.00  0.00     0.047 C 
HETATM    2  C2  UNL     1     -18.671  -7.603   4.887  1.00  0.00     0.068 A 
HETATM    3  N1  UNL     1     -18.671  -8.795   5.507  1.00  0.00    -0.340 N 
ATOM      4  H1  UNL     1     -19.507  -9.299   5.801  1.00  0.00     0.167 HD
HETATM    5  C3  UNL     1     -17.412  -9.229   5.685  1.00  0.00     0.108 A 
HETATM    6  N5  UNL     1     -16.613  -8.288   5.164  1.00  0.00    -0.327 N 
ATOM      7  H5  UNL     1     -15.594  -8.331   5.147  1.00  0.00     0.169 HD
HETATM    8  C9  UNL     1     -17.351  -7.278   4.667  1.00  0.00     0.129 A 
ENDROOT
BRANCH   8   9
HETATM    9  N6  UNL     1     -16.895  -6.073   4.013  1.00  0.00    -0.370 N 
ATOM     10  H6  UNL     1     -17.358  -5.189   4.224  1.00  0.00     0.161 HD
BRANCH   9  11
HETATM   11  C10 UNL     1     -15.809  -6.086   3.073  1.00  0.00     0.164 C 
BRANCH  11  12
HETATM   12  C11 UNL     1     -15.961  -6.966   1.922  1.00  0.00     0.009 A 
HETATM   13  C12 UNL     1     -17.093  -6.944   1.155  1.00  0.00     0.102 A 
HETATM   14  N7  UNL     1     -17.295  -7.752   0.086  1.00  0.00    -0.346 N 
HETATM   15  C13 UNL     1     -16.356  -8.637  -0.269  1.00  0.00     0.150 A 
ATOM     16  H7  UNL     1     -18.163  -7.687  -0.446  1.00  0.00     0.167 HD
HETATM   17  C15 UNL     1     -15.193  -8.704   0.470  1.00  0.00     0.023 A 
HETATM   18  C16 UNL     1     -14.158  -9.695   0.061  1.00  0.00     0.056 C 
HETATM   19  C17 UNL     1     -14.969  -7.887   1.562  1.00  0.00     0.087 A 
BRANCH  15  20
HETATM   20  O2  UNL     1     -16.553  -9.483  -1.377  1.00  0.00    -0.340 OA
HETATM   21  C14 UNL     1     -17.841  -9.937  -1.678  1.00  0.00     0.211 C 
ENDBRANCH  15  20
BRANCH  19  22
HETATM   22  O3  UNL     1     -13.808  -7.958   2.296  1.00  0.00    -0.355 OA
HETATM   23  C18 UNL     1     -13.576  -8.842   3.356  1.00  0.00     0.210 C 
ENDBRANCH  19  22
ENDBRANCH  11  12
ENDBRANCH   9  11
ENDBRANCH   8   9
BRANCH   5  24
HETATM   24  C4  UNL     1     -17.050 -10.383   6.273  1.00  0.00     0.065 C 
BRANCH  24  25
HETATM   25  C5  UNL     1     -15.657 -10.730   6.456  1.00  0.00     0.035 A 
HETATM   26  C6  UNL     1     -15.080 -11.730   5.702  1.00  0.00     0.122 A 
HETATM   27  N2  UNL     1     -13.787 -12.085   5.840  1.00  0.00    -0.201 N 
HETATM   28  C7  UNL     1     -13.031 -11.428   6.761  1.00  0.00     0.677 A 
ATOM     29  H2  UNL     1     -13.386 -12.829   5.269  1.00  0.00     0.183 HD
HETATM   30  N4  UNL     1     -13.576 -10.449   7.506  1.00  0.00    -0.170 N 
HETATM   31  C8  UNL     1     -14.864 -10.077   7.385  1.00  0.00     0.167 A 
ATOM     32  H4  UNL     1     -12.990  -9.969   8.189  1.00  0.00     0.186 HD
BRANCH  28  33
HETATM   33  N3  UNL     1     -11.801 -11.789   6.869  1.00  0.00    -0.234 N 
ATOM     34  H32 UNL     1     -11.518 -12.685   7.267  1.00  0.00     0.174 HD
ATOM     35  H31 UNL     1     -11.096 -11.132   6.536  1.00  0.00     0.174 HD
ENDBRANCH  28  33
BRANCH  31  36
HETATM   36  O1  UNL     1     -15.438  -9.070   8.145  1.00  0.00    -0.345 OA
ATOM     37  H1  UNL     1     -16.375  -8.930   8.071  1.00  0.00     0.219 HD
ENDBRANCH  31  36
ENDBRANCH  24  25
ENDBRANCH   5  24
TORSDOF 9
ENDMDL
MODEL 5
REMARK VINA RESULT: -6.278360984      2.207      3.014
REMARK  9 active torsions:
REMARK  status: ('A' for Active; 'I' for Inactive)
REMARK    1  A    between atoms: C3_5  and  C4_6 
REMARK    2  A    between atoms: C4_6  and  C5_7 
REMARK    3  A    between atoms: C7_11  and  N3_12 
REMARK    4  A    between atoms: C8_17  and  O1_18 
REMARK    5  A    between atoms: C9_22  and  N6_23 
REMARK    6  A    between atoms: N6_23  and  C10_25 
REMARK    7  A    between atoms: C10_25  and  C11_26 
REMARK    8  A    between atoms: C13_30  and  O2_31 
REMARK    9  A    between atoms: C17_35  and  O3_36 
ROOT
HETATM    1  C1  UNL     1     -11.697 -11.385   3.824  1.00  0.00     0.047 C 
HETATM    2  C2  UNL     1     -12.603 -10.785   4.599  1.00  0.00     0.068 A 
HETATM    3  N1  UNL     1     -13.157 -11.248   5.732  1.00  0.00    -0.340 N 
ATOM      4  H1  UNL     1     -12.946 -12.150   6.158  1.00  0.00     0.167 HD
HETATM    5  C3  UNL     1     -14.030 -10.353   6.225  1.00  0.00     0.108 A 
HETATM    6  N5  UNL     1     -14.017  -9.312   5.381  1.00  0.00    -0.327 N 
ATOM      7  H5  UNL     1     -14.579  -8.468   5.487  1.00  0.00     0.169 HD
HETATM    8  C9  UNL     1     -13.155  -9.543   4.374  1.00  0.00     0.129 A 
ENDROOT
BRANCH   8   9
HETATM    9  N6  UNL     1     -12.830  -8.686   3.258  1.00  0.00    -0.370 N 
ATOM     10  H6  UNL     1     -12.229  -9.044   2.515  1.00  0.00     0.161 HD
BRANCH   9  11
HETATM   11  C10 UNL     1     -13.328  -7.340   3.166  1.00  0.00     0.164 C 
BRANCH  11  12
HETATM   12  C11 UNL     1     -14.731  -7.195   2.801  1.00  0.00     0.009 A 
HETATM   13  C12 UNL     1     -15.620  -6.568   3.628  1.00  0.00     0.102 A 
HETATM   14  N7  UNL     1     -16.938  -6.422   3.347  1.00  0.00    -0.346 N 
HETATM   15  C13 UNL     1     -17.435  -6.908   2.203  1.00  0.00     0.150 A 
ATOM     16  H7  UNL     1     -17.551  -5.942   4.007  1.00  0.00     0.167 HD
HETATM   17  C15 UNL     1     -16.582  -7.552   1.330  1.00  0.00     0.023 A 
HETATM   18  C16 UNL     1     -17.152  -8.088   0.062  1.00  0.00     0.056 C 
HETATM   19  C17 UNL     1     -15.236  -7.709   1.599  1.00  0.00     0.087 A 
BRANCH  15  20
HETATM   20  O2  UNL     1     -18.801  -6.763   1.899  1.00  0.00    -0.340 OA
HETATM   21  C14 UNL     1     -19.758  -7.371   2.718  1.00  0.00     0.211 C 
ENDBRANCH  15  20
BRANCH  19  22
HETATM   22  O3  UNL     1     -14.391  -8.353   0.726  1.00  0.00    -0.355 OA
HETATM   23  C18 UNL     1     -14.329  -9.738   0.535  1.00  0.00     0.210 C 
ENDBRANCH  19  22
ENDBRANCH  11  12
ENDBRANCH   9  11
ENDBRANCH   8   9
BRANCH   5  24
HETATM   24  C4  UNL     1     -14.760 -10.495   7.345  1.00  0.00     0.065 C 
BRANCH  24  25
HETATM   25  C5  UNL     1     -15.991 -11.257   7.350  1.00  0.00     0.035 A 
HETATM   26  C6  UNL     1     -16.475 -11.812   6.184  1.00  0.00     0.122 A 
HETATM   27  N2  UNL     1     -17.616 -12.527   6.145  1.00  0.00    -0.201 N 
HETATM   28  C7  UNL     1     -18.311 -12.702   7.301  1.00  0.00     0.677 A 
ATOM     29  H2  UNL     1     -17.952 -12.927   5.268  1.00  0.00     0.183 HD
HETATM   30  N4  UNL     1     -17.854 -12.169   8.449  1.00  0.00    -0.170 N 
HETATM   31  C8  UNL     1     -16.717 -11.451   8.513  1.00  0.00     0.167 A 
ATOM     32  H4  UNL     1     -18.390 -12.314   9.305  1.00  0.00     0.186 HD
BRANCH  28  33
HETATM   33  N3  UNL     1     -19.395 -13.390   7.231  1.00  0.00    -0.234 N 
ATOM     34  H32 UNL     1     -20.063 -13.299   6.465  1.00  0.00     0.174 HD
ATOM     35  H31 UNL     1     -19.575 -14.048   7.989  1.00  0.00     0.174 HD
ENDBRANCH  28  33
BRANCH  31  36
HETATM   36  O1  UNL     1     -16.234 -10.895   9.688  1.00  0.00    -0.345 OA
ATOM     37  H1  UNL     1     -16.123 -11.464  10.441  1.00  0.00     0.219 HD
ENDBRANCH  31  36
ENDBRANCH  24  25
ENDBRANCH   5  24
TORSDOF 9
ENDMDL
