MODEL 1
REMARK VINA RESULT: -7.614480042      0.000      0.000
REMARK  22 active torsions:
REMARK  status: ('A' for Active; 'I' for Inactive)
REMARK    1  A    between atoms: C2_2  and  C3_3 
REMARK    2  A    between atoms: C3_3  and  C4_4 
REMARK    3  A    between atoms: C4_4  and  C5_5 
REMARK    4  A    between atoms: C5_5  and  C6_6 
REMARK    5  A    between atoms: C6_6  and  C7_7 
REMARK    6  A    between atoms: C6_6  and  C23_40 
REMARK    7  A    between atoms: C7_7  and  N1_8 
REMARK    8  A    between atoms: C9_12  and  C10_13 
REMARK    9  A    between atoms: C12_17  and  O3_18 
REMARK   10  A    between atoms: C13_20  and  C14_21 
REMARK   11  A    between atoms: C14_21  and  C15_22 
REMARK   12  A    between atoms: C15_22  and  C16_23 
REMARK   13  A    between atoms: C17_28  and  O6_29 
REMARK   14  A    between atoms: C18_31  and  C19_32 
REMARK   15  A    between atoms: C19_32  and  C20_33 
REMARK   16  A    between atoms: C20_33  and  C21_34 
REMARK   17  A    between atoms: C21_34  and  N4_35 
REMARK   18  A    between atoms: C23_40  and  O7_41 
REMARK   19  A    between atoms: C23_40  and  C24_43 
REMARK   20  A    between atoms: C24_43  and  C25_44 
REMARK   21  A    between atoms: C25_44  and  C26_45 
REMARK   22  A    between atoms: C26_45  and  C27_46 
ROOT
HETATM    1  N1  UNL     1      10.752   8.251  22.463  1.00  0.00    -0.272 N 
HETATM    2  O1  UNL     1      10.686   7.868  21.233  1.00  0.00    -0.196 OA
HETATM    3  C8  UNL     1      10.330   7.955  19.990  1.00  0.00     0.327 C 
HETATM    4  O2  UNL     1      10.716   7.016  19.180  1.00  0.00    -0.256 OA
HETATM    5  C9  UNL     1       9.515   9.012  19.351  1.00  0.00     0.088 C 
HETATM    6  N2  UNL     1      10.238  10.209  19.009  1.00  0.00    -0.334 N 
ATOM      7  H2  UNL     1      10.189  10.438  18.016  1.00  0.00     0.168 HD
HETATM    8  C12 UNL     1      10.992  11.122  19.745  1.00  0.00     0.163 C 
HETATM    9  C13 UNL     1      10.688  12.125  20.746  1.00  0.00     0.062 C 
HETATM   10  N3  UNL     1      10.353  11.733  22.077  1.00  0.00    -0.339 N 
ATOM     11  H3  UNL     1       9.888  12.485  22.587  1.00  0.00     0.167 HD
HETATM   12  C17 UNL     1      10.497  10.603  22.850  1.00  0.00     0.141 C 
HETATM   13  C18 UNL     1      11.396   9.473  22.764  1.00  0.00     0.183 C 
ENDROOT
BRANCH   1  14
HETATM   14  C7  UNL     1       9.679   7.847  23.349  1.00  0.00     0.158 C 
BRANCH  14  15
HETATM   15  C6  UNL     1      10.053   6.572  24.078  1.00  0.00     0.034 C 
BRANCH  15  16
HETATM   16  C5  UNL     1       9.282   5.370  23.854  1.00  0.00     0.009 C 
BRANCH  16  17
HETATM   17  C4  UNL     1       9.797   4.076  23.450  1.00  0.00     0.004 C 
BRANCH  17  18
HETATM   18  C3  UNL     1      11.184   3.725  23.843  1.00  0.00     0.026 C 
BRANCH  18  19
HETATM   19  C2  UNL     1      11.471   2.329  23.393  1.00  0.00    -0.037 C 
HETATM   20  C1  UNL     1      10.537   1.601  22.748  1.00  0.00     0.007 C 
ENDBRANCH  18  19
ENDBRANCH  17  18
ENDBRANCH  16  17
ENDBRANCH  15  16
BRANCH  15  21
HETATM   21  C23 UNL     1      10.101   6.863  25.585  1.00  0.00     0.123 C 
BRANCH  21  22
HETATM   22  O7  UNL     1       9.956   8.208  25.803  1.00  0.00    -0.395 OA
ATOM     23  H7  UNL     1       9.465   8.354  26.602  1.00  0.00     0.210 HD
ENDBRANCH  21  22
BRANCH  21  24
HETATM   24  C24 UNL     1       9.136   6.027  26.372  1.00  0.00     0.032 C 
BRANCH  24  25
HETATM   25  C25 UNL     1       9.771   5.556  27.670  1.00  0.00     0.008 C 
BRANCH  25  26
HETATM   26  C26 UNL     1      10.428   4.225  27.559  1.00  0.00     0.079 C 
BRANCH  26  27
HETATM   27  C27 UNL     1       9.594   3.027  27.835  1.00  0.00     0.240 C 
HETATM   28  C28 UNL     1       9.197   2.277  26.594  1.00  0.00     0.090 C 
HETATM   29  F1  UNL     1      10.447   2.127  28.529  1.00  0.00    -0.207 F 
HETATM   30  F2  UNL     1       8.544   3.229  28.673  1.00  0.00    -0.207 F 
ENDBRANCH  26  27
ENDBRANCH  25  26
ENDBRANCH  24  25
ENDBRANCH  21  24
ENDBRANCH  15  21
ENDBRANCH  14  15
ENDBRANCH   1  14
BRANCH  13  31
HETATM   31  C19 UNL     1      12.372   9.359  23.924  1.00  0.00     0.037 C 
BRANCH  31  32
HETATM   32  C20 UNL     1      13.768   9.561  23.387  1.00  0.00     0.022 C 
BRANCH  32  33
HETATM   33  C21 UNL     1      14.689   9.517  24.596  1.00  0.00     0.122 C 
BRANCH  33  34
HETATM   34  N4  UNL     1      14.580  10.692  25.386  1.00  0.00    -0.367 N 
HETATM   35  C22 UNL     1      14.990  10.827  26.569  1.00  0.00     0.196 C 
HETATM   36  N5  UNL     1      14.806  12.072  27.223  1.00  0.00    -0.067 NA
HETATM   37  N6  UNL     1      15.628   9.768  27.260  1.00  0.00    -0.067 NA
ATOM     38  H4  UNL     1      14.130  11.500  24.956  1.00  0.00     0.161 HD
ENDBRANCH  33  34
ENDBRANCH  32  33
ENDBRANCH  31  32
ENDBRANCH  13  31
BRANCH  12  39
HETATM   39  O6  UNL     1       9.671  10.524  23.858  1.00  0.00    -0.348 OA
ATOM     40  H6  UNL     1       9.941   9.927  24.546  1.00  0.00     0.219 HD
ENDBRANCH  12  39
BRANCH   5  41
HETATM   41  C10 UNL     1       8.166   9.232  19.997  1.00  0.00     0.059 C 
HETATM   42  C11 UNL     1       7.188   8.234  19.459  1.00  0.00     0.011 C 
ENDBRANCH   5  41
BRANCH   9  43
HETATM   43  C14 UNL     1       9.766  13.254  20.346  1.00  0.00     0.072 C 
BRANCH  43  44
HETATM   44  C15 UNL     1       9.557  13.497  18.896  1.00  0.00     0.119 C 
BRANCH  44  45
HETATM   45  C16 UNL     1       8.279  13.106  18.309  1.00  0.00     0.172 C 
HETATM   46  O4  UNL     1       7.593  12.096  18.587  1.00  0.00    -0.648 OA
HETATM   47  O5  UNL     1       7.756  13.961  17.315  1.00  0.00    -0.648 OA
ENDBRANCH  44  45
ENDBRANCH  43  44
ENDBRANCH   9  43
BRANCH   8  48
HETATM   48  O3  UNL     1      12.284  11.066  19.469  1.00  0.00    -0.345 OA
ATOM     49  H3  UNL     1      12.833  11.230  20.227  1.00  0.00     0.219 HD
ENDBRANCH   8  48
TORSDOF 22
ENDMDL
MODEL 2
REMARK VINA RESULT: -7.540954967      4.595      9.110
REMARK  22 active torsions:
REMARK  status: ('A' for Active; 'I' for Inactive)
REMARK    1  A    between atoms: C2_2  and  C3_3 
REMARK    2  A    between atoms: C3_3  and  C4_4 
REMARK    3  A    between atoms: C4_4  and  C5_5 
REMARK    4  A    between atoms: C5_5  and  C6_6 
REMARK    5  A    between atoms: C6_6  and  C7_7 
REMARK    6  A    between atoms: C6_6  and  C23_40 
REMARK    7  A    between atoms: C7_7  and  N1_8 
REMARK    8  A    between atoms: C9_12  and  C10_13 
REMARK    9  A    between atoms: C12_17  and  O3_18 
REMARK   10  A    between atoms: C13_20  and  C14_21 
REMARK   11  A    between atoms: C14_21  and  C15_22 
REMARK   12  A    between atoms: C15_22  and  C16_23 
REMARK   13  A    between atoms: C17_28  and  O6_29 
REMARK   14  A    between atoms: C18_31  and  C19_32 
REMARK   15  A    between atoms: C19_32  and  C20_33 
REMARK   16  A    between atoms: C20_33  and  C21_34 
REMARK   17  A    between atoms: C21_34  and  N4_35 
REMARK   18  A    between atoms: C23_40  and  O7_41 
REMARK   19  A    between atoms: C23_40  and  C24_43 
REMARK   20  A    between atoms: C24_43  and  C25_44 
REMARK   21  A    between atoms: C25_44  and  C26_45 
REMARK   22  A    between atoms: C26_45  and  C27_46 
ROOT
HETATM    1  N1  UNL     1      10.240   6.896  25.622  1.00  0.00    -0.272 N 
HETATM    2  O1  UNL     1       9.295   6.544  24.818  1.00  0.00    -0.196 OA
HETATM    3  C8  UNL     1       8.557   5.702  24.166  1.00  0.00     0.327 C 
HETATM    4  O2  UNL     1       7.615   6.177  23.409  1.00  0.00    -0.256 OA
HETATM    5  C9  UNL     1       8.646   4.224  24.168  1.00  0.00     0.088 C 
HETATM    6  N2  UNL     1       8.018   3.582  25.293  1.00  0.00    -0.334 N 
ATOM      7  H2  UNL     1       7.294   2.917  25.023  1.00  0.00     0.168 HD
HETATM    8  C12 UNL     1       8.190   3.675  26.674  1.00  0.00     0.163 C 
HETATM    9  C13 UNL     1       9.233   3.286  27.601  1.00  0.00     0.062 C 
HETATM   10  N3  UNL     1      10.448   4.032  27.669  1.00  0.00    -0.339 N 
ATOM     11  H3  UNL     1      11.191   3.504  28.127  1.00  0.00     0.167 HD
HETATM   12  C17 UNL     1      10.875   5.279  27.275  1.00  0.00     0.141 C 
HETATM   13  C18 UNL     1      10.164   6.504  26.979  1.00  0.00     0.183 C 
ENDROOT
BRANCH   1  14
HETATM   14  C7  UNL     1      11.569   7.057  25.066  1.00  0.00     0.158 C 
BRANCH  14  15
HETATM   15  C6  UNL     1      11.830   8.515  24.746  1.00  0.00     0.034 C 
BRANCH  15  16
HETATM   16  C5  UNL     1      12.016   8.920  23.372  1.00  0.00     0.009 C 
BRANCH  16  17
HETATM   17  C4  UNL     1      10.984   9.042  22.360  1.00  0.00     0.004 C 
BRANCH  17  18
HETATM   18  C3  UNL     1      10.530   7.806  21.676  1.00  0.00     0.026 C 
BRANCH  18  19
HETATM   19  C2  UNL     1       9.651   8.187  20.529  1.00  0.00    -0.037 C 
HETATM   20  C1  UNL     1       9.983   7.862  19.263  1.00  0.00     0.007 C 
ENDBRANCH  18  19
ENDBRANCH  17  18
ENDBRANCH  16  17
ENDBRANCH  15  16
BRANCH  15  21
HETATM   21  C23 UNL     1      13.030   8.993  25.576  1.00  0.00     0.123 C 
BRANCH  21  22
HETATM   22  O7  UNL     1      13.805   7.920  25.933  1.00  0.00    -0.395 OA
ATOM     23  H7  UNL     1      14.596   7.905  25.407  1.00  0.00     0.210 HD
ENDBRANCH  21  22
BRANCH  21  24
HETATM   24  C24 UNL     1      13.806  10.087  24.906  1.00  0.00     0.032 C 
BRANCH  24  25
HETATM   25  C25 UNL     1      14.900  10.608  25.823  1.00  0.00     0.008 C 
BRANCH  25  26
HETATM   26  C26 UNL     1      14.423  11.630  26.795  1.00  0.00     0.079 C 
BRANCH  26  27
HETATM   27  C27 UNL     1      15.120  11.703  28.105  1.00  0.00     0.240 C 
HETATM   28  C28 UNL     1      15.658  10.378  28.569  1.00  0.00     0.090 C 
HETATM   29  F1  UNL     1      16.280  12.488  27.869  1.00  0.00    -0.207 F 
HETATM   30  F2  UNL     1      14.448  12.358  29.087  1.00  0.00    -0.207 F 
ENDBRANCH  26  27
ENDBRANCH  25  26
ENDBRANCH  24  25
ENDBRANCH  21  24
ENDBRANCH  15  21
ENDBRANCH  14  15
ENDBRANCH   1  14
BRANCH  13  31
HETATM   31  C19 UNL     1      10.449   7.644  27.942  1.00  0.00     0.037 C 
BRANCH  31  32
HETATM   32  C20 UNL     1       9.483   7.539  29.097  1.00  0.00     0.022 C 
BRANCH  32  33
HETATM   33  C21 UNL     1       8.110   7.346  28.474  1.00  0.00     0.122 C 
BRANCH  33  34
HETATM   34  N4  UNL     1       7.067   7.649  29.389  1.00  0.00    -0.367 N 
HETATM   35  C22 UNL     1       6.392   6.811  30.043  1.00  0.00     0.196 C 
HETATM   36  N5  UNL     1       5.381   7.277  30.922  1.00  0.00    -0.067 NA
HETATM   37  N6  UNL     1       6.617   5.417  29.921  1.00  0.00    -0.067 NA
ATOM     38  H4  UNL     1       6.844   8.634  29.530  1.00  0.00     0.161 HD
ENDBRANCH  33  34
ENDBRANCH  32  33
ENDBRANCH  31  32
ENDBRANCH  13  31
BRANCH  12  39
HETATM   39  O6  UNL     1      12.169   5.395  27.141  1.00  0.00    -0.348 OA
ATOM     40  H6  UNL     1      12.634   5.606  27.942  1.00  0.00     0.219 HD
ENDBRANCH  12  39
BRANCH   5  41
HETATM   41  C10 UNL     1      10.006   3.684  23.790  1.00  0.00     0.059 C 
HETATM   42  C11 UNL     1      10.043   2.207  24.040  1.00  0.00     0.011 C 
ENDBRANCH   5  41
BRANCH   9  43
HETATM   43  C14 UNL     1       9.581   1.818  27.687  1.00  0.00     0.072 C 
BRANCH  43  44
HETATM   44  C15 UNL     1       8.464   0.848  27.814  1.00  0.00     0.119 C 
BRANCH  44  45
HETATM   45  C16 UNL     1       7.609   0.930  28.995  1.00  0.00     0.172 C 
HETATM   46  O4  UNL     1       7.802   0.395  30.109  1.00  0.00    -0.648 OA
HETATM   47  O5  UNL     1       6.433   1.700  28.867  1.00  0.00    -0.648 OA
ENDBRANCH  44  45
ENDBRANCH  43  44
ENDBRANCH   9  43
BRANCH   8  48
HETATM   48  O3  UNL     1       7.164   4.247  27.283  1.00  0.00    -0.345 OA
ATOM     49  H3  UNL     1       7.430   4.853  27.965  1.00  0.00     0.219 HD
ENDBRANCH   8  48
TORSDOF 22
ENDMDL
MODEL 3
REMARK VINA RESULT: -7.518038942      5.215      7.399
REMARK  22 active torsions:
REMARK  status: ('A' for Active; 'I' for Inactive)
REMARK    1  A    between atoms: C2_2  and  C3_3 
REMARK    2  A    between atoms: C3_3  and  C4_4 
REMARK    3  A    between atoms: C4_4  and  C5_5 
REMARK    4  A    between atoms: C5_5  and  C6_6 
REMARK    5  A    between atoms: C6_6  and  C7_7 
REMARK    6  A    between atoms: C6_6  and  C23_40 
REMARK    7  A    between atoms: C7_7  and  N1_8 
REMARK    8  A    between atoms: C9_12  and  C10_13 
REMARK    9  A    between atoms: C12_17  and  O3_18 
REMARK   10  A    between atoms: C13_20  and  C14_21 
REMARK   11  A    between atoms: C14_21  and  C15_22 
REMARK   12  A    between atoms: C15_22  and  C16_23 
REMARK   13  A    between atoms: C17_28  and  O6_29 
REMARK   14  A    between atoms: C18_31  and  C19_32 
REMARK   15  A    between atoms: C19_32  and  C20_33 
REMARK   16  A    between atoms: C20_33  and  C21_34 
REMARK   17  A    between atoms: C21_34  and  N4_35 
REMARK   18  A    between atoms: C23_40  and  O7_41 
REMARK   19  A    between atoms: C23_40  and  C24_43 
REMARK   20  A    between atoms: C24_43  and  C25_44 
REMARK   21  A    between atoms: C25_44  and  C26_45 
REMARK   22  A    between atoms: C26_45  and  C27_46 
ROOT
HETATM    1  N1  UNL     1       9.427   4.871  26.478  1.00  0.00    -0.272 N 
HETATM    2  O1  UNL     1       8.157   4.688  26.346  1.00  0.00    -0.196 OA
HETATM    3  C8  UNL     1       6.916   4.734  26.718  1.00  0.00     0.327 C 
HETATM    4  O2  UNL     1       6.017   4.286  25.895  1.00  0.00    -0.256 OA
HETATM    5  C9  UNL     1       6.368   5.245  27.995  1.00  0.00     0.088 C 
HETATM    6  N2  UNL     1       6.223   6.675  28.062  1.00  0.00    -0.334 N 
ATOM      7  H2  UNL     1       5.266   6.973  28.250  1.00  0.00     0.168 HD
HETATM    8  C12 UNL     1       7.112   7.741  27.923  1.00  0.00     0.163 C 
HETATM    9  C13 UNL     1       8.211   8.262  28.710  1.00  0.00     0.062 C 
HETATM   10  N3  UNL     1       9.460   7.573  28.743  1.00  0.00    -0.339 N 
ATOM     11  H3  UNL     1      10.033   7.865  29.535  1.00  0.00     0.167 HD
HETATM   12  C17 UNL     1      10.091   6.615  27.983  1.00  0.00     0.141 C 
HETATM   13  C18 UNL     1       9.917   6.190  26.611  1.00  0.00     0.183 C 
ENDROOT
BRANCH   1  14
HETATM   14  C7  UNL     1      10.191   3.826  27.129  1.00  0.00     0.158 C 
BRANCH  14  15
HETATM   15  C6  UNL     1      10.110   2.541  26.329  1.00  0.00     0.034 C 
BRANCH  15  16
HETATM   16  C5  UNL     1       9.906   2.603  24.900  1.00  0.00     0.009 C 
BRANCH  16  17
HETATM   17  C4  UNL     1      10.927   2.482  23.876  1.00  0.00     0.004 C 
BRANCH  17  18
HETATM   18  C3  UNL     1      10.656   1.587  22.725  1.00  0.00     0.026 C 
BRANCH  18  19
HETATM   19  C2  UNL     1      11.929   1.380  21.968  1.00  0.00    -0.037 C 
HETATM   20  C1  UNL     1      12.008   0.462  20.983  1.00  0.00     0.007 C 
ENDBRANCH  18  19
ENDBRANCH  17  18
ENDBRANCH  16  17
ENDBRANCH  15  16
BRANCH  15  21
HETATM   21  C23 UNL     1       9.031   1.642  26.951  1.00  0.00     0.123 C 
BRANCH  21  22
HETATM   22  O7  UNL     1       9.157   0.366  26.468  1.00  0.00    -0.395 OA
ATOM     23  H7  UNL     1       9.466   0.390  25.570  1.00  0.00     0.210 HD
ENDBRANCH  21  22
BRANCH  21  24
HETATM   24  C24 UNL     1       9.006   1.710  28.449  1.00  0.00     0.032 C 
BRANCH  24  25
HETATM   25  C25 UNL     1       7.992   0.728  29.012  1.00  0.00     0.008 C 
BRANCH  25  26
HETATM   26  C26 UNL     1       7.281   1.236  30.218  1.00  0.00     0.079 C 
BRANCH  26  27
HETATM   27  C27 UNL     1       6.787   0.228  31.191  1.00  0.00     0.240 C 
HETATM   28  C28 UNL     1       6.157   0.837  32.413  1.00  0.00     0.090 C 
HETATM   29  F1  UNL     1       5.712  -0.431  30.536  1.00  0.00    -0.207 F 
HETATM   30  F2  UNL     1       7.665  -0.760  31.503  1.00  0.00    -0.207 F 
ENDBRANCH  26  27
ENDBRANCH  25  26
ENDBRANCH  24  25
ENDBRANCH  21  24
ENDBRANCH  15  21
ENDBRANCH  14  15
ENDBRANCH   1  14
BRANCH  13  31
HETATM   31  C19 UNL     1      11.107   6.474  25.709  1.00  0.00     0.037 C 
BRANCH  31  32
HETATM   32  C20 UNL     1      11.357   7.962  25.711  1.00  0.00     0.022 C 
BRANCH  32  33
HETATM   33  C21 UNL     1      12.822   8.138  25.343  1.00  0.00     0.122 C 
BRANCH  33  34
HETATM   34  N4  UNL     1      13.435   9.177  26.093  1.00  0.00    -0.367 N 
HETATM   35  C22 UNL     1      14.663   9.451  26.108  1.00  0.00     0.196 C 
HETATM   36  N5  UNL     1      15.119  10.527  26.912  1.00  0.00    -0.067 NA
HETATM   37  N6  UNL     1      15.599   8.712  25.343  1.00  0.00    -0.067 NA
ATOM     38  H4  UNL     1      12.824   9.754  26.672  1.00  0.00     0.161 HD
ENDBRANCH  33  34
ENDBRANCH  32  33
ENDBRANCH  31  32
ENDBRANCH  13  31
BRANCH  12  39
HETATM   39  O6  UNL     1      11.032   5.956  28.605  1.00  0.00    -0.348 OA
ATOM     40  H6  UNL     1      11.904   6.318  28.503  1.00  0.00     0.219 HD
ENDBRANCH  12  39
BRANCH   5  41
HETATM   41  C10 UNL     1       6.957   4.595  29.226  1.00  0.00     0.059 C 
HETATM   42  C11 UNL     1       6.069   4.862  30.403  1.00  0.00     0.011 C 
ENDBRANCH   5  41
BRANCH   9  43
HETATM   43  C14 UNL     1       7.904   8.739  30.110  1.00  0.00     0.072 C 
BRANCH  43  44
HETATM   44  C15 UNL     1       6.955   9.872  30.263  1.00  0.00     0.119 C 
BRANCH  44  45
HETATM   45  C16 UNL     1       5.560   9.566  30.566  1.00  0.00     0.172 C 
HETATM   46  O4  UNL     1       4.597  10.364  30.593  1.00  0.00    -0.648 OA
HETATM   47  O5  UNL     1       5.262   8.218  30.864  1.00  0.00    -0.648 OA
ENDBRANCH  44  45
ENDBRANCH  43  44
ENDBRANCH   9  43
BRANCH   8  48
HETATM   48  O3  UNL     1       6.906   8.444  26.821  1.00  0.00    -0.345 OA
ATOM     49  H3  UNL     1       7.107   9.366  26.928  1.00  0.00     0.219 HD
ENDBRANCH   8  48
TORSDOF 22
ENDMDL
MODEL 4
REMARK VINA RESULT: -7.353713405      2.146      2.917
REMARK  22 active torsions:
REMARK  status: ('A' for Active; 'I' for Inactive)
REMARK    1  A    between atoms: C2_2  and  C3_3 
REMARK    2  A    between atoms: C3_3  and  C4_4 
REMARK    3  A    between atoms: C4_4  and  C5_5 
REMARK    4  A    between atoms: C5_5  and  C6_6 
REMARK    5  A    between atoms: C6_6  and  C7_7 
REMARK    6  A    between atoms: C6_6  and  C23_40 
REMARK    7  A    between atoms: C7_7  and  N1_8 
REMARK    8  A    between atoms: C9_12  and  C10_13 
REMARK    9  A    between atoms: C12_17  and  O3_18 
REMARK   10  A    between atoms: C13_20  and  C14_21 
REMARK   11  A    between atoms: C14_21  and  C15_22 
REMARK   12  A    between atoms: C15_22  and  C16_23 
REMARK   13  A    between atoms: C17_28  and  O6_29 
REMARK   14  A    between atoms: C18_31  and  C19_32 
REMARK   15  A    between atoms: C19_32  and  C20_33 
REMARK   16  A    between atoms: C20_33  and  C21_34 
REMARK   17  A    between atoms: C21_34  and  N4_35 
REMARK   18  A    between atoms: C23_40  and  O7_41 
REMARK   19  A    between atoms: C23_40  and  C24_43 
REMARK   20  A    between atoms: C24_43  and  C25_44 
REMARK   21  A    between atoms: C25_44  and  C26_45 
REMARK   22  A    between atoms: C26_45  and  C27_46 
ROOT
HETATM    1  N1  UNL     1      10.908   9.176  22.704  1.00  0.00    -0.272 N 
HETATM    2  O1  UNL     1      10.787   8.524  21.599  1.00  0.00    -0.196 OA
HETATM    3  C8  UNL     1      10.362   8.322  20.391  1.00  0.00     0.327 C 
HETATM    4  O2  UNL     1      10.729   7.230  19.791  1.00  0.00    -0.256 OA
HETATM    5  C9  UNL     1       9.488   9.197  19.577  1.00  0.00     0.088 C 
HETATM    6  N2  UNL     1      10.160  10.295  18.933  1.00  0.00    -0.334 N 
ATOM      7  H2  UNL     1      10.052  10.292  17.920  1.00  0.00     0.168 HD
HETATM    8  C12 UNL     1      10.928  11.361  19.401  1.00  0.00     0.163 C 
HETATM    9  C13 UNL     1      10.652  12.560  20.165  1.00  0.00     0.062 C 
HETATM   10  N3  UNL     1      10.400  12.475  21.567  1.00  0.00    -0.339 N 
ATOM     11  H3  UNL     1       9.943  13.316  21.921  1.00  0.00     0.167 HD
HETATM   12  C17 UNL     1      10.613  11.552  22.565  1.00  0.00     0.141 C 
HETATM   13  C18 UNL     1      11.536  10.443  22.685  1.00  0.00     0.183 C 
ENDROOT
BRANCH   1  14
HETATM   14  C7  UNL     1       9.895   8.969  23.720  1.00  0.00     0.158 C 
BRANCH  14  15
HETATM   15  C6  UNL     1       9.762   7.493  24.035  1.00  0.00     0.034 C 
BRANCH  15  16
HETATM   16  C5  UNL     1       8.448   6.913  24.193  1.00  0.00     0.009 C 
BRANCH  16  17
HETATM   17  C4  UNL     1       7.464   6.704  23.148  1.00  0.00     0.004 C 
BRANCH  17  18
HETATM   18  C3  UNL     1       6.342   5.774  23.424  1.00  0.00     0.026 C 
BRANCH  18  19
HETATM   19  C2  UNL     1       6.679   4.959  24.631  1.00  0.00    -0.037 C 
HETATM   20  C1  UNL     1       5.722   4.578  25.501  1.00  0.00     0.007 C 
ENDBRANCH  18  19
ENDBRANCH  17  18
ENDBRANCH  16  17
ENDBRANCH  15  16
BRANCH  15  21
HETATM   21  C23 UNL     1      10.602   7.179  25.280  1.00  0.00     0.123 C 
BRANCH  21  22
HETATM   22  O7  UNL     1      10.881   8.338  25.957  1.00  0.00    -0.395 OA
ATOM     23  H7  UNL     1      10.861   8.177  26.893  1.00  0.00     0.210 HD
ENDBRANCH  21  22
BRANCH  21  24
HETATM   24  C24 UNL     1       9.989   6.119  26.147  1.00  0.00     0.032 C 
BRANCH  24  25
HETATM   25  C25 UNL     1      10.826   4.851  26.117  1.00  0.00     0.008 C 
BRANCH  25  26
HETATM   26  C26 UNL     1      10.187   3.737  25.365  1.00  0.00     0.079 C 
BRANCH  26  27
HETATM   27  C27 UNL     1      10.537   3.595  23.928  1.00  0.00     0.240 C 
HETATM   28  C28 UNL     1      11.017   2.217  23.564  1.00  0.00     0.090 C 
HETATM   29  F1  UNL     1       9.310   3.735  23.227  1.00  0.00    -0.207 F 
HETATM   30  F2  UNL     1      11.339   4.569  23.425  1.00  0.00    -0.207 F 
ENDBRANCH  26  27
ENDBRANCH  25  26
ENDBRANCH  24  25
ENDBRANCH  21  24
ENDBRANCH  15  21
ENDBRANCH  14  15
ENDBRANCH   1  14
BRANCH  13  31
HETATM   31  C19 UNL     1      12.575  10.607  23.782  1.00  0.00     0.037 C 
BRANCH  31  32
HETATM   32  C20 UNL     1      13.567   9.476  23.664  1.00  0.00     0.022 C 
BRANCH  32  33
HETATM   33  C21 UNL     1      14.464   9.830  22.488  1.00  0.00     0.122 C 
BRANCH  33  34
HETATM   34  N4  UNL     1      15.821   9.497  22.739  1.00  0.00    -0.367 N 
HETATM   35  C22 UNL     1      16.798   9.765  21.991  1.00  0.00     0.196 C 
HETATM   36  N5  UNL     1      18.099   9.364  22.387  1.00  0.00    -0.067 NA
HETATM   37  N6  UNL     1      16.628  10.456  20.765  1.00  0.00    -0.067 NA
ATOM     38  H4  UNL     1      16.024   8.996  23.604  1.00  0.00     0.161 HD
ENDBRANCH  33  34
ENDBRANCH  32  33
ENDBRANCH  31  32
ENDBRANCH  13  31
BRANCH  12  39
HETATM   39  O6  UNL     1       9.845  11.691  23.611  1.00  0.00    -0.348 OA
ATOM     40  H6  UNL     1       9.679  10.889  24.092  1.00  0.00     0.219 HD
ENDBRANCH  12  39
BRANCH   5  41
HETATM   41  C10 UNL     1       8.170   9.540  20.234  1.00  0.00     0.059 C 
HETATM   42  C11 UNL     1       7.155   8.495  19.889  1.00  0.00     0.011 C 
ENDBRANCH   5  41
BRANCH   9  43
HETATM   43  C14 UNL     1       9.681  13.557  19.576  1.00  0.00     0.072 C 
BRANCH  43  44
HETATM   44  C15 UNL     1       8.298  13.094  19.298  1.00  0.00     0.119 C 
BRANCH  44  45
HETATM   45  C16 UNL     1       7.921  12.843  17.910  1.00  0.00     0.172 C 
HETATM   46  O4  UNL     1       7.858  11.736  17.329  1.00  0.00    -0.648 OA
HETATM   47  O5  UNL     1       7.592  13.974  17.132  1.00  0.00    -0.648 OA
ENDBRANCH  44  45
ENDBRANCH  43  44
ENDBRANCH   9  43
BRANCH   8  48
HETATM   48  O3  UNL     1      12.205  11.260  19.070  1.00  0.00    -0.345 OA
ATOM     49  H3  UNL     1      12.470  11.899  18.418  1.00  0.00     0.219 HD
ENDBRANCH   8  48
TORSDOF 22
ENDMDL
MODEL 5
REMARK VINA RESULT: -7.338029853      4.103      7.504
REMARK  22 active torsions:
REMARK  status: ('A' for Active; 'I' for Inactive)
REMARK    1  A    between atoms: C2_2  and  C3_3 
REMARK    2  A    between atoms: C3_3  and  C4_4 
REMARK    3  A    between atoms: C4_4  and  C5_5 
REMARK    4  A    between atoms: C5_5  and  C6_6 
REMARK    5  A    between atoms: C6_6  and  C7_7 
REMARK    6  A    between atoms: C6_6  and  C23_40 
REMARK    7  A    between atoms: C7_7  and  N1_8 
REMARK    8  A    between atoms: C9_12  and  C10_13 
REMARK    9  A    between atoms: C12_17  and  O3_18 
REMARK   10  A    between atoms: C13_20  and  C14_21 
REMARK   11  A    between atoms: C14_21  and  C15_22 
REMARK   12  A    between atoms: C15_22  and  C16_23 
REMARK   13  A    between atoms: C17_28  and  O6_29 
REMARK   14  A    between atoms: C18_31  and  C19_32 
REMARK   15  A    between atoms: C19_32  and  C20_33 
REMARK   16  A    between atoms: C20_33  and  C21_34 
REMARK   17  A    between atoms: C21_34  and  N4_35 
REMARK   18  A    between atoms: C23_40  and  O7_41 
REMARK   19  A    between atoms: C23_40  and  C24_43 
REMARK   20  A    between atoms: C24_43  and  C25_44 
REMARK   21  A    between atoms: C25_44  and  C26_45 
REMARK   22  A    between atoms: C26_45  and  C27_46 
ROOT
HETATM    1  N1  UNL     1       9.185   3.598  25.377  1.00  0.00    -0.272 N 
HETATM    2  O1  UNL     1       8.062   4.179  25.121  1.00  0.00    -0.196 OA
HETATM    3  C8  UNL     1       7.250   5.186  25.036  1.00  0.00     0.327 C 
HETATM    4  O2  UNL     1       6.045   4.960  24.607  1.00  0.00    -0.256 OA
HETATM    5  C9  UNL     1       7.519   6.602  25.373  1.00  0.00     0.088 C 
HETATM    6  N2  UNL     1       8.213   7.345  24.354  1.00  0.00    -0.334 N 
ATOM      7  H2  UNL     1       7.699   8.166  24.035  1.00  0.00     0.168 HD
HETATM    8  C12 UNL     1       9.438   7.181  23.708  1.00  0.00     0.163 C 
HETATM    9  C13 UNL     1      10.826   7.293  24.109  1.00  0.00     0.062 C 
HETATM   10  N3  UNL     1      11.423   6.285  24.923  1.00  0.00    -0.339 N 
ATOM     11  H3  UNL     1      12.280   6.614  25.366  1.00  0.00     0.167 HD
HETATM   12  C17 UNL     1      11.139   4.982  25.265  1.00  0.00     0.141 C 
HETATM   13  C18 UNL     1      10.329   3.964  24.632  1.00  0.00     0.183 C 
ENDROOT
BRANCH   1  14
HETATM   14  C7  UNL     1       9.411   3.146  26.735  1.00  0.00     0.158 C 
BRANCH  14  15
HETATM   15  C6  UNL     1       8.089   2.934  27.445  1.00  0.00     0.034 C 
BRANCH  15  16
HETATM   16  C5  UNL     1       7.780   3.711  28.624  1.00  0.00     0.009 C 
BRANCH  16  17
HETATM   17  C4  UNL     1       6.478   4.228  29.001  1.00  0.00     0.004 C 
BRANCH  17  18
HETATM   18  C3  UNL     1       6.376   5.006  30.260  1.00  0.00     0.026 C 
BRANCH  18  19
HETATM   19  C2  UNL     1       5.257   4.449  31.080  1.00  0.00    -0.037 C 
HETATM   20  C1  UNL     1       5.391   4.276  32.411  1.00  0.00     0.007 C 
ENDBRANCH  18  19
ENDBRANCH  17  18
ENDBRANCH  16  17
ENDBRANCH  15  16
BRANCH  15  21
HETATM   21  C23 UNL     1       7.943   1.442  27.776  1.00  0.00     0.123 C 
BRANCH  21  22
HETATM   22  O7  UNL     1       8.594   0.691  26.832  1.00  0.00    -0.395 OA
ATOM     23  H7  UNL     1       8.388  -0.228  26.954  1.00  0.00     0.210 HD
ENDBRANCH  21  22
BRANCH  21  24
HETATM   24  C24 UNL     1       8.350   1.112  29.181  1.00  0.00     0.032 C 
BRANCH  24  25
HETATM   25  C25 UNL     1       7.230   0.386  29.907  1.00  0.00     0.008 C 
BRANCH  25  26
HETATM   26  C26 UNL     1       6.703   1.131  31.083  1.00  0.00     0.079 C 
BRANCH  26  27
HETATM   27  C27 UNL     1       6.198   0.330  32.227  1.00  0.00     0.240 C 
HETATM   28  C28 UNL     1       6.966  -0.944  32.449  1.00  0.00     0.090 C 
HETATM   29  F1  UNL     1       6.475   1.110  33.382  1.00  0.00    -0.207 F 
HETATM   30  F2  UNL     1       4.855   0.133  32.253  1.00  0.00    -0.207 F 
ENDBRANCH  26  27
ENDBRANCH  25  26
ENDBRANCH  24  25
ENDBRANCH  21  24
ENDBRANCH  15  21
ENDBRANCH  14  15
ENDBRANCH   1  14
BRANCH  13  31
HETATM   31  C19 UNL     1      11.112   2.765  24.122  1.00  0.00     0.037 C 
BRANCH  31  32
HETATM   32  C20 UNL     1      10.347   2.156  22.973  1.00  0.00     0.022 C 
BRANCH  32  33
HETATM   33  C21 UNL     1      10.918   0.758  22.788  1.00  0.00     0.122 C 
BRANCH  33  34
HETATM   34  N4  UNL     1      11.280   0.510  21.437  1.00  0.00    -0.367 N 
HETATM   35  C22 UNL     1      12.351   0.869  20.881  1.00  0.00     0.196 C 
HETATM   36  N5  UNL     1      12.563   0.539  19.518  1.00  0.00    -0.067 NA
HETATM   37  N6  UNL     1      13.346   1.593  21.583  1.00  0.00    -0.067 NA
ATOM     38  H4  UNL     1      10.611  -0.007  20.865  1.00  0.00     0.161 HD
ENDBRANCH  33  34
ENDBRANCH  32  33
ENDBRANCH  31  32
ENDBRANCH  13  31
BRANCH  12  39
HETATM   39  O6  UNL     1      11.704   4.572  26.368  1.00  0.00    -0.348 OA
ATOM     40  H6  UNL     1      11.920   3.647  26.383  1.00  0.00     0.219 HD
ENDBRANCH  12  39
BRANCH   5  41
HETATM   41  C10 UNL     1       8.015   6.820  26.784  1.00  0.00     0.059 C 
HETATM   42  C11 UNL     1       7.029   7.663  27.533  1.00  0.00     0.011 C 
ENDBRANCH   5  41
BRANCH   9  43
HETATM   43  C14 UNL     1      11.303   8.638  24.608  1.00  0.00     0.072 C 
BRANCH  43  44
HETATM   44  C15 UNL     1      12.334   9.347  23.808  1.00  0.00     0.119 C 
BRANCH  44  45
HETATM   45  C16 UNL     1      11.988   9.767  22.454  1.00  0.00     0.172 C 
HETATM   46  O4  UNL     1      12.077   9.092  21.404  1.00  0.00    -0.648 OA
HETATM   47  O5  UNL     1      11.497  11.083  22.309  1.00  0.00    -0.648 OA
ENDBRANCH  44  45
ENDBRANCH  43  44
ENDBRANCH   9  43
BRANCH   8  48
HETATM   48  O3  UNL     1       9.310   6.848  22.435  1.00  0.00    -0.345 OA
ATOM     49  H3  UNL     1       8.855   7.507  21.924  1.00  0.00     0.219 HD
ENDBRANCH   8  48
TORSDOF 22
ENDMDL
