MODEL 1
REMARK VINA RESULT: -8.664913231      0.000      0.000
REMARK  21 active torsions:
REMARK  status: ('A' for Active; 'I' for Inactive)
REMARK    1  A    between atoms: C2_2  and  C3_3 
REMARK    2  A    between atoms: C3_3  and  C5_5 
REMARK    3  A    between atoms: C5_5  and  O1_6 
REMARK    4  A    between atoms: C5_5  and  C6_8 
REMARK    5  A    between atoms: C6_8  and  N1_9 
REMARK    6  A    between atoms: N1_9  and  C7_12 
REMARK    7  A    between atoms: C7_12  and  C9_14 
REMARK    8  A    between atoms: C9_14  and  C10_15 
REMARK    9  A    between atoms: C10_15  and  C11_16 
REMARK       I    between atoms: C11_16  and  N2_18 
REMARK   10  A    between atoms: N3_21  and  C14_22 
REMARK   11  A    between atoms: C14_22  and  C15_23 
REMARK   12  A    between atoms: C16_24  and  C17_25 
REMARK   13  A    between atoms: C20_28  and  O3_29 
REMARK   14  A    between atoms: O3_29  and  C21_30 
REMARK   15  A    between atoms: C25_36  and  C26_37 
REMARK   16  A    between atoms: C26_37  and  C27_38 
REMARK   17  A    between atoms: C27_38  and  N4_39 
REMARK   18  A    between atoms: C27_38  and  C28_43 
REMARK   19  A    between atoms: C28_43  and  O4_44 
REMARK   20  A    between atoms: C28_43  and  C29_46 
REMARK   21  A    between atoms: C29_46  and  N5_47 
ROOT
HETATM    1  C11 UNL     1       9.718   7.040  26.449  1.00  0.00     0.220 C 
HETATM    2  O2  UNL     1       8.759   7.887  26.552  1.00  0.00    -0.273 OA
HETATM    3  N2  UNL     1       9.381   5.675  26.514  1.00  0.00    -0.341 N 
HETATM    4  C12 UNL     1       7.963   5.327  26.712  1.00  0.00     0.170 C 
HETATM    5  C13 UNL     1       7.901   4.613  28.037  1.00  0.00     0.078 C 
HETATM    6  N3  UNL     1       8.730   3.477  28.037  1.00  0.00    -0.386 N 
HETATM    7  C24 UNL     1      10.092   3.635  27.639  1.00  0.00     0.147 C 
HETATM    8  C25 UNL     1      10.249   4.540  26.427  1.00  0.00     0.107 C 
ENDROOT
BRANCH   1   9
HETATM    9  C10 UNL     1      11.046   7.606  26.271  1.00  0.00     0.105 C 
BRANCH   9  10
HETATM   10  C9  UNL     1      11.623   7.710  24.927  1.00  0.00     0.042 C 
BRANCH  10  11
HETATM   11  C7  UNL     1      11.095   8.678  23.943  1.00  0.00     0.182 C 
HETATM   12  C8  UNL     1      10.722   8.243  22.593  1.00  0.00     0.040 C 
BRANCH  11  13
HETATM   13  N1  UNL     1      11.979   9.853  23.853  1.00  0.00    -0.069 N 
ATOM     14  H12 UNL     1      11.670  10.614  24.457  1.00  0.00     0.277 HD
ATOM     15  H11 UNL     1      11.892  10.332  22.957  1.00  0.00     0.277 HD
BRANCH  13  16
HETATM   16  C6  UNL     1      13.319   9.463  24.125  1.00  0.00     0.264 C 
BRANCH  16  17
HETATM   17  C5  UNL     1      14.054  10.546  24.926  1.00  0.00     0.147 C 
BRANCH  17  18
HETATM   18  C3  UNL     1      14.369  10.064  26.303  1.00  0.00     0.012 C 
HETATM   19  C4  UNL     1      15.514   9.094  26.276  1.00  0.00     0.012 C 
BRANCH  18  20
HETATM   20  C2  UNL     1      14.770  11.278  27.138  1.00  0.00     0.002 C 
HETATM   21  C1  UNL     1      15.479  10.848  28.388  1.00  0.00     0.005 C 
ENDBRANCH  18  20
ENDBRANCH  17  18
BRANCH  17  22
HETATM   22  O1  UNL     1      13.306  11.711  24.935  1.00  0.00    -0.394 OA
ATOM     23  H1  UNL     1      13.272  12.125  24.080  1.00  0.00     0.210 HD
ENDBRANCH  17  22
ENDBRANCH  16  17
ENDBRANCH  13  16
ENDBRANCH  11  13
ENDBRANCH  10  11
ENDBRANCH   9  10
ENDBRANCH   1   9
BRANCH   8  24
HETATM   24  C26 UNL     1       9.914   3.764  25.175  1.00  0.00     0.062 C 
BRANCH  24  25
HETATM   25  C27 UNL     1      11.095   3.280  24.410  1.00  0.00     0.215 C 
BRANCH  25  26
HETATM   26  N4  UNL     1      11.085   4.003  23.134  1.00  0.00    -0.072 N 
ATOM     27  H43 UNL     1      10.420   3.625  22.460  1.00  0.00     0.274 HD
ATOM     28  H42 UNL     1      10.678   4.937  23.202  1.00  0.00     0.274 HD
ATOM     29  H41 UNL     1      12.048   4.004  22.798  1.00  0.00     0.274 HD
ENDBRANCH  25  26
BRANCH  25  30
HETATM   30  C28 UNL     1      10.923   1.817  24.031  1.00  0.00     0.166 C 
BRANCH  30  31
HETATM   31  O4  UNL     1       9.930   1.236  24.837  1.00  0.00    -0.392 OA
ATOM     32  H4  UNL     1      10.306   0.525  25.342  1.00  0.00     0.210 HD
ENDBRANCH  30  31
BRANCH  30  33
HETATM   33  C29 UNL     1      10.611   1.730  22.568  1.00  0.00     0.155 C 
BRANCH  33  34
HETATM   34  N5  UNL     1      11.104   0.532  21.963  1.00  0.00    -0.364 N 
HETATM   35  C30 UNL     1      12.221   0.526  21.341  1.00  0.00     0.197 C 
HETATM   36  N6  UNL     1      12.974   1.716  21.252  1.00  0.00    -0.067 NA
HETATM   37  N7  UNL     1      12.677  -0.675  20.756  1.00  0.00    -0.067 NA
ATOM     38  H5  UNL     1      10.559  -0.326  22.029  1.00  0.00     0.161 HD
ENDBRANCH  33  34
ENDBRANCH  30  33
ENDBRANCH  25  30
ENDBRANCH  24  25
ENDBRANCH   8  24
BRANCH   6  39
HETATM   39  C14 UNL     1       8.085   2.274  27.664  1.00  0.00     0.149 C 
BRANCH  39  40
HETATM   40  C15 UNL     1       7.974   1.396  28.894  1.00  0.00    -0.006 C 
HETATM   41  C16 UNL     1       7.037   1.587  29.780  1.00  0.00     0.009 C 
BRANCH  41  42
HETATM   42  C17 UNL     1       6.902   0.777  30.952  1.00  0.00    -0.036 A 
HETATM   43  C18 UNL     1       7.260  -0.543  31.017  1.00  0.00     0.014 A 
HETATM   44  C19 UNL     1       7.098  -1.291  32.187  1.00  0.00     0.038 A 
HETATM   45  C20 UNL     1       6.573  -0.714  33.299  1.00  0.00     0.074 A 
HETATM   46  C22 UNL     1       6.197   0.633  33.265  1.00  0.00     0.038 A 
HETATM   47  C23 UNL     1       6.366   1.348  32.103  1.00  0.00     0.014 A 
BRANCH  45  48
HETATM   48  O3  UNL     1       6.389  -1.383  34.469  1.00  0.00    -0.290 OA
BRANCH  48  49
HETATM   49  C21 UNL     1       5.420  -2.343  34.753  1.00  0.00     0.505 C 
HETATM   50  F1  UNL     1       5.190  -2.411  36.120  1.00  0.00    -0.184 F 
HETATM   51  F2  UNL     1       4.242  -1.957  34.134  1.00  0.00    -0.184 F 
ENDBRANCH  48  49
ENDBRANCH  45  48
ENDBRANCH  41  42
ENDBRANCH  39  40
ENDBRANCH   6  39
TORSDOF 21
ENDMDL
MODEL 2
REMARK VINA RESULT: -8.178990376      3.455      6.756
REMARK  21 active torsions:
REMARK  status: ('A' for Active; 'I' for Inactive)
REMARK    1  A    between atoms: C2_2  and  C3_3 
REMARK    2  A    between atoms: C3_3  and  C5_5 
REMARK    3  A    between atoms: C5_5  and  O1_6 
REMARK    4  A    between atoms: C5_5  and  C6_8 
REMARK    5  A    between atoms: C6_8  and  N1_9 
REMARK    6  A    between atoms: N1_9  and  C7_12 
REMARK    7  A    between atoms: C7_12  and  C9_14 
REMARK    8  A    between atoms: C9_14  and  C10_15 
REMARK    9  A    between atoms: C10_15  and  C11_16 
REMARK       I    between atoms: C11_16  and  N2_18 
REMARK   10  A    between atoms: N3_21  and  C14_22 
REMARK   11  A    between atoms: C14_22  and  C15_23 
REMARK   12  A    between atoms: C16_24  and  C17_25 
REMARK   13  A    between atoms: C20_28  and  O3_29 
REMARK   14  A    between atoms: O3_29  and  C21_30 
REMARK   15  A    between atoms: C25_36  and  C26_37 
REMARK   16  A    between atoms: C26_37  and  C27_38 
REMARK   17  A    between atoms: C27_38  and  N4_39 
REMARK   18  A    between atoms: C27_38  and  C28_43 
REMARK   19  A    between atoms: C28_43  and  O4_44 
REMARK   20  A    between atoms: C28_43  and  C29_46 
REMARK   21  A    between atoms: C29_46  and  N5_47 
ROOT
HETATM    1  C11 UNL     1      10.531   8.771  22.979  1.00  0.00     0.220 C 
HETATM    2  O2  UNL     1      10.057   8.201  21.930  1.00  0.00    -0.273 OA
HETATM    3  N2  UNL     1      10.950   7.937  24.032  1.00  0.00    -0.341 N 
HETATM    4  C12 UNL     1      10.796   6.482  23.858  1.00  0.00     0.170 C 
HETATM    5  C13 UNL     1       9.827   6.045  24.924  1.00  0.00     0.078 C 
HETATM    6  N3  UNL     1      10.303   6.378  26.206  1.00  0.00    -0.386 N 
HETATM    7  C24 UNL     1      10.708   7.725  26.446  1.00  0.00     0.147 C 
HETATM    8  C25 UNL     1      11.510   8.313  25.295  1.00  0.00     0.107 C 
ENDROOT
BRANCH   1   9
HETATM    9  C10 UNL     1      10.579  10.225  22.941  1.00  0.00     0.105 C 
BRANCH   9  10
HETATM   10  C9  UNL     1      10.031  10.944  21.786  1.00  0.00     0.042 C 
BRANCH  10  11
HETATM   11  C7  UNL     1      10.878  11.274  20.621  1.00  0.00     0.182 C 
HETATM   12  C8  UNL     1      10.642  12.499  19.850  1.00  0.00     0.040 C 
BRANCH  11  13
HETATM   13  N1  UNL     1      10.960  10.126  19.703  1.00  0.00    -0.069 N 
ATOM     14  H12 UNL     1      10.975   9.236  20.201  1.00  0.00     0.277 HD
ATOM     15  H11 UNL     1      11.873  10.057  19.254  1.00  0.00     0.277 HD
BRANCH  13  16
HETATM   16  C6  UNL     1       9.900  10.194  18.758  1.00  0.00     0.264 C 
BRANCH  16  17
HETATM   17  C5  UNL     1       9.206   8.833  18.611  1.00  0.00     0.147 C 
BRANCH  17  18
HETATM   18  C3  UNL     1       7.899   8.825  19.330  1.00  0.00     0.012 C 
HETATM   19  C4  UNL     1       7.275  10.190  19.311  1.00  0.00     0.012 C 
BRANCH  18  20
HETATM   20  C2  UNL     1       6.976   7.851  18.602  1.00  0.00     0.002 C 
HETATM   21  C1  UNL     1       5.825   7.457  19.481  1.00  0.00     0.005 C 
ENDBRANCH  18  20
ENDBRANCH  17  18
BRANCH  17  22
HETATM   22  O1  UNL     1      10.053   7.827  19.047  1.00  0.00    -0.394 OA
ATOM     23  H1  UNL     1       9.586   7.132  19.497  1.00  0.00     0.210 HD
ENDBRANCH  17  22
ENDBRANCH  16  17
ENDBRANCH  13  16
ENDBRANCH  11  13
ENDBRANCH  10  11
ENDBRANCH   9  10
ENDBRANCH   1   9
BRANCH   8  24
HETATM   24  C26 UNL     1      12.933   7.812  25.366  1.00  0.00     0.062 C 
BRANCH  24  25
HETATM   25  C27 UNL     1      13.957   8.876  25.549  1.00  0.00     0.215 C 
BRANCH  25  26
HETATM   26  N4  UNL     1      13.610   9.572  26.793  1.00  0.00    -0.072 N 
ATOM     27  H43 UNL     1      12.630   9.470  27.054  1.00  0.00     0.274 HD
ATOM     28  H42 UNL     1      14.007   9.135  27.626  1.00  0.00     0.274 HD
ATOM     29  H41 UNL     1      13.898  10.542  26.669  1.00  0.00     0.274 HD
ENDBRANCH  25  26
BRANCH  25  30
HETATM   30  C28 UNL     1      13.829   9.933  24.463  1.00  0.00     0.166 C 
BRANCH  30  31
HETATM   31  O4  UNL     1      14.388  11.140  24.913  1.00  0.00    -0.392 OA
ATOM     32  H4  UNL     1      13.694  11.756  25.117  1.00  0.00     0.210 HD
ENDBRANCH  30  31
BRANCH  30  33
HETATM   33  C29 UNL     1      14.476   9.422  23.212  1.00  0.00     0.155 C 
BRANCH  33  34
HETATM   34  N5  UNL     1      15.896   9.306  23.326  1.00  0.00    -0.364 N 
HETATM   35  C30 UNL     1      16.651   9.502  22.313  1.00  0.00     0.197 C 
HETATM   36  N6  UNL     1      16.073   9.836  21.070  1.00  0.00    -0.067 NA
HETATM   37  N7  UNL     1      18.049   9.379  22.462  1.00  0.00    -0.067 NA
ATOM     38  H5  UNL     1      16.312   9.065  24.225  1.00  0.00     0.161 HD
ENDBRANCH  33  34
ENDBRANCH  30  33
ENDBRANCH  25  30
ENDBRANCH  24  25
ENDBRANCH   8  24
BRANCH   6  39
HETATM   39  C14 UNL     1      11.047   5.357  26.843  1.00  0.00     0.149 C 
BRANCH  39  40
HETATM   40  C15 UNL     1      10.140   4.661  27.837  1.00  0.00    -0.006 C 
HETATM   41  C16 UNL     1       9.418   3.633  27.490  1.00  0.00     0.009 C 
BRANCH  41  42
HETATM   42  C17 UNL     1       8.551   2.951  28.403  1.00  0.00    -0.036 A 
HETATM   43  C18 UNL     1       7.541   3.558  29.099  1.00  0.00     0.014 A 
HETATM   44  C19 UNL     1       6.729   2.844  29.986  1.00  0.00     0.038 A 
HETATM   45  C20 UNL     1       6.930   1.515  30.176  1.00  0.00     0.074 A 
HETATM   46  C22 UNL     1       7.954   0.865  29.479  1.00  0.00     0.038 A 
HETATM   47  C23 UNL     1       8.740   1.587  28.613  1.00  0.00     0.014 A 
BRANCH  45  48
HETATM   48  O3  UNL     1       6.177   0.761  31.023  1.00  0.00    -0.290 OA
BRANCH  48  49
HETATM   49  C21 UNL     1       6.348   0.602  32.396  1.00  0.00     0.505 C 
HETATM   50  F1  UNL     1       6.091   1.794  33.059  1.00  0.00    -0.184 F 
HETATM   51  F2  UNL     1       5.434  -0.344  32.833  1.00  0.00    -0.184 F 
ENDBRANCH  48  49
ENDBRANCH  45  48
ENDBRANCH  41  42
ENDBRANCH  39  40
ENDBRANCH   6  39
TORSDOF 21
ENDMDL
MODEL 3
REMARK VINA RESULT: -8.144755213      3.050      5.704
REMARK  21 active torsions:
REMARK  status: ('A' for Active; 'I' for Inactive)
REMARK    1  A    between atoms: C2_2  and  C3_3 
REMARK    2  A    between atoms: C3_3  and  C5_5 
REMARK    3  A    between atoms: C5_5  and  O1_6 
REMARK    4  A    between atoms: C5_5  and  C6_8 
REMARK    5  A    between atoms: C6_8  and  N1_9 
REMARK    6  A    between atoms: N1_9  and  C7_12 
REMARK    7  A    between atoms: C7_12  and  C9_14 
REMARK    8  A    between atoms: C9_14  and  C10_15 
REMARK    9  A    between atoms: C10_15  and  C11_16 
REMARK       I    between atoms: C11_16  and  N2_18 
REMARK   10  A    between atoms: N3_21  and  C14_22 
REMARK   11  A    between atoms: C14_22  and  C15_23 
REMARK   12  A    between atoms: C16_24  and  C17_25 
REMARK   13  A    between atoms: C20_28  and  O3_29 
REMARK   14  A    between atoms: O3_29  and  C21_30 
REMARK   15  A    between atoms: C25_36  and  C26_37 
REMARK   16  A    between atoms: C26_37  and  C27_38 
REMARK   17  A    between atoms: C27_38  and  N4_39 
REMARK   18  A    between atoms: C27_38  and  C28_43 
REMARK   19  A    between atoms: C28_43  and  O4_44 
REMARK   20  A    between atoms: C28_43  and  C29_46 
REMARK   21  A    between atoms: C29_46  and  N5_47 
ROOT
HETATM    1  C11 UNL     1      10.020   6.829  23.500  1.00  0.00     0.220 C 
HETATM    2  O2  UNL     1      11.012   6.867  22.686  1.00  0.00    -0.273 OA
HETATM    3  N2  UNL     1       9.972   5.754  24.406  1.00  0.00    -0.341 N 
HETATM    4  C12 UNL     1      11.048   4.750  24.339  1.00  0.00     0.170 C 
HETATM    5  C13 UNL     1      10.376   3.456  23.961  1.00  0.00     0.078 C 
HETATM    6  N3  UNL     1       9.387   3.109  24.899  1.00  0.00    -0.386 N 
HETATM    7  C24 UNL     1       8.400   4.086  25.232  1.00  0.00     0.147 C 
HETATM    8  C25 UNL     1       8.986   5.478  25.408  1.00  0.00     0.107 C 
ENDROOT
BRANCH   1   9
HETATM    9  C10 UNL     1       9.064   7.919  23.383  1.00  0.00     0.105 C 
BRANCH   9  10
HETATM   10  C9  UNL     1       9.441   9.271  23.809  1.00  0.00     0.042 C 
BRANCH  10  11
HETATM   11  C7  UNL     1       9.977  10.253  22.843  1.00  0.00     0.182 C 
HETATM   12  C8  UNL     1       9.992   9.956  21.407  1.00  0.00     0.040 C 
BRANCH  11  13
HETATM   13  N1  UNL     1      11.311  10.712  23.264  1.00  0.00    -0.069 N 
ATOM     14  H12 UNL     1      11.494  10.512  24.247  1.00  0.00     0.277 HD
ATOM     15  H11 UNL     1      11.373  11.728  23.307  1.00  0.00     0.277 HD
BRANCH  13  16
HETATM   16  C6  UNL     1      12.300  10.150  22.409  1.00  0.00     0.264 C 
BRANCH  16  17
HETATM   17  C5  UNL     1      13.572   9.804  23.195  1.00  0.00     0.147 C 
BRANCH  17  18
HETATM   18  C3  UNL     1      13.288   9.734  24.658  1.00  0.00     0.012 C 
HETATM   19  C4  UNL     1      13.410   8.323  25.155  1.00  0.00     0.012 C 
BRANCH  18  20
HETATM   20  C2  UNL     1      14.323  10.600  25.372  1.00  0.00     0.002 C 
HETATM   21  C1  UNL     1      15.116   9.780  26.346  1.00  0.00     0.005 C 
ENDBRANCH  18  20
ENDBRANCH  17  18
BRANCH  17  22
HETATM   22  O1  UNL     1      14.570  10.717  22.896  1.00  0.00    -0.394 OA
ATOM     23  H1  UNL     1      15.439  10.345  22.990  1.00  0.00     0.210 HD
ENDBRANCH  17  22
ENDBRANCH  16  17
ENDBRANCH  13  16
ENDBRANCH  11  13
ENDBRANCH  10  11
ENDBRANCH   9  10
ENDBRANCH   1   9
BRANCH   8  24
HETATM   24  C26 UNL     1       9.631   5.583  26.769  1.00  0.00     0.062 C 
BRANCH  24  25
HETATM   25  C27 UNL     1       9.468   6.906  27.433  1.00  0.00     0.215 C 
BRANCH  25  26
HETATM   26  N4  UNL     1      10.679   7.673  27.125  1.00  0.00    -0.072 N 
ATOM     27  H43 UNL     1      11.537   7.214  27.429  1.00  0.00     0.274 HD
ATOM     28  H42 UNL     1      10.898   7.702  26.129  1.00  0.00     0.274 HD
ATOM     29  H41 UNL     1      10.546   8.597  27.538  1.00  0.00     0.274 HD
ENDBRANCH  25  26
BRANCH  25  30
HETATM   30  C28 UNL     1       9.478   6.749  28.945  1.00  0.00     0.166 C 
BRANCH  30  31
HETATM   31  O4  UNL     1      10.621   7.372  29.475  1.00  0.00    -0.392 OA
ATOM     32  H4  UNL     1      10.429   7.702  30.344  1.00  0.00     0.210 HD
ENDBRANCH  30  31
BRANCH  30  33
HETATM   33  C29 UNL     1       8.203   7.306  29.499  1.00  0.00     0.155 C 
BRANCH  33  34
HETATM   34  N5  UNL     1       8.137   8.732  29.425  1.00  0.00    -0.364 N 
HETATM   35  C30 UNL     1       7.141   9.367  29.913  1.00  0.00     0.197 C 
HETATM   36  N6  UNL     1       6.095   8.650  30.532  1.00  0.00    -0.067 NA
HETATM   37  N7  UNL     1       7.111  10.775  29.823  1.00  0.00    -0.067 NA
ATOM     38  H5  UNL     1       8.894   9.248  28.978  1.00  0.00     0.161 HD
ENDBRANCH  33  34
ENDBRANCH  30  33
ENDBRANCH  25  30
ENDBRANCH  24  25
ENDBRANCH   8  24
BRANCH   6  39
HETATM   39  C14 UNL     1       9.831   2.261  25.941  1.00  0.00     0.149 C 
BRANCH  39  40
HETATM   40  C15 UNL     1       9.019   2.571  27.182  1.00  0.00    -0.006 C 
HETATM   41  C16 UNL     1       8.510   1.620  27.913  1.00  0.00     0.009 C 
BRANCH  41  42
HETATM   42  C17 UNL     1       7.739   1.876  29.091  1.00  0.00    -0.036 A 
HETATM   43  C18 UNL     1       7.389   0.916  30.002  1.00  0.00     0.014 A 
HETATM   44  C19 UNL     1       6.626   1.221  31.133  1.00  0.00     0.038 A 
HETATM   45  C20 UNL     1       6.210   2.495  31.354  1.00  0.00     0.074 A 
HETATM   46  C22 UNL     1       6.552   3.499  30.442  1.00  0.00     0.038 A 
HETATM   47  C23 UNL     1       7.302   3.176  29.337  1.00  0.00     0.014 A 
BRANCH  45  48
HETATM   48  O3  UNL     1       5.467   2.860  32.433  1.00  0.00    -0.290 OA
BRANCH  48  49
HETATM   49  C21 UNL     1       5.113   4.150  32.822  1.00  0.00     0.505 C 
HETATM   50  F1  UNL     1       3.758   4.365  32.612  1.00  0.00    -0.184 F 
HETATM   51  F2  UNL     1       5.365   4.271  34.179  1.00  0.00    -0.184 F 
ENDBRANCH  48  49
ENDBRANCH  45  48
ENDBRANCH  41  42
ENDBRANCH  39  40
ENDBRANCH   6  39
TORSDOF 21
ENDMDL
MODEL 4
REMARK VINA RESULT: -8.082410191      2.046      3.051
REMARK  21 active torsions:
REMARK  status: ('A' for Active; 'I' for Inactive)
REMARK    1  A    between atoms: C2_2  and  C3_3 
REMARK    2  A    between atoms: C3_3  and  C5_5 
REMARK    3  A    between atoms: C5_5  and  O1_6 
REMARK    4  A    between atoms: C5_5  and  C6_8 
REMARK    5  A    between atoms: C6_8  and  N1_9 
REMARK    6  A    between atoms: N1_9  and  C7_12 
REMARK    7  A    between atoms: C7_12  and  C9_14 
REMARK    8  A    between atoms: C9_14  and  C10_15 
REMARK    9  A    between atoms: C10_15  and  C11_16 
REMARK       I    between atoms: C11_16  and  N2_18 
REMARK   10  A    between atoms: N3_21  and  C14_22 
REMARK   11  A    between atoms: C14_22  and  C15_23 
REMARK   12  A    between atoms: C16_24  and  C17_25 
REMARK   13  A    between atoms: C20_28  and  O3_29 
REMARK   14  A    between atoms: O3_29  and  C21_30 
REMARK   15  A    between atoms: C25_36  and  C26_37 
REMARK   16  A    between atoms: C26_37  and  C27_38 
REMARK   17  A    between atoms: C27_38  and  N4_39 
REMARK   18  A    between atoms: C27_38  and  C28_43 
REMARK   19  A    between atoms: C28_43  and  O4_44 
REMARK   20  A    between atoms: C28_43  and  C29_46 
REMARK   21  A    between atoms: C29_46  and  N5_47 
ROOT
HETATM    1  C11 UNL     1       9.360   7.531  26.132  1.00  0.00     0.220 C 
HETATM    2  O2  UNL     1       8.859   8.348  25.277  1.00  0.00    -0.273 OA
HETATM    3  N2  UNL     1       8.475   6.933  27.047  1.00  0.00    -0.341 N 
HETATM    4  C12 UNL     1       7.050   7.302  26.966  1.00  0.00     0.170 C 
HETATM    5  C13 UNL     1       6.728   7.974  28.274  1.00  0.00     0.078 C 
HETATM    6  N3  UNL     1       6.992   7.119  29.359  1.00  0.00    -0.386 N 
HETATM    7  C24 UNL     1       8.278   6.505  29.437  1.00  0.00     0.147 C 
HETATM    8  C25 UNL     1       8.771   5.998  28.091  1.00  0.00     0.107 C 
ENDROOT
BRANCH   1   9
HETATM    9  C10 UNL     1      10.797   7.323  26.040  1.00  0.00     0.105 C 
BRANCH   9  10
HETATM   10  C9  UNL     1      11.479   7.485  24.752  1.00  0.00     0.042 C 
BRANCH  10  11
HETATM   11  C7  UNL     1      12.119   8.766  24.383  1.00  0.00     0.182 C 
HETATM   12  C8  UNL     1      12.000   9.294  23.021  1.00  0.00     0.040 C 
BRANCH  11  13
HETATM   13  N1  UNL     1      13.534   8.768  24.789  1.00  0.00    -0.069 N 
ATOM     14  H12 UNL     1      14.140   9.161  24.068  1.00  0.00     0.277 HD
ATOM     15  H11 UNL     1      13.928   7.828  24.815  1.00  0.00     0.277 HD
BRANCH  13  16
HETATM   16  C6  UNL     1      13.673   9.444  26.033  1.00  0.00     0.264 C 
BRANCH  16  17
HETATM   17  C5  UNL     1      15.150   9.709  26.352  1.00  0.00     0.147 C 
BRANCH  17  18
HETATM   18  C3  UNL     1      15.332  11.079  26.915  1.00  0.00     0.012 C 
HETATM   19  C4  UNL     1      14.136  11.936  26.621  1.00  0.00     0.012 C 
BRANCH  18  20
HETATM   20  C2  UNL     1      15.481  10.941  28.429  1.00  0.00     0.002 C 
HETATM   21  C1  UNL     1      15.123  12.228  29.112  1.00  0.00     0.005 C 
ENDBRANCH  18  20
ENDBRANCH  17  18
BRANCH  17  22
HETATM   22  O1  UNL     1      15.919   9.499  25.219  1.00  0.00    -0.394 OA
ATOM     23  H1  UNL     1      15.982   8.579  24.992  1.00  0.00     0.210 HD
ENDBRANCH  17  22
ENDBRANCH  16  17
ENDBRANCH  13  16
ENDBRANCH  11  13
ENDBRANCH  10  11
ENDBRANCH   9  10
ENDBRANCH   1   9
BRANCH   8  24
HETATM   24  C26 UNL     1       8.099   4.683  27.772  1.00  0.00     0.062 C 
BRANCH  24  25
HETATM   25  C27 UNL     1       8.991   3.494  27.858  1.00  0.00     0.215 C 
BRANCH  25  26
HETATM   26  N4  UNL     1      10.341   3.969  27.538  1.00  0.00    -0.072 N 
ATOM     27  H43 UNL     1      10.850   3.348  26.910  1.00  0.00     0.274 HD
ATOM     28  H42 UNL     1      10.349   4.792  26.935  1.00  0.00     0.274 HD
ATOM     29  H41 UNL     1      10.812   4.116  28.431  1.00  0.00     0.274 HD
ENDBRANCH  25  26
BRANCH  25  30
HETATM   30  C28 UNL     1       8.658   2.496  26.760  1.00  0.00     0.166 C 
BRANCH  30  31
HETATM   31  O4  UNL     1       7.996   3.155  25.710  1.00  0.00    -0.392 OA
ATOM     32  H4  UNL     1       7.125   3.408  25.993  1.00  0.00     0.210 HD
ENDBRANCH  30  31
BRANCH  30  33
HETATM   33  C29 UNL     1       9.920   1.821  26.320  1.00  0.00     0.155 C 
BRANCH  33  34
HETATM   34  N5  UNL     1       9.914   1.477  24.933  1.00  0.00    -0.364 N 
HETATM   35  C30 UNL     1      10.657   2.102  24.100  1.00  0.00     0.197 C 
HETATM   36  N6  UNL     1      11.491   3.143  24.560  1.00  0.00    -0.067 NA
HETATM   37  N7  UNL     1      10.626   1.734  22.738  1.00  0.00    -0.067 NA
ATOM     38  H5  UNL     1       9.311   0.724  24.603  1.00  0.00     0.161 HD
ENDBRANCH  33  34
ENDBRANCH  30  33
ENDBRANCH  25  30
ENDBRANCH  24  25
ENDBRANCH   8  24
BRANCH   6  39
HETATM   39  C14 UNL     1       5.884   6.351  29.790  1.00  0.00     0.149 C 
BRANCH  39  40
HETATM   40  C15 UNL     1       6.386   4.978  30.185  1.00  0.00    -0.006 C 
HETATM   41  C16 UNL     1       5.575   4.068  30.649  1.00  0.00     0.009 C 
BRANCH  41  42
HETATM   42  C17 UNL     1       6.014   2.760  31.031  1.00  0.00    -0.036 A 
HETATM   43  C18 UNL     1       5.735   2.180  32.239  1.00  0.00     0.014 A 
HETATM   44  C19 UNL     1       6.197   0.901  32.563  1.00  0.00     0.038 A 
HETATM   45  C20 UNL     1       6.944   0.199  31.673  1.00  0.00     0.074 A 
HETATM   46  C22 UNL     1       7.247   0.764  30.430  1.00  0.00     0.038 A 
HETATM   47  C23 UNL     1       6.782   2.023  30.133  1.00  0.00     0.014 A 
BRANCH  45  48
HETATM   48  O3  UNL     1       7.425  -1.049  31.924  1.00  0.00    -0.290 OA
BRANCH  48  49
HETATM   49  C21 UNL     1       6.724  -2.252  31.880  1.00  0.00     0.505 C 
HETATM   50  F1  UNL     1       5.805  -2.241  30.840  1.00  0.00    -0.184 F 
HETATM   51  F2  UNL     1       7.636  -3.269  31.641  1.00  0.00    -0.184 F 
ENDBRANCH  48  49
ENDBRANCH  45  48
ENDBRANCH  41  42
ENDBRANCH  39  40
ENDBRANCH   6  39
TORSDOF 21
ENDMDL
MODEL 5
REMARK VINA RESULT: -8.038881529      1.245      2.745
REMARK  21 active torsions:
REMARK  status: ('A' for Active; 'I' for Inactive)
REMARK    1  A    between atoms: C2_2  and  C3_3 
REMARK    2  A    between atoms: C3_3  and  C5_5 
REMARK    3  A    between atoms: C5_5  and  O1_6 
REMARK    4  A    between atoms: C5_5  and  C6_8 
REMARK    5  A    between atoms: C6_8  and  N1_9 
REMARK    6  A    between atoms: N1_9  and  C7_12 
REMARK    7  A    between atoms: C7_12  and  C9_14 
REMARK    8  A    between atoms: C9_14  and  C10_15 
REMARK    9  A    between atoms: C10_15  and  C11_16 
REMARK       I    between atoms: C11_16  and  N2_18 
REMARK   10  A    between atoms: N3_21  and  C14_22 
REMARK   11  A    between atoms: C14_22  and  C15_23 
REMARK   12  A    between atoms: C16_24  and  C17_25 
REMARK   13  A    between atoms: C20_28  and  O3_29 
REMARK   14  A    between atoms: O3_29  and  C21_30 
REMARK   15  A    between atoms: C25_36  and  C26_37 
REMARK   16  A    between atoms: C26_37  and  C27_38 
REMARK   17  A    between atoms: C27_38  and  N4_39 
REMARK   18  A    between atoms: C27_38  and  C28_43 
REMARK   19  A    between atoms: C28_43  and  O4_44 
REMARK   20  A    between atoms: C28_43  and  C29_46 
REMARK   21  A    between atoms: C29_46  and  N5_47 
ROOT
HETATM    1  C11 UNL     1       9.688   7.097  26.306  1.00  0.00     0.220 C 
HETATM    2  O2  UNL     1       8.735   7.957  26.359  1.00  0.00    -0.273 OA
HETATM    3  N2  UNL     1       9.333   5.738  26.387  1.00  0.00    -0.341 N 
HETATM    4  C12 UNL     1       7.905   5.409  26.543  1.00  0.00     0.170 C 
HETATM    5  C13 UNL     1       7.789   4.723  27.879  1.00  0.00     0.078 C 
HETATM    6  N3  UNL     1       8.605   3.578  27.930  1.00  0.00    -0.386 N 
HETATM    7  C24 UNL     1       9.981   3.714  27.577  1.00  0.00     0.147 C 
HETATM    8  C25 UNL     1      10.191   4.592  26.353  1.00  0.00     0.107 C 
ENDROOT
BRANCH   1   9
HETATM    9  C10 UNL     1      11.027   7.645  26.163  1.00  0.00     0.105 C 
BRANCH   9  10
HETATM   10  C9  UNL     1      11.599   7.838  24.826  1.00  0.00     0.042 C 
BRANCH  10  11
HETATM   11  C7  UNL     1      12.768   8.718  24.616  1.00  0.00     0.182 C 
HETATM   12  C8  UNL     1      13.565   9.184  25.755  1.00  0.00     0.040 C 
BRANCH  11  13
HETATM   13  N1  UNL     1      12.402   9.866  23.770  1.00  0.00    -0.069 N 
ATOM     14  H12 UNL     1      12.475  10.752  24.271  1.00  0.00     0.277 HD
ATOM     15  H11 UNL     1      11.402   9.894  23.571  1.00  0.00     0.277 HD
BRANCH  13  16
HETATM   16  C6  UNL     1      13.186   9.855  22.584  1.00  0.00     0.264 C 
BRANCH  16  17
HETATM   17  C5  UNL     1      12.366  10.336  21.379  1.00  0.00     0.147 C 
BRANCH  17  18
HETATM   18  C3  UNL     1      10.928   9.972  21.538  1.00  0.00     0.012 C 
HETATM   19  C4  UNL     1      10.043  11.106  21.108  1.00  0.00     0.012 C 
BRANCH  18  20
HETATM   20  C2  UNL     1      10.655   8.765  20.644  1.00  0.00     0.002 C 
HETATM   21  C1  UNL     1      10.284   7.569  21.470  1.00  0.00     0.005 C 
ENDBRANCH  18  20
ENDBRANCH  17  18
BRANCH  17  22
HETATM   22  O1  UNL     1      12.911   9.830  20.210  1.00  0.00    -0.394 OA
ATOM     23  H1  UNL     1      13.590  10.392  19.856  1.00  0.00     0.210 HD
ENDBRANCH  17  22
ENDBRANCH  16  17
ENDBRANCH  13  16
ENDBRANCH  11  13
ENDBRANCH  10  11
ENDBRANCH   9  10
ENDBRANCH   1   9
BRANCH   8  24
HETATM   24  C26 UNL     1       9.889   3.794  25.105  1.00  0.00     0.062 C 
BRANCH  24  25
HETATM   25  C27 UNL     1      11.091   3.303  24.378  1.00  0.00     0.215 C 
BRANCH  25  26
HETATM   26  N4  UNL     1      11.106   4.001  23.088  1.00  0.00    -0.072 N 
ATOM     27  H43 UNL     1      10.553   3.535  22.369  1.00  0.00     0.274 HD
ATOM     28  H42 UNL     1      10.586   4.879  23.097  1.00  0.00     0.274 HD
ATOM     29  H41 UNL     1      12.087   4.114  22.834  1.00  0.00     0.274 HD
ENDBRANCH  25  26
BRANCH  25  30
HETATM   30  C28 UNL     1      10.937   1.832  24.024  1.00  0.00     0.166 C 
BRANCH  30  31
HETATM   31  O4  UNL     1       9.963   1.249  24.851  1.00  0.00    -0.392 OA
ATOM     32  H4  UNL     1      10.370   0.604  25.416  1.00  0.00     0.210 HD
ENDBRANCH  30  31
BRANCH  30  33
HETATM   33  C29 UNL     1      10.611   1.716  22.567  1.00  0.00     0.155 C 
BRANCH  33  34
HETATM   34  N5  UNL     1      11.107   0.512  21.978  1.00  0.00    -0.364 N 
HETATM   35  C30 UNL     1      12.219   0.503  21.346  1.00  0.00     0.197 C 
HETATM   36  N6  UNL     1      12.963   1.697  21.232  1.00  0.00    -0.067 NA
HETATM   37  N7  UNL     1      12.679  -0.704  20.778  1.00  0.00    -0.067 NA
ATOM     38  H5  UNL     1      10.569  -0.349  22.062  1.00  0.00     0.161 HD
ENDBRANCH  33  34
ENDBRANCH  30  33
ENDBRANCH  25  30
ENDBRANCH  24  25
ENDBRANCH   8  24
BRANCH   6  39
HETATM   39  C14 UNL     1       7.960   2.375  27.559  1.00  0.00     0.149 C 
BRANCH  39  40
HETATM   40  C15 UNL     1       7.869   1.490  28.785  1.00  0.00    -0.006 C 
HETATM   41  C16 UNL     1       7.001   1.727  29.729  1.00  0.00     0.009 C 
BRANCH  41  42
HETATM   42  C17 UNL     1       6.887   0.912  30.900  1.00  0.00    -0.036 A 
HETATM   43  C18 UNL     1       7.303  -0.391  30.971  1.00  0.00     0.014 A 
HETATM   44  C19 UNL     1       7.159  -1.145  32.139  1.00  0.00     0.038 A 
HETATM   45  C20 UNL     1       6.595  -0.592  33.244  1.00  0.00     0.074 A 
HETATM   46  C22 UNL     1       6.160   0.737  33.204  1.00  0.00     0.038 A 
HETATM   47  C23 UNL     1       6.312   1.460  32.044  1.00  0.00     0.014 A 
BRANCH  45  48
HETATM   48  O3  UNL     1       6.425  -1.268  34.412  1.00  0.00    -0.290 OA
BRANCH  48  49
HETATM   49  C21 UNL     1       5.461  -2.231  34.701  1.00  0.00     0.505 C 
HETATM   50  F1  UNL     1       4.300  -1.987  33.980  1.00  0.00    -0.184 F 
HETATM   51  F2  UNL     1       5.960  -3.465  34.314  1.00  0.00    -0.184 F 
ENDBRANCH  48  49
ENDBRANCH  45  48
ENDBRANCH  41  42
ENDBRANCH  39  40
ENDBRANCH   6  39
TORSDOF 21
ENDMDL
