MODEL 1
REMARK VINA RESULT: -6.846027703      0.000      0.000
REMARK  14 active torsions:
REMARK  status: ('A' for Active; 'I' for Inactive)
REMARK    1  A    between atoms: C5_7  and  C6_8 
REMARK    2  A    between atoms: C6_8  and  C7_9 
REMARK    3  A    between atoms: C7_9  and  C8_10 
REMARK    4  A    between atoms: C7_9  and  N3_17 
REMARK    5  A    between atoms: C9_11  and  C10_12 
REMARK    6  A    between atoms: C10_12  and  N2_13 
REMARK    7  A    between atoms: N3_17  and  C11_19 
REMARK    8  A    between atoms: C11_19  and  C12_20 
REMARK    9  A    between atoms: C12_20  and  C13_21 
REMARK   10  A    between atoms: C13_21  and  C14_22 
REMARK   11  A    between atoms: C14_22  and  N4_23 
REMARK   12  A    between atoms: C15_27  and  O1_28 
REMARK   13  A    between atoms: C15_27  and  N5_30 
REMARK   14  A    between atoms: C26_46  and  O2_47 
ROOT
HETATM    1  C11 UNL     1      17.984  13.442  27.282  1.00  0.00     0.076 C 
HETATM    2  C15 UNL     1      17.488  13.237  28.602  1.00  0.00     0.172 C 
ENDROOT
BRANCH   1   3
HETATM    3  N3  UNL     1      17.476  14.780  26.835  1.00  0.00    -0.379 N 
ATOM      4  H3  UNL     1      16.475  14.956  26.752  1.00  0.00     0.160 HD
BRANCH   3   5
HETATM    5  C7  UNL     1      18.409  15.782  26.534  1.00  0.00     0.109 C 
BRANCH   5   6
HETATM    6  C6  UNL     1      18.134  16.494  25.238  1.00  0.00     0.069 C 
BRANCH   6   7
HETATM    7  C5  UNL     1      16.788  16.208  24.668  1.00  0.00    -0.032 A 
HETATM    8  C2  UNL     1      16.596  15.717  23.403  1.00  0.00     0.011 A 
HETATM    9  C1  UNL     1      17.595  15.396  22.329  1.00  0.00     0.068 C 
HETATM   10  N1  UNL     1      15.272  15.567  23.229  1.00  0.00    -0.369 N 
HETATM   11  C3  UNL     1      14.609  15.936  24.314  1.00  0.00     0.088 A 
ATOM     12  H1  UNL     1      14.837  15.216  22.376  1.00  0.00     0.165 HD
HETATM   13  C4  UNL     1      15.546  16.346  25.240  1.00  0.00     0.026 A 
ENDBRANCH   6   7
ENDBRANCH   5   6
BRANCH   5  14
HETATM   14  C8  UNL     1      18.657  16.773  27.618  1.00  0.00    -0.004 C 
HETATM   15  C9  UNL     1      17.806  17.007  28.763  1.00  0.00    -0.002 C 
BRANCH  15  16
HETATM   16  C10 UNL     1      16.403  17.438  28.683  1.00  0.00     0.256 C 
BRANCH  16  17
HETATM   17  N2  UNL     1      15.525  16.311  29.143  1.00  0.00    -0.076 N 
ATOM     18  H23 UNL     1      15.928  15.796  29.926  1.00  0.00     0.274 HD
ATOM     19  H22 UNL     1      14.681  16.641  29.611  1.00  0.00     0.274 HD
ATOM     20  H21 UNL     1      15.319  15.709  28.346  1.00  0.00     0.274 HD
ENDBRANCH  16  17
ENDBRANCH  15  16
ENDBRANCH   5  14
ENDBRANCH   3   5
ENDBRANCH   1   3
BRANCH   1  21
HETATM   21  C12 UNL     1      19.202  13.182  26.601  1.00  0.00     0.008 C 
BRANCH  21  22
HETATM   22  C13 UNL     1      19.679  11.790  26.288  1.00  0.00     0.056 C 
BRANCH  22  23
HETATM   23  C14 UNL     1      20.076  11.831  24.783  1.00  0.00     0.233 C 
BRANCH  23  24
HETATM   24  N4  UNL     1      19.183  12.669  24.052  1.00  0.00    -0.079 N 
ATOM     25  H43 UNL     1      18.208  12.433  24.233  1.00  0.00     0.274 HD
ATOM     26  H42 UNL     1      19.178  13.624  24.413  1.00  0.00     0.274 HD
ATOM     27  H41 UNL     1      19.400  12.642  23.055  1.00  0.00     0.274 HD
ENDBRANCH  23  24
ENDBRANCH  22  23
ENDBRANCH  21  22
ENDBRANCH   1  21
BRANCH   2  28
HETATM   28  O1  UNL     1      16.167  13.535  28.532  1.00  0.00    -0.344 OA
ATOM     29  H1  UNL     1      15.840  13.416  29.415  1.00  0.00     0.219 HD
ENDBRANCH   2  28
BRANCH   2  30
HETATM   30  N5  UNL     1      17.843  12.864  29.904  1.00  0.00    -0.292 N 
HETATM   31  C16 UNL     1      17.722  11.447  30.391  1.00  0.00     0.136 C 
HETATM   32  C17 UNL     1      16.600  11.132  31.289  1.00  0.00     0.039 C 
HETATM   33  C18 UNL     1      16.604  11.457  32.728  1.00  0.00     0.115 C 
HETATM   34  N6  UNL     1      15.790  12.533  33.178  1.00  0.00    -0.418 N 
HETATM   35  C19 UNL     1      16.282  13.348  34.273  1.00  0.00     0.142 C 
ATOM     36  H6  UNL     1      14.888  12.725  32.744  1.00  0.00     0.153 HD
HETATM   37  C20 UNL     1      15.960  14.772  34.210  1.00  0.00     0.009 C 
HETATM   38  C21 UNL     1      16.890  15.876  34.421  1.00  0.00     0.080 C 
HETATM   39  N7  UNL     1      18.221  15.905  34.070  1.00  0.00    -0.399 N 
HETATM   40  C22 UNL     1      18.734  16.758  33.036  1.00  0.00     0.120 C 
ATOM     41  H7  UNL     1      18.870  15.294  34.567  1.00  0.00     0.158 HD
HETATM   42  C23 UNL     1      20.101  16.505  32.499  1.00  0.00     0.039 C 
HETATM   43  C24 UNL     1      20.294  15.545  31.342  1.00  0.00     0.127 C 
HETATM   44  N8  UNL     1      19.436  14.339  31.528  1.00  0.00    -0.351 N 
HETATM   45  C25 UNL     1      19.931  13.693  32.692  1.00  0.00     0.153 C 
HETATM   46  C26 UNL     1      18.356  13.877  30.802  1.00  0.00     0.223 C 
BRANCH  46  47
HETATM   47  O2  UNL     1      17.317  14.664  30.964  1.00  0.00    -0.332 OA
ATOM     48  H2  UNL     1      16.784  14.176  31.580  1.00  0.00     0.221 HD
ENDBRANCH  46  47
ENDBRANCH   2  30
TORSDOF 14
ENDMDL
MODEL 2
REMARK VINA RESULT: -6.823164215      1.581      2.619
REMARK  14 active torsions:
REMARK  status: ('A' for Active; 'I' for Inactive)
REMARK    1  A    between atoms: C5_7  and  C6_8 
REMARK    2  A    between atoms: C6_8  and  C7_9 
REMARK    3  A    between atoms: C7_9  and  C8_10 
REMARK    4  A    between atoms: C7_9  and  N3_17 
REMARK    5  A    between atoms: C9_11  and  C10_12 
REMARK    6  A    between atoms: C10_12  and  N2_13 
REMARK    7  A    between atoms: N3_17  and  C11_19 
REMARK    8  A    between atoms: C11_19  and  C12_20 
REMARK    9  A    between atoms: C12_20  and  C13_21 
REMARK   10  A    between atoms: C13_21  and  C14_22 
REMARK   11  A    between atoms: C14_22  and  N4_23 
REMARK   12  A    between atoms: C15_27  and  O1_28 
REMARK   13  A    between atoms: C15_27  and  N5_30 
REMARK   14  A    between atoms: C26_46  and  O2_47 
ROOT
HETATM    1  C11 UNL     1      18.063  12.900  27.396  1.00  0.00     0.076 C 
HETATM    2  C15 UNL     1      17.532  12.754  28.710  1.00  0.00     0.172 C 
ENDROOT
BRANCH   1   3
HETATM    3  N3  UNL     1      17.452  14.144  26.822  1.00  0.00    -0.379 N 
ATOM      4  H3  UNL     1      16.599  14.097  26.266  1.00  0.00     0.160 HD
BRANCH   3   5
HETATM    5  C7  UNL     1      18.082  15.372  27.069  1.00  0.00     0.109 C 
BRANCH   5   6
HETATM    6  C6  UNL     1      18.613  16.038  25.829  1.00  0.00     0.069 C 
BRANCH   6   7
HETATM    7  C5  UNL     1      20.021  16.507  25.954  1.00  0.00    -0.032 A 
HETATM    8  C2  UNL     1      20.364  17.825  26.107  1.00  0.00     0.011 A 
HETATM    9  C1  UNL     1      19.497  19.050  26.149  1.00  0.00     0.068 C 
HETATM   10  N1  UNL     1      21.703  17.882  26.202  1.00  0.00    -0.369 N 
HETATM   11  C3  UNL     1      22.233  16.672  26.118  1.00  0.00     0.088 A 
ATOM     12  H1  UNL     1      22.239  18.741  26.322  1.00  0.00     0.165 HD
HETATM   13  C4  UNL     1      21.189  15.783  25.961  1.00  0.00     0.026 A 
ENDBRANCH   6   7
ENDBRANCH   5   6
BRANCH   5  14
HETATM   14  C8  UNL     1      17.294  16.346  27.873  1.00  0.00    -0.004 C 
HETATM   15  C9  UNL     1      15.874  16.274  28.139  1.00  0.00    -0.002 C 
BRANCH  15  16
HETATM   16  C10 UNL     1      14.832  16.279  27.102  1.00  0.00     0.256 C 
BRANCH  16  17
HETATM   17  N2  UNL     1      14.162  14.937  27.084  1.00  0.00    -0.076 N 
ATOM     18  H23 UNL     1      14.802  14.177  27.318  1.00  0.00     0.274 HD
ATOM     19  H22 UNL     1      13.510  14.816  27.859  1.00  0.00     0.274 HD
ATOM     20  H21 UNL     1      13.716  14.804  26.176  1.00  0.00     0.274 HD
ENDBRANCH  16  17
ENDBRANCH  15  16
ENDBRANCH   5  14
ENDBRANCH   3   5
ENDBRANCH   1   3
BRANCH   1  21
HETATM   21  C12 UNL     1      19.328  12.705  26.782  1.00  0.00     0.008 C 
BRANCH  21  22
HETATM   22  C13 UNL     1      19.526  11.802  25.597  1.00  0.00     0.056 C 
BRANCH  22  23
HETATM   23  C14 UNL     1      20.009  12.741  24.452  1.00  0.00     0.233 C 
BRANCH  23  24
HETATM   24  N4  UNL     1      18.919  13.100  23.605  1.00  0.00    -0.079 N 
ATOM     25  H43 UNL     1      18.023  13.024  24.087  1.00  0.00     0.274 HD
ATOM     26  H42 UNL     1      18.904  14.101  23.410  1.00  0.00     0.274 HD
ATOM     27  H41 UNL     1      18.935  12.547  22.747  1.00  0.00     0.274 HD
ENDBRANCH  23  24
ENDBRANCH  22  23
ENDBRANCH  21  22
ENDBRANCH   1  21
BRANCH   2  28
HETATM   28  O1  UNL     1      16.193  12.917  28.569  1.00  0.00    -0.344 OA
ATOM     29  H1  UNL     1      15.926  13.428  29.323  1.00  0.00     0.219 HD
ENDBRANCH   2  28
BRANCH   2  30
HETATM   30  N5  UNL     1      17.864  12.520  30.050  1.00  0.00    -0.292 N 
HETATM   31  C16 UNL     1      17.722  11.164  30.684  1.00  0.00     0.136 C 
HETATM   32  C17 UNL     1      16.585  10.955  31.592  1.00  0.00     0.039 C 
HETATM   33  C18 UNL     1      16.569  11.433  32.988  1.00  0.00     0.115 C 
HETATM   34  N6  UNL     1      15.758  12.556  33.307  1.00  0.00    -0.418 N 
HETATM   35  C19 UNL     1      16.240  13.481  34.316  1.00  0.00     0.142 C 
ATOM     36  H6  UNL     1      14.864  12.706  32.841  1.00  0.00     0.153 HD
HETATM   37  C20 UNL     1      15.930  14.892  34.095  1.00  0.00     0.009 C 
HETATM   38  C21 UNL     1      16.866  16.006  34.202  1.00  0.00     0.080 C 
HETATM   39  N7  UNL     1      18.203  15.988  33.872  1.00  0.00    -0.399 N 
HETATM   40  C22 UNL     1      18.739  16.721  32.760  1.00  0.00     0.120 C 
ATOM     41  H7  UNL     1      18.839  15.429  34.442  1.00  0.00     0.158 HD
HETATM   42  C23 UNL     1      20.112  16.403  32.276  1.00  0.00     0.039 C 
HETATM   43  C24 UNL     1      20.315  15.324  31.231  1.00  0.00     0.127 C 
HETATM   44  N8  UNL     1      19.444  14.150  31.532  1.00  0.00    -0.351 N 
HETATM   45  C25 UNL     1      19.915  13.630  32.766  1.00  0.00     0.153 C 
HETATM   46  C26 UNL     1      18.371  13.620  30.842  1.00  0.00     0.223 C 
BRANCH  46  47
HETATM   47  O2  UNL     1      17.336  14.427  30.902  1.00  0.00    -0.332 OA
ATOM     48  H2  UNL     1      17.207  14.525  31.838  1.00  0.00     0.221 HD
ENDBRANCH  46  47
ENDBRANCH   2  30
TORSDOF 14
ENDMDL
MODEL 3
REMARK VINA RESULT: -6.756564388      0.521      1.100
REMARK  14 active torsions:
REMARK  status: ('A' for Active; 'I' for Inactive)
REMARK    1  A    between atoms: C5_7  and  C6_8 
REMARK    2  A    between atoms: C6_8  and  C7_9 
REMARK    3  A    between atoms: C7_9  and  C8_10 
REMARK    4  A    between atoms: C7_9  and  N3_17 
REMARK    5  A    between atoms: C9_11  and  C10_12 
REMARK    6  A    between atoms: C10_12  and  N2_13 
REMARK    7  A    between atoms: N3_17  and  C11_19 
REMARK    8  A    between atoms: C11_19  and  C12_20 
REMARK    9  A    between atoms: C12_20  and  C13_21 
REMARK   10  A    between atoms: C13_21  and  C14_22 
REMARK   11  A    between atoms: C14_22  and  N4_23 
REMARK   12  A    between atoms: C15_27  and  O1_28 
REMARK   13  A    between atoms: C15_27  and  N5_30 
REMARK   14  A    between atoms: C26_46  and  O2_47 
ROOT
HETATM    1  C11 UNL     1      17.879  13.866  27.159  1.00  0.00     0.076 C 
HETATM    2  C15 UNL     1      17.434  13.540  28.472  1.00  0.00     0.172 C 
ENDROOT
BRANCH   1   3
HETATM    3  N3  UNL     1      17.262  15.188  26.812  1.00  0.00    -0.379 N 
ATOM      4  H3  UNL     1      16.260  15.342  26.927  1.00  0.00     0.160 HD
BRANCH   3   5
HETATM    5  C7  UNL     1      18.093  16.206  26.325  1.00  0.00     0.109 C 
BRANCH   5   6
HETATM    6  C6  UNL     1      17.454  17.050  25.257  1.00  0.00     0.069 C 
BRANCH   6   7
HETATM    7  C5  UNL     1      16.991  16.274  24.073  1.00  0.00    -0.032 A 
HETATM    8  C2  UNL     1      15.672  16.001  23.821  1.00  0.00     0.011 A 
HETATM    9  C1  UNL     1      14.446  16.348  24.616  1.00  0.00     0.068 C 
HETATM   10  N1  UNL     1      15.619  15.302  22.676  1.00  0.00    -0.369 N 
HETATM   11  C3  UNL     1      16.833  15.113  22.183  1.00  0.00     0.088 A 
ATOM     12  H1  UNL     1      14.760  14.963  22.245  1.00  0.00     0.165 HD
HETATM   13  C4  UNL     1      17.720  15.719  23.048  1.00  0.00     0.026 A 
ENDBRANCH   6   7
ENDBRANCH   5   6
BRANCH   5  14
HETATM   14  C8  UNL     1      18.712  17.079  27.362  1.00  0.00    -0.004 C 
HETATM   15  C9  UNL     1      18.179  17.334  28.682  1.00  0.00    -0.002 C 
BRANCH  15  16
HETATM   16  C10 UNL     1      16.866  17.940  28.947  1.00  0.00     0.256 C 
BRANCH  16  17
HETATM   17  N2  UNL     1      15.895  16.852  29.304  1.00  0.00    -0.076 N 
ATOM     18  H23 UNL     1      15.812  16.148  28.571  1.00  0.00     0.274 HD
ATOM     19  H22 UNL     1      16.246  16.245  30.045  1.00  0.00     0.274 HD
ATOM     20  H21 UNL     1      14.999  17.277  29.539  1.00  0.00     0.274 HD
ENDBRANCH  16  17
ENDBRANCH  15  16
ENDBRANCH   5  14
ENDBRANCH   3   5
ENDBRANCH   1   3
BRANCH   1  21
HETATM   21  C12 UNL     1      19.095  13.744  26.436  1.00  0.00     0.008 C 
BRANCH  21  22
HETATM   22  C13 UNL     1      19.961  12.516  26.503  1.00  0.00     0.056 C 
BRANCH  22  23
HETATM   23  C14 UNL     1      19.574  11.682  25.246  1.00  0.00     0.233 C 
BRANCH  23  24
HETATM   24  N4  UNL     1      19.221  12.543  24.164  1.00  0.00    -0.079 N 
ATOM     25  H43 UNL     1      18.464  13.177  24.416  1.00  0.00     0.274 HD
ATOM     26  H42 UNL     1      19.946  13.236  23.980  1.00  0.00     0.274 HD
ATOM     27  H41 UNL     1      18.998  11.997  23.331  1.00  0.00     0.274 HD
ENDBRANCH  23  24
ENDBRANCH  22  23
ENDBRANCH  21  22
ENDBRANCH   1  21
BRANCH   2  28
HETATM   28  O1  UNL     1      16.093  13.741  28.449  1.00  0.00    -0.344 OA
ATOM     29  H1  UNL     1      15.979  14.606  28.074  1.00  0.00     0.219 HD
ENDBRANCH   2  28
BRANCH   2  30
HETATM   30  N5  UNL     1      17.850  13.112  29.738  1.00  0.00    -0.292 N 
HETATM   31  C16 UNL     1      17.787  11.669  30.155  1.00  0.00     0.136 C 
HETATM   32  C17 UNL     1      16.710  11.273  31.076  1.00  0.00     0.039 C 
HETATM   33  C18 UNL     1      16.760  11.525  32.529  1.00  0.00     0.115 C 
HETATM   34  N6  UNL     1      15.934  12.550  33.064  1.00  0.00    -0.418 N 
HETATM   35  C19 UNL     1      16.444  13.324  34.181  1.00  0.00     0.142 C 
ATOM     36  H6  UNL     1      15.010  12.737  32.675  1.00  0.00     0.153 HD
HETATM   37  C20 UNL     1      16.079  14.738  34.205  1.00  0.00     0.009 C 
HETATM   38  C21 UNL     1      16.985  15.858  34.439  1.00  0.00     0.080 C 
HETATM   39  N7  UNL     1      18.300  15.945  34.042  1.00  0.00    -0.399 N 
HETATM   40  C22 UNL     1      18.748  16.865  33.035  1.00  0.00     0.120 C 
ATOM     41  H7  UNL     1      18.985  15.330  34.482  1.00  0.00     0.158 HD
HETATM   42  C23 UNL     1      20.100  16.682  32.436  1.00  0.00     0.039 C 
HETATM   43  C24 UNL     1      20.276  15.789  31.223  1.00  0.00     0.127 C 
HETATM   44  N8  UNL     1      19.461  14.549  31.378  1.00  0.00    -0.351 N 
HETATM   45  C25 UNL     1      20.018  13.860  32.487  1.00  0.00     0.153 C 
HETATM   46  C26 UNL     1      18.367  14.092  30.669  1.00  0.00     0.223 C 
BRANCH  46  47
HETATM   47  O2  UNL     1      17.313  14.838  30.910  1.00  0.00    -0.332 OA
ATOM     48  H2  UNL     1      17.681  15.556  31.412  1.00  0.00     0.221 HD
ENDBRANCH  46  47
ENDBRANCH   2  30
TORSDOF 14
ENDMDL
MODEL 4
REMARK VINA RESULT: -6.752155041      1.451      3.122
REMARK  14 active torsions:
REMARK  status: ('A' for Active; 'I' for Inactive)
REMARK    1  A    between atoms: C5_7  and  C6_8 
REMARK    2  A    between atoms: C6_8  and  C7_9 
REMARK    3  A    between atoms: C7_9  and  C8_10 
REMARK    4  A    between atoms: C7_9  and  N3_17 
REMARK    5  A    between atoms: C9_11  and  C10_12 
REMARK    6  A    between atoms: C10_12  and  N2_13 
REMARK    7  A    between atoms: N3_17  and  C11_19 
REMARK    8  A    between atoms: C11_19  and  C12_20 
REMARK    9  A    between atoms: C12_20  and  C13_21 
REMARK   10  A    between atoms: C13_21  and  C14_22 
REMARK   11  A    between atoms: C14_22  and  N4_23 
REMARK   12  A    between atoms: C15_27  and  O1_28 
REMARK   13  A    between atoms: C15_27  and  N5_30 
REMARK   14  A    between atoms: C26_46  and  O2_47 
ROOT
HETATM    1  C11 UNL     1      18.098  13.445  27.431  1.00  0.00     0.076 C 
HETATM    2  C15 UNL     1      17.612  12.926  28.665  1.00  0.00     0.172 C 
ENDROOT
BRANCH   1   3
HETATM    3  N3  UNL     1      17.081  14.438  26.951  1.00  0.00    -0.379 N 
ATOM      4  H3  UNL     1      16.559  14.275  26.091  1.00  0.00     0.160 HD
BRANCH   3   5
HETATM    5  C7  UNL     1      16.866  15.594  27.714  1.00  0.00     0.109 C 
BRANCH   5   6
HETATM    6  C6  UNL     1      17.433  16.841  27.094  1.00  0.00     0.069 C 
BRANCH   6   7
HETATM    7  C5  UNL     1      18.476  17.505  27.925  1.00  0.00    -0.032 A 
HETATM    8  C2  UNL     1      18.185  18.366  28.951  1.00  0.00     0.011 A 
HETATM    9  C1  UNL     1      16.858  18.859  29.452  1.00  0.00     0.068 C 
HETATM   10  N1  UNL     1      19.353  18.760  29.486  1.00  0.00    -0.369 N 
HETATM   11  C3  UNL     1      20.373  18.199  28.856  1.00  0.00     0.088 A 
ATOM     12  H1  UNL     1      19.441  19.406  30.270  1.00  0.00     0.165 HD
HETATM   13  C4  UNL     1      19.845  17.399  27.863  1.00  0.00     0.026 A 
ENDBRANCH   6   7
ENDBRANCH   5   6
BRANCH   5  14
HETATM   14  C8  UNL     1      15.457  15.830  28.136  1.00  0.00    -0.004 C 
HETATM   15  C9  UNL     1      14.278  15.555  27.346  1.00  0.00    -0.002 C 
BRANCH  15  16
HETATM   16  C10 UNL     1      13.994  16.163  26.038  1.00  0.00     0.256 C 
BRANCH  16  17
HETATM   17  N2  UNL     1      14.419  15.209  24.959  1.00  0.00    -0.076 N 
ATOM     18  H23 UNL     1      15.111  15.615  24.330  1.00  0.00     0.274 HD
ATOM     19  H22 UNL     1      14.988  14.442  25.319  1.00  0.00     0.274 HD
ATOM     20  H21 UNL     1      13.590  14.880  24.466  1.00  0.00     0.274 HD
ENDBRANCH  16  17
ENDBRANCH  15  16
ENDBRANCH   5  14
ENDBRANCH   3   5
ENDBRANCH   1   3
BRANCH   1  21
HETATM   21  C12 UNL     1      19.365  13.827  26.916  1.00  0.00     0.008 C 
BRANCH  21  22
HETATM   22  C13 UNL     1      19.580  14.192  25.473  1.00  0.00     0.056 C 
BRANCH  22  23
HETATM   23  C14 UNL     1      19.620  12.831  24.717  1.00  0.00     0.233 C 
BRANCH  23  24
HETATM   24  N4  UNL     1      18.871  12.911  23.505  1.00  0.00    -0.079 N 
ATOM     25  H43 UNL     1      19.463  13.148  22.709  1.00  0.00     0.274 HD
ATOM     26  H42 UNL     1      18.558  11.992  23.192  1.00  0.00     0.274 HD
ATOM     27  H41 UNL     1      18.093  13.563  23.606  1.00  0.00     0.274 HD
ENDBRANCH  23  24
ENDBRANCH  22  23
ENDBRANCH  21  22
ENDBRANCH   1  21
BRANCH   2  28
HETATM   28  O1  UNL     1      16.319  12.594  28.422  1.00  0.00    -0.344 OA
ATOM     29  H1  UNL     1      16.213  11.727  28.796  1.00  0.00     0.219 HD
ENDBRANCH   2  28
BRANCH   2  30
HETATM   30  N5  UNL     1      17.954  12.646  29.993  1.00  0.00    -0.292 N 
HETATM   31  C16 UNL     1      17.860  11.260  30.568  1.00  0.00     0.136 C 
HETATM   32  C17 UNL     1      16.732  10.972  31.467  1.00  0.00     0.039 C 
HETATM   33  C18 UNL     1      16.702  11.389  32.883  1.00  0.00     0.115 C 
HETATM   34  N6  UNL     1      15.854  12.469  33.250  1.00  0.00    -0.418 N 
HETATM   35  C19 UNL     1      16.306  13.366  34.298  1.00  0.00     0.142 C 
ATOM     36  H6  UNL     1      14.954  12.608  32.791  1.00  0.00     0.153 HD
HETATM   37  C20 UNL     1      15.948  14.773  34.138  1.00  0.00     0.009 C 
HETATM   38  C21 UNL     1      16.845  15.913  34.292  1.00  0.00     0.080 C 
HETATM   39  N7  UNL     1      18.181  15.955  33.962  1.00  0.00    -0.399 N 
HETATM   40  C22 UNL     1      18.690  16.754  32.883  1.00  0.00     0.120 C 
ATOM     41  H7  UNL     1      18.837  15.395  34.507  1.00  0.00     0.158 HD
HETATM   42  C23 UNL     1      20.072  16.504  32.385  1.00  0.00     0.039 C 
HETATM   43  C24 UNL     1      20.309  15.478  31.294  1.00  0.00     0.127 C 
HETATM   44  N8  UNL     1      19.480  14.263  31.544  1.00  0.00    -0.351 N 
HETATM   45  C25 UNL     1      19.971  13.707  32.754  1.00  0.00     0.153 C 
HETATM   46  C26 UNL     1      18.425  13.727  30.832  1.00  0.00     0.223 C 
BRANCH  46  47
HETATM   47  O2  UNL     1      17.363  14.495  30.927  1.00  0.00    -0.332 OA
ATOM     48  H2  UNL     1      17.686  15.229  31.436  1.00  0.00     0.221 HD
ENDBRANCH  46  47
ENDBRANCH   2  30
TORSDOF 14
ENDMDL
MODEL 5
REMARK VINA RESULT: -6.672060930      3.490      5.815
REMARK  14 active torsions:
REMARK  status: ('A' for Active; 'I' for Inactive)
REMARK    1  A    between atoms: C5_7  and  C6_8 
REMARK    2  A    between atoms: C6_8  and  C7_9 
REMARK    3  A    between atoms: C7_9  and  C8_10 
REMARK    4  A    between atoms: C7_9  and  N3_17 
REMARK    5  A    between atoms: C9_11  and  C10_12 
REMARK    6  A    between atoms: C10_12  and  N2_13 
REMARK    7  A    between atoms: N3_17  and  C11_19 
REMARK    8  A    between atoms: C11_19  and  C12_20 
REMARK    9  A    between atoms: C12_20  and  C13_21 
REMARK   10  A    between atoms: C13_21  and  C14_22 
REMARK   11  A    between atoms: C14_22  and  N4_23 
REMARK   12  A    between atoms: C15_27  and  O1_28 
REMARK   13  A    between atoms: C15_27  and  N5_30 
REMARK   14  A    between atoms: C26_46  and  O2_47 
ROOT
HETATM    1  C11 UNL     1      17.673  18.556  30.430  1.00  0.00     0.076 C 
HETATM    2  C15 UNL     1      18.580  17.674  31.085  1.00  0.00     0.172 C 
ENDROOT
BRANCH   1   3
HETATM    3  N3  UNL     1      18.285  19.924  30.489  1.00  0.00    -0.379 N 
ATOM      4  H3  UNL     1      17.940  20.621  31.148  1.00  0.00     0.160 HD
BRANCH   3   5
HETATM    5  C7  UNL     1      19.342  20.220  29.617  1.00  0.00     0.109 C 
BRANCH   5   6
HETATM    6  C6  UNL     1      18.975  21.195  28.532  1.00  0.00     0.069 C 
BRANCH   6   7
HETATM    7  C5  UNL     1      19.226  20.686  27.155  1.00  0.00    -0.032 A 
HETATM    8  C2  UNL     1      19.319  21.500  26.057  1.00  0.00     0.011 A 
HETATM    9  C1  UNL     1      19.169  22.990  25.944  1.00  0.00     0.068 C 
HETATM   10  N1  UNL     1      19.563  20.714  24.995  1.00  0.00    -0.369 N 
HETATM   11  C3  UNL     1      19.631  19.442  25.356  1.00  0.00     0.088 A 
ATOM     12  H1  UNL     1      19.680  21.052  24.040  1.00  0.00     0.165 HD
HETATM   13  C4  UNL     1      19.422  19.397  26.719  1.00  0.00     0.026 A 
ENDBRANCH   6   7
ENDBRANCH   5   6
BRANCH   5  14
HETATM   14  C8  UNL     1      20.613  20.640  30.270  1.00  0.00    -0.004 C 
HETATM   15  C9  UNL     1      20.727  21.354  31.522  1.00  0.00    -0.002 C 
BRANCH  15  16
HETATM   16  C10 UNL     1      20.152  22.683  31.777  1.00  0.00     0.256 C 
BRANCH  16  17
HETATM   17  N2  UNL     1      20.482  23.582  30.621  1.00  0.00    -0.076 N 
ATOM     18  H23 UNL     1      21.482  23.771  30.548  1.00  0.00     0.274 HD
ATOM     19  H22 UNL     1      20.359  23.120  29.720  1.00  0.00     0.274 HD
ATOM     20  H21 UNL     1      19.930  24.435  30.701  1.00  0.00     0.274 HD
ENDBRANCH  16  17
ENDBRANCH  15  16
ENDBRANCH   5  14
ENDBRANCH   3   5
ENDBRANCH   1   3
BRANCH   1  21
HETATM   21  C12 UNL     1      16.844  18.492  29.279  1.00  0.00     0.008 C 
BRANCH  21  22
HETATM   22  C13 UNL     1      16.962  17.401  28.251  1.00  0.00     0.056 C 
BRANCH  22  23
HETATM   23  C14 UNL     1      15.516  16.845  28.088  1.00  0.00     0.233 C 
BRANCH  23  24
HETATM   24  N4  UNL     1      15.355  15.641  28.836  1.00  0.00    -0.079 N 
ATOM     25  H43 UNL     1      16.182  15.047  28.781  1.00  0.00     0.274 HD
ATOM     26  H42 UNL     1      15.360  15.816  29.841  1.00  0.00     0.274 HD
ATOM     27  H41 UNL     1      14.513  15.146  28.542  1.00  0.00     0.274 HD
ENDBRANCH  23  24
ENDBRANCH  22  23
ENDBRANCH  21  22
ENDBRANCH   1  21
BRANCH   2  28
HETATM   28  O1  UNL     1      18.888  18.291  32.253  1.00  0.00    -0.344 OA
ATOM     29  H1  UNL     1      19.828  18.189  32.345  1.00  0.00     0.219 HD
ENDBRANCH   2  28
BRANCH   2  30
HETATM   30  N5  UNL     1      19.256  16.453  30.976  1.00  0.00    -0.292 N 
HETATM   31  C16 UNL     1      20.544  16.318  30.212  1.00  0.00     0.136 C 
HETATM   32  C17 UNL     1      20.485  15.675  28.890  1.00  0.00     0.039 C 
HETATM   33  C18 UNL     1      20.409  14.212  28.708  1.00  0.00     0.115 C 
HETATM   34  N6  UNL     1      19.170  13.648  28.298  1.00  0.00    -0.418 N 
HETATM   35  C19 UNL     1      18.811  12.342  28.818  1.00  0.00     0.142 C 
ATOM     36  H6  UNL     1      18.553  14.147  27.658  1.00  0.00     0.153 HD
HETATM   37  C20 UNL     1      17.392  12.127  29.094  1.00  0.00     0.009 C 
HETATM   38  C21 UNL     1      16.829  11.550  30.310  1.00  0.00     0.080 C 
HETATM   39  N7  UNL     1      17.314  11.699  31.590  1.00  0.00    -0.399 N 
HETATM   40  C22 UNL     1      16.615  12.436  32.604  1.00  0.00     0.120 C 
ATOM     41  H7  UNL     1      18.208  11.268  31.827  1.00  0.00     0.158 HD
HETATM   42  C23 UNL     1      17.339  12.824  33.847  1.00  0.00     0.039 C 
HETATM   43  C24 UNL     1      18.108  14.130  33.899  1.00  0.00     0.127 C 
HETATM   44  N8  UNL     1      18.851  14.338  32.623  1.00  0.00    -0.351 N 
HETATM   45  C25 UNL     1      19.810  13.293  32.563  1.00  0.00     0.153 C 
HETATM   46  C26 UNL     1      18.701  15.290  31.633  1.00  0.00     0.223 C 
BRANCH  46  47
HETATM   47  O2  UNL     1      17.582  15.099  30.972  1.00  0.00    -0.332 OA
ATOM     48  H2  UNL     1      17.207  15.971  30.948  1.00  0.00     0.221 HD
ENDBRANCH  46  47
ENDBRANCH   2  30
TORSDOF 14
ENDMDL
