MODEL 1
REMARK VINA RESULT: -6.863934952      0.000      0.000
REMARK  11 active torsions:
REMARK  status: ('A' for Active; 'I' for Inactive)
REMARK    1  A    between atoms: C2_2  and  C3_3 
REMARK    2  A    between atoms: C3_3  and  C5_5 
REMARK    3  A    between atoms: C7_7  and  O1_8 
REMARK    4  A    between atoms: O1_8  and  C8_9 
REMARK    5  A    between atoms: C10_14  and  C11_15 
REMARK    6  A    between atoms: C14_20  and  O4_21 
REMARK    7  A    between atoms: C15_23  and  C16_24 
REMARK    8  A    between atoms: C16_24  and  C17_25 
REMARK    9  A    between atoms: C20_30  and  O5_31 
REMARK   10  A    between atoms: C21_35  and  C22_36 
REMARK   11  A    between atoms: C25_39  and  O6_40 
ROOT
HETATM    1  C5  UNL     1      21.817  17.662  17.942  1.00  0.00     0.089 C 
HETATM    2  C6  UNL     1      21.149  18.176  19.189  1.00  0.00     0.066 C 
HETATM    3  C7  UNL     1      20.597  19.597  19.097  1.00  0.00     0.206 C 
HETATM    4  C9  UNL     1      19.400  19.760  18.276  1.00  0.00     0.179 C 
HETATM    5  O3  UNL     1      18.373  19.207  18.750  1.00  0.00    -0.293 OA
HETATM    6  C10 UNL     1      19.168  20.453  16.998  1.00  0.00     0.159 C 
HETATM    7  N2  UNL     1      17.903  20.080  16.389  1.00  0.00    -0.361 N 
ATOM      8  H2  UNL     1      17.120  20.611  16.768  1.00  0.00     0.162 HD
HETATM    9  C14 UNL     1      17.512  19.189  15.433  1.00  0.00     0.135 C 
HETATM   10  C15 UNL     1      18.225  18.461  14.358  1.00  0.00     0.159 C 
HETATM   11  N3  UNL     1      17.879  17.020  14.465  1.00  0.00    -0.345 N 
ATOM     12  H3  UNL     1      17.007  16.853  14.967  1.00  0.00     0.163 HD
HETATM   13  C20 UNL     1      18.484  15.862  14.028  1.00  0.00     0.214 C 
HETATM   14  N4  UNL     1      19.698  15.218  14.428  1.00  0.00    -0.344 N 
ATOM     15  H4  UNL     1      20.309  14.884  13.681  1.00  0.00     0.164 HD
HETATM   16  C21 UNL     1      20.147  14.992  15.792  1.00  0.00     0.163 C 
HETATM   17  C25 UNL     1      20.048  16.222  16.617  1.00  0.00     0.135 C 
HETATM   18  N5  UNL     1      20.885  17.259  16.913  1.00  0.00    -0.368 N 
ATOM     19  H5  UNL     1      20.838  17.969  16.182  1.00  0.00     0.161 HD
ENDROOT
BRANCH   1  20
HETATM   20  C3  UNL     1      22.830  18.692  17.493  1.00  0.00     0.004 C 
HETATM   21  C4  UNL     1      24.235  18.134  17.599  1.00  0.00     0.012 C 
BRANCH  20  22
HETATM   22  C2  UNL     1      22.634  19.133  16.052  1.00  0.00     0.002 C 
HETATM   23  C1  UNL     1      23.901  18.925  15.295  1.00  0.00     0.005 C 
ENDBRANCH  20  22
ENDBRANCH   1  20
BRANCH   3  24
HETATM   24  O1  UNL     1      20.287  19.958  20.482  1.00  0.00    -0.293 OA
BRANCH  24  25
HETATM   25  C8  UNL     1      20.036  21.223  20.889  1.00  0.00     0.373 C 
HETATM   26  N1  UNL     1      21.089  22.198  20.814  1.00  0.00    -0.032 NA
HETATM   27  O2  UNL     1      18.904  21.554  21.329  1.00  0.00    -0.242 OA
ENDBRANCH  24  25
ENDBRANCH   3  24
BRANCH  17  28
HETATM   28  O6  UNL     1      18.849  16.272  17.158  1.00  0.00    -0.348 OA
ATOM     29  H6  UNL     1      18.346  16.950  16.723  1.00  0.00     0.219 HD
ENDBRANCH  17  28
BRANCH  16  30
HETATM   30  C22 UNL     1      21.434  14.259  15.770  1.00  0.00     0.008 C 
HETATM   31  C23 UNL     1      22.023  13.989  17.133  1.00  0.00     0.012 C 
HETATM   32  C24 UNL     1      22.489  14.823  14.881  1.00  0.00     0.012 C 
ENDBRANCH  16  30
BRANCH   6  33
HETATM   33  C11 UNL     1      19.248  21.975  17.102  1.00  0.00     0.007 C 
HETATM   34  C12 UNL     1      18.135  22.589  16.237  1.00  0.00     0.012 C 
HETATM   35  C13 UNL     1      20.525  22.542  16.530  1.00  0.00     0.012 C 
ENDBRANCH   6  33
BRANCH  13  36
HETATM   36  O5  UNL     1      17.912  15.147  13.073  1.00  0.00    -0.333 OA
ATOM     37  H5  UNL     1      18.279  14.303  12.836  1.00  0.00     0.220 HD
ENDBRANCH  13  36
BRANCH   9  38
HETATM   38  O4  UNL     1      16.238  18.895  15.445  1.00  0.00    -0.348 OA
ATOM     39  H4  UNL     1      15.998  18.137  14.925  1.00  0.00     0.219 HD
ENDBRANCH   9  38
BRANCH  10  40
HETATM   40  C16 UNL     1      17.805  18.837  12.990  1.00  0.00     0.037 C 
BRANCH  40  41
HETATM   41  C17 UNL     1      16.437  19.090  12.577  1.00  0.00    -0.020 C 
HETATM   42  C18 UNL     1      16.594  20.279  11.542  1.00  0.00     0.009 C 
HETATM   43  C19 UNL     1      15.817  18.029  11.656  1.00  0.00     0.009 C 
ENDBRANCH  40  41
ENDBRANCH  10  40
TORSDOF 11
ENDMDL
MODEL 2
REMARK VINA RESULT: -6.778388765      3.492      7.379
REMARK  11 active torsions:
REMARK  status: ('A' for Active; 'I' for Inactive)
REMARK    1  A    between atoms: C2_2  and  C3_3 
REMARK    2  A    between atoms: C3_3  and  C5_5 
REMARK    3  A    between atoms: C7_7  and  O1_8 
REMARK    4  A    between atoms: O1_8  and  C8_9 
REMARK    5  A    between atoms: C10_14  and  C11_15 
REMARK    6  A    between atoms: C14_20  and  O4_21 
REMARK    7  A    between atoms: C15_23  and  C16_24 
REMARK    8  A    between atoms: C16_24  and  C17_25 
REMARK    9  A    between atoms: C20_30  and  O5_31 
REMARK   10  A    between atoms: C21_35  and  C22_36 
REMARK   11  A    between atoms: C25_39  and  O6_40 
ROOT
HETATM    1  C5  UNL     1      22.559  18.362  15.762  1.00  0.00     0.089 C 
HETATM    2  C6  UNL     1      23.430  18.040  14.577  1.00  0.00     0.066 C 
HETATM    3  C7  UNL     1      24.581  17.076  14.854  1.00  0.00     0.206 C 
HETATM    4  C9  UNL     1      24.202  15.683  15.072  1.00  0.00     0.179 C 
HETATM    5  O3  UNL     1      23.740  15.110  14.050  1.00  0.00    -0.293 OA
HETATM    6  C10 UNL     1      24.261  14.820  16.263  1.00  0.00     0.159 C 
HETATM    7  N2  UNL     1      23.477  13.607  16.107  1.00  0.00    -0.361 N 
ATOM      8  H2  UNL     1      23.988  12.878  15.609  1.00  0.00     0.162 HD
HETATM    9  C14 UNL     1      22.223  13.209  16.464  1.00  0.00     0.135 C 
HETATM   10  C15 UNL     1      21.238  13.698  17.458  1.00  0.00     0.159 C 
HETATM   11  N3  UNL     1      19.934  13.878  16.768  1.00  0.00    -0.345 N 
ATOM     12  H3  UNL     1      19.854  13.333  15.911  1.00  0.00     0.163 HD
HETATM   13  C20 UNL     1      18.809  14.626  17.042  1.00  0.00     0.214 C 
HETATM   14  N4  UNL     1      18.586  16.039  17.037  1.00  0.00    -0.344 N 
ATOM     15  H4  UNL     1      18.075  16.427  17.831  1.00  0.00     0.164 HD
HETATM   16  C21 UNL     1      19.015  16.978  16.013  1.00  0.00     0.163 C 
HETATM   17  C25 UNL     1      20.444  16.790  15.656  1.00  0.00     0.135 C 
HETATM   18  N5  UNL     1      21.628  17.309  16.095  1.00  0.00    -0.368 N 
ATOM     19  H5  UNL     1      21.957  16.793  16.911  1.00  0.00     0.161 HD
ENDROOT
BRANCH   1  20
HETATM   20  C3  UNL     1      23.458  18.782  16.904  1.00  0.00     0.004 C 
HETATM   21  C4  UNL     1      23.640  20.286  16.908  1.00  0.00     0.012 C 
BRANCH  20  22
HETATM   22  C2  UNL     1      22.909  18.396  18.267  1.00  0.00     0.002 C 
HETATM   23  C1  UNL     1      23.801  17.378  18.889  1.00  0.00     0.005 C 
ENDBRANCH  20  22
ENDBRANCH   1  20
BRANCH   3  24
HETATM   24  O1  UNL     1      25.427  17.166  13.661  1.00  0.00    -0.293 OA
BRANCH  24  25
HETATM   25  C8  UNL     1      26.121  18.274  13.317  1.00  0.00     0.373 C 
HETATM   26  N1  UNL     1      25.900  18.858  12.022  1.00  0.00    -0.032 NA
HETATM   27  O2  UNL     1      26.952  18.795  14.105  1.00  0.00    -0.242 OA
ENDBRANCH  24  25
ENDBRANCH   3  24
BRANCH  17  28
HETATM   28  O6  UNL     1      20.524  15.900  14.689  1.00  0.00    -0.348 OA
ATOM     29  H6  UNL     1      21.426  15.613  14.614  1.00  0.00     0.219 HD
ENDBRANCH  17  28
BRANCH  16  30
HETATM   30  C22 UNL     1      18.550  18.338  16.368  1.00  0.00     0.008 C 
HETATM   31  C23 UNL     1      18.910  19.404  15.363  1.00  0.00     0.012 C 
HETATM   32  C24 UNL     1      18.905  18.811  17.736  1.00  0.00     0.012 C 
ENDBRANCH  16  30
BRANCH   6  33
HETATM   33  C11 UNL     1      25.683  14.451  16.684  1.00  0.00     0.007 C 
HETATM   34  C12 UNL     1      25.613  13.541  17.922  1.00  0.00     0.012 C 
HETATM   35  C13 UNL     1      26.495  15.640  17.136  1.00  0.00     0.012 C 
ENDBRANCH   6  33
BRANCH  13  36
HETATM   36  O5  UNL     1      17.684  14.014  17.375  1.00  0.00    -0.333 OA
ATOM     37  H5  UNL     1      16.934  14.528  17.649  1.00  0.00     0.220 HD
ENDBRANCH  13  36
BRANCH   9  38
HETATM   38  O4  UNL     1      21.765  12.178  15.805  1.00  0.00    -0.348 OA
ATOM     39  H4  UNL     1      21.179  11.616  16.298  1.00  0.00     0.219 HD
ENDBRANCH   9  38
BRANCH  10  40
HETATM   40  C16 UNL     1      20.946  12.736  18.544  1.00  0.00     0.037 C 
BRANCH  40  41
HETATM   41  C17 UNL     1      21.670  12.649  19.798  1.00  0.00    -0.020 C 
HETATM   42  C18 UNL     1      22.699  11.475  19.532  1.00  0.00     0.009 C 
HETATM   43  C19 UNL     1      22.655  13.795  20.074  1.00  0.00     0.009 C 
ENDBRANCH  40  41
ENDBRANCH  10  40
TORSDOF 11
ENDMDL
MODEL 3
REMARK VINA RESULT: -6.657433327      2.534      7.400
REMARK  11 active torsions:
REMARK  status: ('A' for Active; 'I' for Inactive)
REMARK    1  A    between atoms: C2_2  and  C3_3 
REMARK    2  A    between atoms: C3_3  and  C5_5 
REMARK    3  A    between atoms: C7_7  and  O1_8 
REMARK    4  A    between atoms: O1_8  and  C8_9 
REMARK    5  A    between atoms: C10_14  and  C11_15 
REMARK    6  A    between atoms: C14_20  and  O4_21 
REMARK    7  A    between atoms: C15_23  and  C16_24 
REMARK    8  A    between atoms: C16_24  and  C17_25 
REMARK    9  A    between atoms: C20_30  and  O5_31 
REMARK   10  A    between atoms: C21_35  and  C22_36 
REMARK   11  A    between atoms: C25_39  and  O6_40 
ROOT
HETATM    1  C5  UNL     1      18.936  15.951  15.930  1.00  0.00     0.089 C 
HETATM    2  C6  UNL     1      19.045  14.719  16.788  1.00  0.00     0.066 C 
HETATM    3  C7  UNL     1      20.378  13.979  16.704  1.00  0.00     0.206 C 
HETATM    4  C9  UNL     1      21.511  14.641  17.347  1.00  0.00     0.179 C 
HETATM    5  O3  UNL     1      21.425  14.701  18.602  1.00  0.00    -0.293 OA
HETATM    6  C10 UNL     1      22.736  15.249  16.803  1.00  0.00     0.159 C 
HETATM    7  N2  UNL     1      23.423  16.076  17.781  1.00  0.00    -0.361 N 
ATOM      8  H2  UNL     1      24.023  15.528  18.397  1.00  0.00     0.162 HD
HETATM    9  C14 UNL     1      23.459  17.407  18.072  1.00  0.00     0.135 C 
HETATM   10  C15 UNL     1      23.092  18.630  17.319  1.00  0.00     0.159 C 
HETATM   11  N3  UNL     1      22.204  19.455  18.179  1.00  0.00    -0.345 N 
ATOM     12  H3  UNL     1      22.296  19.243  19.172  1.00  0.00     0.163 HD
HETATM   13  C20 UNL     1      21.282  20.446  17.919  1.00  0.00     0.214 C 
HETATM   14  N4  UNL     1      20.005  20.407  17.275  1.00  0.00    -0.344 N 
ATOM     15  H4  UNL     1      19.812  21.141  16.592  1.00  0.00     0.164 HD
HETATM   16  C21 UNL     1      18.955  19.427  17.498  1.00  0.00     0.163 C 
HETATM   17  C25 UNL     1      19.477  18.039  17.450  1.00  0.00     0.135 C 
HETATM   18  N5  UNL     1      19.631  17.095  16.475  1.00  0.00    -0.368 N 
ATOM     19  H5  UNL     1      20.509  17.244  15.977  1.00  0.00     0.161 HD
ENDROOT
BRANCH   1  20
HETATM   20  C3  UNL     1      19.353  15.583  14.524  1.00  0.00     0.004 C 
HETATM   21  C4  UNL     1      18.212  15.816  13.555  1.00  0.00     0.012 C 
BRANCH  20  22
HETATM   22  C2  UNL     1      20.536  16.392  14.021  1.00  0.00     0.002 C 
HETATM   23  C1  UNL     1      21.575  15.468  13.484  1.00  0.00     0.005 C 
ENDBRANCH  20  22
ENDBRANCH   1  20
BRANCH   3  24
HETATM   24  O1  UNL     1      20.126  12.698  17.367  1.00  0.00    -0.293 OA
BRANCH  24  25
HETATM   25  C8  UNL     1      20.984  11.653  17.329  1.00  0.00     0.373 C 
HETATM   26  N1  UNL     1      21.361  11.019  18.563  1.00  0.00    -0.032 NA
HETATM   27  O2  UNL     1      21.454  11.234  16.240  1.00  0.00    -0.242 OA
ENDBRANCH  24  25
ENDBRANCH   3  24
BRANCH  17  28
HETATM   28  O6  UNL     1      19.874  17.695  18.657  1.00  0.00    -0.348 OA
ATOM     29  H6  UNL     1      20.517  18.326  18.957  1.00  0.00     0.219 HD
ENDBRANCH  17  28
BRANCH  16  30
HETATM   30  C22 UNL     1      17.779  19.768  16.663  1.00  0.00     0.008 C 
HETATM   31  C23 UNL     1      18.056  19.804  15.180  1.00  0.00     0.012 C 
HETATM   32  C24 UNL     1      17.037  21.000  17.056  1.00  0.00     0.012 C 
ENDBRANCH  16  30
BRANCH   6  33
HETATM   33  C11 UNL     1      23.718  14.234  16.222  1.00  0.00     0.007 C 
HETATM   34  C12 UNL     1      24.509  13.593  17.374  1.00  0.00     0.012 C 
HETATM   35  C13 UNL     1      24.775  14.866  15.347  1.00  0.00     0.012 C 
ENDBRANCH   6  33
BRANCH  13  36
HETATM   36  O5  UNL     1      21.535  21.688  18.300  1.00  0.00    -0.333 OA
ATOM     37  H5  UNL     1      21.556  22.381  17.651  1.00  0.00     0.220 HD
ENDBRANCH  13  36
BRANCH   9  38
HETATM   38  O4  UNL     1      23.906  17.697  19.265  1.00  0.00    -0.348 OA
ATOM     39  H4  UNL     1      24.825  17.499  19.406  1.00  0.00     0.219 HD
ENDBRANCH   9  38
BRANCH  10  40
HETATM   40  C16 UNL     1      24.235  19.520  17.016  1.00  0.00     0.037 C 
BRANCH  40  41
HETATM   41  C17 UNL     1      24.998  19.507  15.783  1.00  0.00    -0.020 C 
HETATM   42  C18 UNL     1      26.290  18.678  16.175  1.00  0.00     0.009 C 
HETATM   43  C19 UNL     1      24.443  18.605  14.670  1.00  0.00     0.009 C 
ENDBRANCH  40  41
ENDBRANCH  10  40
TORSDOF 11
ENDMDL
MODEL 4
REMARK VINA RESULT: -6.654637362      2.474      5.373
REMARK  11 active torsions:
REMARK  status: ('A' for Active; 'I' for Inactive)
REMARK    1  A    between atoms: C2_2  and  C3_3 
REMARK    2  A    between atoms: C3_3  and  C5_5 
REMARK    3  A    between atoms: C7_7  and  O1_8 
REMARK    4  A    between atoms: O1_8  and  C8_9 
REMARK    5  A    between atoms: C10_14  and  C11_15 
REMARK    6  A    between atoms: C14_20  and  O4_21 
REMARK    7  A    between atoms: C15_23  and  C16_24 
REMARK    8  A    between atoms: C16_24  and  C17_25 
REMARK    9  A    between atoms: C20_30  and  O5_31 
REMARK   10  A    between atoms: C21_35  and  C22_36 
REMARK   11  A    between atoms: C25_39  and  O6_40 
ROOT
HETATM    1  C5  UNL     1      22.574  20.177  17.638  1.00  0.00     0.089 C 
HETATM    2  C6  UNL     1      21.328  20.392  18.454  1.00  0.00     0.066 C 
HETATM    3  C7  UNL     1      20.026  19.949  17.791  1.00  0.00     0.206 C 
HETATM    4  C9  UNL     1      19.825  18.505  17.693  1.00  0.00     0.179 C 
HETATM    5  O3  UNL     1      19.657  17.934  18.802  1.00  0.00    -0.293 OA
HETATM    6  C10 UNL     1      19.780  17.592  16.539  1.00  0.00     0.159 C 
HETATM    7  N2  UNL     1      19.883  16.198  16.934  1.00  0.00    -0.361 N 
ATOM      8  H2  UNL     1      18.984  15.809  17.219  1.00  0.00     0.162 HD
HETATM    9  C14 UNL     1      20.891  15.284  17.015  1.00  0.00     0.135 C 
HETATM   10  C15 UNL     1      22.246  15.198  16.420  1.00  0.00     0.159 C 
HETATM   11  N3  UNL     1      23.216  14.925  17.512  1.00  0.00    -0.345 N 
ATOM     12  H3  UNL     1      22.785  14.511  18.338  1.00  0.00     0.163 HD
HETATM   13  C20 UNL     1      24.575  15.111  17.645  1.00  0.00     0.214 C 
HETATM   14  N4  UNL     1      25.363  16.301  17.746  1.00  0.00    -0.344 N 
ATOM     15  H4  UNL     1      26.210  16.341  17.177  1.00  0.00     0.164 HD
HETATM   16  C21 UNL     1      25.078  17.458  18.578  1.00  0.00     0.163 C 
HETATM   17  C25 UNL     1      23.672  17.912  18.429  1.00  0.00     0.135 C 
HETATM   18  N5  UNL     1      23.023  18.803  17.624  1.00  0.00    -0.368 N 
ATOM     19  H5  UNL     1      22.778  18.362  16.737  1.00  0.00     0.161 HD
ENDROOT
BRANCH   1  20
HETATM   20  C3  UNL     1      22.345  20.770  16.266  1.00  0.00     0.004 C 
HETATM   21  C4  UNL     1      23.301  21.920  16.020  1.00  0.00     0.012 C 
BRANCH  20  22
HETATM   22  C2  UNL     1      22.553  19.771  15.141  1.00  0.00     0.002 C 
HETATM   23  C1  UNL     1      23.753  20.161  14.348  1.00  0.00     0.005 C 
ENDBRANCH  20  22
ENDBRANCH   1  20
BRANCH   3  24
HETATM   24  O1  UNL     1      18.974  20.528  18.629  1.00  0.00    -0.293 OA
BRANCH  24  25
HETATM   25  C8  UNL     1      17.669  20.559  18.278  1.00  0.00     0.373 C 
HETATM   26  N1  UNL     1      16.670  20.449  19.307  1.00  0.00    -0.032 NA
HETATM   27  O2  UNL     1      17.319  20.679  17.076  1.00  0.00    -0.242 OA
ENDBRANCH  24  25
ENDBRANCH   3  24
BRANCH  17  28
HETATM   28  O6  UNL     1      22.925  17.265  19.299  1.00  0.00    -0.348 OA
ATOM     29  H6  UNL     1      22.974  17.714  20.135  1.00  0.00     0.219 HD
ENDBRANCH  17  28
BRANCH  16  30
HETATM   30  C22 UNL     1      26.162  18.455  18.421  1.00  0.00     0.008 C 
HETATM   31  C23 UNL     1      26.510  18.779  16.989  1.00  0.00     0.012 C 
HETATM   32  C24 UNL     1      27.413  18.182  19.183  1.00  0.00     0.012 C 
ENDBRANCH  16  30
BRANCH   6  33
HETATM   33  C11 UNL     1      18.546  17.777  15.658  1.00  0.00     0.007 C 
HETATM   34  C12 UNL     1      18.088  16.399  15.152  1.00  0.00     0.012 C 
HETATM   35  C13 UNL     1      18.827  18.566  14.402  1.00  0.00     0.012 C 
ENDBRANCH   6  33
BRANCH  13  36
HETATM   36  O5  UNL     1      25.375  14.059  17.703  1.00  0.00    -0.333 OA
ATOM     37  H5  UNL     1      25.656  13.640  16.898  1.00  0.00     0.220 HD
ENDBRANCH  13  36
BRANCH   9  38
HETATM   38  O4  UNL     1      20.638  14.252  17.775  1.00  0.00    -0.348 OA
ATOM     39  H4  UNL     1      21.400  13.866  18.192  1.00  0.00     0.219 HD
ENDBRANCH   9  38
BRANCH  10  40
HETATM   40  C16 UNL     1      22.425  14.067  15.482  1.00  0.00     0.037 C 
BRANCH  40  41
HETATM   41  C17 UNL     1      22.904  14.183  14.117  1.00  0.00    -0.020 C 
HETATM   42  C18 UNL     1      21.988  15.326  13.516  1.00  0.00     0.009 C 
HETATM   43  C19 UNL     1      24.280  14.845  13.954  1.00  0.00     0.009 C 
ENDBRANCH  40  41
ENDBRANCH  10  40
TORSDOF 11
ENDMDL
MODEL 5
REMARK VINA RESULT: -6.650735692      2.848      6.142
REMARK  11 active torsions:
REMARK  status: ('A' for Active; 'I' for Inactive)
REMARK    1  A    between atoms: C2_2  and  C3_3 
REMARK    2  A    between atoms: C3_3  and  C5_5 
REMARK    3  A    between atoms: C7_7  and  O1_8 
REMARK    4  A    between atoms: O1_8  and  C8_9 
REMARK    5  A    between atoms: C10_14  and  C11_15 
REMARK    6  A    between atoms: C14_20  and  O4_21 
REMARK    7  A    between atoms: C15_23  and  C16_24 
REMARK    8  A    between atoms: C16_24  and  C17_25 
REMARK    9  A    between atoms: C20_30  and  O5_31 
REMARK   10  A    between atoms: C21_35  and  C22_36 
REMARK   11  A    between atoms: C25_39  and  O6_40 
ROOT
HETATM    1  C5  UNL     1      21.191  20.434  16.949  1.00  0.00     0.089 C 
HETATM    2  C6  UNL     1      22.490  20.695  16.235  1.00  0.00     0.066 C 
HETATM    3  C7  UNL     1      23.639  19.760  16.604  1.00  0.00     0.206 C 
HETATM    4  C9  UNL     1      23.530  18.393  16.101  1.00  0.00     0.179 C 
HETATM    5  O3  UNL     1      23.625  18.297  14.849  1.00  0.00    -0.293 OA
HETATM    6  C10 UNL     1      23.332  17.104  16.785  1.00  0.00     0.159 C 
HETATM    7  N2  UNL     1      22.958  16.044  15.865  1.00  0.00    -0.361 N 
ATOM      8  H2  UNL     1      23.768  15.625  15.408  1.00  0.00     0.162 HD
HETATM    9  C14 UNL     1      21.785  15.473  15.467  1.00  0.00     0.135 C 
HETATM   10  C15 UNL     1      20.417  15.439  16.036  1.00  0.00     0.159 C 
HETATM   11  N3  UNL     1      19.462  15.840  14.971  1.00  0.00    -0.345 N 
ATOM     12  H3  UNL     1      19.834  15.715  14.029  1.00  0.00     0.163 HD
HETATM   13  C20 UNL     1      18.179  16.344  14.984  1.00  0.00     0.214 C 
HETATM   14  N4  UNL     1      17.662  17.609  15.408  1.00  0.00    -0.344 N 
ATOM     15  H4  UNL     1      16.818  17.592  15.981  1.00  0.00     0.164 HD
HETATM   16  C21 UNL     1      18.220  18.916  15.102  1.00  0.00     0.163 C 
HETATM   17  C25 UNL     1      19.681  18.966  15.360  1.00  0.00     0.135 C 
HETATM   18  N5  UNL     1      20.465  19.299  16.427  1.00  0.00    -0.368 N 
ATOM     19  H5  UNL     1      20.572  18.497  17.048  1.00  0.00     0.161 HD
ENDROOT
BRANCH   1  20
HETATM   20  C3  UNL     1      21.477  20.360  18.432  1.00  0.00     0.004 C 
HETATM   21  C4  UNL     1      20.720  21.444  19.172  1.00  0.00     0.012 C 
BRANCH  20  22
HETATM   22  C2  UNL     1      21.075  19.033  19.052  1.00  0.00     0.002 C 
HETATM   23  C1  UNL     1      20.230  19.285  20.254  1.00  0.00     0.005 C 
ENDBRANCH  20  22
ENDBRANCH   1  20
BRANCH   3  24
HETATM   24  O1  UNL     1      24.826  20.395  16.026  1.00  0.00    -0.293 OA
BRANCH  24  25
HETATM   25  C8  UNL     1      25.978  20.590  16.706  1.00  0.00     0.373 C 
HETATM   26  N1  UNL     1      26.664  21.846  16.565  1.00  0.00    -0.032 NA
HETATM   27  O2  UNL     1      26.454  19.697  17.453  1.00  0.00    -0.242 OA
ENDBRANCH  24  25
ENDBRANCH   3  24
BRANCH  17  28
HETATM   28  O6  UNL     1      20.315  18.585  14.271  1.00  0.00    -0.348 OA
ATOM     29  H6  UNL     1      20.747  17.757  14.444  1.00  0.00     0.219 HD
ENDBRANCH  17  28
BRANCH  16  30
HETATM   30  C22 UNL     1      17.362  19.967  15.697  1.00  0.00     0.008 C 
HETATM   31  C23 UNL     1      17.498  21.324  15.050  1.00  0.00     0.012 C 
HETATM   32  C24 UNL     1      17.448  20.117  17.177  1.00  0.00     0.012 C 
ENDBRANCH  16  30
BRANCH   6  33
HETATM   33  C11 UNL     1      24.536  16.655  17.610  1.00  0.00     0.007 C 
HETATM   34  C12 UNL     1      24.494  15.125  17.756  1.00  0.00     0.012 C 
HETATM   35  C13 UNL     1      24.508  17.170  19.029  1.00  0.00     0.012 C 
ENDBRANCH   6  33
BRANCH  13  36
HETATM   36  O5  UNL     1      17.181  15.597  14.542  1.00  0.00    -0.333 OA
ATOM     37  H5  UNL     1      16.383  15.530  15.054  1.00  0.00     0.220 HD
ENDBRANCH  13  36
BRANCH   9  38
HETATM   38  O4  UNL     1      21.852  14.808  14.344  1.00  0.00    -0.348 OA
ATOM     39  H4  UNL     1      21.107  14.926  13.765  1.00  0.00     0.219 HD
ENDBRANCH   9  38
BRANCH  10  40
HETATM   40  C16 UNL     1      19.964  14.091  16.444  1.00  0.00     0.037 C 
BRANCH  40  41
HETATM   41  C17 UNL     1      20.697  13.194  17.318  1.00  0.00    -0.020 C 
HETATM   42  C18 UNL     1      19.548  12.324  17.975  1.00  0.00     0.009 C 
HETATM   43  C19 UNL     1      21.487  12.082  16.612  1.00  0.00     0.009 C 
ENDBRANCH  40  41
ENDBRANCH  10  40
TORSDOF 11
ENDMDL
