MODEL 1
REMARK VINA RESULT: -5.164828110      0.000      0.000
REMARK  10 active torsions:
REMARK  status: ('A' for Active; 'I' for Inactive)
REMARK    1  A    between atoms: C2_2  and  C3_3 
REMARK    2  A    between atoms: C3_3  and  N1_4 
REMARK    3  A    between atoms: C4_6  and  C5_7 
REMARK    4  A    between atoms: C5_7  and  C6_8 
REMARK    5  A    between atoms: C6_8  and  C7_9 
REMARK    6  A    between atoms: C7_9  and  C8_10 
REMARK    7  A    between atoms: C7_9  and  N3_17 
REMARK    8  A    between atoms: C8_10  and  N2_12 
REMARK    9  A    between atoms: N2_12  and  C12_15 
REMARK   10  A    between atoms: C16_23  and  C17_24 
ROOT
HETATM    1  C7  UNL     1     -11.360  24.929  50.397  1.00  0.00     0.026 C 
ENDROOT
BRANCH   1   2
HETATM    2  C6  UNL     1     -11.345  23.536  50.781  1.00  0.00     0.060 C 
BRANCH   2   3
HETATM    3  C5  UNL     1     -10.304  23.053  51.773  1.00  0.00     0.050 C 
BRANCH   3   4
HETATM    4  C4  UNL     1      -9.552  21.879  51.191  1.00  0.00     0.056 C 
HETATM    5  N1  UNL     1      -9.478  21.750  49.953  1.00  0.00    -0.402 N 
ATOM      6  H1  UNL     1      -9.921  22.430  49.334  1.00  0.00     0.158 HD
BRANCH   5   7
HETATM    7  C3  UNL     1      -8.761  20.630  49.410  1.00  0.00     0.118 C 
BRANCH   7   8
HETATM    8  C2  UNL     1      -9.713  19.466  49.339  1.00  0.00     0.015 C 
HETATM    9  C1  UNL     1      -9.075  18.306  50.081  1.00  0.00     0.006 C 
ENDBRANCH   7   8
ENDBRANCH   5   7
ENDBRANCH   3   4
ENDBRANCH   2   3
ENDBRANCH   1   2
BRANCH   1  10
HETATM   10  C8  UNL     1     -11.906  26.055  51.135  1.00  0.00     0.231 C 
HETATM   11  C9  UNL     1     -10.750  27.012  51.571  1.00  0.00     0.047 C 
BRANCH  10  12
HETATM   12  N2  UNL     1     -12.766  26.051  52.234  1.00  0.00    -0.066 N 
HETATM   13  C10 UNL     1     -13.215  27.488  52.321  1.00  0.00     0.272 C 
HETATM   14  C11 UNL     1     -12.124  25.876  53.549  1.00  0.00     0.272 C 
BRANCH  12  15
HETATM   15  C12 UNL     1     -14.017  25.377  52.199  1.00  0.00     0.233 C 
HETATM   16  C13 UNL     1     -14.149  24.282  53.250  1.00  0.00     0.035 C 
ENDBRANCH  12  15
ENDBRANCH  10  12
ENDBRANCH   1  10
BRANCH   1  17
HETATM   17  N3  UNL     1     -11.370  25.077  48.935  1.00  0.00    -0.289 N 
HETATM   18  C14 UNL     1     -12.462  25.347  48.060  1.00  0.00     0.323 C 
HETATM   19  O1  UNL     1     -13.634  24.944  48.249  1.00  0.00    -0.247 OA
HETATM   20  N4  UNL     1     -11.968  26.136  46.975  1.00  0.00    -0.340 N 
HETATM   21  C15 UNL     1     -10.504  26.245  47.122  1.00  0.00     0.161 C 
ATOM     22  H4  UNL     1     -12.529  26.551  46.231  1.00  0.00     0.164 HD
HETATM   23  C16 UNL     1     -10.241  25.011  47.985  1.00  0.00     0.212 C 
BRANCH  23  24
HETATM   24  C17 UNL     1     -10.469  23.857  47.104  1.00  0.00     0.199 C 
HETATM   25  O2  UNL     1     -10.807  22.737  47.570  1.00  0.00    -0.646 OA
HETATM   26  O3  UNL     1     -10.319  23.964  45.744  1.00  0.00    -0.646 OA
ENDBRANCH  23  24
ENDBRANCH   1  17
TORSDOF 10
ENDMDL
MODEL 2
REMARK VINA RESULT: -4.948819588      2.678      3.719
REMARK  10 active torsions:
REMARK  status: ('A' for Active; 'I' for Inactive)
REMARK    1  A    between atoms: C2_2  and  C3_3 
REMARK    2  A    between atoms: C3_3  and  N1_4 
REMARK    3  A    between atoms: C4_6  and  C5_7 
REMARK    4  A    between atoms: C5_7  and  C6_8 
REMARK    5  A    between atoms: C6_8  and  C7_9 
REMARK    6  A    between atoms: C7_9  and  C8_10 
REMARK    7  A    between atoms: C7_9  and  N3_17 
REMARK    8  A    between atoms: C8_10  and  N2_12 
REMARK    9  A    between atoms: N2_12  and  C12_15 
REMARK   10  A    between atoms: C16_23  and  C17_24 
ROOT
HETATM    1  C7  UNL     1      -9.887  25.191  47.099  1.00  0.00     0.026 C 
ENDROOT
BRANCH   1   2
HETATM    2  C6  UNL     1     -10.297  23.846  47.434  1.00  0.00     0.060 C 
BRANCH   2   3
HETATM    3  C5  UNL     1     -10.342  23.428  48.892  1.00  0.00     0.050 C 
BRANCH   3   4
HETATM    4  C4  UNL     1      -9.824  22.017  49.032  1.00  0.00     0.056 C 
HETATM    5  N1  UNL     1     -10.442  21.079  48.490  1.00  0.00    -0.402 N 
ATOM      6  H1  UNL     1     -11.291  21.260  47.954  1.00  0.00     0.158 HD
BRANCH   5   7
HETATM    7  C3  UNL     1      -9.940  19.740  48.630  1.00  0.00     0.118 C 
BRANCH   7   8
HETATM    8  C2  UNL     1      -9.052  19.707  49.845  1.00  0.00     0.015 C 
HETATM    9  C1  UNL     1      -8.859  18.252  50.232  1.00  0.00     0.006 C 
ENDBRANCH   7   8
ENDBRANCH   5   7
ENDBRANCH   3   4
ENDBRANCH   2   3
ENDBRANCH   1   2
BRANCH   1  10
HETATM   10  C8  UNL     1     -10.461  26.443  47.561  1.00  0.00     0.231 C 
HETATM   11  C9  UNL     1      -9.573  27.044  48.698  1.00  0.00     0.047 C 
BRANCH  10  12
HETATM   12  N2  UNL     1     -11.764  26.709  47.982  1.00  0.00    -0.066 N 
HETATM   13  C10 UNL     1     -11.935  28.172  47.660  1.00  0.00     0.272 C 
HETATM   14  C11 UNL     1     -11.978  26.714  49.440  1.00  0.00     0.272 C 
BRANCH  12  15
HETATM   15  C12 UNL     1     -12.890  26.152  47.318  1.00  0.00     0.233 C 
HETATM   16  C13 UNL     1     -13.781  25.313  48.226  1.00  0.00     0.035 C 
ENDBRANCH  12  15
ENDBRANCH  10  12
ENDBRANCH   1  10
BRANCH   1  17
HETATM   17  N3  UNL     1      -9.270  25.241  45.766  1.00  0.00    -0.289 N 
HETATM   18  C14 UNL     1      -9.865  25.530  44.504  1.00  0.00     0.323 C 
HETATM   19  O1  UNL     1     -11.041  25.225  44.191  1.00  0.00    -0.247 OA
HETATM   20  N4  UNL     1      -8.891  26.208  43.706  1.00  0.00    -0.340 N 
HETATM   21  C15 UNL     1      -7.620  26.222  44.455  1.00  0.00     0.161 C 
ATOM     22  H4  UNL     1      -9.048  26.611  42.782  1.00  0.00     0.164 HD
HETATM   23  C16 UNL     1      -7.858  25.033  45.385  1.00  0.00     0.212 C 
BRANCH  23  24
HETATM   24  C17 UNL     1      -7.802  23.841  44.526  1.00  0.00     0.199 C 
HETATM   25  O2  UNL     1      -8.385  22.774  44.851  1.00  0.00    -0.646 OA
HETATM   26  O3  UNL     1      -7.110  23.856  43.341  1.00  0.00    -0.646 OA
ENDBRANCH  23  24
ENDBRANCH   1  17
TORSDOF 10
ENDMDL
MODEL 3
REMARK VINA RESULT: -4.916053387      2.949      4.174
REMARK  10 active torsions:
REMARK  status: ('A' for Active; 'I' for Inactive)
REMARK    1  A    between atoms: C2_2  and  C3_3 
REMARK    2  A    between atoms: C3_3  and  N1_4 
REMARK    3  A    between atoms: C4_6  and  C5_7 
REMARK    4  A    between atoms: C5_7  and  C6_8 
REMARK    5  A    between atoms: C6_8  and  C7_9 
REMARK    6  A    between atoms: C7_9  and  C8_10 
REMARK    7  A    between atoms: C7_9  and  N3_17 
REMARK    8  A    between atoms: C8_10  and  N2_12 
REMARK    9  A    between atoms: N2_12  and  C12_15 
REMARK   10  A    between atoms: C16_23  and  C17_24 
ROOT
HETATM    1  C7  UNL     1     -10.006  24.915  46.757  1.00  0.00     0.026 C 
ENDROOT
BRANCH   1   2
HETATM    2  C6  UNL     1     -10.344  23.619  47.298  1.00  0.00     0.060 C 
BRANCH   2   3
HETATM    3  C5  UNL     1     -10.104  23.346  48.771  1.00  0.00     0.050 C 
BRANCH   3   4
HETATM    4  C4  UNL     1      -9.681  21.909  48.960  1.00  0.00     0.056 C 
HETATM    5  N1  UNL     1     -10.399  20.993  48.511  1.00  0.00    -0.402 N 
ATOM      6  H1  UNL     1     -11.267  21.209  48.020  1.00  0.00     0.158 HD
BRANCH   5   7
HETATM    7  C3  UNL     1      -9.986  19.630  48.696  1.00  0.00     0.118 C 
BRANCH   7   8
HETATM    8  C2  UNL     1      -8.966  19.605  49.803  1.00  0.00     0.015 C 
HETATM    9  C1  UNL     1      -8.974  18.210  50.403  1.00  0.00     0.006 C 
ENDBRANCH   7   8
ENDBRANCH   5   7
ENDBRANCH   3   4
ENDBRANCH   2   3
ENDBRANCH   1   2
BRANCH   1  10
HETATM   10  C8  UNL     1     -10.390  26.224  47.259  1.00  0.00     0.231 C 
HETATM   11  C9  UNL     1      -9.290  26.763  48.229  1.00  0.00     0.047 C 
BRANCH  10  12
HETATM   12  N2  UNL     1     -11.586  26.616  47.862  1.00  0.00    -0.066 N 
HETATM   13  C10 UNL     1     -11.649  28.093  47.564  1.00  0.00     0.272 C 
HETATM   14  C11 UNL     1     -11.587  26.624  49.335  1.00  0.00     0.272 C 
BRANCH  12  15
HETATM   15  C12 UNL     1     -12.847  26.185  47.367  1.00  0.00     0.233 C 
HETATM   16  C13 UNL     1     -13.588  25.252  48.317  1.00  0.00     0.035 C 
ENDBRANCH  12  15
ENDBRANCH  10  12
ENDBRANCH   1  10
BRANCH   1  17
HETATM   17  N3  UNL     1      -9.785  24.844  45.306  1.00  0.00    -0.289 N 
HETATM   18  C14 UNL     1      -8.926  23.984  44.562  1.00  0.00     0.323 C 
HETATM   19  O1  UNL     1      -7.819  23.565  44.973  1.00  0.00    -0.247 OA
HETATM   20  N4  UNL     1      -9.559  23.711  43.309  1.00  0.00    -0.340 N 
HETATM   21  C15 UNL     1     -10.784  24.530  43.230  1.00  0.00     0.161 C 
ATOM     22  H4  UNL     1      -9.223  23.064  42.596  1.00  0.00     0.164 HD
HETATM   23  C16 UNL     1     -10.421  25.630  44.228  1.00  0.00     0.212 C 
BRANCH  23  24
HETATM   24  C17 UNL     1      -9.368  26.423  43.578  1.00  0.00     0.199 C 
HETATM   25  O2  UNL     1      -8.594  27.155  44.248  1.00  0.00    -0.646 OA
HETATM   26  O3  UNL     1      -9.197  26.389  42.217  1.00  0.00    -0.646 OA
ENDBRANCH  23  24
ENDBRANCH   1  17
TORSDOF 10
ENDMDL
MODEL 4
REMARK VINA RESULT: -4.775977666      1.532      2.692
REMARK  10 active torsions:
REMARK  status: ('A' for Active; 'I' for Inactive)
REMARK    1  A    between atoms: C2_2  and  C3_3 
REMARK    2  A    between atoms: C3_3  and  N1_4 
REMARK    3  A    between atoms: C4_6  and  C5_7 
REMARK    4  A    between atoms: C5_7  and  C6_8 
REMARK    5  A    between atoms: C6_8  and  C7_9 
REMARK    6  A    between atoms: C7_9  and  C8_10 
REMARK    7  A    between atoms: C7_9  and  N3_17 
REMARK    8  A    between atoms: C8_10  and  N2_12 
REMARK    9  A    between atoms: N2_12  and  C12_15 
REMARK   10  A    between atoms: C16_23  and  C17_24 
ROOT
HETATM    1  C7  UNL     1     -10.520  23.700  49.932  1.00  0.00     0.026 C 
ENDROOT
BRANCH   1   2
HETATM    2  C6  UNL     1     -10.559  22.314  49.528  1.00  0.00     0.060 C 
BRANCH   2   3
HETATM    3  C5  UNL     1      -9.356  21.714  48.823  1.00  0.00     0.050 C 
BRANCH   3   4
HETATM    4  C4  UNL     1      -8.916  20.462  49.544  1.00  0.00     0.056 C 
HETATM    5  N1  UNL     1      -9.570  19.410  49.404  1.00  0.00    -0.402 N 
ATOM      6  H1  UNL     1     -10.398  19.391  48.807  1.00  0.00     0.158 HD
BRANCH   5   7
HETATM    7  C3  UNL     1      -9.142  18.225  50.094  1.00  0.00     0.118 C 
BRANCH   7   8
HETATM    8  C2  UNL     1      -8.310  18.656  51.273  1.00  0.00     0.015 C 
HETATM    9  C1  UNL     1      -8.507  17.629  52.373  1.00  0.00     0.006 C 
ENDBRANCH   7   8
ENDBRANCH   5   7
ENDBRANCH   3   4
ENDBRANCH   2   3
ENDBRANCH   1   2
BRANCH   1  10
HETATM   10  C8  UNL     1     -10.606  24.244  51.276  1.00  0.00     0.231 C 
HETATM   11  C9  UNL     1     -12.006  23.917  51.891  1.00  0.00     0.047 C 
BRANCH  10  12
HETATM   12  N2  UNL     1     -10.346  25.543  51.716  1.00  0.00    -0.066 N 
HETATM   13  C10 UNL     1     -10.081  25.357  53.188  1.00  0.00     0.272 C 
HETATM   14  C11 UNL     1     -11.505  26.452  51.750  1.00  0.00     0.272 C 
BRANCH  12  15
HETATM   15  C12 UNL     1      -9.177  26.245  51.316  1.00  0.00     0.233 C 
HETATM   16  C13 UNL     1      -8.242  26.580  52.471  1.00  0.00     0.035 C 
ENDBRANCH  12  15
ENDBRANCH  10  12
ENDBRANCH   1  10
BRANCH   1  17
HETATM   17  N3  UNL     1     -11.034  24.577  48.870  1.00  0.00    -0.289 N 
HETATM   18  C14 UNL     1     -12.381  24.834  48.481  1.00  0.00     0.323 C 
HETATM   19  O1  UNL     1     -13.304  23.988  48.534  1.00  0.00    -0.247 OA
HETATM   20  N4  UNL     1     -12.456  26.192  48.040  1.00  0.00    -0.340 N 
HETATM   21  C15 UNL     1     -11.089  26.746  48.037  1.00  0.00     0.161 C 
ATOM     22  H4  UNL     1     -13.306  26.689  47.773  1.00  0.00     0.164 HD
HETATM   23  C16 UNL     1     -10.287  25.449  47.940  1.00  0.00     0.212 C 
BRANCH  23  24
HETATM   24  C17 UNL     1     -10.515  24.944  46.579  1.00  0.00     0.199 C 
HETATM   25  O2  UNL     1     -10.880  25.711  45.650  1.00  0.00    -0.646 OA
HETATM   26  O3  UNL     1     -10.338  23.616  46.279  1.00  0.00    -0.646 OA
ENDBRANCH  23  24
ENDBRANCH   1  17
TORSDOF 10
ENDMDL
MODEL 5
REMARK VINA RESULT: -4.773350430      1.604      2.098
REMARK  10 active torsions:
REMARK  status: ('A' for Active; 'I' for Inactive)
REMARK    1  A    between atoms: C2_2  and  C3_3 
REMARK    2  A    between atoms: C3_3  and  N1_4 
REMARK    3  A    between atoms: C4_6  and  C5_7 
REMARK    4  A    between atoms: C5_7  and  C6_8 
REMARK    5  A    between atoms: C6_8  and  C7_9 
REMARK    6  A    between atoms: C7_9  and  C8_10 
REMARK    7  A    between atoms: C7_9  and  N3_17 
REMARK    8  A    between atoms: C8_10  and  N2_12 
REMARK    9  A    between atoms: N2_12  and  C12_15 
REMARK   10  A    between atoms: C16_23  and  C17_24 
ROOT
HETATM    1  C7  UNL     1     -12.591  25.612  51.102  1.00  0.00     0.026 C 
ENDROOT
BRANCH   1   2
HETATM    2  C6  UNL     1     -11.453  24.962  51.711  1.00  0.00     0.060 C 
BRANCH   2   3
HETATM    3  C5  UNL     1     -11.482  23.459  51.916  1.00  0.00     0.050 C 
BRANCH   3   4
HETATM    4  C4  UNL     1     -10.422  22.808  51.059  1.00  0.00     0.056 C 
HETATM    5  N1  UNL     1     -10.684  22.516  49.875  1.00  0.00    -0.402 N 
ATOM      6  H1  UNL     1     -11.606  22.713  49.485  1.00  0.00     0.158 HD
BRANCH   5   7
HETATM    7  C3  UNL     1      -9.668  21.898  49.069  1.00  0.00     0.118 C 
BRANCH   7   8
HETATM    8  C2  UNL     1      -9.140  20.709  49.827  1.00  0.00     0.015 C 
HETATM    9  C1  UNL     1      -9.703  19.461  49.174  1.00  0.00     0.006 C 
ENDBRANCH   7   8
ENDBRANCH   5   7
ENDBRANCH   3   4
ENDBRANCH   2   3
ENDBRANCH   1   2
BRANCH   1  10
HETATM   10  C8  UNL     1     -13.976  25.591  51.541  1.00  0.00     0.231 C 
HETATM   11  C9  UNL     1     -14.744  26.804  50.926  1.00  0.00     0.047 C 
BRANCH  10  12
HETATM   12  N2  UNL     1     -14.484  25.498  52.837  1.00  0.00    -0.066 N 
HETATM   13  C10 UNL     1     -15.898  25.999  52.685  1.00  0.00     0.272 C 
HETATM   14  C11 UNL     1     -13.945  26.466  53.808  1.00  0.00     0.272 C 
BRANCH  12  15
HETATM   15  C12 UNL     1     -14.708  24.241  53.462  1.00  0.00     0.233 C 
HETATM   16  C13 UNL     1     -16.168  23.990  53.821  1.00  0.00     0.035 C 
ENDBRANCH  12  15
ENDBRANCH  10  12
ENDBRANCH   1  10
BRANCH   1  17
HETATM   17  N3  UNL     1     -12.398  25.772  49.654  1.00  0.00    -0.289 N 
HETATM   18  C14 UNL     1     -12.900  24.981  48.581  1.00  0.00     0.323 C 
HETATM   19  O1  UNL     1     -13.082  23.742  48.643  1.00  0.00    -0.247 OA
HETATM   20  N4  UNL     1     -13.142  25.851  47.472  1.00  0.00    -0.340 N 
HETATM   21  C15 UNL     1     -12.654  27.195  47.834  1.00  0.00     0.161 C 
ATOM     22  H4  UNL     1     -13.576  25.588  46.587  1.00  0.00     0.164 HD
HETATM   23  C16 UNL     1     -11.652  26.819  48.925  1.00  0.00     0.212 C 
BRANCH  23  24
HETATM   24  C17 UNL     1     -10.536  26.163  48.228  1.00  0.00     0.199 C 
HETATM   25  O2  UNL     1      -9.734  25.412  48.842  1.00  0.00    -0.646 OA
HETATM   26  O3  UNL     1     -10.334  26.351  46.884  1.00  0.00    -0.646 OA
ENDBRANCH  23  24
ENDBRANCH   1  17
TORSDOF 10
ENDMDL
