MODEL 1
REMARK VINA RESULT: -4.271854412      0.000      0.000
REMARK  4 active torsions:
REMARK  status: ('A' for Active; 'I' for Inactive)
REMARK    1  A    between atoms: N1_2  and  C4_5 
REMARK    2  A    between atoms: C4_5  and  C5_6 
REMARK    3  A    between atoms: C6_7  and  C7_8 
REMARK    4  A    between atoms: C7_8  and  O1_9 
ROOT
HETATM    1  C4  UNL     1      -0.444  14.665  18.451  1.00  0.00     0.329 C 
ENDROOT
BRANCH   1   2
HETATM    2  N1  UNL     1      -0.696  16.070  18.594  1.00  0.00    -0.069 N 
HETATM    3  C1  UNL     1       0.372  16.802  19.207  1.00  0.00     0.272 C 
HETATM    4  C2  UNL     1      -1.860  16.198  19.488  1.00  0.00     0.272 C 
HETATM    5  C3  UNL     1      -1.046  16.691  17.332  1.00  0.00     0.272 C 
ENDBRANCH   1   2
BRANCH   1   6
HETATM    6  C5  UNL     1      -0.995  14.097  17.225  1.00  0.00    -0.076 C 
HETATM    7  C6  UNL     1      -1.441  13.648  16.206  1.00  0.00    -0.079 C 
BRANCH   7   8
HETATM    8  C7  UNL     1      -1.967  13.115  14.952  1.00  0.00     0.257 C 
BRANCH   8   9
HETATM    9  O1  UNL     1      -3.144  13.773  14.601  1.00  0.00    -0.389 OA
ATOM     10  H1  UNL     1      -3.896  13.214  14.760  1.00  0.00     0.210 HD
ENDBRANCH   8   9
ENDBRANCH   7   8
ENDBRANCH   1   6
TORSDOF 4
ENDMDL
MODEL 2
REMARK VINA RESULT: -4.202293865      0.075      1.353
REMARK  4 active torsions:
REMARK  status: ('A' for Active; 'I' for Inactive)
REMARK    1  A    between atoms: N1_2  and  C4_5 
REMARK    2  A    between atoms: C4_5  and  C5_6 
REMARK    3  A    between atoms: C6_7  and  C7_8 
REMARK    4  A    between atoms: C7_8  and  O1_9 
ROOT
HETATM    1  C4  UNL     1      -0.426  14.714  18.445  1.00  0.00     0.329 C 
ENDROOT
BRANCH   1   2
HETATM    2  N1  UNL     1      -0.746  16.102  18.618  1.00  0.00    -0.069 N 
HETATM    3  C1  UNL     1      -1.006  16.805  17.397  1.00  0.00     0.272 C 
HETATM    4  C2  UNL     1       0.439  16.733  19.222  1.00  0.00     0.272 C 
HETATM    5  C3  UNL     1      -1.855  16.294  19.532  1.00  0.00     0.272 C 
ENDBRANCH   1   2
BRANCH   1   6
HETATM    6  C5  UNL     1      -0.984  14.136  17.227  1.00  0.00    -0.076 C 
HETATM    7  C6  UNL     1      -1.435  13.677  16.214  1.00  0.00    -0.079 C 
BRANCH   7   8
HETATM    8  C7  UNL     1      -1.965  13.130  14.968  1.00  0.00     0.257 C 
BRANCH   8   9
HETATM    9  O1  UNL     1      -3.164  13.758  14.634  1.00  0.00    -0.389 OA
ATOM     10  H1  UNL     1      -3.032  14.693  14.538  1.00  0.00     0.210 HD
ENDBRANCH   8   9
ENDBRANCH   7   8
ENDBRANCH   1   6
TORSDOF 4
ENDMDL
MODEL 3
REMARK VINA RESULT: -4.130340342      0.076      1.345
REMARK  4 active torsions:
REMARK  status: ('A' for Active; 'I' for Inactive)
REMARK    1  A    between atoms: N1_2  and  C4_5 
REMARK    2  A    between atoms: C4_5  and  C5_6 
REMARK    3  A    between atoms: C6_7  and  C7_8 
REMARK    4  A    between atoms: C7_8  and  O1_9 
ROOT
HETATM    1  C4  UNL     1      -0.413  14.611  18.460  1.00  0.00     0.329 C 
ENDROOT
BRANCH   1   2
HETATM    2  N1  UNL     1      -0.743  15.991  18.675  1.00  0.00    -0.069 N 
HETATM    3  C1  UNL     1      -1.879  16.202  19.521  1.00  0.00     0.272 C 
HETATM    4  C2  UNL     1      -1.092  16.547  17.357  1.00  0.00     0.272 C 
HETATM    5  C3  UNL     1       0.385  16.747  19.181  1.00  0.00     0.272 C 
ENDBRANCH   1   2
BRANCH   1   6
HETATM    6  C5  UNL     1      -0.972  14.065  17.228  1.00  0.00    -0.076 C 
HETATM    7  C6  UNL     1      -1.426  13.634  16.205  1.00  0.00    -0.079 C 
BRANCH   7   8
HETATM    8  C7  UNL     1      -1.964  13.125  14.946  1.00  0.00     0.257 C 
BRANCH   8   9
HETATM    9  O1  UNL     1      -3.166  13.762  14.640  1.00  0.00    -0.389 OA
ATOM     10  H1  UNL     1      -3.692  13.217  14.066  1.00  0.00     0.210 HD
ENDBRANCH   8   9
ENDBRANCH   7   8
ENDBRANCH   1   6
TORSDOF 4
ENDMDL
MODEL 4
REMARK VINA RESULT: -3.933077030      0.985      1.851
REMARK  4 active torsions:
REMARK  status: ('A' for Active; 'I' for Inactive)
REMARK    1  A    between atoms: N1_2  and  C4_5 
REMARK    2  A    between atoms: C4_5  and  C5_6 
REMARK    3  A    between atoms: C6_7  and  C7_8 
REMARK    4  A    between atoms: C7_8  and  O1_9 
ROOT
HETATM    1  C4  UNL     1      -1.184  16.445  17.374  1.00  0.00     0.329 C 
ENDROOT
BRANCH   1   2
HETATM    2  N1  UNL     1      -0.826  15.949  18.672  1.00  0.00    -0.069 N 
HETATM    3  C1  UNL     1      -1.869  16.046  19.649  1.00  0.00     0.272 C 
HETATM    4  C2  UNL     1       0.279  16.795  19.153  1.00  0.00     0.272 C 
HETATM    5  C3  UNL     1      -0.338  14.585  18.618  1.00  0.00     0.272 C 
ENDBRANCH   1   2
BRANCH   1   6
HETATM    6  C5  UNL     1      -1.610  15.399  16.450  1.00  0.00    -0.076 C 
HETATM    7  C6  UNL     1      -1.943  14.544  15.677  1.00  0.00    -0.079 C 
BRANCH   7   8
HETATM    8  C7  UNL     1      -2.326  13.502  14.728  1.00  0.00     0.257 C 
BRANCH   8   9
HETATM    9  O1  UNL     1      -1.913  12.252  15.186  1.00  0.00    -0.389 OA
ATOM     10  H1  UNL     1      -1.556  12.323  16.063  1.00  0.00     0.210 HD
ENDBRANCH   8   9
ENDBRANCH   7   8
ENDBRANCH   1   6
TORSDOF 4
ENDMDL
MODEL 5
REMARK VINA RESULT: -3.917318394      0.999      1.661
REMARK  4 active torsions:
REMARK  status: ('A' for Active; 'I' for Inactive)
REMARK    1  A    between atoms: N1_2  and  C4_5 
REMARK    2  A    between atoms: C4_5  and  C5_6 
REMARK    3  A    between atoms: C6_7  and  C7_8 
REMARK    4  A    between atoms: C7_8  and  O1_9 
ROOT
HETATM    1  C4  UNL     1      -1.356  16.428  17.380  1.00  0.00     0.329 C 
ENDROOT
BRANCH   1   2
HETATM    2  N1  UNL     1      -0.800  15.917  18.600  1.00  0.00    -0.069 N 
HETATM    3  C1  UNL     1      -0.387  14.547  18.532  1.00  0.00     0.272 C 
HETATM    4  C2  UNL     1      -1.872  15.981  19.608  1.00  0.00     0.272 C 
HETATM    5  C3  UNL     1       0.298  16.731  19.081  1.00  0.00     0.272 C 
ENDBRANCH   1   2
BRANCH   1   6
HETATM    6  C5  UNL     1      -1.697  15.388  16.416  1.00  0.00    -0.076 C 
HETATM    7  C6  UNL     1      -1.958  14.533  15.615  1.00  0.00    -0.079 C 
BRANCH   7   8
HETATM    8  C7  UNL     1      -2.250  13.486  14.640  1.00  0.00     0.257 C 
BRANCH   8   9
HETATM    9  O1  UNL     1      -1.938  12.233  15.165  1.00  0.00    -0.389 OA
ATOM     10  H1  UNL     1      -1.063  12.238  15.534  1.00  0.00     0.210 HD
ENDBRANCH   8   9
ENDBRANCH   7   8
ENDBRANCH   1   6
TORSDOF 4
ENDMDL
