MODEL 1
REMARK VINA RESULT: -4.292670553      0.000      0.000
REMARK  4 active torsions:
REMARK  status: ('A' for Active; 'I' for Inactive)
REMARK    1  A    between atoms: N1_2  and  O1_3 
REMARK    2  A    between atoms: N1_2  and  C2_5 
REMARK    3  A    between atoms: C2_5  and  C3_6 
REMARK    4  A    between atoms: C4_7  and  C5_8 
ROOT
HETATM    1  C2  UNL     1      -1.175  17.212  19.705  1.00  0.00     0.213 C 
ENDROOT
BRANCH   1   2
HETATM    2  N1  UNL     1       0.126  17.171  20.303  1.00  0.00    -0.193 NA
HETATM    3  C1  UNL     1       1.009  18.119  19.613  1.00  0.00     0.144 C 
BRANCH   2   4
HETATM    4  O1  UNL     1       0.070  17.589  21.591  1.00  0.00    -0.313 OA
ATOM      5  H1  UNL     1      -0.433  18.395  21.579  1.00  0.00     0.237 HD
ENDBRANCH   2   4
ENDBRANCH   1   2
BRANCH   1   6
HETATM    6  C3  UNL     1      -1.398  15.952  18.991  1.00  0.00    -0.089 C 
HETATM    7  C4  UNL     1      -1.575  14.891  18.410  1.00  0.00    -0.100 C 
BRANCH   7   8
HETATM    8  C5  UNL     1      -1.772  13.607  17.729  1.00  0.00     0.065 A 
HETATM    9  C6  UNL     1      -1.772  13.644  16.263  1.00  0.00     0.018 A 
HETATM   10  C7  UNL     1      -0.544  13.132  16.990  1.00  0.00     0.018 A 
ENDBRANCH   7   8
ENDBRANCH   1   6
TORSDOF 4
ENDMDL
MODEL 2
REMARK VINA RESULT: -4.254449504      2.952      5.030
REMARK  4 active torsions:
REMARK  status: ('A' for Active; 'I' for Inactive)
REMARK    1  A    between atoms: N1_2  and  O1_3 
REMARK    2  A    between atoms: N1_2  and  C2_5 
REMARK    3  A    between atoms: C2_5  and  C3_6 
REMARK    4  A    between atoms: C4_7  and  C5_8 
ROOT
HETATM    1  C2  UNL     1      -1.954  14.018  17.199  1.00  0.00     0.213 C 
ENDROOT
BRANCH   1   2
HETATM    2  N1  UNL     1      -1.489  14.473  15.924  1.00  0.00    -0.193 NA
HETATM    3  C1  UNL     1      -1.978  13.569  14.876  1.00  0.00     0.144 C 
BRANCH   2   4
HETATM    4  O1  UNL     1      -2.012  15.690  15.634  1.00  0.00    -0.313 OA
ATOM      5  H1  UNL     1      -1.309  16.183  15.227  1.00  0.00     0.237 HD
ENDBRANCH   2   4
ENDBRANCH   1   2
BRANCH   1   6
HETATM    6  C3  UNL     1      -1.738  15.085  18.180  1.00  0.00    -0.089 C 
HETATM    7  C4  UNL     1      -1.552  15.988  18.983  1.00  0.00    -0.100 C 
BRANCH   7   8
HETATM    8  C5  UNL     1      -1.318  17.084  19.929  1.00  0.00     0.065 A 
HETATM    9  C6  UNL     1       0.055  17.592  20.007  1.00  0.00     0.018 A 
HETATM   10  C7  UNL     1      -0.988  18.392  19.252  1.00  0.00     0.018 A 
ENDBRANCH   7   8
ENDBRANCH   1   6
TORSDOF 4
ENDMDL
MODEL 3
REMARK VINA RESULT: -4.230839829      3.621      5.232
REMARK  4 active torsions:
REMARK  status: ('A' for Active; 'I' for Inactive)
REMARK    1  A    between atoms: N1_2  and  O1_3 
REMARK    2  A    between atoms: N1_2  and  C2_5 
REMARK    3  A    between atoms: C2_5  and  C3_6 
REMARK    4  A    between atoms: C4_7  and  C5_8 
ROOT
HETATM    1  C2  UNL     1      -0.745  13.248  16.935  1.00  0.00     0.213 C 
ENDROOT
BRANCH   1   2
HETATM    2  N1  UNL     1      -1.949  13.188  16.163  1.00  0.00    -0.193 NA
HETATM    3  C1  UNL     1      -2.145  14.464  15.467  1.00  0.00     0.144 C 
BRANCH   2   4
HETATM    4  O1  UNL     1      -1.843  12.249  15.190  1.00  0.00    -0.313 OA
ATOM      5  H1  UNL     1      -2.271  11.473  15.532  1.00  0.00     0.237 HD
ENDBRANCH   2   4
ENDBRANCH   1   2
BRANCH   1   6
HETATM    6  C3  UNL     1      -0.790  14.449  17.774  1.00  0.00    -0.089 C 
HETATM    7  C4  UNL     1      -0.834  15.462  18.457  1.00  0.00    -0.100 C 
BRANCH   7   8
HETATM    8  C5  UNL     1      -0.891  16.690  19.257  1.00  0.00     0.065 A 
HETATM    9  C6  UNL     1       0.393  17.335  19.547  1.00  0.00     0.018 A 
HETATM   10  C7  UNL     1      -0.505  17.924  18.478  1.00  0.00     0.018 A 
ENDBRANCH   7   8
ENDBRANCH   1   6
TORSDOF 4
ENDMDL
MODEL 4
REMARK VINA RESULT: -4.223130193      3.221      4.925
REMARK  4 active torsions:
REMARK  status: ('A' for Active; 'I' for Inactive)
REMARK    1  A    between atoms: N1_2  and  O1_3 
REMARK    2  A    between atoms: N1_2  and  C2_5 
REMARK    3  A    between atoms: C2_5  and  C3_6 
REMARK    4  A    between atoms: C4_7  and  C5_8 
ROOT
HETATM    1  C2  UNL     1      -1.589  13.639  18.044  1.00  0.00     0.213 C 
ENDROOT
BRANCH   1   2
HETATM    2  N1  UNL     1      -1.292  12.879  16.868  1.00  0.00    -0.193 NA
HETATM    3  C1  UNL     1      -1.721  13.629  15.682  1.00  0.00     0.144 C 
BRANCH   2   4
HETATM    4  O1  UNL     1       0.048  12.714  16.735  1.00  0.00    -0.313 OA
ATOM      5  H1  UNL     1       0.350  12.368  17.567  1.00  0.00     0.237 HD
ENDBRANCH   2   4
ENDBRANCH   1   2
BRANCH   1   6
HETATM    6  C3  UNL     1      -1.176  15.027  17.817  1.00  0.00    -0.089 C 
HETATM    7  C4  UNL     1      -0.842  16.190  17.644  1.00  0.00    -0.100 C 
BRANCH   7   8
HETATM    8  C5  UNL     1      -0.456  17.592  17.454  1.00  0.00     0.065 A 
HETATM    9  C6  UNL     1      -0.693  18.490  18.589  1.00  0.00     0.018 A 
HETATM   10  C7  UNL     1       0.716  18.007  18.310  1.00  0.00     0.018 A 
ENDBRANCH   7   8
ENDBRANCH   1   6
TORSDOF 4
ENDMDL
MODEL 5
REMARK VINA RESULT: -4.178768296      3.276      5.199
REMARK  4 active torsions:
REMARK  status: ('A' for Active; 'I' for Inactive)
REMARK    1  A    between atoms: N1_2  and  O1_3 
REMARK    2  A    between atoms: N1_2  and  C2_5 
REMARK    3  A    between atoms: C2_5  and  C3_6 
REMARK    4  A    between atoms: C4_7  and  C5_8 
ROOT
HETATM    1  C2  UNL     1      -1.489  13.656  17.088  1.00  0.00     0.213 C 
ENDROOT
BRANCH   1   2
HETATM    2  N1  UNL     1      -1.884  14.121  15.792  1.00  0.00    -0.193 NA
HETATM    3  C1  UNL     1      -1.690  13.048  14.810  1.00  0.00     0.144 C 
BRANCH   2   4
HETATM    4  O1  UNL     1      -3.211  14.402  15.774  1.00  0.00    -0.313 OA
ATOM      5  H1  UNL     1      -3.350  14.938  15.001  1.00  0.00     0.237 HD
ENDBRANCH   2   4
ENDBRANCH   1   2
BRANCH   1   6
HETATM    6  C3  UNL     1      -1.002  14.800  17.864  1.00  0.00    -0.089 C 
HETATM    7  C4  UNL     1      -0.606  15.767  18.498  1.00  0.00    -0.100 C 
BRANCH   7   8
HETATM    8  C5  UNL     1      -0.141  16.941  19.243  1.00  0.00     0.065 A 
HETATM    9  C6  UNL     1      -0.720  18.230  18.850  1.00  0.00     0.018 A 
HETATM   10  C7  UNL     1      -1.211  17.553  20.115  1.00  0.00     0.018 A 
ENDBRANCH   7   8
ENDBRANCH   1   6
TORSDOF 4
ENDMDL
