MODEL 1
REMARK VINA RESULT: -4.285539330      0.000      0.000
REMARK  2 active torsions:
REMARK  status: ('A' for Active; 'I' for Inactive)
REMARK    1  A    between atoms: C5_6  and  N2_7 
REMARK    2  A    between atoms: N2_7  and  C6_9 
ROOT
HETATM    1  C1  UNL     1      -0.754  16.684  17.479  1.00  0.00     0.274 C 
HETATM    2  N1  UNL     1      -1.261  15.578  18.274  1.00  0.00    -0.054 N 
HETATM    3  C2  UNL     1      -1.862  16.071  19.478  1.00  0.00     0.274 C 
HETATM    4  C3  UNL     1      -0.354  14.491  18.471  1.00  0.00     0.242 C 
HETATM    5  C4  UNL     1      -1.500  13.537  18.203  1.00  0.00     0.083 C 
HETATM    6  C5  UNL     1      -2.084  14.715  17.469  1.00  0.00     0.291 C 
ENDROOT
BRANCH   6   7
HETATM    7  N2  UNL     1      -1.681  14.664  16.071  1.00  0.00    -0.340 N 
ATOM      8  H2  UNL     1      -0.943  15.289  15.747  1.00  0.00     0.163 HD
BRANCH   7   9
HETATM    9  C6  UNL     1      -2.280  13.774  15.144  1.00  0.00     0.350 C 
HETATM   10  O1  UNL     1      -1.750  12.636  14.981  1.00  0.00    -0.284 OA
ENDBRANCH   7   9
ENDBRANCH   6   7
TORSDOF 2
ENDMDL
MODEL 2
REMARK VINA RESULT: -3.734862882      2.552      3.710
REMARK  2 active torsions:
REMARK  status: ('A' for Active; 'I' for Inactive)
REMARK    1  A    between atoms: C5_6  and  N2_7 
REMARK    2  A    between atoms: N2_7  and  C6_9 
ROOT
HETATM    1  C1  UNL     1      -2.911  15.078  16.827  1.00  0.00     0.274 C 
HETATM    2  N1  UNL     1      -1.731  14.244  16.986  1.00  0.00    -0.054 N 
HETATM    3  C2  UNL     1      -1.423  13.584  15.753  1.00  0.00     0.274 C 
HETATM    4  C3  UNL     1      -1.729  13.387  18.130  1.00  0.00     0.242 C 
HETATM    5  C4  UNL     1      -0.283  13.773  18.368  1.00  0.00     0.083 C 
HETATM    6  C5  UNL     1      -0.658  14.999  17.578  1.00  0.00     0.291 C 
ENDROOT
BRANCH   6   7
HETATM    7  N2  UNL     1      -1.112  16.041  18.488  1.00  0.00    -0.340 N 
ATOM      8  H2  UNL     1      -2.083  16.034  18.801  1.00  0.00     0.163 HD
BRANCH   7   9
HETATM    9  C6  UNL     1      -0.250  17.066  18.952  1.00  0.00     0.350 C 
HETATM   10  O1  UNL     1       0.398  16.863  20.020  1.00  0.00    -0.284 OA
ENDBRANCH   7   9
ENDBRANCH   6   7
TORSDOF 2
ENDMDL
MODEL 3
REMARK VINA RESULT: -3.701674229      2.782      3.900
REMARK  2 active torsions:
REMARK  status: ('A' for Active; 'I' for Inactive)
REMARK    1  A    between atoms: C5_6  and  N2_7 
REMARK    2  A    between atoms: N2_7  and  C6_9 
ROOT
HETATM    1  C1  UNL     1       1.382  18.238  18.860  1.00  0.00     0.274 C 
HETATM    2  N1  UNL     1       0.038  18.427  19.379  1.00  0.00    -0.054 N 
HETATM    3  C2  UNL     1      -0.508  19.661  18.899  1.00  0.00     0.274 C 
HETATM    4  C3  UNL     1      -0.117  18.221  20.785  1.00  0.00     0.242 C 
HETATM    5  C4  UNL     1      -1.395  17.460  20.494  1.00  0.00     0.083 C 
HETATM    6  C5  UNL     1      -0.762  17.253  19.143  1.00  0.00     0.291 C 
ENDROOT
BRANCH   6   7
HETATM    7  N2  UNL     1       0.005  16.016  19.150  1.00  0.00    -0.340 N 
ATOM      8  H2  UNL     1       0.922  16.006  19.595  1.00  0.00     0.163 HD
BRANCH   7   9
HETATM    9  C6  UNL     1      -0.482  14.823  18.559  1.00  0.00     0.350 C 
HETATM   10  O1  UNL     1      -1.148  14.026  19.283  1.00  0.00    -0.284 OA
ENDBRANCH   7   9
ENDBRANCH   6   7
TORSDOF 2
ENDMDL
MODEL 4
REMARK VINA RESULT: -3.629978574      1.767      2.356
REMARK  2 active torsions:
REMARK  status: ('A' for Active; 'I' for Inactive)
REMARK    1  A    between atoms: C5_6  and  N2_7 
REMARK    2  A    between atoms: N2_7  and  C6_9 
ROOT
HETATM    1  C1  UNL     1      -0.425  14.644  18.626  1.00  0.00     0.274 C 
HETATM    2  N1  UNL     1      -1.235  15.205  17.556  1.00  0.00    -0.054 N 
HETATM    3  C2  UNL     1      -0.853  16.563  17.310  1.00  0.00     0.274 C 
HETATM    4  C3  UNL     1      -2.644  15.001  17.675  1.00  0.00     0.242 C 
HETATM    5  C4  UNL     1      -2.682  14.667  16.198  1.00  0.00     0.083 C 
HETATM    6  C5  UNL     1      -1.229  14.333  16.411  1.00  0.00     0.291 C 
ENDROOT
BRANCH   6   7
HETATM    7  N2  UNL     1      -1.099  12.924  16.753  1.00  0.00    -0.340 N 
ATOM      8  H2  UNL     1      -1.699  12.535  17.480  1.00  0.00     0.163 HD
BRANCH   7   9
HETATM    9  C6  UNL     1      -0.168  12.073  16.106  1.00  0.00     0.350 C 
HETATM   10  O1  UNL     1       0.851  11.698  16.758  1.00  0.00    -0.284 OA
ENDBRANCH   7   9
ENDBRANCH   6   7
TORSDOF 2
ENDMDL
MODEL 5
REMARK VINA RESULT: -3.583336898      2.453      3.687
REMARK  2 active torsions:
REMARK  status: ('A' for Active; 'I' for Inactive)
REMARK    1  A    between atoms: C5_6  and  N2_7 
REMARK    2  A    between atoms: N2_7  and  C6_9 
ROOT
HETATM    1  C1  UNL     1      -1.184  17.583  20.528  1.00  0.00     0.274 C 
HETATM    2  N1  UNL     1      -0.291  17.972  19.449  1.00  0.00    -0.054 N 
HETATM    3  C2  UNL     1       0.922  18.516  19.983  1.00  0.00     0.274 C 
HETATM    4  C3  UNL     1      -0.881  18.756  18.410  1.00  0.00     0.242 C 
HETATM    5  C4  UNL     1      -0.139  17.905  17.399  1.00  0.00     0.083 C 
HETATM    6  C5  UNL     1      -0.134  16.891  18.512  1.00  0.00     0.291 C 
ENDROOT
BRANCH   6   7
HETATM    7  N2  UNL     1      -1.312  16.042  18.400  1.00  0.00    -0.340 N 
ATOM      8  H2  UNL     1      -2.228  16.480  18.295  1.00  0.00     0.163 HD
BRANCH   7   9
HETATM    9  C6  UNL     1      -1.229  14.627  18.430  1.00  0.00     0.350 C 
HETATM   10  O1  UNL     1      -0.198  14.100  18.941  1.00  0.00    -0.284 OA
ENDBRANCH   7   9
ENDBRANCH   6   7
TORSDOF 2
ENDMDL
