MODEL 1
REMARK VINA RESULT: -4.414889766      0.000      0.000
REMARK  6 active torsions:
REMARK  status: ('A' for Active; 'I' for Inactive)
REMARK    1  A    between atoms: C2_2  and  C3_3 
REMARK    2  A    between atoms: C3_3  and  C4_4 
REMARK    3  A    between atoms: C5_5  and  C6_6 
REMARK    4  A    between atoms: C7_7  and  C8_8 
REMARK    5  A    between atoms: C8_8  and  N1_9 
REMARK    6  A    between atoms: N1_9  and  N2_10 
ROOT
HETATM    1  C6  UNL     1      -1.349  15.272  18.540  1.00  0.00    -0.014 C 
HETATM    2  C7  UNL     1      -1.239  14.394  17.709  1.00  0.00    -0.075 C 
ENDROOT
BRANCH   1   3
HETATM    3  C5  UNL     1      -1.455  16.293  19.519  1.00  0.00    -0.015 C 
HETATM    4  C4  UNL     1      -1.528  17.160  20.365  1.00  0.00    -0.089 C 
BRANCH   4   5
HETATM    5  C3  UNL     1      -1.596  18.206  21.388  1.00  0.00     0.121 C 
BRANCH   5   6
HETATM    6  C2  UNL     1      -1.988  17.580  22.663  1.00  0.00    -0.025 C 
HETATM    7  C1  UNL     1      -2.918  18.158  23.412  1.00  0.00     0.008 C 
ENDBRANCH   5   6
ENDBRANCH   4   5
ENDBRANCH   1   3
BRANCH   2   8
HETATM    8  C8  UNL     1      -1.085  13.328  16.717  1.00  0.00     0.229 C 
BRANCH   8   9
HETATM    9  N1  UNL     1       0.098  12.572  17.099  1.00  0.00    -0.136 NA
BRANCH   9  10
HETATM   10  N2  UNL     1       0.431  11.721  16.045  1.00  0.00    -0.348 N 
ATOM     11  H22 UNL     1      -0.227  11.351  15.360  1.00  0.00     0.172 HD
ATOM     12  H21 UNL     1       1.435  11.542  16.085  1.00  0.00     0.172 HD
ENDBRANCH   9  10
ENDBRANCH   8   9
ENDBRANCH   2   8
TORSDOF 6
ENDMDL
MODEL 2
REMARK VINA RESULT: -4.386188228      2.789      3.356
REMARK  6 active torsions:
REMARK  status: ('A' for Active; 'I' for Inactive)
REMARK    1  A    between atoms: C2_2  and  C3_3 
REMARK    2  A    between atoms: C3_3  and  C4_4 
REMARK    3  A    between atoms: C5_5  and  C6_6 
REMARK    4  A    between atoms: C7_7  and  C8_8 
REMARK    5  A    between atoms: C8_8  and  N1_9 
REMARK    6  A    between atoms: N1_9  and  N2_10 
ROOT
HETATM    1  C6  UNL     1      -0.593  15.575  18.375  1.00  0.00    -0.014 C 
HETATM    2  C7  UNL     1      -1.147  14.605  17.897  1.00  0.00    -0.075 C 
ENDROOT
BRANCH   1   3
HETATM    3  C5  UNL     1       0.035  16.708  18.949  1.00  0.00    -0.015 C 
HETATM    4  C4  UNL     1       0.555  17.686  19.447  1.00  0.00    -0.089 C 
BRANCH   4   5
HETATM    5  C3  UNL     1       1.165  18.868  20.059  1.00  0.00     0.121 C 
BRANCH   5   6
HETATM    6  C2  UNL     1       2.597  18.882  19.711  1.00  0.00    -0.025 C 
HETATM    7  C1  UNL     1       3.389  19.799  20.250  1.00  0.00     0.008 C 
ENDBRANCH   5   6
ENDBRANCH   4   5
ENDBRANCH   1   3
BRANCH   2   8
HETATM    8  C8  UNL     1      -1.835  13.442  17.333  1.00  0.00     0.229 C 
BRANCH   8   9
HETATM    9  N1  UNL     1      -1.027  12.983  16.214  1.00  0.00    -0.136 NA
BRANCH   9  10
HETATM   10  N2  UNL     1      -1.886  12.538  15.209  1.00  0.00    -0.348 N 
ATOM     11  H22 UNL     1      -2.078  13.035  14.340  1.00  0.00     0.172 HD
ATOM     12  H21 UNL     1      -2.278  11.643  15.499  1.00  0.00     0.172 HD
ENDBRANCH   9  10
ENDBRANCH   8   9
ENDBRANCH   2   8
TORSDOF 6
ENDMDL
MODEL 3
REMARK VINA RESULT: -4.384881754      1.692      1.727
REMARK  6 active torsions:
REMARK  status: ('A' for Active; 'I' for Inactive)
REMARK    1  A    between atoms: C2_2  and  C3_3 
REMARK    2  A    between atoms: C3_3  and  C4_4 
REMARK    3  A    between atoms: C5_5  and  C6_6 
REMARK    4  A    between atoms: C7_7  and  C8_8 
REMARK    5  A    between atoms: C8_8  and  N1_9 
REMARK    6  A    between atoms: N1_9  and  N2_10 
ROOT
HETATM    1  C6  UNL     1      -1.574  15.255  18.375  1.00  0.00    -0.014 C 
HETATM    2  C7  UNL     1      -1.597  14.422  17.492  1.00  0.00    -0.075 C 
ENDROOT
BRANCH   1   3
HETATM    3  C5  UNL     1      -1.558  16.244  19.391  1.00  0.00    -0.015 C 
HETATM    4  C4  UNL     1      -1.535  17.078  20.273  1.00  0.00    -0.089 C 
BRANCH   4   5
HETATM    5  C3  UNL     1      -1.490  18.075  21.344  1.00  0.00     0.121 C 
BRANCH   5   6
HETATM    6  C2  UNL     1      -1.977  17.444  22.583  1.00  0.00    -0.025 C 
HETATM    7  C1  UNL     1      -2.785  18.124  23.386  1.00  0.00     0.008 C 
ENDBRANCH   5   6
ENDBRANCH   4   5
ENDBRANCH   1   3
BRANCH   2   8
HETATM    8  C8  UNL     1      -1.630  13.435  16.411  1.00  0.00     0.229 C 
BRANCH   8   9
HETATM    9  N1  UNL     1      -1.858  14.174  15.179  1.00  0.00    -0.136 NA
BRANCH   9  10
HETATM   10  N2  UNL     1      -3.125  13.844  14.700  1.00  0.00    -0.348 N 
ATOM     11  H22 UNL     1      -3.406  12.921  14.371  1.00  0.00     0.172 HD
ATOM     12  H21 UNL     1      -3.708  14.681  14.738  1.00  0.00     0.172 HD
ENDBRANCH   9  10
ENDBRANCH   8   9
ENDBRANCH   2   8
TORSDOF 6
ENDMDL
MODEL 4
REMARK VINA RESULT: -4.288195446      2.795      3.486
REMARK  6 active torsions:
REMARK  status: ('A' for Active; 'I' for Inactive)
REMARK    1  A    between atoms: C2_2  and  C3_3 
REMARK    2  A    between atoms: C3_3  and  C4_4 
REMARK    3  A    between atoms: C5_5  and  C6_6 
REMARK    4  A    between atoms: C7_7  and  C8_8 
REMARK    5  A    between atoms: C8_8  and  N1_9 
REMARK    6  A    between atoms: N1_9  and  N2_10 
ROOT
HETATM    1  C6  UNL     1      -0.993  15.969  17.761  1.00  0.00    -0.014 C 
HETATM    2  C7  UNL     1      -1.619  15.239  17.019  1.00  0.00    -0.075 C 
ENDROOT
BRANCH   1   3
HETATM    3  C5  UNL     1      -0.253  16.833  18.606  1.00  0.00    -0.015 C 
HETATM    4  C4  UNL     1       0.391  17.580  19.315  1.00  0.00    -0.089 C 
BRANCH   4   5
HETATM    5  C3  UNL     1       1.171  18.493  20.153  1.00  0.00     0.121 C 
BRANCH   5   6
HETATM    6  C2  UNL     1       2.390  18.869  19.416  1.00  0.00    -0.025 C 
HETATM    7  C1  UNL     1       2.280  19.490  18.249  1.00  0.00     0.008 C 
ENDBRANCH   5   6
ENDBRANCH   4   5
ENDBRANCH   1   3
BRANCH   2   8
HETATM    8  C8  UNL     1      -2.361  14.366  16.106  1.00  0.00     0.229 C 
BRANCH   8   9
HETATM    9  N1  UNL     1      -1.632  13.109  16.049  1.00  0.00    -0.136 NA
BRANCH   9  10
HETATM   10  N2  UNL     1      -2.039  12.421  14.906  1.00  0.00    -0.348 N 
ATOM     11  H22 UNL     1      -2.207  12.846  13.994  1.00  0.00     0.172 HD
ATOM     12  H21 UNL     1      -2.136  11.434  15.146  1.00  0.00     0.172 HD
ENDBRANCH   9  10
ENDBRANCH   8   9
ENDBRANCH   2   8
TORSDOF 6
ENDMDL
MODEL 5
REMARK VINA RESULT: -4.220633111      0.975      1.641
REMARK  6 active torsions:
REMARK  status: ('A' for Active; 'I' for Inactive)
REMARK    1  A    between atoms: C2_2  and  C3_3 
REMARK    2  A    between atoms: C3_3  and  C4_4 
REMARK    3  A    between atoms: C5_5  and  C6_6 
REMARK    4  A    between atoms: C7_7  and  C8_8 
REMARK    5  A    between atoms: C8_8  and  N1_9 
REMARK    6  A    between atoms: N1_9  and  N2_10 
ROOT
HETATM    1  C6  UNL     1      -1.326  15.294  18.509  1.00  0.00    -0.014 C 
HETATM    2  C7  UNL     1      -1.226  14.394  17.699  1.00  0.00    -0.075 C 
ENDROOT
BRANCH   1   3
HETATM    3  C5  UNL     1      -1.418  16.344  19.457  1.00  0.00    -0.015 C 
HETATM    4  C4  UNL     1      -1.476  17.243  20.271  1.00  0.00    -0.089 C 
BRANCH   4   5
HETATM    5  C3  UNL     1      -1.528  18.333  21.247  1.00  0.00     0.121 C 
BRANCH   5   6
HETATM    6  C2  UNL     1      -0.147  18.670  21.637  1.00  0.00    -0.025 C 
HETATM    7  C1  UNL     1       0.688  19.147  20.723  1.00  0.00     0.008 C 
ENDBRANCH   5   6
ENDBRANCH   4   5
ENDBRANCH   1   3
BRANCH   2   8
HETATM    8  C8  UNL     1      -1.082  13.307  16.729  1.00  0.00     0.229 C 
BRANCH   8   9
HETATM    9  N1  UNL     1       0.128  12.584  17.091  1.00  0.00    -0.136 NA
BRANCH   9  10
HETATM   10  N2  UNL     1       0.436  11.703  16.054  1.00  0.00    -0.348 N 
ATOM     11  H22 UNL     1      -0.212  11.404  15.326  1.00  0.00     0.172 HD
ATOM     12  H21 UNL     1       1.411  11.419  16.157  1.00  0.00     0.172 HD
ENDBRANCH   9  10
ENDBRANCH   8   9
ENDBRANCH   2   8
TORSDOF 6
ENDMDL
