MODEL 1
REMARK VINA RESULT: -8.271635729      0.000      0.000
REMARK  14 active torsions:
REMARK  status: ('A' for Active; 'I' for Inactive)
REMARK    1  A    between atoms: C4_8  and  N4_9 
REMARK    2  A    between atoms: C7_24  and  N10_25 
REMARK    3  A    between atoms: N10_25  and  C8_26 
REMARK    4  A    between atoms: C10_28  and  N11_29 
REMARK    5  A    between atoms: C11_33  and  O1_34 
REMARK    6  A    between atoms: O1_34  and  S1_35 
REMARK    7  A    between atoms: S1_35  and  O3_37 
REMARK    8  A    between atoms: S1_35  and  C15_45 
REMARK    9  A    between atoms: O3_37  and  C12_38 
REMARK   10  A    between atoms: C12_38  and  C13_39 
REMARK   11  A    between atoms: C13_39  and  O4_40 
REMARK   12  A    between atoms: C13_39  and  C14_42 
REMARK   13  A    between atoms: C14_42  and  O5_43 
REMARK   14  A    between atoms: C18_50  and  O6_51 
ROOT
HETATM    1  N1  UNL     1      11.419 -25.426  -3.296  1.00  0.00    -0.191 NA
HETATM    2  C1  UNL     1      11.268 -24.418  -3.796  1.00  0.00     0.106 C 
HETATM    3  C2  UNL     1      11.099 -23.152  -4.398  1.00  0.00     0.128 C 
HETATM    4  C3  UNL     1      12.193 -22.676  -5.138  1.00  0.00     0.156 C 
HETATM    5  N2  UNL     1      13.233 -23.581  -5.440  1.00  0.00    -0.080 NA
HETATM    6  N3  UNL     1      12.387 -21.430  -5.611  1.00  0.00    -0.177 N 
ATOM      7  H3  UNL     1      13.296 -21.262  -6.041  1.00  0.00     0.185 HD
HETATM    8  C4  UNL     1      11.566 -20.396  -5.596  1.00  0.00     0.677 C 
HETATM    9  N5  UNL     1      10.402 -20.238  -4.947  1.00  0.00    -0.185 N 
ATOM     10  H5  UNL     1       9.934 -19.340  -5.068  1.00  0.00     0.184 HD
HETATM   11  C5  UNL     1       9.774 -21.143  -4.145  1.00  0.00     0.137 C 
HETATM   12  C6  UNL     1       8.922 -20.588  -3.154  1.00  0.00     0.168 A 
HETATM   13  N6  UNL     1       8.196 -21.231  -2.238  1.00  0.00    -0.267 N 
ATOM     14  H6  UNL     1       8.147 -22.241  -2.106  1.00  0.00     0.190 HD
HETATM   15  N7  UNL     1       7.554 -20.318  -1.534  1.00  0.00    -0.227 N 
ATOM     16  H7  UNL     1       6.919 -20.518  -0.760  1.00  0.00     0.210 HD
HETATM   17  N8  UNL     1       7.849 -19.117  -1.975  1.00  0.00    -0.227 N 
ATOM     18  H8  UNL     1       7.495 -18.231  -1.615  1.00  0.00     0.210 HD
HETATM   19  N9  UNL     1       8.691 -19.281  -2.971  1.00  0.00    -0.267 N 
ATOM     20  H9  UNL     1       9.105 -18.528  -3.522  1.00  0.00     0.190 HD
HETATM   21  C7  UNL     1       9.853 -22.527  -4.180  1.00  0.00     0.155 C 
ENDROOT
BRANCH  21  22
HETATM   22  N10 UNL     1       8.890 -23.195  -4.057  1.00  0.00    -0.438 NA
BRANCH  22  23
HETATM   23  C8  UNL     1       7.789 -23.957  -3.919  1.00  0.00     0.168 C 
HETATM   24  C9  UNL     1       7.965 -25.297  -4.661  1.00  0.00     0.075 C 
HETATM   25  C10 UNL     1       6.610 -25.891  -4.823  1.00  0.00     0.216 C 
HETATM   26  C11 UNL     1       5.765 -24.698  -5.101  1.00  0.00     0.175 C 
HETATM   27  C19 UNL     1       6.504 -23.500  -4.591  1.00  0.00     0.074 C 
BRANCH  25  28
HETATM   28  N11 UNL     1       6.270 -26.581  -3.590  1.00  0.00    -0.072 N 
ATOM     29 3H11 UNL     1       7.089 -26.813  -3.029  1.00  0.00     0.274 HD
ATOM     30 2H11 UNL     1       5.808 -25.973  -2.913  1.00  0.00     0.274 HD
ATOM     31 1H11 UNL     1       5.711 -27.400  -3.830  1.00  0.00     0.274 HD
ENDBRANCH  25  28
BRANCH  26  32
HETATM   32  O1  UNL     1       4.511 -24.745  -4.606  1.00  0.00    -0.274 OA
BRANCH  32  33
HETATM   33  S1  UNL     1       4.132 -23.331  -3.557  1.00  0.00     0.231 S 
HETATM   34  O2  UNL     1       2.435 -24.749  -3.404  1.00  0.00    -0.207 OA
BRANCH  33  35
HETATM   35  O3  UNL     1       3.920 -23.761  -1.717  1.00  0.00    -0.279 OA
BRANCH  35  36
HETATM   36  C12 UNL     1       4.978 -23.268  -1.009  1.00  0.00     0.223 C 
BRANCH  36  37
HETATM   37  C13 UNL     1       4.470 -22.080  -0.218  1.00  0.00     0.166 C 
BRANCH  37  38
HETATM   38  O4  UNL     1       4.352 -20.932  -1.012  1.00  0.00    -0.391 OA
ATOM     39  H4  UNL     1       4.553 -20.141  -0.526  1.00  0.00     0.210 HD
ENDBRANCH  37  38
BRANCH  37  40
HETATM   40  C14 UNL     1       3.115 -22.349   0.385  1.00  0.00     0.198 C 
BRANCH  40  41
HETATM   41  O5  UNL     1       2.121 -21.627  -0.273  1.00  0.00    -0.398 OA
ATOM     42  H5  UNL     1       1.847 -20.876   0.240  1.00  0.00     0.209 HD
ENDBRANCH  40  41
ENDBRANCH  37  40
ENDBRANCH  36  37
ENDBRANCH  35  36
ENDBRANCH  33  35
BRANCH  33  43
HETATM   43  C15 UNL     1       2.565 -22.201  -4.110  1.00  0.00     0.158 A 
HETATM   44  C16 UNL     1       2.192 -22.055  -5.407  1.00  0.00     0.131 A 
HETATM   45  N12 UNL     1       1.154 -21.239  -5.693  1.00  0.00    -0.369 N 
HETATM   46  C17 UNL     1       0.516 -20.594  -4.703  1.00  0.00     0.143 A 
ATOM     47  H12 UNL     1       0.855 -21.113  -6.659  1.00  0.00     0.164 HD
HETATM   48  C18 UNL     1       0.894 -20.743  -3.390  1.00  0.00     0.156 A 
HETATM   49  N13 UNL     1       1.921 -21.556  -3.145  1.00  0.00    -0.325 N 
ATOM     50  H13 UNL     1       2.224 -21.687  -2.180  1.00  0.00     0.169 HD
BRANCH  48  51
HETATM   51  O6  UNL     1       0.242 -20.085  -2.386  1.00  0.00    -0.345 OA
ATOM     52  H6  UNL     1      -0.446 -20.507  -1.885  1.00  0.00     0.219 HD
ENDBRANCH  48  51
ENDBRANCH  33  43
ENDBRANCH  32  33
ENDBRANCH  26  32
ENDBRANCH  22  23
ENDBRANCH  21  22
BRANCH   8  53
HETATM   53  N4  UNL     1      11.957 -19.379  -6.326  1.00  0.00    -0.234 N 
ATOM     54  H42 UNL     1      12.413 -18.618  -5.823  1.00  0.00     0.174 HD
ATOM     55  H41 UNL     1      11.757 -19.469  -7.322  1.00  0.00     0.174 HD
ENDBRANCH   8  53
TORSDOF 14
ENDMDL
MODEL 2
REMARK VINA RESULT: -8.031332897      0.970      1.167
REMARK  14 active torsions:
REMARK  status: ('A' for Active; 'I' for Inactive)
REMARK    1  A    between atoms: C4_8  and  N4_9 
REMARK    2  A    between atoms: C7_24  and  N10_25 
REMARK    3  A    between atoms: N10_25  and  C8_26 
REMARK    4  A    between atoms: C10_28  and  N11_29 
REMARK    5  A    between atoms: C11_33  and  O1_34 
REMARK    6  A    between atoms: O1_34  and  S1_35 
REMARK    7  A    between atoms: S1_35  and  O3_37 
REMARK    8  A    between atoms: S1_35  and  C15_45 
REMARK    9  A    between atoms: O3_37  and  C12_38 
REMARK   10  A    between atoms: C12_38  and  C13_39 
REMARK   11  A    between atoms: C13_39  and  O4_40 
REMARK   12  A    between atoms: C13_39  and  C14_42 
REMARK   13  A    between atoms: C14_42  and  O5_43 
REMARK   14  A    between atoms: C18_50  and  O6_51 
ROOT
HETATM    1  N1  UNL     1      10.850 -25.619  -3.813  1.00  0.00    -0.191 NA
HETATM    2  C1  UNL     1      10.738 -24.562  -4.211  1.00  0.00     0.106 C 
HETATM    3  C2  UNL     1      10.620 -23.238  -4.687  1.00  0.00     0.128 C 
HETATM    4  C3  UNL     1      11.703 -22.761  -5.444  1.00  0.00     0.156 C 
HETATM    5  N2  UNL     1      12.666 -23.695  -5.885  1.00  0.00    -0.080 NA
HETATM    6  N3  UNL     1      11.953 -21.491  -5.815  1.00  0.00    -0.177 N 
ATOM      7  H3  UNL     1      12.847 -21.338  -6.280  1.00  0.00     0.185 HD
HETATM    8  C4  UNL     1      11.203 -20.415  -5.661  1.00  0.00     0.677 C 
HETATM    9  N5  UNL     1      10.086 -20.249  -4.934  1.00  0.00    -0.185 N 
ATOM     10  H5  UNL     1       9.673 -19.317  -4.947  1.00  0.00     0.184 HD
HETATM   11  C5  UNL     1       9.444 -21.185  -4.181  1.00  0.00     0.137 C 
HETATM   12  C6  UNL     1       8.683 -20.673  -3.096  1.00  0.00     0.168 A 
HETATM   13  N6  UNL     1       7.966 -21.354  -2.200  1.00  0.00    -0.267 N 
ATOM     14  H6  UNL     1       7.858 -22.367  -2.156  1.00  0.00     0.190 HD
HETATM   15  N7  UNL     1       7.421 -20.474  -1.382  1.00  0.00    -0.227 N 
ATOM     16  H7  UNL     1       6.816 -20.705  -0.593  1.00  0.00     0.210 HD
HETATM   17  N8  UNL     1       7.771 -19.256  -1.730  1.00  0.00    -0.227 N 
ATOM     18  H8  UNL     1       7.494 -18.388  -1.273  1.00  0.00     0.210 HD
HETATM   19  N9  UNL     1       8.547 -19.378  -2.785  1.00  0.00    -0.267 N 
ATOM     20  H9  UNL     1       8.979 -18.604  -3.289  1.00  0.00     0.190 HD
HETATM   21  C7  UNL     1       9.431 -22.562  -4.342  1.00  0.00     0.155 C 
ENDROOT
BRANCH  21  22
HETATM   22  N10 UNL     1       8.434 -23.179  -4.224  1.00  0.00    -0.438 NA
BRANCH  22  23
HETATM   23  C8  UNL     1       7.297 -23.886  -4.089  1.00  0.00     0.168 C 
HETATM   24  C9  UNL     1       7.348 -25.160  -4.957  1.00  0.00     0.075 C 
HETATM   25  C10 UNL     1       5.952 -25.658  -5.091  1.00  0.00     0.216 C 
HETATM   26  C11 UNL     1       5.170 -24.397  -5.211  1.00  0.00     0.175 C 
HETATM   27  C19 UNL     1       6.009 -23.296  -4.642  1.00  0.00     0.074 C 
BRANCH  25  28
HETATM   28  N11 UNL     1       5.635 -26.437  -3.906  1.00  0.00    -0.072 N 
ATOM     29 3H11 UNL     1       4.731 -26.192  -3.504  1.00  0.00     0.274 HD
ATOM     30 2H11 UNL     1       5.431 -27.413  -4.119  1.00  0.00     0.274 HD
ATOM     31 1H11 UNL     1       6.404 -26.331  -3.243  1.00  0.00     0.274 HD
ENDBRANCH  25  28
BRANCH  26  32
HETATM   32  O1  UNL     1       3.943 -24.417  -4.650  1.00  0.00    -0.274 OA
BRANCH  32  33
HETATM   33  S1  UNL     1       3.682 -23.038  -3.521  1.00  0.00     0.231 S 
HETATM   34  O2  UNL     1       1.945 -24.402  -3.323  1.00  0.00    -0.207 OA
BRANCH  33  35
HETATM   35  O3  UNL     1       3.565 -23.540  -1.692  1.00  0.00    -0.279 OA
BRANCH  35  36
HETATM   36  C12 UNL     1       4.782 -23.370  -1.094  1.00  0.00     0.223 C 
BRANCH  36  37
HETATM   37  C13 UNL     1       4.618 -22.283  -0.052  1.00  0.00     0.166 C 
BRANCH  37  38
HETATM   38  O4  UNL     1       4.506 -21.013  -0.632  1.00  0.00    -0.391 OA
ATOM     39  H4  UNL     1       3.765 -20.528  -0.288  1.00  0.00     0.210 HD
ENDBRANCH  37  38
BRANCH  37  40
HETATM   40  C14 UNL     1       3.388 -22.500   0.792  1.00  0.00     0.198 C 
BRANCH  40  41
HETATM   41  O5  UNL     1       2.361 -21.636   0.414  1.00  0.00    -0.398 OA
ATOM     42  H5  UNL     1       1.562 -22.115   0.229  1.00  0.00     0.209 HD
ENDBRANCH  40  41
ENDBRANCH  37  40
ENDBRANCH  36  37
ENDBRANCH  35  36
ENDBRANCH  33  35
BRANCH  33  43
HETATM   43  C15 UNL     1       2.127 -21.831  -3.929  1.00  0.00     0.158 A 
HETATM   44  C16 UNL     1       1.645 -20.934  -3.033  1.00  0.00     0.131 A 
HETATM   45  N12 UNL     1       0.567 -20.195  -3.375  1.00  0.00    -0.369 N 
HETATM   46  C17 UNL     1      -0.002 -20.357  -4.580  1.00  0.00     0.143 A 
ATOM     47  H12 UNL     1       0.186 -19.514  -2.719  1.00  0.00     0.164 HD
HETATM   48  C18 UNL     1       0.488 -21.265  -5.488  1.00  0.00     0.156 A 
HETATM   49  N13 UNL     1       1.552 -21.977  -5.117  1.00  0.00    -0.325 N 
ATOM     50  H13 UNL     1       1.939 -22.658  -5.770  1.00  0.00     0.169 HD
BRANCH  48  51
HETATM   51  O6  UNL     1      -0.094 -21.428  -6.713  1.00  0.00    -0.345 OA
ATOM     52  H6  UNL     1       0.201 -22.103  -7.313  1.00  0.00     0.219 HD
ENDBRANCH  48  51
ENDBRANCH  33  43
ENDBRANCH  32  33
ENDBRANCH  26  32
ENDBRANCH  22  23
ENDBRANCH  21  22
BRANCH   8  53
HETATM   53  N4  UNL     1      11.620 -19.360  -6.318  1.00  0.00    -0.234 N 
ATOM     54  H42 UNL     1      12.378 -18.834  -5.883  1.00  0.00     0.174 HD
ATOM     55  H41 UNL     1      11.132 -19.188  -7.198  1.00  0.00     0.174 HD
ENDBRANCH   8  53
TORSDOF 14
ENDMDL
MODEL 3
REMARK VINA RESULT: -7.789228963      1.773      2.817
REMARK  14 active torsions:
REMARK  status: ('A' for Active; 'I' for Inactive)
REMARK    1  A    between atoms: C4_8  and  N4_9 
REMARK    2  A    between atoms: C7_24  and  N10_25 
REMARK    3  A    between atoms: N10_25  and  C8_26 
REMARK    4  A    between atoms: C10_28  and  N11_29 
REMARK    5  A    between atoms: C11_33  and  O1_34 
REMARK    6  A    between atoms: O1_34  and  S1_35 
REMARK    7  A    between atoms: S1_35  and  O3_37 
REMARK    8  A    between atoms: S1_35  and  C15_45 
REMARK    9  A    between atoms: O3_37  and  C12_38 
REMARK   10  A    between atoms: C12_38  and  C13_39 
REMARK   11  A    between atoms: C13_39  and  O4_40 
REMARK   12  A    between atoms: C13_39  and  C14_42 
REMARK   13  A    between atoms: C14_42  and  O5_43 
REMARK   14  A    between atoms: C18_50  and  O6_51 
ROOT
HETATM    1  N1  UNL     1      12.120 -23.714  -4.640  1.00  0.00    -0.191 NA
HETATM    2  C1  UNL     1      11.617 -22.697  -4.689  1.00  0.00     0.106 C 
HETATM    3  C2  UNL     1      11.009 -21.423  -4.727  1.00  0.00     0.128 C 
HETATM    4  C3  UNL     1      11.813 -20.375  -5.202  1.00  0.00     0.156 C 
HETATM    5  N2  UNL     1      13.029 -20.708  -5.837  1.00  0.00    -0.080 NA
HETATM    6  N3  UNL     1      11.571 -19.053  -5.127  1.00  0.00    -0.177 N 
ATOM      7  H3  UNL     1      12.329 -18.450  -5.445  1.00  0.00     0.185 HD
HETATM    8  C4  UNL     1      10.489 -18.426  -4.701  1.00  0.00     0.677 C 
HETATM    9  N5  UNL     1       9.420 -18.914  -4.052  1.00  0.00    -0.185 N 
ATOM     10  H5  UNL     1       8.697 -18.240  -3.802  1.00  0.00     0.184 HD
HETATM   11  C5  UNL     1       9.192 -20.207  -3.691  1.00  0.00     0.137 C 
HETATM   12  C6  UNL     1       8.342 -20.383  -2.567  1.00  0.00     0.168 A 
HETATM   13  N6  UNL     1       7.958 -21.526  -1.995  1.00  0.00    -0.267 N 
ATOM     14  H6  UNL     1       8.226 -22.466  -2.285  1.00  0.00     0.190 HD
HETATM   15  N7  UNL     1       7.166 -21.215  -0.987  1.00  0.00    -0.227 N 
ATOM     16  H7  UNL     1       6.719 -21.889  -0.365  1.00  0.00     0.210 HD
HETATM   17  N8  UNL     1       7.037 -19.910  -0.900  1.00  0.00    -0.227 N 
ATOM     18  H8  UNL     1       6.483 -19.396  -0.214  1.00  0.00     0.210 HD
HETATM   19  N9  UNL     1       7.760 -19.398  -1.871  1.00  0.00    -0.267 N 
ATOM     20  H9  UNL     1       7.861 -18.401  -2.066  1.00  0.00     0.190 HD
HETATM   21  C7  UNL     1       9.671 -21.366  -4.283  1.00  0.00     0.155 C 
ENDROOT
BRANCH  21  22
HETATM   22  N10 UNL     1       8.971 -22.299  -4.450  1.00  0.00    -0.438 NA
BRANCH  22  23
HETATM   23  C8  UNL     1       8.172 -23.366  -4.640  1.00  0.00     0.168 C 
HETATM   24  C9  UNL     1       8.561 -24.105  -5.937  1.00  0.00     0.075 C 
HETATM   25  C10 UNL     1       7.418 -24.986  -6.301  1.00  0.00     0.216 C 
HETATM   26  C11 UNL     1       6.240 -24.152  -5.940  1.00  0.00     0.175 C 
HETATM   27  C19 UNL     1       6.705 -23.124  -4.957  1.00  0.00     0.074 C 
BRANCH  25  28
HETATM   28  N11 UNL     1       7.532 -26.212  -5.529  1.00  0.00    -0.072 N 
ATOM     29 3H11 UNL     1       8.437 -26.668  -5.644  1.00  0.00     0.274 HD
ATOM     30 2H11 UNL     1       7.591 -26.042  -4.525  1.00  0.00     0.274 HD
ATOM     31 1H11 UNL     1       6.750 -26.817  -5.780  1.00  0.00     0.274 HD
ENDBRANCH  25  28
BRANCH  26  32
HETATM   32  O1  UNL     1       5.170 -24.828  -5.471  1.00  0.00    -0.274 OA
BRANCH  32  33
HETATM   33  S1  UNL     1       4.662 -24.263  -3.838  1.00  0.00     0.231 S 
HETATM   34  O2  UNL     1       3.003 -25.474  -4.671  1.00  0.00    -0.207 OA
BRANCH  33  35
HETATM   35  O3  UNL     1       4.312 -25.665  -2.603  1.00  0.00    -0.279 OA
BRANCH  35  36
HETATM   36  C12 UNL     1       5.492 -26.216  -2.192  1.00  0.00     0.223 C 
BRANCH  36  37
HETATM   37  C13 UNL     1       5.224 -27.679  -1.904  1.00  0.00     0.166 C 
BRANCH  37  38
HETATM   38  O4  UNL     1       4.044 -27.863  -1.172  1.00  0.00    -0.391 OA
ATOM     39  H4  UNL     1       3.651 -28.712  -1.338  1.00  0.00     0.210 HD
ENDBRANCH  37  38
BRANCH  37  40
HETATM   40  C14 UNL     1       5.094 -28.482  -3.173  1.00  0.00     0.198 C 
BRANCH  40  41
HETATM   41  O5  UNL     1       5.088 -27.653  -4.293  1.00  0.00    -0.398 OA
ATOM     42  H5  UNL     1       5.938 -27.251  -4.426  1.00  0.00     0.209 HD
ENDBRANCH  40  41
ENDBRANCH  37  40
ENDBRANCH  36  37
ENDBRANCH  35  36
ENDBRANCH  33  35
BRANCH  33  43
HETATM   43  C15 UNL     1       3.112 -22.985  -3.776  1.00  0.00     0.158 A 
HETATM   44  C16 UNL     1       2.661 -22.332  -4.875  1.00  0.00     0.131 A 
HETATM   45  N12 UNL     1       1.642 -21.455  -4.733  1.00  0.00    -0.369 N 
HETATM   46  C17 UNL     1       1.100 -21.249  -3.523  1.00  0.00     0.143 A 
ATOM     47  H12 UNL     1       1.285 -20.952  -5.545  1.00  0.00     0.164 HD
HETATM   48  C18 UNL     1       1.557 -21.912  -2.409  1.00  0.00     0.156 A 
HETATM   49  N13 UNL     1       2.562 -22.769  -2.587  1.00  0.00    -0.325 N 
ATOM     50  H13 UNL     1       2.922 -23.277  -1.779  1.00  0.00     0.169 HD
BRANCH  48  51
HETATM   51  O6  UNL     1       1.002 -21.699  -1.180  1.00  0.00    -0.345 OA
ATOM     52  H6  UNL     1       0.641 -22.415  -0.671  1.00  0.00     0.219 HD
ENDBRANCH  48  51
ENDBRANCH  33  43
ENDBRANCH  32  33
ENDBRANCH  26  32
ENDBRANCH  22  23
ENDBRANCH  21  22
BRANCH   8  53
HETATM   53  N4  UNL     1      10.469 -17.139  -4.952  1.00  0.00    -0.234 N 
ATOM     54  H42 UNL     1      10.936 -16.845  -5.810  1.00  0.00     0.174 HD
ATOM     55  H41 UNL     1       9.983 -16.578  -4.253  1.00  0.00     0.174 HD
ENDBRANCH   8  53
TORSDOF 14
ENDMDL
MODEL 4
REMARK VINA RESULT: -7.635901737      3.778      8.564
REMARK  14 active torsions:
REMARK  status: ('A' for Active; 'I' for Inactive)
REMARK    1  A    between atoms: C4_8  and  N4_9 
REMARK    2  A    between atoms: C7_24  and  N10_25 
REMARK    3  A    between atoms: N10_25  and  C8_26 
REMARK    4  A    between atoms: C10_28  and  N11_29 
REMARK    5  A    between atoms: C11_33  and  O1_34 
REMARK    6  A    between atoms: O1_34  and  S1_35 
REMARK    7  A    between atoms: S1_35  and  O3_37 
REMARK    8  A    between atoms: S1_35  and  C15_45 
REMARK    9  A    between atoms: O3_37  and  C12_38 
REMARK   10  A    between atoms: C12_38  and  C13_39 
REMARK   11  A    between atoms: C13_39  and  O4_40 
REMARK   12  A    between atoms: C13_39  and  C14_42 
REMARK   13  A    between atoms: C14_42  and  O5_43 
REMARK   14  A    between atoms: C18_50  and  O6_51 
ROOT
HETATM    1  N1  UNL     1       6.142 -23.555   0.308  1.00  0.00    -0.191 NA
HETATM    2  C1  UNL     1       5.514 -23.277  -0.596  1.00  0.00     0.106 C 
HETATM    3  C2  UNL     1       4.710 -22.947  -1.709  1.00  0.00     0.128 C 
HETATM    4  C3  UNL     1       3.665 -22.041  -1.462  1.00  0.00     0.156 C 
HETATM    5  N2  UNL     1       3.668 -21.346  -0.233  1.00  0.00    -0.080 NA
HETATM    6  N3  UNL     1       2.630 -21.739  -2.268  1.00  0.00    -0.177 N 
ATOM      7  H3  UNL     1       1.923 -21.127  -1.862  1.00  0.00     0.185 HD
HETATM    8  C4  UNL     1       2.400 -22.125  -3.510  1.00  0.00     0.677 C 
HETATM    9  N5  UNL     1       3.021 -23.063  -4.242  1.00  0.00    -0.185 N 
ATOM     10  H5  UNL     1       2.665 -23.209  -5.186  1.00  0.00     0.184 HD
HETATM   11  C5  UNL     1       4.073 -23.842  -3.865  1.00  0.00     0.137 C 
HETATM   12  C6  UNL     1       4.173 -25.092  -4.533  1.00  0.00     0.168 A 
HETATM   13  N6  UNL     1       5.089 -26.047  -4.361  1.00  0.00    -0.267 N 
ATOM     14  H6  UNL     1       5.870 -26.024  -3.705  1.00  0.00     0.190 HD
HETATM   15  N7  UNL     1       4.798 -27.026  -5.196  1.00  0.00    -0.227 N 
ATOM     16  H7  UNL     1       5.328 -27.893  -5.287  1.00  0.00     0.210 HD
HETATM   17  N8  UNL     1       3.726 -26.722  -5.892  1.00  0.00    -0.227 N 
ATOM     18  H8  UNL     1       3.280 -27.296  -6.607  1.00  0.00     0.210 HD
HETATM   19  N9  UNL     1       3.341 -25.533  -5.485  1.00  0.00    -0.267 N 
ATOM     20  H9  UNL     1       2.531 -25.023  -5.840  1.00  0.00     0.190 HD
HETATM   21  C7  UNL     1       5.057 -23.569  -2.927  1.00  0.00     0.155 C 
ENDROOT
BRANCH  21  22
HETATM   22  N10 UNL     1       6.188 -23.822  -3.140  1.00  0.00    -0.438 NA
BRANCH  22  23
HETATM   23  C8  UNL     1       7.480 -24.111  -3.381  1.00  0.00     0.168 C 
HETATM   24  C9  UNL     1       7.952 -25.267  -2.476  1.00  0.00     0.075 C 
HETATM   25  C10 UNL     1       9.440 -25.255  -2.485  1.00  0.00     0.216 C 
HETATM   26  C11 UNL     1       9.750 -23.799  -2.492  1.00  0.00     0.175 C 
HETATM   27  C19 UNL     1       8.535 -23.086  -2.996  1.00  0.00     0.074 C 
BRANCH  25  28
HETATM   28  N11 UNL     1       9.889 -25.958  -3.674  1.00  0.00    -0.072 N 
ATOM     29 3H11 UNL     1      10.122 -26.934  -3.491  1.00  0.00     0.274 HD
ATOM     30 2H11 UNL     1       9.136 -26.122  -4.344  1.00  0.00     0.274 HD
ATOM     31 1H11 UNL     1      10.667 -25.435  -4.077  1.00  0.00     0.274 HD
ENDBRANCH  25  28
BRANCH  26  32
HETATM   32  O1  UNL     1      10.850 -23.441  -3.187  1.00  0.00    -0.274 OA
BRANCH  32  33
HETATM   33  S1  UNL     1      10.454 -22.851  -4.843  1.00  0.00     0.231 S 
HETATM   34  O2  UNL     1      12.109 -24.314  -5.033  1.00  0.00    -0.207 OA
BRANCH  33  35
HETATM   35  O3  UNL     1       9.871 -24.211  -6.036  1.00  0.00    -0.279 OA
BRANCH  35  36
HETATM   36  C12 UNL     1       9.149 -23.649  -7.050  1.00  0.00     0.223 C 
BRANCH  36  37
HETATM   37  C13 UNL     1       7.954 -24.547  -7.297  1.00  0.00     0.166 C 
BRANCH  37  38
HETATM   38  O4  UNL     1       7.478 -24.437  -8.610  1.00  0.00    -0.391 OA
ATOM     39  H4  UNL     1       7.367 -25.286  -9.021  1.00  0.00     0.210 HD
ENDBRANCH  37  38
BRANCH  37  40
HETATM   40  C14 UNL     1       8.288 -25.997  -7.061  1.00  0.00     0.198 C 
BRANCH  40  41
HETATM   41  O5  UNL     1       7.734 -26.451  -5.866  1.00  0.00    -0.398 OA
ATOM     42  H5  UNL     1       7.329 -27.303  -5.978  1.00  0.00     0.209 HD
ENDBRANCH  40  41
ENDBRANCH  37  40
ENDBRANCH  36  37
ENDBRANCH  35  36
ENDBRANCH  33  35
BRANCH  33  43
HETATM   43  C15 UNL     1      11.878 -21.783  -5.775  1.00  0.00     0.158 A 
HETATM   44  C16 UNL     1      11.961 -20.432  -5.675  1.00  0.00     0.131 A 
HETATM   45  N12 UNL     1      12.923 -19.790  -6.373  1.00  0.00    -0.369 N 
HETATM   46  C17 UNL     1      13.772 -20.490  -7.143  1.00  0.00     0.143 A 
ATOM     47  H12 UNL     1      13.005 -18.775  -6.314  1.00  0.00     0.164 HD
HETATM   48  C18 UNL     1      13.689 -21.858  -7.243  1.00  0.00     0.156 A 
HETATM   49  N13 UNL     1      12.728 -22.458  -6.541  1.00  0.00    -0.325 N 
ATOM     50  H13 UNL     1      12.642 -23.473  -6.593  1.00  0.00     0.169 HD
BRANCH  48  51
HETATM   51  O6  UNL     1      14.554 -22.565  -8.027  1.00  0.00    -0.345 OA
ATOM     52  H6  UNL     1      15.452 -22.720  -7.757  1.00  0.00     0.219 HD
ENDBRANCH  48  51
ENDBRANCH  33  43
ENDBRANCH  32  33
ENDBRANCH  26  32
ENDBRANCH  22  23
ENDBRANCH  21  22
BRANCH   8  53
HETATM   53  N4  UNL     1       1.417 -21.492  -4.105  1.00  0.00    -0.234 N 
ATOM     54  H42 UNL     1       1.691 -20.789  -4.791  1.00  0.00     0.174 HD
ATOM     55  H41 UNL     1       0.485 -21.781  -3.809  1.00  0.00     0.174 HD
ENDBRANCH   8  53
TORSDOF 14
ENDMDL
MODEL 5
REMARK VINA RESULT: -7.414708110      4.273      8.520
REMARK  14 active torsions:
REMARK  status: ('A' for Active; 'I' for Inactive)
REMARK    1  A    between atoms: C4_8  and  N4_9 
REMARK    2  A    between atoms: C7_24  and  N10_25 
REMARK    3  A    between atoms: N10_25  and  C8_26 
REMARK    4  A    between atoms: C10_28  and  N11_29 
REMARK    5  A    between atoms: C11_33  and  O1_34 
REMARK    6  A    between atoms: O1_34  and  S1_35 
REMARK    7  A    between atoms: S1_35  and  O3_37 
REMARK    8  A    between atoms: S1_35  and  C15_45 
REMARK    9  A    between atoms: O3_37  and  C12_38 
REMARK   10  A    between atoms: C12_38  and  C13_39 
REMARK   11  A    between atoms: C13_39  and  O4_40 
REMARK   12  A    between atoms: C13_39  and  C14_42 
REMARK   13  A    between atoms: C14_42  and  O5_43 
REMARK   14  A    between atoms: C18_50  and  O6_51 
ROOT
HETATM    1  N1  UNL     1       7.991 -19.419  -1.974  1.00  0.00    -0.191 NA
HETATM    2  C1  UNL     1       7.272 -20.158  -1.498  1.00  0.00     0.106 C 
HETATM    3  C2  UNL     1       6.392 -21.072  -0.879  1.00  0.00     0.128 C 
HETATM    4  C3  UNL     1       5.415 -20.509  -0.042  1.00  0.00     0.156 C 
HETATM    5  N2  UNL     1       5.221 -19.112  -0.096  1.00  0.00    -0.080 NA
HETATM    6  N3  UNL     1       4.615 -21.147   0.833  1.00  0.00    -0.177 N 
ATOM      7  H3  UNL     1       4.038 -20.544   1.420  1.00  0.00     0.185 HD
HETATM    8  C4  UNL     1       4.471 -22.443   1.040  1.00  0.00     0.677 C 
HETATM    9  N5  UNL     1       5.207 -23.468   0.581  1.00  0.00    -0.185 N 
ATOM     10  H5  UNL     1       4.922 -24.400   0.882  1.00  0.00     0.184 HD
HETATM   11  C5  UNL     1       6.291 -23.403  -0.240  1.00  0.00     0.137 C 
HETATM   12  C6  UNL     1       7.210 -24.480  -0.118  1.00  0.00     0.168 A 
HETATM   13  N6  UNL     1       8.350 -24.669  -0.786  1.00  0.00    -0.267 N 
ATOM     14  H6  UNL     1       8.743 -24.053  -1.497  1.00  0.00     0.190 HD
HETATM   15  N7  UNL     1       8.874 -25.802  -0.357  1.00  0.00    -0.227 N 
ATOM     16  H7  UNL     1       9.750 -26.203  -0.690  1.00  0.00     0.210 HD
HETATM   17  N8  UNL     1       8.102 -26.336   0.562  1.00  0.00    -0.227 N 
ATOM     18  H8  UNL     1       8.265 -27.210   1.063  1.00  0.00     0.210 HD
HETATM   19  N9  UNL     1       7.079 -25.524   0.709  1.00  0.00    -0.267 N 
ATOM     20  H9  UNL     1       6.302 -25.668   1.356  1.00  0.00     0.190 HD
HETATM   21  C7  UNL     1       6.606 -22.434  -1.180  1.00  0.00     0.155 C 
ENDROOT
BRANCH  21  22
HETATM   22  N10 UNL     1       7.024 -22.728  -2.242  1.00  0.00    -0.438 NA
BRANCH  22  23
HETATM   23  C8  UNL     1       7.500 -23.062  -3.455  1.00  0.00     0.168 C 
HETATM   24  C9  UNL     1       6.657 -24.198  -4.071  1.00  0.00     0.075 C 
HETATM   25  C10 UNL     1       7.458 -24.790  -5.177  1.00  0.00     0.216 C 
HETATM   26  C11 UNL     1       8.841 -24.756  -4.628  1.00  0.00     0.175 C 
HETATM   27  C19 UNL     1       8.863 -23.731  -3.538  1.00  0.00     0.074 C 
BRANCH  25  28
HETATM   28  N11 UNL     1       7.272 -23.966  -6.359  1.00  0.00    -0.072 N 
ATOM     29 3H11 UNL     1       6.385 -23.463  -6.353  1.00  0.00     0.274 HD
ATOM     30 2H11 UNL     1       7.890 -23.154  -6.375  1.00  0.00     0.274 HD
ATOM     31 1H11 UNL     1       7.383 -24.561  -7.180  1.00  0.00     0.274 HD
ENDBRANCH  25  28
BRANCH  26  32
HETATM   32  O1  UNL     1       9.820 -24.532  -5.530  1.00  0.00    -0.274 OA
BRANCH  32  33
HETATM   33  S1  UNL     1      10.802 -23.075  -5.130  1.00  0.00     0.231 S 
HETATM   34  O2  UNL     1      10.078 -22.842  -7.213  1.00  0.00    -0.207 OA
BRANCH  33  35
HETATM   35  O3  UNL     1       9.837 -21.439  -5.212  1.00  0.00    -0.279 OA
BRANCH  35  36
HETATM   36  C12 UNL     1      10.174 -20.657  -4.144  1.00  0.00     0.223 C 
BRANCH  36  37
HETATM   37  C13 UNL     1      10.894 -19.442  -4.691  1.00  0.00     0.166 C 
BRANCH  37  38
HETATM   38  O4  UNL     1      12.278 -19.642  -4.771  1.00  0.00    -0.391 OA
ATOM     39  H4  UNL     1      12.698 -19.008  -5.339  1.00  0.00     0.210 HD
ENDBRANCH  37  38
BRANCH  37  40
HETATM   40  C14 UNL     1      10.413 -19.085  -6.074  1.00  0.00     0.198 C 
BRANCH  40  41
HETATM   41  O5  UNL     1      11.484 -18.791  -6.918  1.00  0.00    -0.398 OA
ATOM     42  H5  UNL     1      11.383 -17.933  -7.312  1.00  0.00     0.209 HD
ENDBRANCH  40  41
ENDBRANCH  37  40
ENDBRANCH  36  37
ENDBRANCH  35  36
ENDBRANCH  33  35
BRANCH  33  43
HETATM   43  C15 UNL     1      12.508 -22.837  -6.163  1.00  0.00     0.158 A 
HETATM   44  C16 UNL     1      13.491 -23.773  -6.176  1.00  0.00     0.131 A 
HETATM   45  N12 UNL     1      14.625 -23.510  -6.861  1.00  0.00    -0.369 N 
HETATM   46  C17 UNL     1      14.760 -22.343  -7.511  1.00  0.00     0.143 A 
ATOM     47  H12 UNL     1      15.378 -24.198  -6.885  1.00  0.00     0.164 HD
HETATM   48  C18 UNL     1      13.765 -21.395  -7.498  1.00  0.00     0.156 A 
HETATM   49  N13 UNL     1      12.660 -21.689  -6.813  1.00  0.00    -0.325 N 
ATOM     50  H13 UNL     1      11.903 -21.006  -6.787  1.00  0.00     0.169 HD
BRANCH  48  51
HETATM   51  O6  UNL     1      13.906 -20.209  -8.160  1.00  0.00    -0.345 OA
ATOM     52  H6  UNL     1      14.500 -19.537  -7.847  1.00  0.00     0.219 HD
ENDBRANCH  48  51
ENDBRANCH  33  43
ENDBRANCH  32  33
ENDBRANCH  26  32
ENDBRANCH  22  23
ENDBRANCH  21  22
BRANCH   8  53
HETATM   53  N4  UNL     1       3.458 -22.765   1.808  1.00  0.00    -0.234 N 
ATOM     54  H42 UNL     1       2.554 -22.376   1.539  1.00  0.00     0.174 HD
ATOM     55  H41 UNL     1       3.696 -23.372   2.593  1.00  0.00     0.174 HD
ENDBRANCH   8  53
TORSDOF 14
ENDMDL
