MODEL 1
REMARK VINA RESULT: -8.963575758      0.000      0.000
REMARK  4 active torsions:
REMARK  status: ('A' for Active; 'I' for Inactive)
REMARK    1  A    between atoms: C2_2  and  C3_3 
REMARK    2  A    between atoms: C3_3  and  N1_4 
REMARK       I    between atoms: N1_4  and  C4_6 
REMARK    3  A    between atoms: C4_6  and  O2_8 
REMARK    4  A    between atoms: O2_8  and  C5_9 
ROOT
HETATM    1  C5  UNL     1      64.133  10.543  35.252  1.00  0.00     0.134 C 
HETATM    2  C6  UNL     1      64.360   9.164  35.841  1.00  0.00     0.033 C 
HETATM    3  C7  UNL     1      63.192   8.873  36.764  1.00  0.00     0.012 C 
HETATM    4  C8  UNL     1      61.970   8.713  35.887  1.00  0.00    -0.036 C 
HETATM    5  C9  UNL     1      62.273   7.715  34.813  1.00  0.00     0.016 C 
HETATM    6  C10 UNL     1      61.671  10.044  35.270  1.00  0.00    -0.004 C 
HETATM    7  C11 UNL     1      61.247  11.082  36.270  1.00  0.00     0.006 C 
HETATM    8  C12 UNL     1      60.355  10.599  37.339  1.00  0.00     0.006 C 
HETATM    9  C13 UNL     1      60.584   9.213  37.819  1.00  0.00    -0.005 C 
HETATM   10  C14 UNL     1      59.390   8.755  38.591  1.00  0.00    -0.006 C 
HETATM   11  C15 UNL     1      59.145   9.485  39.867  1.00  0.00     0.005 C 
HETATM   12  C16 UNL     1      58.445   8.478  40.763  1.00  0.00     0.001 C 
HETATM   13  C17 UNL     1      58.496   7.148  40.023  1.00  0.00     0.005 C 
HETATM   14  C18 UNL     1      59.660   7.335  39.111  1.00  0.00    -0.010 C 
HETATM   15  C19 UNL     1      59.687   6.438  37.923  1.00  0.00     0.005 C 
HETATM   16  C20 UNL     1      60.886   6.833  37.074  1.00  0.00     0.006 C 
HETATM   17  C21 UNL     1      60.756   8.269  36.642  1.00  0.00    -0.002 C 
HETATM   18  C22 UNL     1      62.846  10.597  34.494  1.00  0.00     0.038 C 
ENDROOT
BRANCH   1  19
HETATM   19  O2  UNL     1      65.174  10.914  34.376  1.00  0.00    -0.299 OA
BRANCH  19  20
HETATM   20  C4  UNL     1      66.239  11.709  34.802  1.00  0.00     0.361 C 
HETATM   21  N1  UNL     1      66.409  12.122  36.133  1.00  0.00    -0.333 N 
ATOM     22  H1  UNL     1      65.735  11.843  36.847  1.00  0.00     0.165 HD
HETATM   23  O1  UNL     1      67.062  12.048  33.917  1.00  0.00    -0.238 OA
BRANCH  21  24
HETATM   24  C3  UNL     1      67.544  12.944  36.482  1.00  0.00     0.151 C 
BRANCH  24  25
HETATM   25  C2  UNL     1      67.175  14.318  36.835  1.00  0.00    -0.018 C 
HETATM   26  C1  UNL     1      65.951  14.602  37.237  1.00  0.00     0.008 C 
ENDBRANCH  24  25
ENDBRANCH  21  24
ENDBRANCH  19  20
ENDBRANCH   1  19
TORSDOF 4
ENDMDL
MODEL 2
REMARK VINA RESULT: -8.329051031      1.619      1.989
REMARK  4 active torsions:
REMARK  status: ('A' for Active; 'I' for Inactive)
REMARK    1  A    between atoms: C2_2  and  C3_3 
REMARK    2  A    between atoms: C3_3  and  N1_4 
REMARK       I    between atoms: N1_4  and  C4_6 
REMARK    3  A    between atoms: C4_6  and  O2_8 
REMARK    4  A    between atoms: O2_8  and  C5_9 
ROOT
HETATM    1  C5  UNL     1      64.255  10.042  35.731  1.00  0.00     0.134 C 
HETATM    2  C6  UNL     1      64.356   8.678  36.388  1.00  0.00     0.033 C 
HETATM    3  C7  UNL     1      63.104   8.489  37.223  1.00  0.00     0.012 C 
HETATM    4  C8  UNL     1      61.948   8.356  36.254  1.00  0.00    -0.036 C 
HETATM    5  C9  UNL     1      62.280   7.299  35.248  1.00  0.00     0.016 C 
HETATM    6  C10 UNL     1      61.775   9.674  35.566  1.00  0.00    -0.004 C 
HETATM    7  C11 UNL     1      61.331  10.774  36.487  1.00  0.00     0.006 C 
HETATM    8  C12 UNL     1      60.331  10.383  37.497  1.00  0.00     0.006 C 
HETATM    9  C13 UNL     1      60.442   9.009  38.045  1.00  0.00    -0.005 C 
HETATM   10  C14 UNL     1      59.167   8.648  38.733  1.00  0.00    -0.006 C 
HETATM   11  C15 UNL     1      58.861   9.442  39.956  1.00  0.00     0.005 C 
HETATM   12  C16 UNL     1      58.037   8.512  40.829  1.00  0.00     0.001 C 
HETATM   13  C17 UNL     1      58.072   7.151  40.147  1.00  0.00     0.005 C 
HETATM   14  C18 UNL     1      59.314   7.238  39.327  1.00  0.00    -0.010 C 
HETATM   15  C19 UNL     1      59.387   6.292  38.180  1.00  0.00     0.005 C 
HETATM   16  C20 UNL     1      60.670   6.587  37.418  1.00  0.00     0.006 C 
HETATM   17  C21 UNL     1      60.655   8.009  36.923  1.00  0.00    -0.002 C 
HETATM   18  C22 UNL     1      63.037  10.131  34.868  1.00  0.00     0.038 C 
ENDROOT
BRANCH   1  19
HETATM   19  O2  UNL     1      65.381  10.320  34.930  1.00  0.00    -0.299 OA
BRANCH  19  20
HETATM   20  C4  UNL     1      65.395  11.391  34.034  1.00  0.00     0.361 C 
HETATM   21  N1  UNL     1      64.700  12.590  34.257  1.00  0.00    -0.333 N 
ATOM     22  H1  UNL     1      64.149  12.715  35.106  1.00  0.00     0.165 HD
HETATM   23  O1  UNL     1      66.074  11.228  32.992  1.00  0.00    -0.238 OA
BRANCH  21  24
HETATM   24  C3  UNL     1      64.773  13.646  33.272  1.00  0.00     0.151 C 
BRANCH  24  25
HETATM   25  C2  UNL     1      63.458  14.157  32.877  1.00  0.00    -0.018 C 
HETATM   26  C1  UNL     1      62.477  13.328  32.578  1.00  0.00     0.008 C 
ENDBRANCH  24  25
ENDBRANCH  21  24
ENDBRANCH  19  20
ENDBRANCH   1  19
TORSDOF 4
ENDMDL
MODEL 3
REMARK VINA RESULT: -8.143505664      1.443      1.606
REMARK  4 active torsions:
REMARK  status: ('A' for Active; 'I' for Inactive)
REMARK    1  A    between atoms: C2_2  and  C3_3 
REMARK    2  A    between atoms: C3_3  and  N1_4 
REMARK       I    between atoms: N1_4  and  C4_6 
REMARK    3  A    between atoms: C4_6  and  O2_8 
REMARK    4  A    between atoms: O2_8  and  C5_9 
ROOT
HETATM    1  C5  UNL     1      63.978  10.493  35.313  1.00  0.00     0.134 C 
HETATM    2  C6  UNL     1      64.224   9.107  35.881  1.00  0.00     0.033 C 
HETATM    3  C7  UNL     1      63.076   8.799  36.822  1.00  0.00     0.012 C 
HETATM    4  C8  UNL     1      61.838   8.642  35.966  1.00  0.00    -0.036 C 
HETATM    5  C9  UNL     1      62.126   7.659  34.874  1.00  0.00     0.016 C 
HETATM    6  C10 UNL     1      61.519   9.979  35.371  1.00  0.00    -0.004 C 
HETATM    7  C11 UNL     1      61.109  11.002  36.392  1.00  0.00     0.006 C 
HETATM    8  C12 UNL     1      60.240  10.500  37.471  1.00  0.00     0.006 C 
HETATM    9  C13 UNL     1      60.485   9.110  37.929  1.00  0.00    -0.005 C 
HETATM   10  C14 UNL     1      59.309   8.636  38.718  1.00  0.00    -0.006 C 
HETATM   11  C15 UNL     1      59.084   9.348  40.007  1.00  0.00     0.005 C 
HETATM   12  C16 UNL     1      58.407   8.326  40.903  1.00  0.00     0.001 C 
HETATM   13  C17 UNL     1      58.451   7.006  40.147  1.00  0.00     0.005 C 
HETATM   14  C18 UNL     1      59.596   7.211  39.215  1.00  0.00    -0.010 C 
HETATM   15  C19 UNL     1      59.607   6.329  38.016  1.00  0.00     0.005 C 
HETATM   16  C20 UNL     1      60.788   6.741  37.150  1.00  0.00     0.006 C 
HETATM   17  C21 UNL     1      60.641   8.182  36.738  1.00  0.00    -0.002 C 
HETATM   18  C22 UNL     1      62.676  10.548  34.580  1.00  0.00     0.038 C 
ENDROOT
BRANCH   1  19
HETATM   19  O2  UNL     1      65.000  10.880  34.422  1.00  0.00    -0.299 OA
BRANCH  19  20
HETATM   20  C4  UNL     1      65.055  12.170  33.890  1.00  0.00     0.361 C 
HETATM   21  N1  UNL     1      64.099  13.159  34.167  1.00  0.00    -0.333 N 
ATOM     22  H1  UNL     1      63.312  12.956  34.784  1.00  0.00     0.165 HD
HETATM   23  O1  UNL     1      66.025  12.411  33.130  1.00  0.00    -0.238 OA
BRANCH  21  24
HETATM   24  C3  UNL     1      64.238  14.468  33.570  1.00  0.00     0.151 C 
BRANCH  24  25
HETATM   25  C2  UNL     1      63.731  15.547  34.421  1.00  0.00    -0.018 C 
HETATM   26  C1  UNL     1      63.618  15.378  35.725  1.00  0.00     0.008 C 
ENDBRANCH  24  25
ENDBRANCH  21  24
ENDBRANCH  19  20
ENDBRANCH   1  19
TORSDOF 4
ENDMDL
MODEL 4
REMARK VINA RESULT: -8.080007927      4.628      6.364
REMARK  4 active torsions:
REMARK  status: ('A' for Active; 'I' for Inactive)
REMARK    1  A    between atoms: C2_2  and  C3_3 
REMARK    2  A    between atoms: C3_3  and  N1_4 
REMARK       I    between atoms: N1_4  and  C4_6 
REMARK    3  A    between atoms: C4_6  and  O2_8 
REMARK    4  A    between atoms: O2_8  and  C5_9 
ROOT
HETATM    1  C5  UNL     1      67.952  12.179  37.989  1.00  0.00     0.134 C 
HETATM    2  C6  UNL     1      67.495  10.876  37.359  1.00  0.00     0.033 C 
HETATM    3  C7  UNL     1      66.153  11.142  36.705  1.00  0.00     0.012 C 
HETATM    4  C8  UNL     1      66.413  12.059  35.529  1.00  0.00    -0.036 C 
HETATM    5  C9  UNL     1      67.494  11.464  34.682  1.00  0.00     0.016 C 
HETATM    6  C10 UNL     1      66.863  13.381  36.070  1.00  0.00    -0.004 C 
HETATM    7  C11 UNL     1      65.797  14.102  36.844  1.00  0.00     0.006 C 
HETATM    8  C12 UNL     1      64.439  14.012  36.278  1.00  0.00     0.006 C 
HETATM    9  C13 UNL     1      64.081  12.736  35.610  1.00  0.00    -0.005 C 
HETATM   10  C14 UNL     1      62.861  12.943  34.774  1.00  0.00    -0.006 C 
HETATM   11  C15 UNL     1      61.617  13.250  35.535  1.00  0.00     0.005 C 
HETATM   12  C16 UNL     1      60.490  12.713  34.671  1.00  0.00     0.001 C 
HETATM   13  C17 UNL     1      61.155  11.944  33.537  1.00  0.00     0.005 C 
HETATM   14  C18 UNL     1      62.484  11.604  34.121  1.00  0.00    -0.010 C 
HETATM   15  C19 UNL     1      63.551  11.290  33.132  1.00  0.00     0.005 C 
HETATM   16  C20 UNL     1      64.841  11.057  33.903  1.00  0.00     0.006 C 
HETATM   17  C21 UNL     1      65.200  12.293  34.684  1.00  0.00    -0.002 C 
HETATM   18  C22 UNL     1      68.080  13.255  36.959  1.00  0.00     0.038 C 
ENDROOT
BRANCH   1  19
HETATM   19  O2  UNL     1      69.198  12.037  38.634  1.00  0.00    -0.299 OA
BRANCH  19  20
HETATM   20  C4  UNL     1      69.956  10.871  38.511  1.00  0.00     0.361 C 
HETATM   21  N1  UNL     1      70.712  10.329  39.563  1.00  0.00    -0.333 N 
ATOM     22  H1  UNL     1      70.729  10.789  40.473  1.00  0.00     0.165 HD
HETATM   23  O1  UNL     1      69.930  10.313  37.387  1.00  0.00    -0.238 OA
BRANCH  21  24
HETATM   24  C3  UNL     1      71.466   9.116  39.343  1.00  0.00     0.151 C 
BRANCH  24  25
HETATM   25  C2  UNL     1      70.717   7.903  39.682  1.00  0.00    -0.018 C 
HETATM   26  C1  UNL     1      70.807   6.826  38.925  1.00  0.00     0.008 C 
ENDBRANCH  24  25
ENDBRANCH  21  24
ENDBRANCH  19  20
ENDBRANCH   1  19
TORSDOF 4
ENDMDL
MODEL 5
REMARK VINA RESULT: -7.518836496      2.721      7.441
REMARK  4 active torsions:
REMARK  status: ('A' for Active; 'I' for Inactive)
REMARK    1  A    between atoms: C2_2  and  C3_3 
REMARK    2  A    between atoms: C3_3  and  N1_4 
REMARK       I    between atoms: N1_4  and  C4_6 
REMARK    3  A    between atoms: C4_6  and  O2_8 
REMARK    4  A    between atoms: O2_8  and  C5_9 
ROOT
HETATM    1  C5  UNL     1      62.038   9.142  34.887  1.00  0.00     0.134 C 
HETATM    2  C6  UNL     1      61.381  10.083  35.879  1.00  0.00     0.033 C 
HETATM    3  C7  UNL     1      62.367  11.202  36.156  1.00  0.00     0.012 C 
HETATM    4  C8  UNL     1      62.476  12.013  34.883  1.00  0.00    -0.036 C 
HETATM    5  C9  UNL     1      61.101  12.393  34.432  1.00  0.00     0.016 C 
HETATM    6  C10 UNL     1      63.129  11.152  33.847  1.00  0.00    -0.004 C 
HETATM    7  C11 UNL     1      64.557  10.813  34.167  1.00  0.00     0.006 C 
HETATM    8  C12 UNL     1      65.348  11.910  34.754  1.00  0.00     0.006 C 
HETATM    9  C13 UNL     1      64.626  12.839  35.658  1.00  0.00    -0.005 C 
HETATM   10  C14 UNL     1      65.440  14.077  35.845  1.00  0.00    -0.006 C 
HETATM   11  C15 UNL     1      66.728  13.884  36.569  1.00  0.00     0.005 C 
HETATM   12  C16 UNL     1      66.991  15.212  37.257  1.00  0.00     0.001 C 
HETATM   13  C17 UNL     1      65.736  16.049  37.053  1.00  0.00     0.005 C 
HETATM   14  C18 UNL     1      64.695  15.010  36.813  1.00  0.00    -0.010 C 
HETATM   15  C19 UNL     1      63.475  15.483  36.104  1.00  0.00     0.005 C 
HETATM   16  C20 UNL     1      62.577  14.277  35.875  1.00  0.00     0.006 C 
HETATM   17  C21 UNL     1      63.301  13.252  35.043  1.00  0.00    -0.002 C 
HETATM   18  C22 UNL     1      62.382   9.857  33.619  1.00  0.00     0.038 C 
ENDROOT
BRANCH   1  19
HETATM   19  O2  UNL     1      61.200   8.055  34.565  1.00  0.00    -0.299 OA
BRANCH  19  20
HETATM   20  C4  UNL     1      60.837   7.104  35.520  1.00  0.00     0.361 C 
HETATM   21  N1  UNL     1      60.528   7.427  36.851  1.00  0.00    -0.333 N 
ATOM     22  H1  UNL     1      60.562   8.397  37.165  1.00  0.00     0.165 HD
HETATM   23  O1  UNL     1      60.800   5.913  35.125  1.00  0.00    -0.238 OA
BRANCH  21  24
HETATM   24  C3  UNL     1      60.162   6.374  37.770  1.00  0.00     0.151 C 
BRANCH  24  25
HETATM   25  C2  UNL     1      59.293   6.833  38.857  1.00  0.00    -0.018 C 
HETATM   26  C1  UNL     1      59.358   8.079  39.288  1.00  0.00     0.008 C 
ENDBRANCH  24  25
ENDBRANCH  21  24
ENDBRANCH  19  20
ENDBRANCH   1  19
TORSDOF 4
ENDMDL
