MODEL 1
REMARK VINA RESULT: -9.886039230      0.000      0.000
REMARK  4 active torsions:
REMARK  status: ('A' for Active; 'I' for Inactive)
REMARK    1  A    between atoms: C4_4  and  C5_5 
REMARK    2  A    between atoms: C5_5  and  C6_6 
REMARK    3  A    between atoms: C6_6  and  C7_7 
REMARK    4  A    between atoms: C7_7  and  O1_8 
ROOT
HETATM    1  C7  UNL     1      61.039   6.625  36.069  1.00  0.00     0.046 C 
HETATM    2  C8  UNL     1      62.308   7.262  35.796  1.00  0.00    -0.042 C 
HETATM    3  C9  UNL     1      63.572   6.714  36.333  1.00  0.00     0.038 C 
HETATM    4  C10 UNL     1      64.579   7.878  36.445  1.00  0.00     0.010 C 
HETATM    5  C11 UNL     1      63.928   8.927  35.647  1.00  0.00     0.003 C 
HETATM    6  C12 UNL     1      64.292  10.332  35.971  1.00  0.00    -0.008 C 
HETATM    7  C13 UNL     1      65.844  10.327  35.943  1.00  0.00     0.011 C 
HETATM    8  C14 UNL     1      63.722  11.208  34.877  1.00  0.00     0.004 A 
HETATM    9  C15 UNL     1      62.647  12.113  34.944  1.00  0.00     0.000 A 
HETATM   10  C16 UNL     1      61.241  12.184  35.313  1.00  0.00     0.006 C 
HETATM   11  C17 UNL     1      60.578  11.817  33.972  1.00  0.00     0.006 C 
HETATM   12  C18 UNL     1      61.695  11.135  33.169  1.00  0.00    -0.005 C 
HETATM   13  C19 UNL     1      61.129   9.893  32.575  1.00  0.00     0.006 C 
HETATM   14  C20 UNL     1      61.670   8.804  33.529  1.00  0.00     0.007 C 
HETATM   15  C21 UNL     1      61.784   9.578  34.855  1.00  0.00     0.008 C 
HETATM   16  C22 UNL     1      62.448   8.751  35.919  1.00  0.00    -0.010 C 
HETATM   17  C23 UNL     1      62.042   9.082  37.314  1.00  0.00     0.021 C 
HETATM   18  C24 UNL     1      62.566  10.704  34.297  1.00  0.00    -0.024 A 
ENDROOT
BRANCH   1  19
HETATM   19  C6  UNL     1      60.424   6.361  37.361  1.00  0.00     0.068 C 
BRANCH  19  20
HETATM   20  C5  UNL     1      59.944   7.539  38.178  1.00  0.00     0.034 C 
BRANCH  20  21
HETATM   21  C4  UNL     1      58.795   7.102  39.066  1.00  0.00    -0.024 C 
HETATM   22  C2  UNL     1      58.148   7.995  39.756  1.00  0.00    -0.091 C 
HETATM   23  C1  UNL     1      57.012   7.556  40.631  1.00  0.00     0.042 C 
HETATM   24  C3  UNL     1      58.492   9.436  39.710  1.00  0.00     0.042 C 
ENDBRANCH  20  21
ENDBRANCH  19  20
ENDBRANCH   1  19
BRANCH   1  25
HETATM   25  O1  UNL     1      60.872   5.426  35.302  1.00  0.00    -0.365 OA
ATOM     26  H1  UNL     1      61.405   5.538  34.524  1.00  0.00     0.217 HD
ENDBRANCH   1  25
TORSDOF 4
ENDMDL
MODEL 2
REMARK VINA RESULT: -9.751511946      2.539      4.678
REMARK  4 active torsions:
REMARK  status: ('A' for Active; 'I' for Inactive)
REMARK    1  A    between atoms: C4_4  and  C5_5 
REMARK    2  A    between atoms: C5_5  and  C6_6 
REMARK    3  A    between atoms: C6_6  and  C7_7 
REMARK    4  A    between atoms: C7_7  and  O1_8 
ROOT
HETATM    1  C7  UNL     1      61.382  11.840  35.849  1.00  0.00     0.046 C 
HETATM    2  C8  UNL     1      62.342  11.949  34.773  1.00  0.00    -0.042 C 
HETATM    3  C9  UNL     1      62.008  11.507  33.402  1.00  0.00     0.038 C 
HETATM    4  C10 UNL     1      63.328  11.137  32.693  1.00  0.00     0.010 C 
HETATM    5  C11 UNL     1      64.335  11.718  33.594  1.00  0.00     0.003 C 
HETATM    6  C12 UNL     1      65.690  11.105  33.560  1.00  0.00    -0.008 C 
HETATM    7  C13 UNL     1      66.056  11.099  32.052  1.00  0.00     0.011 C 
HETATM    8  C14 UNL     1      66.611  12.009  34.349  1.00  0.00     0.004 A 
HETATM    9  C15 UNL     1      67.205  11.782  35.604  1.00  0.00     0.000 A 
HETATM   10  C16 UNL     1      66.867  11.437  36.976  1.00  0.00     0.006 C 
HETATM   11  C17 UNL     1      66.636  12.839  37.571  1.00  0.00     0.006 C 
HETATM   12  C18 UNL     1      66.414  13.740  36.348  1.00  0.00    -0.005 C 
HETATM   13  C19 UNL     1      65.223  14.588  36.623  1.00  0.00     0.006 C 
HETATM   14  C20 UNL     1      64.120  13.866  35.816  1.00  0.00     0.007 C 
HETATM   15  C21 UNL     1      64.612  12.407  35.851  1.00  0.00     0.008 C 
HETATM   16  C22 UNL     1      63.765  11.521  34.983  1.00  0.00    -0.010 C 
HETATM   17  C23 UNL     1      63.699  10.097  35.417  1.00  0.00     0.021 C 
HETATM   18  C24 UNL     1      65.980  12.705  35.370  1.00  0.00    -0.024 A 
ENDROOT
BRANCH   1  19
HETATM   19  C6  UNL     1      60.724  10.644  36.350  1.00  0.00     0.068 C 
BRANCH  19  20
HETATM   20  C5  UNL     1      60.399  10.570  37.825  1.00  0.00     0.034 C 
BRANCH  20  21
HETATM   21  C4  UNL     1      60.347   9.118  38.258  1.00  0.00    -0.024 C 
HETATM   22  C2  UNL     1      59.391   8.723  39.047  1.00  0.00    -0.091 C 
HETATM   23  C1  UNL     1      59.346   7.284  39.471  1.00  0.00     0.042 C 
HETATM   24  C3  UNL     1      58.341   9.641  39.544  1.00  0.00     0.042 C 
ENDBRANCH  20  21
ENDBRANCH  19  20
ENDBRANCH   1  19
BRANCH   1  25
HETATM   25  O1  UNL     1      60.361  12.840  35.751  1.00  0.00    -0.365 OA
ATOM     26  H1  UNL     1      59.949  12.876  36.607  1.00  0.00     0.217 HD
ENDBRANCH   1  25
TORSDOF 4
ENDMDL
MODEL 3
REMARK VINA RESULT: -9.415102396      2.372      6.200
REMARK  4 active torsions:
REMARK  status: ('A' for Active; 'I' for Inactive)
REMARK    1  A    between atoms: C4_4  and  C5_5 
REMARK    2  A    between atoms: C5_5  and  C6_6 
REMARK    3  A    between atoms: C6_6  and  C7_7 
REMARK    4  A    between atoms: C7_7  and  O1_8 
ROOT
HETATM    1  C7  UNL     1      62.744  11.298  33.657  1.00  0.00     0.046 C 
HETATM    2  C8  UNL     1      61.790  10.945  34.684  1.00  0.00    -0.042 C 
HETATM    3  C9  UNL     1      61.068  11.985  35.448  1.00  0.00     0.038 C 
HETATM    4  C10 UNL     1      60.675  11.378  36.812  1.00  0.00     0.010 C 
HETATM    5  C11 UNL     1      60.901   9.943  36.588  1.00  0.00     0.003 C 
HETATM    6  C12 UNL     1      61.174   9.116  37.794  1.00  0.00    -0.008 C 
HETATM    7  C13 UNL     1      60.012   9.475  38.758  1.00  0.00     0.011 C 
HETATM    8  C14 UNL     1      61.112   7.666  37.367  1.00  0.00     0.004 A 
HETATM    9  C15 UNL     1      62.162   6.739  37.242  1.00  0.00     0.000 A 
HETATM   10  C16 UNL     1      63.448   6.560  36.585  1.00  0.00     0.006 C 
HETATM   11  C17 UNL     1      63.000   5.918  35.258  1.00  0.00     0.006 C 
HETATM   12  C18 UNL     1      61.506   6.258  35.156  1.00  0.00    -0.005 C 
HETATM   13  C19 UNL     1      61.250   6.753  33.776  1.00  0.00     0.006 C 
HETATM   14  C20 UNL     1      61.194   8.283  33.988  1.00  0.00     0.007 C 
HETATM   15  C21 UNL     1      62.135   8.466  35.194  1.00  0.00     0.008 C 
HETATM   16  C22 UNL     1      62.121   9.883  35.691  1.00  0.00    -0.010 C 
HETATM   17  C23 UNL     1      63.381  10.328  36.349  1.00  0.00     0.021 C 
HETATM   18  C24 UNL     1      61.476   7.451  36.045  1.00  0.00    -0.024 A 
ENDROOT
BRANCH   1  19
HETATM   19  C6  UNL     1      63.951  12.099  33.787  1.00  0.00     0.068 C 
BRANCH  19  20
HETATM   20  C5  UNL     1      63.818  13.518  34.292  1.00  0.00     0.034 C 
BRANCH  20  21
HETATM   21  C4  UNL     1      64.820  13.754  35.405  1.00  0.00    -0.024 C 
HETATM   22  C2  UNL     1      64.623  14.729  36.243  1.00  0.00    -0.091 C 
HETATM   23  C1  UNL     1      65.618  14.957  37.341  1.00  0.00     0.042 C 
HETATM   24  C3  UNL     1      63.448  15.628  36.153  1.00  0.00     0.042 C 
ENDBRANCH  20  21
ENDBRANCH  19  20
ENDBRANCH   1  19
BRANCH   1  25
HETATM   25  O1  UNL     1      62.095  11.755  32.465  1.00  0.00    -0.365 OA
ATOM     26  H1  UNL     1      61.166  11.767  32.662  1.00  0.00     0.217 HD
ENDBRANCH   1  25
TORSDOF 4
ENDMDL
MODEL 4
REMARK VINA RESULT: -8.392175287      2.067      6.228
REMARK  4 active torsions:
REMARK  status: ('A' for Active; 'I' for Inactive)
REMARK    1  A    between atoms: C4_4  and  C5_5 
REMARK    2  A    between atoms: C5_5  and  C6_6 
REMARK    3  A    between atoms: C6_6  and  C7_7 
REMARK    4  A    between atoms: C7_7  and  O1_8 
ROOT
HETATM    1  C7  UNL     1      62.879  11.367  34.251  1.00  0.00     0.046 C 
HETATM    2  C8  UNL     1      61.817  10.918  35.123  1.00  0.00    -0.042 C 
HETATM    3  C9  UNL     1      61.026  11.878  35.924  1.00  0.00     0.038 C 
HETATM    4  C10 UNL     1      60.485  11.126  37.158  1.00  0.00     0.010 C 
HETATM    5  C11 UNL     1      60.721   9.722  36.792  1.00  0.00     0.003 C 
HETATM    6  C12 UNL     1      60.856   8.756  37.915  1.00  0.00    -0.008 C 
HETATM    7  C13 UNL     1      59.601   9.025  38.787  1.00  0.00     0.011 C 
HETATM    8  C14 UNL     1      60.827   7.366  37.317  1.00  0.00     0.004 A 
HETATM    9  C15 UNL     1      61.877   6.438  37.196  1.00  0.00     0.000 A 
HETATM   10  C16 UNL     1      63.225   6.309  36.661  1.00  0.00     0.006 C 
HETATM   11  C17 UNL     1      62.916   5.834  35.228  1.00  0.00     0.006 C 
HETATM   12  C18 UNL     1      61.444   6.215  35.010  1.00  0.00    -0.005 C 
HETATM   13  C19 UNL     1      61.342   6.872  33.678  1.00  0.00     0.006 C 
HETATM   14  C20 UNL     1      61.276   8.368  34.061  1.00  0.00     0.007 C 
HETATM   15  C21 UNL     1      62.084   8.390  35.372  1.00  0.00     0.008 C 
HETATM   16  C22 UNL     1      62.029   9.740  36.028  1.00  0.00    -0.010 C 
HETATM   17  C23 UNL     1      63.216  10.080  36.863  1.00  0.00     0.021 C 
HETATM   18  C24 UNL     1      61.329   7.297  36.025  1.00  0.00    -0.024 A 
ENDROOT
BRANCH   1  19
HETATM   19  C6  UNL     1      64.072  12.123  34.601  1.00  0.00     0.068 C 
BRANCH  19  20
HETATM   20  C5  UNL     1      65.420  11.530  34.258  1.00  0.00     0.034 C 
BRANCH  20  21
HETATM   21  C4  UNL     1      66.100  11.055  35.527  1.00  0.00    -0.024 C 
HETATM   22  C2  UNL     1      66.685  11.923  36.299  1.00  0.00    -0.091 C 
HETATM   23  C1  UNL     1      67.355  11.446  37.553  1.00  0.00     0.042 C 
HETATM   24  C3  UNL     1      66.715  13.371  35.986  1.00  0.00     0.042 C 
ENDBRANCH  20  21
ENDBRANCH  19  20
ENDBRANCH   1  19
BRANCH   1  25
HETATM   25  O1  UNL     1      62.365  11.973  33.059  1.00  0.00    -0.365 OA
ATOM     26  H1  UNL     1      62.957  11.717  32.360  1.00  0.00     0.217 HD
ENDBRANCH   1  25
TORSDOF 4
ENDMDL
MODEL 5
REMARK VINA RESULT: -8.311522612      2.686      5.034
REMARK  4 active torsions:
REMARK  status: ('A' for Active; 'I' for Inactive)
REMARK    1  A    between atoms: C4_4  and  C5_5 
REMARK    2  A    between atoms: C5_5  and  C6_6 
REMARK    3  A    between atoms: C6_6  and  C7_7 
REMARK    4  A    between atoms: C7_7  and  O1_8 
ROOT
HETATM    1  C7  UNL     1      61.414  11.564  35.959  1.00  0.00     0.046 C 
HETATM    2  C8  UNL     1      62.319  11.714  34.842  1.00  0.00    -0.042 C 
HETATM    3  C9  UNL     1      61.975  11.190  33.502  1.00  0.00     0.038 C 
HETATM    4  C10 UNL     1      63.296  10.910  32.754  1.00  0.00     0.010 C 
HETATM    5  C11 UNL     1      64.280  11.612  33.592  1.00  0.00     0.003 C 
HETATM    6  C12 UNL     1      65.682  11.119  33.525  1.00  0.00    -0.008 C 
HETATM    7  C13 UNL     1      65.990  11.085  32.005  1.00  0.00     0.011 C 
HETATM    8  C14 UNL     1      66.547  12.131  34.243  1.00  0.00     0.004 A 
HETATM    9  C15 UNL     1      67.206  12.007  35.480  1.00  0.00     0.000 A 
HETATM   10  C16 UNL     1      66.951  11.689  36.877  1.00  0.00     0.006 C 
HETATM   11  C17 UNL     1      66.618  13.089  37.429  1.00  0.00     0.006 C 
HETATM   12  C18 UNL     1      66.271  13.917  36.184  1.00  0.00    -0.005 C 
HETATM   13  C19 UNL     1      65.020  14.668  36.476  1.00  0.00     0.006 C 
HETATM   14  C20 UNL     1      63.956  13.820  35.741  1.00  0.00     0.007 C 
HETATM   15  C21 UNL     1      64.578  12.412  35.810  1.00  0.00     0.008 C 
HETATM   16  C22 UNL     1      63.781  11.421  35.009  1.00  0.00    -0.010 C 
HETATM   17  C23 UNL     1      63.859  10.015  35.497  1.00  0.00     0.021 C 
HETATM   18  C24 UNL     1      65.895  12.810  35.263  1.00  0.00    -0.024 A 
ENDROOT
BRANCH   1  19
HETATM   19  C6  UNL     1      60.883  10.336  36.530  1.00  0.00     0.068 C 
BRANCH  19  20
HETATM   20  C5  UNL     1      61.833   9.179  36.746  1.00  0.00     0.034 C 
BRANCH  20  21
HETATM   21  C4  UNL     1      61.215   7.909  36.196  1.00  0.00    -0.024 C 
HETATM   22  C2  UNL     1      61.913   6.811  36.192  1.00  0.00    -0.091 C 
HETATM   23  C1  UNL     1      61.294   5.558  35.647  1.00  0.00     0.042 C 
HETATM   24  C3  UNL     1      63.301   6.750  36.707  1.00  0.00     0.042 C 
ENDBRANCH  20  21
ENDBRANCH  19  20
ENDBRANCH   1  19
BRANCH   1  25
HETATM   25  O1  UNL     1      60.304  12.466  35.867  1.00  0.00    -0.365 OA
ATOM     26  H1  UNL     1      60.619  13.301  36.192  1.00  0.00     0.217 HD
ENDBRANCH   1  25
TORSDOF 4
ENDMDL
