MODEL 1
REMARK VINA RESULT: -6.152698332      0.000      0.000
REMARK  5 active torsions:
REMARK  status: ('A' for Active; 'I' for Inactive)
REMARK    1  A    between atoms: C2_2  and  O1_4 
REMARK    2  A    between atoms: O1_4  and  C4_5 
REMARK    3  A    between atoms: C6_7  and  O2_9 
REMARK    4  A    between atoms: C8_11  and  C9_12 
REMARK       I    between atoms: N1_13  and  C10_15 
REMARK    5  A    between atoms: C10_15  and  C11_17 
ROOT
HETATM    1  C4  UNL     1       0.137 -13.034   8.968  1.00  0.00     0.129 C 
HETATM    2  C5  UNL     1       0.552 -14.443   8.463  1.00  0.00     0.070 C 
HETATM    3  C6  UNL     1       2.053 -14.467   8.608  1.00  0.00     0.065 C 
HETATM    4  C7  UNL     1       2.374 -14.435  10.073  1.00  0.00     0.046 C 
HETATM    5  C8  UNL     1       2.754 -13.417   7.803  1.00  0.00     0.064 C 
HETATM    6  C14 UNL     1       2.033 -12.143   7.625  1.00  0.00     0.023 C 
HETATM    7  C15 UNL     1       2.473 -11.024   8.557  1.00  0.00     0.091 C 
HETATM    8 CL1  UNL     1       4.089 -10.420   8.115  1.00  0.00    -0.124 Cl
HETATM    9  C16 UNL     1       1.474  -9.931   8.150  1.00  0.00     0.001 C 
HETATM   10  C17 UNL     1       1.441  -8.827   9.171  1.00  0.00     0.011 C 
HETATM   11  C18 UNL     1       0.180 -10.717   8.112  1.00  0.00     0.013 C 
HETATM   12  C19 UNL     1       0.568 -12.156   7.787  1.00  0.00     0.021 C 
ENDROOT
BRANCH   5  13
HETATM   13  C9  UNL     1       4.121 -13.266   8.368  1.00  0.00     0.072 C 
HETATM   14  N1  UNL     1       5.184 -13.626   7.732  1.00  0.00    -0.340 N 
HETATM   15  C10 UNL     1       6.484 -13.485   8.263  1.00  0.00     0.224 C 
ATOM     16  H1  UNL     1       5.080 -14.031   6.801  1.00  0.00     0.167 HD
HETATM   17  O3  UNL     1       6.623 -13.075   9.453  1.00  0.00    -0.273 OA
BRANCH  15  18
HETATM   18  C11 UNL     1       7.647 -13.812   7.441  1.00  0.00     0.070 C 
HETATM   19  C12 UNL     1       7.378 -13.694   5.957  1.00  0.00     0.019 C 
HETATM   20  C13 UNL     1       8.816 -12.903   7.781  1.00  0.00     0.019 C 
ENDBRANCH  15  18
ENDBRANCH   5  13
BRANCH   3  21
HETATM   21  O2  UNL     1       2.462 -15.741   8.146  1.00  0.00    -0.389 OA
ATOM     22  H2  UNL     1       1.721 -16.317   8.293  1.00  0.00     0.210 HD
ENDBRANCH   3  21
BRANCH   1  23
HETATM   23  O1  UNL     1      -1.004 -12.906   9.431  1.00  0.00    -0.381 OA
BRANCH  23  24
HETATM   24  C2  UNL     1      -2.147 -12.776   9.895  1.00  0.00     0.113 C 
HETATM   25  C1  UNL     1      -2.313 -11.820  11.118  1.00  0.00     0.039 C 
HETATM   26  C3  UNL     1      -3.056 -12.071   8.842  1.00  0.00     0.039 C 
ENDBRANCH  23  24
ENDBRANCH   1  23
TORSDOF 5
ENDMDL
MODEL 2
REMARK VINA RESULT: -6.063210508      1.875      2.402
REMARK  5 active torsions:
REMARK  status: ('A' for Active; 'I' for Inactive)
REMARK    1  A    between atoms: C2_2  and  O1_4 
REMARK    2  A    between atoms: O1_4  and  C4_5 
REMARK    3  A    between atoms: C6_7  and  O2_9 
REMARK    4  A    between atoms: C8_11  and  C9_12 
REMARK       I    between atoms: N1_13  and  C10_15 
REMARK    5  A    between atoms: C10_15  and  C11_17 
ROOT
HETATM    1  C4  UNL     1      -0.555 -14.510   9.512  1.00  0.00     0.129 C 
HETATM    2  C5  UNL     1       0.449 -15.539   8.925  1.00  0.00     0.070 C 
HETATM    3  C6  UNL     1       1.725 -14.754   8.743  1.00  0.00     0.065 C 
HETATM    4  C7  UNL     1       2.242 -14.394  10.105  1.00  0.00     0.046 C 
HETATM    5  C8  UNL     1       1.590 -13.592   7.809  1.00  0.00     0.064 C 
HETATM    6  C14 UNL     1       0.281 -12.916   7.794  1.00  0.00     0.023 C 
HETATM    7  C15 UNL     1       0.213 -11.635   8.613  1.00  0.00     0.091 C 
HETATM    8 CL1  UNL     1       1.140 -10.328   7.835  1.00  0.00    -0.124 Cl
HETATM    9  C16 UNL     1      -1.270 -11.283   8.435  1.00  0.00     0.001 C 
HETATM   10  C17 UNL     1      -1.702 -10.253   9.442  1.00  0.00     0.011 C 
HETATM   11  C18 UNL     1      -1.921 -12.629   8.674  1.00  0.00     0.013 C 
HETATM   12  C19 UNL     1      -0.889 -13.677   8.270  1.00  0.00     0.021 C 
ENDROOT
BRANCH   5  13
HETATM   13  C9  UNL     1       2.739 -12.683   8.066  1.00  0.00     0.072 C 
HETATM   14  N1  UNL     1       3.948 -12.968   7.715  1.00  0.00    -0.340 N 
HETATM   15  C10 UNL     1       5.042 -12.110   7.956  1.00  0.00     0.224 C 
ATOM     16  H1  UNL     1       4.121 -13.854   7.240  1.00  0.00     0.167 HD
HETATM   17  O3  UNL     1       4.860 -11.052   8.630  1.00  0.00    -0.273 OA
BRANCH  15  18
HETATM   18  C11 UNL     1       6.363 -12.448   7.431  1.00  0.00     0.070 C 
HETATM   19  C12 UNL     1       6.603 -13.939   7.337  1.00  0.00     0.019 C 
HETATM   20  C13 UNL     1       6.559 -11.851   6.047  1.00  0.00     0.019 C 
ENDBRANCH  15  18
ENDBRANCH   5  13
BRANCH   3  21
HETATM   21  O2  UNL     1       2.661 -15.667   8.200  1.00  0.00    -0.389 OA
ATOM     22  H2  UNL     1       3.516 -15.295   8.380  1.00  0.00     0.210 HD
ENDBRANCH   3  21
BRANCH   1  23
HETATM   23  O1  UNL     1      -1.479 -14.948  10.212  1.00  0.00    -0.381 OA
BRANCH  23  24
HETATM   24  C2  UNL     1      -2.401 -15.389  10.913  1.00  0.00     0.113 C 
HETATM   25  C1  UNL     1      -2.023 -16.429  12.015  1.00  0.00     0.039 C 
HETATM   26  C3  UNL     1      -2.989 -14.236  11.783  1.00  0.00     0.039 C 
ENDBRANCH  23  24
ENDBRANCH   1  23
TORSDOF 5
ENDMDL
MODEL 3
REMARK VINA RESULT: -5.951483618      8.165     10.386
REMARK  5 active torsions:
REMARK  status: ('A' for Active; 'I' for Inactive)
REMARK    1  A    between atoms: C2_2  and  O1_4 
REMARK    2  A    between atoms: O1_4  and  C4_5 
REMARK    3  A    between atoms: C6_7  and  O2_9 
REMARK    4  A    between atoms: C8_11  and  C9_12 
REMARK       I    between atoms: N1_13  and  C10_15 
REMARK    5  A    between atoms: C10_15  and  C11_17 
ROOT
HETATM    1  C4  UNL     1      -3.602 -20.520  10.759  1.00  0.00     0.129 C 
HETATM    2  C5  UNL     1      -4.781 -21.184   9.996  1.00  0.00     0.070 C 
HETATM    3  C6  UNL     1      -4.335 -21.195   8.555  1.00  0.00     0.065 C 
HETATM    4  C7  UNL     1      -3.176 -22.140   8.440  1.00  0.00     0.046 C 
HETATM    5  C8  UNL     1      -4.076 -19.831   7.994  1.00  0.00     0.064 C 
HETATM    6  C14 UNL     1      -3.553 -18.827   8.937  1.00  0.00     0.023 C 
HETATM    7  C15 UNL     1      -2.049 -18.604   8.867  1.00  0.00     0.091 C 
HETATM    8 CL1  UNL     1      -1.598 -17.751   7.370  1.00  0.00    -0.124 Cl
HETATM    9  C16 UNL     1      -1.875 -17.597  10.012  1.00  0.00     0.001 C 
HETATM   10  C17 UNL     1      -0.429 -17.479  10.408  1.00  0.00     0.011 C 
HETATM   11  C18 UNL     1      -2.717 -18.238  11.095  1.00  0.00     0.013 C 
HETATM   12  C19 UNL     1      -3.790 -19.048  10.375  1.00  0.00     0.021 C 
ENDROOT
BRANCH   5  13
HETATM   13  C9  UNL     1      -3.244 -20.007   6.773  1.00  0.00     0.072 C 
HETATM   14  N1  UNL     1      -3.742 -20.338   5.629  1.00  0.00    -0.340 N 
HETATM   15  C10 UNL     1      -2.959 -20.507   4.468  1.00  0.00     0.224 C 
ATOM     16  H1  UNL     1      -4.749 -20.485   5.562  1.00  0.00     0.167 HD
HETATM   17  O3  UNL     1      -1.697 -20.425   4.557  1.00  0.00    -0.273 OA
BRANCH  15  18
HETATM   18  C11 UNL     1      -3.604 -20.773   3.185  1.00  0.00     0.070 C 
HETATM   19  C12 UNL     1      -2.636 -20.781   2.023  1.00  0.00     0.019 C 
HETATM   20  C13 UNL     1      -4.319 -22.114   3.212  1.00  0.00     0.019 C 
ENDBRANCH  15  18
ENDBRANCH   5  13
BRANCH   3  21
HETATM   21  O2  UNL     1      -5.396 -21.790   7.831  1.00  0.00    -0.389 OA
ATOM     22  H2  UNL     1      -5.095 -21.843   6.932  1.00  0.00     0.210 HD
ENDBRANCH   3  21
BRANCH   1  23
HETATM   23  O1  UNL     1      -3.454 -20.819  11.952  1.00  0.00    -0.381 OA
BRANCH  23  24
HETATM   24  C2  UNL     1      -3.305 -21.121  13.146  1.00  0.00     0.113 C 
HETATM   25  C1  UNL     1      -3.680 -20.037  14.205  1.00  0.00     0.039 C 
HETATM   26  C3  UNL     1      -4.303 -22.260  13.521  1.00  0.00     0.039 C 
ENDBRANCH  23  24
ENDBRANCH   1  23
TORSDOF 5
ENDMDL
MODEL 4
REMARK VINA RESULT: -5.937846924      2.339      2.873
REMARK  5 active torsions:
REMARK  status: ('A' for Active; 'I' for Inactive)
REMARK    1  A    between atoms: C2_2  and  O1_4 
REMARK    2  A    between atoms: O1_4  and  C4_5 
REMARK    3  A    between atoms: C6_7  and  O2_9 
REMARK    4  A    between atoms: C8_11  and  C9_12 
REMARK       I    between atoms: N1_13  and  C10_15 
REMARK    5  A    between atoms: C10_15  and  C11_17 
ROOT
HETATM    1  C4  UNL     1      -0.171 -14.364   9.336  1.00  0.00     0.129 C 
HETATM    2  C5  UNL     1       1.010 -15.135   8.686  1.00  0.00     0.070 C 
HETATM    3  C6  UNL     1       2.111 -14.110   8.576  1.00  0.00     0.065 C 
HETATM    4  C7  UNL     1       2.554 -13.760   9.966  1.00  0.00     0.046 C 
HETATM    5  C8  UNL     1       1.754 -12.929   7.729  1.00  0.00     0.064 C 
HETATM    6  C14 UNL     1       0.339 -12.516   7.749  1.00  0.00     0.023 C 
HETATM    7  C15 UNL     1       0.030 -11.336   8.660  1.00  0.00     0.091 C 
HETATM    8 CL1  UNL     1       0.687  -9.822   7.990  1.00  0.00    -0.124 Cl
HETATM    9  C16 UNL     1      -1.494 -11.262   8.492  1.00  0.00     0.001 C 
HETATM   10  C17 UNL     1      -2.112 -10.411   9.567  1.00  0.00     0.011 C 
HETATM   11  C18 UNL     1      -1.874 -12.722   8.624  1.00  0.00     0.013 C 
HETATM   12  C19 UNL     1      -0.662 -13.519   8.154  1.00  0.00     0.021 C 
ENDROOT
BRANCH   5  13
HETATM   13  C9  UNL     1       2.708 -11.839   8.065  1.00  0.00     0.072 C 
HETATM   14  N1  UNL     1       3.851 -11.705   7.480  1.00  0.00    -0.340 N 
HETATM   15  C10 UNL     1       4.761 -10.674   7.795  1.00  0.00     0.224 C 
ATOM     16  H1  UNL     1       4.108 -12.376   6.756  1.00  0.00     0.167 HD
HETATM   17  O3  UNL     1       4.499  -9.892   8.757  1.00  0.00    -0.273 OA
BRANCH  15  18
HETATM   18  C11 UNL     1       5.986 -10.519   7.014  1.00  0.00     0.070 C 
HETATM   19  C12 UNL     1       6.320 -11.738   6.184  1.00  0.00     0.019 C 
HETATM   20  C13 UNL     1       5.879  -9.326   6.079  1.00  0.00     0.019 C 
ENDBRANCH  15  18
ENDBRANCH   5  13
BRANCH   3  21
HETATM   21  O2  UNL     1       3.203 -14.785   7.978  1.00  0.00    -0.389 OA
ATOM     22  H2  UNL     1       3.970 -14.263   8.183  1.00  0.00     0.210 HD
ENDBRANCH   3  21
BRANCH   1  23
HETATM   23  O1  UNL     1      -0.991 -15.022   9.991  1.00  0.00    -0.381 OA
BRANCH  23  24
HETATM   24  C2  UNL     1      -1.815 -15.679  10.644  1.00  0.00     0.113 C 
HETATM   25  C1  UNL     1      -1.247 -16.708  11.673  1.00  0.00     0.039 C 
HETATM   26  C3  UNL     1      -2.610 -14.725  11.587  1.00  0.00     0.039 C 
ENDBRANCH  23  24
ENDBRANCH   1  23
TORSDOF 5
ENDMDL
MODEL 5
REMARK VINA RESULT: -5.880327540      2.289      2.824
REMARK  5 active torsions:
REMARK  status: ('A' for Active; 'I' for Inactive)
REMARK    1  A    between atoms: C2_2  and  O1_4 
REMARK    2  A    between atoms: O1_4  and  C4_5 
REMARK    3  A    between atoms: C6_7  and  O2_9 
REMARK    4  A    between atoms: C8_11  and  C9_12 
REMARK       I    between atoms: N1_13  and  C10_15 
REMARK    5  A    between atoms: C10_15  and  C11_17 
ROOT
HETATM    1  C4  UNL     1       0.171 -14.478   9.619  1.00  0.00     0.129 C 
HETATM    2  C5  UNL     1       1.379 -15.279   9.063  1.00  0.00     0.070 C 
HETATM    3  C6  UNL     1       2.450 -14.238   8.847  1.00  0.00     0.065 C 
HETATM    4  C7  UNL     1       2.871 -13.726  10.193  1.00  0.00     0.046 C 
HETATM    5  C8  UNL     1       2.064 -13.168   7.874  1.00  0.00     0.064 C 
HETATM    6  C14 UNL     1       0.638 -12.799   7.843  1.00  0.00     0.023 C 
HETATM    7  C15 UNL     1       0.286 -11.537   8.618  1.00  0.00     0.091 C 
HETATM    8 CL1  UNL     1       0.903 -10.085   7.791  1.00  0.00    -0.124 Cl
HETATM    9  C16 UNL     1      -1.238 -11.528   8.436  1.00  0.00     0.001 C 
HETATM   10  C17 UNL     1      -1.889 -10.585   9.409  1.00  0.00     0.011 C 
HETATM   11  C18 UNL     1      -1.575 -12.976   8.724  1.00  0.00     0.013 C 
HETATM   12  C19 UNL     1      -0.336 -13.782   8.351  1.00  0.00     0.021 C 
ENDROOT
BRANCH   5  13
HETATM   13  C9  UNL     1       2.983 -12.019   8.094  1.00  0.00     0.072 C 
HETATM   14  N1  UNL     1       4.001 -11.783   7.337  1.00  0.00    -0.340 N 
HETATM   15  C10 UNL     1       4.876 -10.695   7.540  1.00  0.00     0.224 C 
ATOM     16  H1  UNL     1       4.181 -12.412   6.554  1.00  0.00     0.167 HD
HETATM   17  O3  UNL     1       4.723  -9.963   8.563  1.00  0.00    -0.273 OA
BRANCH  15  18
HETATM   18  C11 UNL     1       5.942 -10.426   6.577  1.00  0.00     0.070 C 
HETATM   19  C12 UNL     1       7.068  -9.597   7.154  1.00  0.00     0.019 C 
HETATM   20  C13 UNL     1       6.532 -11.725   6.054  1.00  0.00     0.019 C 
ENDBRANCH  15  18
ENDBRANCH   5  13
BRANCH   3  21
HETATM   21  O2  UNL     1       3.566 -14.940   8.331  1.00  0.00    -0.389 OA
ATOM     22  H2  UNL     1       3.881 -15.483   9.044  1.00  0.00     0.210 HD
ENDBRANCH   3  21
BRANCH   1  23
HETATM   23  O1  UNL     1      -0.635 -15.085  10.338  1.00  0.00    -0.381 OA
BRANCH  23  24
HETATM   24  C2  UNL     1      -1.439 -15.695  11.059  1.00  0.00     0.113 C 
HETATM   25  C1  UNL     1      -2.777 -14.968  11.404  1.00  0.00     0.039 C 
HETATM   26  C3  UNL     1      -1.970 -16.948  10.299  1.00  0.00     0.039 C 
ENDBRANCH  23  24
ENDBRANCH   1  23
TORSDOF 5
ENDMDL
