MODEL 1
REMARK VINA RESULT: -3.953335937      0.000      0.000
REMARK  3 active torsions:
REMARK  status: ('A' for Active; 'I' for Inactive)
REMARK    1  A    between atoms: N2_6  and  N3_7 
REMARK    2  A    between atoms: C4_10  and  N4_11 
REMARK    3  A    between atoms: N4_11  and  O2_12 
ROOT
HETATM    1  C1  UNL     1     -80.907  84.353  91.908  1.00  0.00     0.316 C 
HETATM    2  N1  UNL     1     -79.686  85.098  91.824  1.00  0.00     0.144 N 
HETATM    3  C2  UNL     1     -79.795  86.389  92.418  1.00  0.00     0.445 C 
HETATM    4  O1  UNL     1     -78.593  86.972  92.761  1.00  0.00    -0.346 OA
HETATM    5  C3  UNL     1     -77.798  86.185  93.555  1.00  0.00     0.286 C 
HETATM    6  N2  UNL     1     -78.157  84.789  93.555  1.00  0.00    -0.165 NA
HETATM    7  C4  UNL     1     -78.529  84.349  92.222  1.00  0.00     0.441 C 
ENDROOT
BRANCH   6   8
HETATM    8  N3  UNL     1     -77.103  84.076  94.094  1.00  0.00    -0.358 NA
ATOM      9  H32 UNL     1     -76.522  84.628  94.725  1.00  0.00     0.171 HD
ATOM     10  H31 UNL     1     -77.485  83.259  94.570  1.00  0.00     0.171 HD
ENDBRANCH   6   8
BRANCH   7  11
HETATM   11  N4  UNL     1     -77.475  84.612  91.268  1.00  0.00    -0.049 NA
BRANCH  11  12
HETATM   12  O2  UNL     1     -77.721  83.867  90.177  1.00  0.00    -0.293 OA
ATOM     13  H2  UNL     1     -78.656  83.903  90.011  1.00  0.00     0.238 HD
ENDBRANCH  11  12
ENDBRANCH   7  11
TORSDOF 3
ENDMDL
MODEL 2
REMARK VINA RESULT: -3.922249229      3.197      3.919
REMARK  3 active torsions:
REMARK  status: ('A' for Active; 'I' for Inactive)
REMARK    1  A    between atoms: N2_6  and  N3_7 
REMARK    2  A    between atoms: C4_10  and  N4_11 
REMARK    3  A    between atoms: N4_11  and  O2_12 
ROOT
HETATM    1  C1  UNL     1     -78.304  85.485  93.290  1.00  0.00     0.316 C 
HETATM    2  N1  UNL     1     -77.835  86.637  94.002  1.00  0.00     0.144 N 
HETATM    3  C2  UNL     1     -78.895  87.509  94.385  1.00  0.00     0.445 C 
HETATM    4  O1  UNL     1     -78.590  88.374  95.415  1.00  0.00    -0.346 OA
HETATM    5  C3  UNL     1     -78.096  87.756  96.536  1.00  0.00     0.286 C 
HETATM    6  N2  UNL     1     -77.616  86.416  96.311  1.00  0.00    -0.165 NA
HETATM    7  C4  UNL     1     -76.905  86.324  95.049  1.00  0.00     0.441 C 
ENDROOT
BRANCH   6   8
HETATM    8  N3  UNL     1     -76.850  86.047  97.400  1.00  0.00    -0.358 NA
ATOM      9  H32 UNL     1     -75.850  86.196  97.260  1.00  0.00     0.171 HD
ATOM     10  H31 UNL     1     -77.185  86.565  98.212  1.00  0.00     0.171 HD
ENDBRANCH   6   8
BRANCH   7  11
HETATM   11  N4  UNL     1     -75.821  87.279  94.985  1.00  0.00    -0.049 NA
BRANCH  11  12
HETATM   12  O2  UNL     1     -74.689  86.628  95.304  1.00  0.00    -0.293 OA
ATOM     13  H2  UNL     1     -73.961  87.203  95.097  1.00  0.00     0.238 HD
ENDBRANCH  11  12
ENDBRANCH   7  11
TORSDOF 3
ENDMDL
MODEL 3
REMARK VINA RESULT: -3.766657721      2.297      3.443
REMARK  3 active torsions:
REMARK  status: ('A' for Active; 'I' for Inactive)
REMARK    1  A    between atoms: N2_6  and  N3_7 
REMARK    2  A    between atoms: C4_10  and  N4_11 
REMARK    3  A    between atoms: N4_11  and  O2_12 
ROOT
HETATM    1  C1  UNL     1     -80.715  87.166  90.322  1.00  0.00     0.316 C 
HETATM    2  N1  UNL     1     -80.530  86.189  91.354  1.00  0.00     0.144 N 
HETATM    3  C2  UNL     1     -79.434  85.318  91.088  1.00  0.00     0.445 C 
HETATM    4  O1  UNL     1     -78.933  84.663  92.194  1.00  0.00    -0.346 OA
HETATM    5  C3  UNL     1     -78.597  85.496  93.231  1.00  0.00     0.286 C 
HETATM    6  N2  UNL     1     -79.180  86.812  93.148  1.00  0.00    -0.165 NA
HETATM    7  C4  UNL     1     -80.552  86.742  92.678  1.00  0.00     0.441 C 
ENDROOT
BRANCH   6   8
HETATM    8  N3  UNL     1     -79.055  87.414  94.386  1.00  0.00    -0.358 NA
ATOM      9  H32 UNL     1     -78.386  86.946  94.998  1.00  0.00     0.171 HD
ATOM     10  H31 UNL     1     -78.793  88.388  94.238  1.00  0.00     0.171 HD
ENDBRANCH   6   8
BRANCH   7  11
HETATM   11  N4  UNL     1     -81.351  85.873  93.513  1.00  0.00    -0.049 NA
BRANCH  11  12
HETATM   12  O2  UNL     1     -82.015  86.649  94.387  1.00  0.00    -0.293 OA
ATOM     13  H2  UNL     1     -82.038  87.529  94.028  1.00  0.00     0.238 HD
ENDBRANCH  11  12
ENDBRANCH   7  11
TORSDOF 3
ENDMDL
MODEL 4
REMARK VINA RESULT: -3.702052629      3.745      5.071
REMARK  3 active torsions:
REMARK  status: ('A' for Active; 'I' for Inactive)
REMARK    1  A    between atoms: N2_6  and  N3_7 
REMARK    2  A    between atoms: C4_10  and  N4_11 
REMARK    3  A    between atoms: N4_11  and  O2_12 
ROOT
HETATM    1  C1  UNL     1     -78.160  89.842  96.327  1.00  0.00     0.316 C 
HETATM    2  N1  UNL     1     -78.394  88.439  96.149  1.00  0.00     0.144 N 
HETATM    3  C2  UNL     1     -79.048  88.149  94.915  1.00  0.00     0.445 C 
HETATM    4  O1  UNL     1     -78.915  86.847  94.482  1.00  0.00    -0.346 OA
HETATM    5  C3  UNL     1     -77.616  86.413  94.409  1.00  0.00     0.286 C 
HETATM    6  N2  UNL     1     -76.679  87.216  95.154  1.00  0.00    -0.165 NA
HETATM    7  C4  UNL     1     -77.245  87.627  96.426  1.00  0.00     0.441 C 
ENDROOT
BRANCH   6   8
HETATM    8  N3  UNL     1     -75.506  86.497  95.282  1.00  0.00    -0.358 NA
ATOM      9  H32 UNL     1     -74.770  87.008  95.771  1.00  0.00     0.171 HD
ATOM     10  H31 UNL     1     -75.721  85.623  95.760  1.00  0.00     0.171 HD
ENDBRANCH   6   8
BRANCH   7  11
HETATM   11  N4  UNL     1     -77.679  86.486  97.201  1.00  0.00    -0.049 NA
BRANCH  11  12
HETATM   12  O2  UNL     1     -76.616  86.036  97.889  1.00  0.00    -0.293 OA
ATOM     13  H2  UNL     1     -76.625  86.461  98.739  1.00  0.00     0.238 HD
ENDBRANCH  11  12
ENDBRANCH   7  11
TORSDOF 3
ENDMDL
MODEL 5
REMARK VINA RESULT: -3.647097852      7.404      8.478
REMARK  3 active torsions:
REMARK  status: ('A' for Active; 'I' for Inactive)
REMARK    1  A    between atoms: N2_6  and  N3_7 
REMARK    2  A    between atoms: C4_10  and  N4_11 
REMARK    3  A    between atoms: N4_11  and  O2_12 
ROOT
HETATM    1  C1  UNL     1     -73.924  87.079  96.850  1.00  0.00     0.316 C 
HETATM    2  N1  UNL     1     -72.567  87.251  96.424  1.00  0.00     0.144 N 
HETATM    3  C2  UNL     1     -71.905  88.299  97.128  1.00  0.00     0.445 C 
HETATM    4  O1  UNL     1     -70.527  88.238  97.095  1.00  0.00    -0.346 OA
HETATM    5  C3  UNL     1     -70.012  87.034  97.503  1.00  0.00     0.286 C 
HETATM    6  N2  UNL     1     -70.963  85.951  97.504  1.00  0.00    -0.165 NA
HETATM    7  C4  UNL     1     -71.831  86.023  96.342  1.00  0.00     0.441 C 
ENDROOT
BRANCH   6   8
HETATM    8  N3  UNL     1     -70.261  84.764  97.592  1.00  0.00    -0.358 NA
ATOM      9  H32 UNL     1     -69.930  84.559  98.534  1.00  0.00     0.171 HD
ATOM     10  H31 UNL     1     -70.861  84.016  97.245  1.00  0.00     0.171 HD
ENDBRANCH   6   8
BRANCH   7  11
HETATM   11  N4  UNL     1     -71.067  86.039  95.115  1.00  0.00    -0.049 NA
BRANCH  11  12
HETATM   12  O2  UNL     1     -71.321  84.890  94.464  1.00  0.00    -0.293 OA
ATOM     13  H2  UNL     1     -70.716  84.235  94.793  1.00  0.00     0.238 HD
ENDBRANCH  11  12
ENDBRANCH   7  11
TORSDOF 3
ENDMDL
