MODEL 1
REMARK VINA RESULT: -8.075046915      0.000      0.000
REMARK  10 active torsions:
REMARK  status: ('A' for Active; 'I' for Inactive)
REMARK    1  A    between atoms: C2_2  and  N1_3 
REMARK    2  A    between atoms: C4_8  and  C5_9 
REMARK    3  A    between atoms: C6_10  and  C7_11 
REMARK    4  A    between atoms: C7_11  and  C8_12 
REMARK    5  A    between atoms: C8_12  and  C9_13 
REMARK    6  A    between atoms: N6_23  and  C14_24 
REMARK    7  A    between atoms: C15_26  and  C16_27 
REMARK    8  A    between atoms: C16_27  and  S1_28 
REMARK    9  A    between atoms: S1_28  and  C17_29 
REMARK   10  A    between atoms: C21_36  and  O2_37 
ROOT
HETATM    1  C9  UNL     1      -4.827 -17.620  28.409  1.00  0.00     0.124 C 
HETATM    2  C10 UNL     1      -4.271 -18.882  28.858  1.00  0.00     0.059 C 
HETATM    3  N3  UNL     1      -3.835 -19.909  29.227  1.00  0.00    -0.197 NA
ENDROOT
BRANCH   1   4
HETATM    4  C8  UNL     1      -6.109 -17.283  29.171  1.00  0.00     0.026 C 
BRANCH   4   5
HETATM    5  C7  UNL     1      -6.755 -16.076  28.519  1.00  0.00     0.095 C 
BRANCH   5   6
HETATM    6  C6  UNL     1      -5.885 -14.927  28.833  1.00  0.00    -0.098 C 
HETATM    7  C5  UNL     1      -5.173 -13.989  29.083  1.00  0.00    -0.030 C 
BRANCH   7   8
HETATM    8  C4  UNL     1      -4.298 -12.874  29.376  1.00  0.00     0.164 A 
HETATM    9  N2  UNL     1      -4.459 -12.201  30.522  1.00  0.00    -0.320 N 
HETATM   10  C3  UNL     1      -3.683 -11.133  30.888  1.00  0.00     0.134 A 
ATOM     11  H2  UNL     1      -5.200 -12.499  31.157  1.00  0.00     0.169 HD
HETATM   12  N1  UNL     1      -3.872 -10.529  31.980  1.00  0.00    -0.375 N 
HETATM   13  C12 UNL     1      -2.685 -10.741  30.019  1.00  0.00     0.122 A 
ATOM     14  H1  UNL     1      -4.624 -10.862  32.583  1.00  0.00     0.161 HD
HETATM   15  C11 UNL     1      -2.553 -11.461  28.850  1.00  0.00     0.143 A 
HETATM   16  N5  UNL     1      -1.738  -9.756  30.032  1.00  0.00    -0.346 N 
HETATM   17  N4  UNL     1      -3.326 -12.503  28.513  1.00  0.00    -0.319 N 
HETATM   18  N6  UNL     1      -1.536 -10.907  28.176  1.00  0.00    -0.295 N 
ATOM     19  H4  UNL     1      -3.185 -13.000  27.634  1.00  0.00     0.169 HD
HETATM   20  C13 UNL     1      -1.052  -9.871  28.910  1.00  0.00     0.188 A 
ATOM     21  H5  UNL     1      -1.591  -9.065  30.767  1.00  0.00     0.167 HD
BRANCH  12  22
HETATM   22  C2  UNL     1      -3.113  -9.423  32.423  1.00  0.00     0.116 C 
HETATM   23  C1  UNL     1      -2.315  -9.738  33.686  1.00  0.00     0.026 C 
ENDBRANCH  12  22
BRANCH  18  24
HETATM   24  C14 UNL     1      -0.993 -11.273  26.907  1.00  0.00     0.289 C 
HETATM   25  O1  UNL     1      -1.145 -12.621  26.591  1.00  0.00    -0.328 OA
HETATM   26  C15 UNL     1      -0.099 -12.951  25.744  1.00  0.00     0.335 C 
HETATM   27  N7  UNL     1       0.914 -11.939  25.835  1.00  0.00    -0.018 N 
HETATM   28  C21 UNL     1       0.530 -11.207  27.030  1.00  0.00     0.371 C 
ATOM     29  H72 UNL     1       1.871 -12.292  25.840  1.00  0.00     0.283 HD
ATOM     30  H71 UNL     1       1.022 -11.365  24.998  1.00  0.00     0.283 HD
BRANCH  26  31
HETATM   31  C16 UNL     1      -0.546 -13.045  24.295  1.00  0.00     0.136 C 
BRANCH  31  32
HETATM   32  S1  UNL     1      -1.349 -14.644  24.074  1.00  0.00    -0.156 SA
BRANCH  32  33
HETATM   33  C17 UNL     1      -3.112 -14.598  24.434  1.00  0.00    -0.003 C 
HETATM   34  C18 UNL     1      -3.455 -15.502  25.601  1.00  0.00     0.026 C 
HETATM   35  C19 UNL     1      -3.851 -15.122  23.220  1.00  0.00     0.026 C 
HETATM   36  C20 UNL     1      -3.612 -13.202  24.710  1.00  0.00     0.026 C 
ENDBRANCH  32  33
ENDBRANCH  31  32
ENDBRANCH  26  31
BRANCH  28  37
HETATM   37  O2  UNL     1       0.935 -11.901  28.143  1.00  0.00    -0.366 OA
ATOM     38  H2  UNL     1       1.828 -11.660  28.363  1.00  0.00     0.212 HD
ENDBRANCH  28  37
ENDBRANCH  18  24
ENDBRANCH   7   8
ENDBRANCH   5   6
ENDBRANCH   4   5
ENDBRANCH   1   4
TORSDOF 10
ENDMDL
MODEL 2
REMARK VINA RESULT: -8.072944871      1.080      1.152
REMARK  10 active torsions:
REMARK  status: ('A' for Active; 'I' for Inactive)
REMARK    1  A    between atoms: C2_2  and  N1_3 
REMARK    2  A    between atoms: C4_8  and  C5_9 
REMARK    3  A    between atoms: C6_10  and  C7_11 
REMARK    4  A    between atoms: C7_11  and  C8_12 
REMARK    5  A    between atoms: C8_12  and  C9_13 
REMARK    6  A    between atoms: N6_23  and  C14_24 
REMARK    7  A    between atoms: C15_26  and  C16_27 
REMARK    8  A    between atoms: C16_27  and  S1_28 
REMARK    9  A    between atoms: S1_28  and  C17_29 
REMARK   10  A    between atoms: C21_36  and  O2_37 
ROOT
HETATM    1  C9  UNL     1      -5.157 -17.777  28.498  1.00  0.00     0.124 C 
HETATM    2  C10 UNL     1      -4.455 -18.958  28.961  1.00  0.00     0.059 C 
HETATM    3  N3  UNL     1      -3.899 -19.921  29.342  1.00  0.00    -0.197 NA
ENDROOT
BRANCH   1   4
HETATM    4  C8  UNL     1      -6.444 -17.555  29.293  1.00  0.00     0.026 C 
BRANCH   4   5
HETATM    5  C7  UNL     1      -7.085 -16.264  28.825  1.00  0.00     0.095 C 
BRANCH   5   6
HETATM    6  C6  UNL     1      -6.064 -15.215  28.996  1.00  0.00    -0.098 C 
HETATM    7  C5  UNL     1      -5.228 -14.358  29.131  1.00  0.00    -0.030 C 
BRANCH   7   8
HETATM    8  C4  UNL     1      -4.206 -13.346  29.289  1.00  0.00     0.164 A 
HETATM    9  N2  UNL     1      -4.285 -12.493  30.318  1.00  0.00    -0.320 N 
HETATM   10  C3  UNL     1      -3.368 -11.501  30.551  1.00  0.00     0.134 A 
ATOM     11  H2  UNL     1      -5.070 -12.586  30.962  1.00  0.00     0.169 HD
HETATM   12  N1  UNL     1      -3.485 -10.720  31.535  1.00  0.00    -0.375 N 
HETATM   13  C12 UNL     1      -2.311 -11.389  29.671  1.00  0.00     0.122 A 
ATOM     14  H1  UNL     1      -4.285 -10.851  32.153  1.00  0.00     0.161 HD
HETATM   15  C11 UNL     1      -2.268 -12.287  28.625  1.00  0.00     0.143 A 
HETATM   16  N5  UNL     1      -1.233 -10.556  29.573  1.00  0.00    -0.346 N 
HETATM   17  N4  UNL     1      -3.178 -13.249  28.416  1.00  0.00    -0.319 N 
HETATM   18  N6  UNL     1      -1.172 -11.989  27.914  1.00  0.00    -0.295 N 
ATOM     19  H4  UNL     1      -3.097 -13.887  27.625  1.00  0.00     0.169 HD
HETATM   20  C13 UNL     1      -0.554 -10.933  28.506  1.00  0.00     0.188 A 
ATOM     21  H5  UNL     1      -0.999  -9.789  30.204  1.00  0.00     0.167 HD
BRANCH  12  22
HETATM   22  C2  UNL     1      -2.581  -9.678  31.839  1.00  0.00     0.116 C 
HETATM   23  C1  UNL     1      -2.325  -9.553  33.339  1.00  0.00     0.026 C 
ENDBRANCH  12  22
BRANCH  18  24
HETATM   24  C14 UNL     1      -0.668 -12.613  26.732  1.00  0.00     0.289 C 
HETATM   25  O1  UNL     1      -1.374 -13.751  26.347  1.00  0.00    -0.328 OA
HETATM   26  C15 UNL     1      -0.479 -14.558  25.661  1.00  0.00     0.335 C 
HETATM   27  N7  UNL     1       0.858 -14.124  25.947  1.00  0.00    -0.018 N 
HETATM   28  C21 UNL     1       0.674 -13.251  27.094  1.00  0.00     0.371 C 
ATOM     29  H72 UNL     1       1.530 -14.878  26.088  1.00  0.00     0.283 HD
ATOM     30  H71 UNL     1       1.346 -13.698  25.160  1.00  0.00     0.283 HD
BRANCH  26  31
HETATM   31  C16 UNL     1      -0.688 -14.493  24.158  1.00  0.00     0.136 C 
BRANCH  31  32
HETATM   32  S1  UNL     1      -1.577 -15.982  23.664  1.00  0.00    -0.156 SA
BRANCH  32  33
HETATM   33  C17 UNL     1      -3.355 -15.853  23.917  1.00  0.00    -0.003 C 
HETATM   34  C18 UNL     1      -3.740 -16.283  25.318  1.00  0.00     0.026 C 
HETATM   35  C19 UNL     1      -4.036 -16.795  22.947  1.00  0.00     0.026 C 
HETATM   36  C20 UNL     1      -3.879 -14.463  23.652  1.00  0.00     0.026 C 
ENDBRANCH  32  33
ENDBRANCH  31  32
ENDBRANCH  26  31
BRANCH  28  37
HETATM   37  O2  UNL     1       0.535 -14.010  28.230  1.00  0.00    -0.366 OA
ATOM     38  H2  UNL     1       0.692 -13.471  28.996  1.00  0.00     0.212 HD
ENDBRANCH  28  37
ENDBRANCH  18  24
ENDBRANCH   7   8
ENDBRANCH   5   6
ENDBRANCH   4   5
ENDBRANCH   1   4
TORSDOF 10
ENDMDL
MODEL 3
REMARK VINA RESULT: -7.822251393      1.628      2.131
REMARK  10 active torsions:
REMARK  status: ('A' for Active; 'I' for Inactive)
REMARK    1  A    between atoms: C2_2  and  N1_3 
REMARK    2  A    between atoms: C4_8  and  C5_9 
REMARK    3  A    between atoms: C6_10  and  C7_11 
REMARK    4  A    between atoms: C7_11  and  C8_12 
REMARK    5  A    between atoms: C8_12  and  C9_13 
REMARK    6  A    between atoms: N6_23  and  C14_24 
REMARK    7  A    between atoms: C15_26  and  C16_27 
REMARK    8  A    between atoms: C16_27  and  S1_28 
REMARK    9  A    between atoms: S1_28  and  C17_29 
REMARK   10  A    between atoms: C21_36  and  O2_37 
ROOT
HETATM    1  C9  UNL     1      -8.072 -15.374  30.704  1.00  0.00     0.124 C 
HETATM    2  C10 UNL     1      -9.184 -15.929  31.451  1.00  0.00     0.059 C 
HETATM    3  N3  UNL     1     -10.077 -16.393  32.058  1.00  0.00    -0.197 NA
ENDROOT
BRANCH   1   4
HETATM    4  C8  UNL     1      -7.309 -16.470  29.960  1.00  0.00     0.026 C 
BRANCH   4   5
HETATM    5  C7  UNL     1      -6.865 -15.923  28.617  1.00  0.00     0.095 C 
BRANCH   5   6
HETATM    6  C6  UNL     1      -5.967 -14.792  28.913  1.00  0.00    -0.098 C 
HETATM    7  C5  UNL     1      -5.230 -13.869  29.149  1.00  0.00    -0.030 C 
BRANCH   7   8
HETATM    8  C4  UNL     1      -4.327 -12.773  29.429  1.00  0.00     0.164 A 
HETATM    9  N2  UNL     1      -4.468 -12.085  30.569  1.00  0.00    -0.320 N 
HETATM   10  C3  UNL     1      -3.664 -11.033  30.922  1.00  0.00     0.134 A 
ATOM     11  H2  UNL     1      -5.214 -12.358  31.208  1.00  0.00     0.169 HD
HETATM   12  N1  UNL     1      -3.835 -10.414  32.008  1.00  0.00    -0.375 N 
HETATM   13  C12 UNL     1      -2.658 -10.676  30.047  1.00  0.00     0.122 A 
ATOM     14  H1  UNL     1      -4.593 -10.723  32.617  1.00  0.00     0.161 HD
HETATM   15  C11 UNL     1      -2.548 -11.411  28.885  1.00  0.00     0.143 A 
HETATM   16  N5  UNL     1      -1.687  -9.716  30.047  1.00  0.00    -0.346 N 
HETATM   17  N4  UNL     1      -3.348 -12.436  28.560  1.00  0.00    -0.319 N 
HETATM   18  N6  UNL     1      -1.520 -10.890  28.202  1.00  0.00    -0.295 N 
ATOM     19  H4  UNL     1      -3.222 -12.945  27.685  1.00  0.00     0.169 HD
HETATM   20  C13 UNL     1      -1.007  -9.859  28.925  1.00  0.00     0.188 A 
ATOM     21  H5  UNL     1      -1.520  -9.021  30.775  1.00  0.00     0.167 HD
BRANCH  12  22
HETATM   22  C2  UNL     1      -3.046  -9.324  32.438  1.00  0.00     0.116 C 
HETATM   23  C1  UNL     1      -2.215  -9.662  33.673  1.00  0.00     0.026 C 
ENDBRANCH  12  22
BRANCH  18  24
HETATM   24  C14 UNL     1      -0.989 -11.282  26.935  1.00  0.00     0.289 C 
HETATM   25  O1  UNL     1      -1.127 -12.640  26.657  1.00  0.00    -0.328 OA
HETATM   26  C15 UNL     1      -0.088 -12.978  25.804  1.00  0.00     0.335 C 
HETATM   27  N7  UNL     1       0.912 -11.951  25.854  1.00  0.00    -0.018 N 
HETATM   28  C21 UNL     1       0.534 -11.192  27.034  1.00  0.00     0.371 C 
ATOM     29  H72 UNL     1       1.873 -12.291  25.855  1.00  0.00     0.283 HD
ATOM     30  H71 UNL     1       0.999 -11.398  25.001  1.00  0.00     0.283 HD
BRANCH  26  31
HETATM   31  C16 UNL     1      -0.555 -13.116  24.365  1.00  0.00     0.136 C 
BRANCH  31  32
HETATM   32  S1  UNL     1      -1.364 -14.720  24.205  1.00  0.00    -0.156 SA
BRANCH  32  33
HETATM   33  C17 UNL     1      -3.149 -14.628  24.426  1.00  0.00    -0.003 C 
HETATM   34  C18 UNL     1      -3.588 -13.213  24.744  1.00  0.00     0.026 C 
HETATM   35  C19 UNL     1      -3.519 -15.498  25.609  1.00  0.00     0.026 C 
HETATM   36  C20 UNL     1      -3.909 -15.136  23.226  1.00  0.00     0.026 C 
ENDBRANCH  32  33
ENDBRANCH  31  32
ENDBRANCH  26  31
BRANCH  28  37
HETATM   37  O2  UNL     1       0.965 -11.851  28.160  1.00  0.00    -0.366 OA
ATOM     38  H2  UNL     1       1.770 -12.318  27.970  1.00  0.00     0.212 HD
ENDBRANCH  28  37
ENDBRANCH  18  24
ENDBRANCH   7   8
ENDBRANCH   5   6
ENDBRANCH   4   5
ENDBRANCH   1   4
TORSDOF 10
ENDMDL
MODEL 4
REMARK VINA RESULT: -7.709841614      2.804      4.925
REMARK  10 active torsions:
REMARK  status: ('A' for Active; 'I' for Inactive)
REMARK    1  A    between atoms: C2_2  and  N1_3 
REMARK    2  A    between atoms: C4_8  and  C5_9 
REMARK    3  A    between atoms: C6_10  and  C7_11 
REMARK    4  A    between atoms: C7_11  and  C8_12 
REMARK    5  A    between atoms: C8_12  and  C9_13 
REMARK    6  A    between atoms: N6_23  and  C14_24 
REMARK    7  A    between atoms: C15_26  and  C16_27 
REMARK    8  A    between atoms: C16_27  and  S1_28 
REMARK    9  A    between atoms: S1_28  and  C17_29 
REMARK   10  A    between atoms: C21_36  and  O2_37 
ROOT
HETATM    1  C9  UNL     1      -3.577 -15.439  24.142  1.00  0.00     0.124 C 
HETATM    2  C10 UNL     1      -3.139 -15.605  22.770  1.00  0.00     0.059 C 
HETATM    3  N3  UNL     1      -2.781 -15.756  21.661  1.00  0.00    -0.197 NA
ENDROOT
BRANCH   1   4
HETATM    4  C8  UNL     1      -2.986 -16.523  25.044  1.00  0.00     0.026 C 
BRANCH   4   5
HETATM    5  C7  UNL     1      -4.122 -17.239  25.747  1.00  0.00     0.095 C 
BRANCH   5   6
HETATM    6  C6  UNL     1      -4.629 -16.299  26.764  1.00  0.00    -0.098 C 
HETATM    7  C5  UNL     1      -5.048 -15.529  27.591  1.00  0.00    -0.030 C 
BRANCH   7   8
HETATM    8  C4  UNL     1      -5.545 -14.587  28.570  1.00  0.00     0.164 A 
HETATM    9  N2  UNL     1      -6.664 -14.875  29.246  1.00  0.00    -0.320 N 
HETATM   10  C3  UNL     1      -7.212 -14.048  30.191  1.00  0.00     0.134 A 
ATOM     11  H2  UNL     1      -7.134 -15.758  29.046  1.00  0.00     0.169 HD
HETATM   12  N1  UNL     1      -8.270 -14.363  30.802  1.00  0.00    -0.375 N 
HETATM   13  C12 UNL     1      -6.564 -12.857  30.450  1.00  0.00     0.122 A 
ATOM     14  H1  UNL     1      -8.705 -15.256  30.570  1.00  0.00     0.161 HD
HETATM   15  C11 UNL     1      -5.415 -12.599  29.732  1.00  0.00     0.143 A 
HETATM   16  N5  UNL     1      -6.796 -11.807  31.292  1.00  0.00    -0.346 N 
HETATM   17  N4  UNL     1      -4.898 -13.424  28.811  1.00  0.00    -0.319 N 
HETATM   18  N6  UNL     1      -4.969 -11.406  30.147  1.00  0.00    -0.295 N 
ATOM     19  H4  UNL     1      -4.044 -13.182  28.309  1.00  0.00     0.169 HD
HETATM   20  C13 UNL     1      -5.821 -10.939  31.097  1.00  0.00     0.188 A 
ATOM     21  H5  UNL     1      -7.573 -11.713  31.947  1.00  0.00     0.167 HD
BRANCH  12  22
HETATM   22  C2  UNL     1      -8.892 -13.563  31.787  1.00  0.00     0.116 C 
HETATM   23  C1  UNL     1     -10.397 -13.805  31.863  1.00  0.00     0.026 C 
ENDBRANCH  12  22
BRANCH  18  24
HETATM   24  C14 UNL     1      -3.816 -10.678  29.721  1.00  0.00     0.289 C 
HETATM   25  O1  UNL     1      -2.821 -11.472  29.154  1.00  0.00    -0.328 OA
HETATM   26  C15 UNL     1      -1.618 -10.822  29.380  1.00  0.00     0.335 C 
HETATM   27  N7  UNL     1      -1.803  -9.838  30.407  1.00  0.00    -0.018 N 
HETATM   28  C21 UNL     1      -3.086 -10.209  30.980  1.00  0.00     0.371 C 
ATOM     29  H72 UNL     1      -1.038  -9.773  31.078  1.00  0.00     0.283 HD
ATOM     30  H71 UNL     1      -1.741  -8.870  30.088  1.00  0.00     0.283 HD
BRANCH  26  31
HETATM   31  C16 UNL     1      -1.109 -10.116  28.134  1.00  0.00     0.136 C 
BRANCH  31  32
HETATM   32  S1  UNL     1      -0.247 -11.339  27.128  1.00  0.00    -0.156 SA
BRANCH  32  33
HETATM   33  C17 UNL     1      -1.364 -12.344  26.136  1.00  0.00    -0.003 C 
HETATM   34  C18 UNL     1      -1.648 -13.671  26.810  1.00  0.00     0.026 C 
HETATM   35  C19 UNL     1      -0.681 -12.640  24.817  1.00  0.00     0.026 C 
HETATM   36  C20 UNL     1      -2.664 -11.641  25.834  1.00  0.00     0.026 C 
ENDBRANCH  32  33
ENDBRANCH  31  32
ENDBRANCH  26  31
BRANCH  28  37
HETATM   37  O2  UNL     1      -2.916 -11.266  31.839  1.00  0.00    -0.366 OA
ATOM     38  H2  UNL     1      -3.430 -12.007  31.541  1.00  0.00     0.212 HD
ENDBRANCH  28  37
ENDBRANCH  18  24
ENDBRANCH   7   8
ENDBRANCH   5   6
ENDBRANCH   4   5
ENDBRANCH   1   4
TORSDOF 10
ENDMDL
MODEL 5
REMARK VINA RESULT: -7.682994507      2.962      4.187
REMARK  10 active torsions:
REMARK  status: ('A' for Active; 'I' for Inactive)
REMARK    1  A    between atoms: C2_2  and  N1_3 
REMARK    2  A    between atoms: C4_8  and  C5_9 
REMARK    3  A    between atoms: C6_10  and  C7_11 
REMARK    4  A    between atoms: C7_11  and  C8_12 
REMARK    5  A    between atoms: C8_12  and  C9_13 
REMARK    6  A    between atoms: N6_23  and  C14_24 
REMARK    7  A    between atoms: C15_26  and  C16_27 
REMARK    8  A    between atoms: C16_27  and  S1_28 
REMARK    9  A    between atoms: S1_28  and  C17_29 
REMARK   10  A    between atoms: C21_36  and  O2_37 
ROOT
HETATM    1  C9  UNL     1      -9.978 -12.648  33.064  1.00  0.00     0.124 C 
HETATM    2  C10 UNL     1     -10.146 -11.277  33.505  1.00  0.00     0.059 C 
HETATM    3  N3  UNL     1     -10.290 -10.163  33.851  1.00  0.00    -0.197 NA
ENDROOT
BRANCH   1   4
HETATM    4  C8  UNL     1     -10.162 -12.764  31.550  1.00  0.00     0.026 C 
BRANCH   4   5
HETATM    5  C7  UNL     1      -9.157 -13.765  31.017  1.00  0.00     0.095 C 
BRANCH   5   6
HETATM    6  C6  UNL     1      -7.865 -13.055  30.959  1.00  0.00    -0.098 C 
HETATM    7  C5  UNL     1      -6.809 -12.478  30.906  1.00  0.00    -0.030 C 
BRANCH   7   8
HETATM    8  C4  UNL     1      -5.530 -11.804  30.837  1.00  0.00     0.164 A 
HETATM    9  N2  UNL     1      -5.167 -10.988  31.833  1.00  0.00    -0.320 N 
HETATM   10  C3  UNL     1      -3.978 -10.306  31.858  1.00  0.00     0.134 A 
ATOM     11  H2  UNL     1      -5.810 -10.866  32.616  1.00  0.00     0.169 HD
HETATM   12  N1  UNL     1      -3.679  -9.546  32.820  1.00  0.00    -0.375 N 
HETATM   13  C12 UNL     1      -3.119 -10.482  30.792  1.00  0.00     0.122 A 
ATOM     14  H1  UNL     1      -4.352  -9.455  33.581  1.00  0.00     0.161 HD
HETATM   15  C11 UNL     1      -3.532 -11.332  29.788  1.00  0.00     0.143 A 
HETATM   16  N5  UNL     1      -1.887  -9.991  30.468  1.00  0.00    -0.346 N 
HETATM   17  N4  UNL     1      -4.701 -11.987  29.785  1.00  0.00    -0.319 N 
HETATM   18  N6  UNL     1      -2.551 -11.344  28.875  1.00  0.00    -0.295 N 
ATOM     19  H4  UNL     1      -4.956 -12.604  29.014  1.00  0.00     0.169 HD
HETATM   20  C13 UNL     1      -1.558 -10.523  29.305  1.00  0.00     0.188 A 
ATOM     21  H5  UNL     1      -1.328  -9.338  31.018  1.00  0.00     0.167 HD
BRANCH  12  22
HETATM   22  C2  UNL     1      -2.475  -8.814  32.914  1.00  0.00     0.116 C 
HETATM   23  C1  UNL     1      -1.525  -9.394  33.960  1.00  0.00     0.026 C 
ENDBRANCH  12  22
BRANCH  18  24
HETATM   24  C14 UNL     1      -2.479 -12.061  27.641  1.00  0.00     0.289 C 
HETATM   25  O1  UNL     1      -3.291 -13.191  27.593  1.00  0.00    -0.328 OA
HETATM   26  C15 UNL     1      -2.689 -14.075  26.711  1.00  0.00     0.335 C 
HETATM   27  N7  UNL     1      -1.326 -13.677  26.507  1.00  0.00    -0.018 N 
HETATM   28  C21 UNL     1      -1.104 -12.727  27.584  1.00  0.00     0.371 C 
ATOM     29  H72 UNL     1      -0.658 -14.446  26.472  1.00  0.00     0.283 HD
ATOM     30  H71 UNL     1      -1.120 -13.320  25.574  1.00  0.00     0.283 HD
BRANCH  26  31
HETATM   31  C16 UNL     1      -3.384 -14.095  25.360  1.00  0.00     0.136 C 
BRANCH  31  32
HETATM   32  S1  UNL     1      -3.726 -15.816  24.947  1.00  0.00    -0.156 SA
BRANCH  32  33
HETATM   33  C17 UNL     1      -2.926 -16.343  23.423  1.00  0.00    -0.003 C 
HETATM   34  C18 UNL     1      -2.408 -15.154  22.639  1.00  0.00     0.026 C 
HETATM   35  C19 UNL     1      -3.962 -17.037  22.565  1.00  0.00     0.026 C 
HETATM   36  C20 UNL     1      -1.801 -17.319  23.665  1.00  0.00     0.026 C 
ENDBRANCH  32  33
ENDBRANCH  31  32
ENDBRANCH  26  31
BRANCH  28  37
HETATM   37  O2  UNL     1      -0.870 -13.407  28.754  1.00  0.00    -0.366 OA
ATOM     38  H2  UNL     1      -0.202 -12.958  29.257  1.00  0.00     0.212 HD
ENDBRANCH  28  37
ENDBRANCH  18  24
ENDBRANCH   7   8
ENDBRANCH   5   6
ENDBRANCH   4   5
ENDBRANCH   1   4
TORSDOF 10
ENDMDL
