MODEL 1
REMARK VINA RESULT: -4.695774029      0.000      0.000
REMARK  3 active torsions:
REMARK  status: ('A' for Active; 'I' for Inactive)
REMARK    1  A    between atoms: N2_5  and  C3_6 
REMARK    2  A    between atoms: C3_6  and  C4_7 
REMARK    3  A    between atoms: C4_7  and  C5_9 
ROOT
HETATM    1  C1  UNL     1      -4.854   5.170  33.539  1.00  0.00     0.071 C 
HETATM    2  C2  UNL     1      -3.955   6.256  33.086  1.00  0.00     0.045 A 
HETATM    3  N1  UNL     1      -3.135   7.036  33.833  1.00  0.00    -0.298 N 
ATOM      4  H1  UNL     1      -3.030   6.967  34.846  1.00  0.00     0.187 HD
HETATM    5  N2  UNL     1      -2.490   7.898  33.068  1.00  0.00    -0.249 N 
HETATM    6  C8  UNL     1      -2.855   7.729  31.768  1.00  0.00     0.281 A 
HETATM    7  O2  UNL     1      -2.436   8.383  30.759  1.00  0.00    -0.265 OA
HETATM    8  C9  UNL     1      -3.772   6.700  31.786  1.00  0.00     0.103 A 
HETATM    9 BR1  UNL     1      -4.680   5.966  30.263  1.00  0.00    -0.043 Br
ENDROOT
BRANCH   5  10
HETATM   10  C3  UNL     1      -1.519   8.908  33.485  1.00  0.00     0.231 C 
BRANCH  10  11
HETATM   11  C4  UNL     1      -1.331   8.892  34.955  1.00  0.00     0.150 C 
HETATM   12  O1  UNL     1      -2.298   9.187  35.640  1.00  0.00    -0.296 OA
BRANCH  11  13
HETATM   13  C5  UNL     1      -0.050   8.542  35.610  1.00  0.00     0.049 C 
HETATM   14  C6  UNL     1       0.341   9.548  36.671  1.00  0.00     0.017 C 
HETATM   15  C7  UNL     1      -0.151   7.166  36.233  1.00  0.00     0.017 C 
ENDBRANCH  11  13
ENDBRANCH  10  11
ENDBRANCH   5  10
TORSDOF 3
ENDMDL
MODEL 2
REMARK VINA RESULT: -4.629940788      2.784      5.074
REMARK  3 active torsions:
REMARK  status: ('A' for Active; 'I' for Inactive)
REMARK    1  A    between atoms: N2_5  and  C3_6 
REMARK    2  A    between atoms: C3_6  and  C4_7 
REMARK    3  A    between atoms: C4_7  and  C5_9 
ROOT
HETATM    1  C1  UNL     1      -0.025   7.344  36.489  1.00  0.00     0.071 C 
HETATM    2  C2  UNL     1      -0.644   7.915  35.271  1.00  0.00     0.045 A 
HETATM    3  N1  UNL     1      -1.328   7.269  34.293  1.00  0.00    -0.298 N 
ATOM      4  H1  UNL     1      -1.510   6.266  34.277  1.00  0.00     0.187 HD
HETATM    5  N2  UNL     1      -1.726   8.121  33.366  1.00  0.00    -0.249 N 
HETATM    6  C8  UNL     1      -1.321   9.380  33.686  1.00  0.00     0.281 A 
HETATM    7  O2  UNL     1      -1.527  10.448  33.023  1.00  0.00    -0.265 OA
HETATM    8  C9  UNL     1      -0.645   9.245  34.879  1.00  0.00     0.103 A 
HETATM    9 BR1  UNL     1       0.186  10.658  35.878  1.00  0.00    -0.043 Br
ENDROOT
BRANCH   5  10
HETATM   10  C3  UNL     1      -2.488   7.827  32.153  1.00  0.00     0.231 C 
BRANCH  10  11
HETATM   11  C4  UNL     1      -3.838   7.311  32.483  1.00  0.00     0.150 C 
HETATM   12  O1  UNL     1      -4.620   8.097  32.994  1.00  0.00    -0.296 OA
BRANCH  11  13
HETATM   13  C5  UNL     1      -4.263   5.917  32.227  1.00  0.00     0.049 C 
HETATM   14  C6  UNL     1      -4.919   5.289  33.438  1.00  0.00     0.017 C 
HETATM   15  C7  UNL     1      -5.225   5.880  31.058  1.00  0.00     0.017 C 
ENDBRANCH  11  13
ENDBRANCH  10  11
ENDBRANCH   5  10
TORSDOF 3
ENDMDL
MODEL 3
REMARK VINA RESULT: -4.627693772      2.836      5.279
REMARK  3 active torsions:
REMARK  status: ('A' for Active; 'I' for Inactive)
REMARK    1  A    between atoms: N2_5  and  C3_6 
REMARK    2  A    between atoms: C3_6  and  C4_7 
REMARK    3  A    between atoms: C4_7  and  C5_9 
ROOT
HETATM    1  C1  UNL     1      -0.156  11.036  35.116  1.00  0.00     0.071 C 
HETATM    2  C2  UNL     1      -0.700   9.766  34.584  1.00  0.00     0.045 A 
HETATM    3  N1  UNL     1      -1.456   9.574  33.473  1.00  0.00    -0.298 N 
ATOM      4  H1  UNL     1      -1.754  10.314  32.838  1.00  0.00     0.187 HD
HETATM    5  N2  UNL     1      -1.751   8.295  33.329  1.00  0.00    -0.249 N 
HETATM    6  C8  UNL     1      -1.202   7.573  34.344  1.00  0.00     0.281 A 
HETATM    7  O2  UNL     1      -1.281   6.315  34.525  1.00  0.00    -0.265 OA
HETATM    8  C9  UNL     1      -0.546   8.499  35.125  1.00  0.00     0.103 A 
HETATM    9 BR1  UNL     1       0.442   8.132  36.730  1.00  0.00    -0.043 Br
ENDROOT
BRANCH   5  10
HETATM   10  C3  UNL     1      -2.542   7.677  32.266  1.00  0.00     0.231 C 
BRANCH  10  11
HETATM   11  C4  UNL     1      -3.977   7.618  32.636  1.00  0.00     0.150 C 
HETATM   12  O1  UNL     1      -4.442   8.594  33.202  1.00  0.00    -0.296 OA
BRANCH  11  13
HETATM   13  C5  UNL     1      -4.845   6.452  32.354  1.00  0.00     0.049 C 
HETATM   14  C6  UNL     1      -4.703   5.968  30.927  1.00  0.00     0.017 C 
HETATM   15  C7  UNL     1      -4.510   5.322  33.304  1.00  0.00     0.017 C 
ENDBRANCH  11  13
ENDBRANCH  10  11
ENDBRANCH   5  10
TORSDOF 3
ENDMDL
MODEL 4
REMARK VINA RESULT: -4.583400888      0.419      1.022
REMARK  3 active torsions:
REMARK  status: ('A' for Active; 'I' for Inactive)
REMARK    1  A    between atoms: N2_5  and  C3_6 
REMARK    2  A    between atoms: C3_6  and  C4_7 
REMARK    3  A    between atoms: C4_7  and  C5_9 
ROOT
HETATM    1  C1  UNL     1      -4.809   5.152  33.465  1.00  0.00     0.071 C 
HETATM    2  C2  UNL     1      -3.850   6.237  33.153  1.00  0.00     0.045 A 
HETATM    3  N1  UNL     1      -3.011   6.887  33.998  1.00  0.00    -0.298 N 
ATOM      4  H1  UNL     1      -2.933   6.700  34.998  1.00  0.00     0.187 HD
HETATM    5  N2  UNL     1      -2.310   7.797  33.347  1.00  0.00    -0.249 N 
HETATM    6  C8  UNL     1      -2.653   7.793  32.030  1.00  0.00     0.281 A 
HETATM    7  O2  UNL     1      -2.182   8.535  31.109  1.00  0.00    -0.265 OA
HETATM    8  C9  UNL     1      -3.617   6.815  31.915  1.00  0.00     0.103 A 
HETATM    9 BR1  UNL     1      -4.525   6.302  30.304  1.00  0.00    -0.043 Br
ENDROOT
BRANCH   5  10
HETATM   10  C3  UNL     1      -1.303   8.705  33.892  1.00  0.00     0.231 C 
BRANCH  10  11
HETATM   11  C4  UNL     1      -1.557   8.985  35.325  1.00  0.00     0.150 C 
HETATM   12  O1  UNL     1      -2.608   9.541  35.602  1.00  0.00    -0.296 OA
BRANCH  11  13
HETATM   13  C5  UNL     1      -0.611   8.627  36.406  1.00  0.00     0.049 C 
HETATM   14  C6  UNL     1      -0.049   7.232  36.234  1.00  0.00     0.017 C 
HETATM   15  C7  UNL     1       0.526   9.626  36.444  1.00  0.00     0.017 C 
ENDBRANCH  11  13
ENDBRANCH  10  11
ENDBRANCH   5  10
TORSDOF 3
ENDMDL
MODEL 5
REMARK VINA RESULT: -4.425428065      1.586      2.281
REMARK  3 active torsions:
REMARK  status: ('A' for Active; 'I' for Inactive)
REMARK    1  A    between atoms: N2_5  and  C3_6 
REMARK    2  A    between atoms: C3_6  and  C4_7 
REMARK    3  A    between atoms: C4_7  and  C5_9 
ROOT
HETATM    1  C1  UNL     1      -2.157   8.130  29.773  1.00  0.00     0.071 C 
HETATM    2  C2  UNL     1      -2.551   7.972  31.192  1.00  0.00     0.045 A 
HETATM    3  N1  UNL     1      -2.012   8.565  32.287  1.00  0.00    -0.298 N 
ATOM      4  H1  UNL     1      -1.234   9.225  32.266  1.00  0.00     0.187 HD
HETATM    5  N2  UNL     1      -2.634   8.170  33.383  1.00  0.00    -0.249 N 
HETATM    6  C8  UNL     1      -3.621   7.289  33.065  1.00  0.00     0.281 A 
HETATM    7  O2  UNL     1      -4.421   6.706  33.866  1.00  0.00    -0.265 OA
HETATM    8  C9  UNL     1      -3.564   7.169  31.693  1.00  0.00     0.103 A 
HETATM    9 BR1  UNL     1      -4.697   6.067  30.604  1.00  0.00    -0.043 Br
ENDROOT
BRANCH   5  10
HETATM   10  C3  UNL     1      -2.357   8.575  34.760  1.00  0.00     0.231 C 
BRANCH  10  11
HETATM   11  C4  UNL     1      -0.966   9.068  34.902  1.00  0.00     0.150 C 
HETATM   12  O1  UNL     1      -0.657  10.047  34.241  1.00  0.00    -0.296 OA
BRANCH  11  13
HETATM   13  C5  UNL     1       0.037   8.436  35.788  1.00  0.00     0.049 C 
HETATM   14  C6  UNL     1       0.093   9.098  37.148  1.00  0.00     0.017 C 
HETATM   15  C7  UNL     1      -0.281   6.965  35.957  1.00  0.00     0.017 C 
ENDBRANCH  11  13
ENDBRANCH  10  11
ENDBRANCH   5  10
TORSDOF 3
ENDMDL
