MODEL 1
REMARK VINA RESULT: -4.352835085      0.000      0.000
REMARK  3 active torsions:
REMARK  status: ('A' for Active; 'I' for Inactive)
REMARK    1  A    between atoms: C2_2  and  N1_5 
REMARK       I    between atoms: N1_5  and  C5_7 
REMARK    2  A    between atoms: C5_7  and  C6_9 
REMARK    3  A    between atoms: C6_9  and  N2_10 
ROOT
HETATM    1  N1  UNL     1      -3.275   7.183  32.524  1.00  0.00    -0.352 N 
ATOM      2  H1  UNL     1      -2.570   6.941  31.828  1.00  0.00     0.163 HD
HETATM    3  C5  UNL     1      -2.882   8.093  33.507  1.00  0.00     0.236 C 
HETATM    4  O1  UNL     1      -3.693   8.438  34.392  1.00  0.00    -0.272 OA
ENDROOT
BRANCH   3   5
HETATM    5  C6  UNL     1      -1.520   8.659  33.531  1.00  0.00     0.233 C 
BRANCH   5   6
HETATM    6  N2  UNL     1      -0.786   8.401  34.750  1.00  0.00    -0.327 N 
HETATM    7  C7  UNL     1      -0.662   7.242  35.402  1.00  0.00     0.110 A 
HETATM    8  C8  UNL     1       0.108   7.397  36.530  1.00  0.00     0.107 A 
HETATM    9  N3  UNL     1       0.462   8.703  36.557  1.00  0.00    -0.345 N 
HETATM   10  C9  UNL     1      -0.076   9.301  35.487  1.00  0.00     0.156 A 
ATOM     11  H3  UNL     1       1.039   9.152  37.269  1.00  0.00     0.167 HD
HETATM   12 BR1  UNL     1       0.140  11.156  35.084  1.00  0.00    -0.010 Br
ENDBRANCH   5   6
ENDBRANCH   3   5
BRANCH   1  13
HETATM   13  C2  UNL     1      -4.545   6.554  32.377  1.00  0.00     0.022 C 
HETATM   14  C1  UNL     1      -4.579   5.872  30.998  1.00  0.00     0.037 C 
HETATM   15  C3  UNL     1      -5.710   7.528  32.369  1.00  0.00     0.037 C 
HETATM   16  C4  UNL     1      -4.781   5.454  33.388  1.00  0.00     0.037 C 
ENDBRANCH   1  13
TORSDOF 3
ENDMDL
MODEL 2
REMARK VINA RESULT: -4.222320566      2.827      5.640
REMARK  3 active torsions:
REMARK  status: ('A' for Active; 'I' for Inactive)
REMARK    1  A    between atoms: C2_2  and  N1_5 
REMARK       I    between atoms: N1_5  and  C5_7 
REMARK    2  A    between atoms: C5_7  and  C6_9 
REMARK    3  A    between atoms: C6_9  and  N2_10 
ROOT
HETATM    1  N1  UNL     1      -1.326   8.003  34.879  1.00  0.00    -0.352 N 
ATOM      2  H1  UNL     1      -0.869   7.118  34.661  1.00  0.00     0.163 HD
HETATM    3  C5  UNL     1      -2.497   8.280  34.170  1.00  0.00     0.236 C 
HETATM    4  O1  UNL     1      -3.113   9.345  34.384  1.00  0.00    -0.272 OA
ENDROOT
BRANCH   3   5
HETATM    5  C6  UNL     1      -3.027   7.341  33.163  1.00  0.00     0.233 C 
BRANCH   5   6
HETATM    6  N2  UNL     1      -2.708   7.688  31.796  1.00  0.00    -0.327 N 
HETATM    7  C7  UNL     1      -1.781   8.546  31.363  1.00  0.00     0.110 A 
HETATM    8  C8  UNL     1      -1.784   8.616  29.991  1.00  0.00     0.107 A 
HETATM    9  N3  UNL     1      -2.752   7.764  29.581  1.00  0.00    -0.345 N 
HETATM   10  C9  UNL     1      -3.303   7.209  30.668  1.00  0.00     0.156 A 
ATOM     11  H3  UNL     1      -3.015   7.577  28.613  1.00  0.00     0.167 HD
HETATM   12 BR1  UNL     1      -4.723   5.932  30.606  1.00  0.00    -0.010 Br
ENDBRANCH   5   6
ENDBRANCH   3   5
BRANCH   1  13
HETATM   13  C2  UNL     1      -0.695   8.809  35.870  1.00  0.00     0.022 C 
HETATM   14  C1  UNL     1       0.476   8.005  36.459  1.00  0.00     0.037 C 
HETATM   15  C3  UNL     1      -1.593   9.133  37.051  1.00  0.00     0.037 C 
HETATM   16  C4  UNL     1      -0.087  10.073  35.304  1.00  0.00     0.037 C 
ENDBRANCH   1  13
TORSDOF 3
ENDMDL
MODEL 3
REMARK VINA RESULT: -4.216967367      2.929      5.511
REMARK  3 active torsions:
REMARK  status: ('A' for Active; 'I' for Inactive)
REMARK    1  A    between atoms: C2_2  and  N1_5 
REMARK       I    between atoms: N1_5  and  C5_7 
REMARK    2  A    between atoms: C5_7  and  C6_9 
REMARK    3  A    between atoms: C6_9  and  N2_10 
ROOT
HETATM    1  N1  UNL     1      -2.116   8.857  35.105  1.00  0.00    -0.352 N 
ATOM      2  H1  UNL     1      -2.930   9.206  35.611  1.00  0.00     0.163 HD
HETATM    3  C5  UNL     1      -2.316   8.546  33.759  1.00  0.00     0.236 C 
HETATM    4  O1  UNL     1      -1.364   8.114  33.075  1.00  0.00    -0.272 OA
ENDROOT
BRANCH   3   5
HETATM    5  C6  UNL     1      -3.634   8.710  33.119  1.00  0.00     0.233 C 
BRANCH   5   6
HETATM    6  N2  UNL     1      -4.756   8.381  33.969  1.00  0.00    -0.327 N 
HETATM    7  C7  UNL     1      -5.474   9.206  34.736  1.00  0.00     0.110 A 
HETATM    8  C8  UNL     1      -6.456   8.519  35.407  1.00  0.00     0.107 A 
HETATM    9  N3  UNL     1      -6.326   7.227  35.028  1.00  0.00    -0.345 N 
HETATM   10  C9  UNL     1      -5.305   7.149  34.165  1.00  0.00     0.156 A 
ATOM     11  H3  UNL     1      -6.904   6.448  35.345  1.00  0.00     0.167 HD
HETATM   12 BR1  UNL     1      -4.726   5.522  33.346  1.00  0.00    -0.010 Br
ENDBRANCH   5   6
ENDBRANCH   3   5
BRANCH   1  13
HETATM   13  C2  UNL     1      -0.910   8.746  35.856  1.00  0.00     0.022 C 
HETATM   14  C1  UNL     1      -1.240   9.043  37.328  1.00  0.00     0.037 C 
HETATM   15  C3  UNL     1       0.144   9.768  35.468  1.00  0.00     0.037 C 
HETATM   16  C4  UNL     1      -0.327   7.350  35.836  1.00  0.00     0.037 C 
ENDBRANCH   1  13
TORSDOF 3
ENDMDL
MODEL 4
REMARK VINA RESULT: -4.183139145      0.095      1.128
REMARK  3 active torsions:
REMARK  status: ('A' for Active; 'I' for Inactive)
REMARK    1  A    between atoms: C2_2  and  N1_5 
REMARK       I    between atoms: N1_5  and  C5_7 
REMARK    2  A    between atoms: C5_7  and  C6_9 
REMARK    3  A    between atoms: C6_9  and  N2_10 
ROOT
HETATM    1  N1  UNL     1      -3.270   7.143  32.476  1.00  0.00    -0.352 N 
ATOM      2  H1  UNL     1      -2.558   6.876  31.797  1.00  0.00     0.163 HD
HETATM    3  C5  UNL     1      -2.873   8.052  33.458  1.00  0.00     0.236 C 
HETATM    4  O1  UNL     1      -3.692   8.426  34.323  1.00  0.00    -0.272 OA
ENDROOT
BRANCH   3   5
HETATM    5  C6  UNL     1      -1.497   8.582  33.504  1.00  0.00     0.233 C 
BRANCH   5   6
HETATM    6  N2  UNL     1      -0.795   8.319  34.740  1.00  0.00    -0.327 N 
HETATM    7  C7  UNL     1      -0.679   7.155  35.385  1.00  0.00     0.110 A 
HETATM    8  C8  UNL     1       0.058   7.306  36.535  1.00  0.00     0.107 A 
HETATM    9  N3  UNL     1       0.401   8.614  36.584  1.00  0.00    -0.345 N 
HETATM   10  C9  UNL     1      -0.113   9.217  35.504  1.00  0.00     0.156 A 
ATOM     11  H3  UNL     1       0.954   9.061  37.315  1.00  0.00     0.167 HD
HETATM   12 BR1  UNL     1       0.099  11.078  35.125  1.00  0.00    -0.010 Br
ENDBRANCH   5   6
ENDBRANCH   3   5
BRANCH   1  13
HETATM   13  C2  UNL     1      -4.552   6.545  32.309  1.00  0.00     0.022 C 
HETATM   14  C1  UNL     1      -4.722   5.477  33.402  1.00  0.00     0.037 C 
HETATM   15  C3  UNL     1      -4.709   5.800  30.994  1.00  0.00     0.037 C 
HETATM   16  C4  UNL     1      -5.691   7.522  32.503  1.00  0.00     0.037 C 
ENDBRANCH   1  13
TORSDOF 3
ENDMDL
MODEL 5
REMARK VINA RESULT: -4.164983175      2.593      5.787
REMARK  3 active torsions:
REMARK  status: ('A' for Active; 'I' for Inactive)
REMARK    1  A    between atoms: C2_2  and  N1_5 
REMARK       I    between atoms: N1_5  and  C5_7 
REMARK    2  A    between atoms: C5_7  and  C6_9 
REMARK    3  A    between atoms: C6_9  and  N2_10 
ROOT
HETATM    1  N1  UNL     1      -2.018   8.864  35.409  1.00  0.00    -0.352 N 
ATOM      2  H1  UNL     1      -2.815   9.167  35.968  1.00  0.00     0.163 HD
HETATM    3  C5  UNL     1      -2.289   8.545  34.077  1.00  0.00     0.236 C 
HETATM    4  O1  UNL     1      -1.362   8.167  33.330  1.00  0.00    -0.272 OA
ENDROOT
BRANCH   3   5
HETATM    5  C6  UNL     1      -3.653   8.639  33.526  1.00  0.00     0.233 C 
BRANCH   5   6
HETATM    6  N2  UNL     1      -3.811   8.052  32.214  1.00  0.00    -0.327 N 
HETATM    7  C7  UNL     1      -3.672   8.648  31.027  1.00  0.00     0.110 A 
HETATM    8  C8  UNL     1      -3.912   7.763  30.004  1.00  0.00     0.107 A 
HETATM    9  N3  UNL     1      -4.206   6.584  30.600  1.00  0.00    -0.345 N 
HETATM   10  C9  UNL     1      -4.143   6.762  31.926  1.00  0.00     0.156 A 
ATOM     11  H3  UNL     1      -4.435   5.712  30.122  1.00  0.00     0.167 HD
HETATM   12 BR1  UNL     1      -4.482   5.381  33.202  1.00  0.00    -0.010 Br
ENDBRANCH   5   6
ENDBRANCH   3   5
BRANCH   1  13
HETATM   13  C2  UNL     1      -0.761   8.817  36.078  1.00  0.00     0.022 C 
HETATM   14  C1  UNL     1      -0.997   9.183  37.553  1.00  0.00     0.037 C 
HETATM   15  C3  UNL     1       0.239   9.840  35.567  1.00  0.00     0.037 C 
HETATM   16  C4  UNL     1      -0.147   7.435  36.087  1.00  0.00     0.037 C 
ENDBRANCH   1  13
TORSDOF 3
ENDMDL
