MODEL 1
REMARK VINA RESULT: -10.122591831      0.000      0.000
REMARK  5 active torsions:
REMARK  status: ('A' for Active; 'I' for Inactive)
REMARK    1  A    between atoms: C3_3  and  N1_4 
REMARK       I    between atoms: N1_4  and  C4_6 
REMARK    2  A    between atoms: C4_6  and  C5_8 
REMARK    3  A    between atoms: C6_9  and  C7_10 
REMARK       I    between atoms: C7_10  and  N2_12 
REMARK    4  A    between atoms: N2_12  and  C8_14 
REMARK    5  A    between atoms: C11_17  and  C12_18 
ROOT
HETATM    1  C1  UNL     1      15.601   3.029  48.494  1.00  0.00     0.014 C 
HETATM    2  C2  UNL     1      16.151   1.960  48.524  1.00  0.00    -0.098 C 
HETATM    3  C3  UNL     1      16.835   0.683  48.555  1.00  0.00     0.216 C 
ENDROOT
BRANCH   3   4
HETATM    4  N1  UNL     1      16.726   0.062  49.854  1.00  0.00    -0.350 N 
HETATM    5  C4  UNL     1      15.722  -0.879  50.192  1.00  0.00     0.223 C 
HETATM    6  O1  UNL     1      14.904  -1.162  49.287  1.00  0.00    -0.273 OA
ATOM      7  H1  UNL     1      17.409   0.315  50.568  1.00  0.00     0.163 HD
BRANCH   5   8
HETATM    8  C5  UNL     1      15.715  -1.443  51.551  1.00  0.00     0.097 C 
HETATM    9  C6  UNL     1      14.615  -2.371  51.856  1.00  0.00     0.096 C 
HETATM   10  C16 UNL     1      15.314  -3.498  52.634  1.00  0.00     0.009 C 
HETATM   11  C17 UNL     1      15.927  -4.359  51.564  1.00  0.00     0.026 C 
HETATM   12  C21 UNL     1      16.528  -2.817  53.223  1.00  0.00    -0.037 C 
HETATM   13  C18 UNL     1      17.112  -3.517  51.130  1.00  0.00     0.099 C 
HETATM   14  C19 UNL     1      17.276  -3.445  49.719  1.00  0.00     0.064 C 
HETATM   15  C20 UNL     1      16.971  -2.213  51.869  1.00  0.00     0.025 C 
HETATM   16  N4  UNL     1      17.427  -3.400  48.579  1.00  0.00    -0.197 NA
HETATM   17  C22 UNL     1      16.308  -1.833  54.280  1.00  0.00     0.015 C 
HETATM   18  C23 UNL     1      17.567  -3.792  53.729  1.00  0.00     0.015 C 
BRANCH   9  19
HETATM   19  C7  UNL     1      13.471  -1.839  52.647  1.00  0.00     0.227 C 
HETATM   20  O2  UNL     1      13.549  -0.647  52.990  1.00  0.00    -0.273 OA
HETATM   21  N2  UNL     1      12.370  -2.610  52.997  1.00  0.00    -0.327 N 
ATOM     22  H2  UNL     1      12.418  -3.571  52.659  1.00  0.00     0.169 HD
BRANCH  21  23
HETATM   23  C8  UNL     1      11.209  -2.325  53.721  1.00  0.00     0.036 A 
HETATM   24  C9  UNL     1      10.503  -1.133  53.548  1.00  0.00     0.030 A 
HETATM   25  C10 UNL     1       9.361  -0.880  54.268  1.00  0.00     0.020 A 
HETATM   26  C11 UNL     1       8.857  -1.776  55.186  1.00  0.00     0.068 A 
HETATM   27  C13 UNL     1       9.528  -2.944  55.372  1.00  0.00     0.061 A 
HETATM   28  C14 UNL     1       9.026  -3.889  56.320  1.00  0.00     0.100 C 
HETATM   29  C15 UNL     1      10.696  -3.201  54.635  1.00  0.00     0.053 A 
HETATM   30  N3  UNL     1       8.608  -4.647  57.075  1.00  0.00    -0.191 NA
BRANCH  26  31
HETATM   31  C12 UNL     1       7.624  -1.458  55.937  1.00  0.00     0.418 C 
HETATM   32  F1  UNL     1       7.256  -0.141  55.728  1.00  0.00    -0.166 F 
HETATM   33  F2  UNL     1       7.773  -1.631  57.284  1.00  0.00    -0.166 F 
HETATM   34  F3  UNL     1       6.577  -2.248  55.453  1.00  0.00    -0.166 F 
ENDBRANCH  26  31
ENDBRANCH  21  23
ENDBRANCH   9  19
ENDBRANCH   5   8
ENDBRANCH   3   4
TORSDOF 5
ENDMDL
MODEL 2
REMARK VINA RESULT: -9.594530138      1.182      1.669
REMARK  5 active torsions:
REMARK  status: ('A' for Active; 'I' for Inactive)
REMARK    1  A    between atoms: C3_3  and  N1_4 
REMARK       I    between atoms: N1_4  and  C4_6 
REMARK    2  A    between atoms: C4_6  and  C5_8 
REMARK    3  A    between atoms: C6_9  and  C7_10 
REMARK       I    between atoms: C7_10  and  N2_12 
REMARK    4  A    between atoms: N2_12  and  C8_14 
REMARK    5  A    between atoms: C11_17  and  C12_18 
ROOT
HETATM    1  C1  UNL     1      15.565   2.800  48.530  1.00  0.00     0.014 C 
HETATM    2  C2  UNL     1      16.185   1.769  48.572  1.00  0.00    -0.098 C 
HETATM    3  C3  UNL     1      16.951   0.541  48.619  1.00  0.00     0.216 C 
ENDROOT
BRANCH   3   4
HETATM    4  N1  UNL     1      16.842  -0.096  49.911  1.00  0.00    -0.350 N 
HETATM    5  C4  UNL     1      15.866  -1.073  50.224  1.00  0.00     0.223 C 
HETATM    6  O1  UNL     1      15.072  -1.374  49.303  1.00  0.00    -0.273 OA
ATOM      7  H1  UNL     1      17.506   0.174  50.637  1.00  0.00     0.163 HD
BRANCH   5   8
HETATM    8  C5  UNL     1      15.855  -1.649  51.578  1.00  0.00     0.097 C 
HETATM    9  C6  UNL     1      14.796  -2.632  51.850  1.00  0.00     0.096 C 
HETATM   10  C16 UNL     1      15.531  -3.731  52.635  1.00  0.00     0.009 C 
HETATM   11  C17 UNL     1      16.207  -4.551  51.571  1.00  0.00     0.026 C 
HETATM   12  C21 UNL     1      16.697  -2.998  53.256  1.00  0.00    -0.037 C 
HETATM   13  C18 UNL     1      17.360  -3.650  51.171  1.00  0.00     0.099 C 
HETATM   14  C19 UNL     1      17.551  -3.557  49.764  1.00  0.00     0.064 C 
HETATM   15  C20 UNL     1      17.140  -2.361  51.917  1.00  0.00     0.025 C 
HETATM   16  N4  UNL     1      17.725  -3.494  48.628  1.00  0.00    -0.197 NA
HETATM   17  C22 UNL     1      16.407  -2.036  54.316  1.00  0.00     0.015 C 
HETATM   18  C23 UNL     1      17.771  -3.927  53.777  1.00  0.00     0.015 C 
BRANCH   9  19
HETATM   19  C7  UNL     1      13.610  -2.162  52.621  1.00  0.00     0.227 C 
HETATM   20  O2  UNL     1      13.492  -0.932  52.749  1.00  0.00    -0.273 OA
HETATM   21  N2  UNL     1      12.678  -3.029  53.175  1.00  0.00    -0.327 N 
ATOM     22  H2  UNL     1      12.879  -4.014  53.004  1.00  0.00     0.169 HD
BRANCH  21  23
HETATM   23  C8  UNL     1      11.516  -2.814  53.923  1.00  0.00     0.036 A 
HETATM   24  C9  UNL     1      10.978  -3.800  54.753  1.00  0.00     0.030 A 
HETATM   25  C10 UNL     1       9.840  -3.561  55.483  1.00  0.00     0.020 A 
HETATM   26  C11 UNL     1       9.176  -2.354  55.437  1.00  0.00     0.068 A 
HETATM   27  C13 UNL     1       9.682  -1.378  54.636  1.00  0.00     0.061 A 
HETATM   28  C14 UNL     1       9.012  -0.117  54.570  1.00  0.00     0.100 C 
HETATM   29  C15 UNL     1      10.847  -1.624  53.890  1.00  0.00     0.053 A 
HETATM   30  N3  UNL     1       8.473   0.897  54.535  1.00  0.00    -0.191 NA
BRANCH  26  31
HETATM   31  C12 UNL     1       7.954  -2.145  56.241  1.00  0.00     0.418 C 
HETATM   32  F1  UNL     1       6.891  -1.800  55.426  1.00  0.00    -0.166 F 
HETATM   33  F2  UNL     1       8.100  -1.150  57.166  1.00  0.00    -0.166 F 
HETATM   34  F3  UNL     1       7.605  -3.347  56.865  1.00  0.00    -0.166 F 
ENDBRANCH  26  31
ENDBRANCH  21  23
ENDBRANCH   9  19
ENDBRANCH   5   8
ENDBRANCH   3   4
TORSDOF 5
ENDMDL
MODEL 3
REMARK VINA RESULT: -9.549145160      1.232      1.314
REMARK  5 active torsions:
REMARK  status: ('A' for Active; 'I' for Inactive)
REMARK    1  A    between atoms: C3_3  and  N1_4 
REMARK       I    between atoms: N1_4  and  C4_6 
REMARK    2  A    between atoms: C4_6  and  C5_8 
REMARK    3  A    between atoms: C6_9  and  C7_10 
REMARK       I    between atoms: C7_10  and  N2_12 
REMARK    4  A    between atoms: N2_12  and  C8_14 
REMARK    5  A    between atoms: C11_17  and  C12_18 
ROOT
HETATM    1  C1  UNL     1      12.069  -0.026  47.824  1.00  0.00     0.014 C 
HETATM    2  C2  UNL     1      13.217  -0.164  48.161  1.00  0.00    -0.098 C 
HETATM    3  C3  UNL     1      14.600  -0.306  48.565  1.00  0.00     0.216 C 
ENDROOT
BRANCH   3   4
HETATM    4  N1  UNL     1      14.706  -0.971  49.843  1.00  0.00    -0.350 N 
HETATM    5  C4  UNL     1      15.888  -0.988  50.623  1.00  0.00     0.223 C 
HETATM    6  O1  UNL     1      16.874  -0.382  50.144  1.00  0.00    -0.273 OA
ATOM      7  H1  UNL     1      13.884  -1.455  50.204  1.00  0.00     0.163 HD
BRANCH   5   8
HETATM    8  C5  UNL     1      15.873  -1.701  51.910  1.00  0.00     0.097 C 
HETATM    9  C6  UNL     1      14.729  -2.597  52.136  1.00  0.00     0.096 C 
HETATM   10  C16 UNL     1      15.377  -3.840  52.766  1.00  0.00     0.009 C 
HETATM   11  C17 UNL     1      15.921  -4.607  51.592  1.00  0.00     0.026 C 
HETATM   12  C21 UNL     1      16.637  -3.297  53.398  1.00  0.00    -0.037 C 
HETATM   13  C18 UNL     1      17.144  -3.787  51.227  1.00  0.00     0.099 C 
HETATM   14  C19 UNL     1      17.286  -3.564  49.829  1.00  0.00     0.064 C 
HETATM   15  C20 UNL     1      17.090  -2.569  52.110  1.00  0.00     0.025 C 
HETATM   16  N4  UNL     1      17.420  -3.400  48.697  1.00  0.00    -0.197 NA
HETATM   17  C22 UNL     1      16.491  -2.428  54.564  1.00  0.00     0.015 C 
HETATM   18  C23 UNL     1      17.629  -4.378  53.767  1.00  0.00     0.015 C 
BRANCH   9  19
HETATM   19  C7  UNL     1      13.630  -2.096  53.009  1.00  0.00     0.227 C 
HETATM   20  O2  UNL     1      13.902  -1.117  53.724  1.00  0.00    -0.273 OA
HETATM   21  N2  UNL     1      12.368  -2.675  53.042  1.00  0.00    -0.327 N 
ATOM     22  H2  UNL     1      12.264  -3.470  52.412  1.00  0.00     0.169 HD
BRANCH  21  23
HETATM   23  C8  UNL     1      11.213  -2.379  53.771  1.00  0.00     0.036 A 
HETATM   24  C9  UNL     1      10.524  -1.175  53.609  1.00  0.00     0.030 A 
HETATM   25  C10 UNL     1       9.387  -0.912  54.333  1.00  0.00     0.020 A 
HETATM   26  C11 UNL     1       8.872  -1.807  55.245  1.00  0.00     0.068 A 
HETATM   27  C13 UNL     1       9.525  -2.987  55.420  1.00  0.00     0.061 A 
HETATM   28  C14 UNL     1       9.011  -3.932  56.360  1.00  0.00     0.100 C 
HETATM   29  C15 UNL     1      10.689  -3.255  54.678  1.00  0.00     0.053 A 
HETATM   30  N3  UNL     1       8.583  -4.690  57.110  1.00  0.00    -0.191 NA
BRANCH  26  31
HETATM   31  C12 UNL     1       7.645  -1.477  56.000  1.00  0.00     0.418 C 
HETATM   32  F1  UNL     1       7.247  -0.179  55.736  1.00  0.00    -0.166 F 
HETATM   33  F2  UNL     1       7.818  -1.585  57.351  1.00  0.00    -0.166 F 
HETATM   34  F3  UNL     1       6.605  -2.308  55.571  1.00  0.00    -0.166 F 
ENDBRANCH  26  31
ENDBRANCH  21  23
ENDBRANCH   9  19
ENDBRANCH   5   8
ENDBRANCH   3   4
TORSDOF 5
ENDMDL
MODEL 4
REMARK VINA RESULT: -9.331932192      1.959      4.153
REMARK  5 active torsions:
REMARK  status: ('A' for Active; 'I' for Inactive)
REMARK    1  A    between atoms: C3_3  and  N1_4 
REMARK       I    between atoms: N1_4  and  C4_6 
REMARK    2  A    between atoms: C4_6  and  C5_8 
REMARK    3  A    between atoms: C6_9  and  C7_10 
REMARK       I    between atoms: C7_10  and  N2_12 
REMARK    4  A    between atoms: N2_12  and  C8_14 
REMARK    5  A    between atoms: C11_17  and  C12_18 
ROOT
HETATM    1  C1  UNL     1      17.657  -5.221  51.026  1.00  0.00     0.014 C 
HETATM    2  C2  UNL     1      17.645  -4.294  50.258  1.00  0.00    -0.098 C 
HETATM    3  C3  UNL     1      17.641  -3.193  49.317  1.00  0.00     0.216 C 
ENDROOT
BRANCH   3   4
HETATM    4  N1  UNL     1      16.305  -2.682  49.116  1.00  0.00    -0.350 N 
HETATM    5  C4  UNL     1      15.641  -1.838  50.039  1.00  0.00     0.223 C 
HETATM    6  O1  UNL     1      16.281  -1.540  51.074  1.00  0.00    -0.273 OA
ATOM      7  H1  UNL     1      15.813  -2.944  48.262  1.00  0.00     0.163 HD
BRANCH   5   8
HETATM    8  C5  UNL     1      14.278  -1.381  49.722  1.00  0.00     0.097 C 
HETATM    9  C6  UNL     1      13.623  -0.553  50.745  1.00  0.00     0.096 C 
HETATM   10  C16 UNL     1      12.946   0.553  49.919  1.00  0.00     0.009 C 
HETATM   11  C17 UNL     1      14.054   1.532  49.640  1.00  0.00     0.026 C 
HETATM   12  C21 UNL     1      12.747  -0.090  48.566  1.00  0.00    -0.037 C 
HETATM   13  C18 UNL     1      14.847   0.806  48.571  1.00  0.00     0.099 C 
HETATM   14  C19 UNL     1      16.255   0.853  48.772  1.00  0.00     0.064 C 
HETATM   15  C20 UNL     1      14.219  -0.557  48.460  1.00  0.00     0.025 C 
HETATM   16  N4  UNL     1      17.396   0.906  48.917  1.00  0.00    -0.197 NA
HETATM   17  C22 UNL     1      11.763  -1.165  48.465  1.00  0.00     0.015 C 
HETATM   18  C23 UNL     1      12.433   0.909  47.476  1.00  0.00     0.015 C 
BRANCH   9  19
HETATM   19  C7  UNL     1      12.620  -1.219  51.623  1.00  0.00     0.227 C 
HETATM   20  O2  UNL     1      12.640  -2.461  51.635  1.00  0.00    -0.273 OA
HETATM   21  N2  UNL     1      11.703  -0.514  52.393  1.00  0.00    -0.327 N 
ATOM     22  H2  UNL     1      11.784   0.499  52.302  1.00  0.00     0.169 HD
BRANCH  21  23
HETATM   23  C8  UNL     1      10.693  -0.922  53.267  1.00  0.00     0.036 A 
HETATM   24  C9  UNL     1       9.347  -0.630  53.032  1.00  0.00     0.030 A 
HETATM   25  C10 UNL     1       8.373  -1.049  53.903  1.00  0.00     0.020 A 
HETATM   26  C11 UNL     1       8.664  -1.770  55.041  1.00  0.00     0.068 A 
HETATM   27  C13 UNL     1       9.968  -2.066  55.292  1.00  0.00     0.061 A 
HETATM   28  C14 UNL     1      10.296  -2.812  56.466  1.00  0.00     0.100 C 
HETATM   29  C15 UNL     1      10.964  -1.637  54.399  1.00  0.00     0.053 A 
HETATM   30  N3  UNL     1      10.548  -3.423  57.407  1.00  0.00    -0.191 NA
BRANCH  26  31
HETATM   31  C12 UNL     1       7.580  -2.198  55.950  1.00  0.00     0.418 C 
HETATM   32  F1  UNL     1       6.344  -1.925  55.391  1.00  0.00    -0.166 F 
HETATM   33  F2  UNL     1       7.630  -1.566  57.159  1.00  0.00    -0.166 F 
HETATM   34  F3  UNL     1       7.644  -3.585  56.118  1.00  0.00    -0.166 F 
ENDBRANCH  26  31
ENDBRANCH  21  23
ENDBRANCH   9  19
ENDBRANCH   5   8
ENDBRANCH   3   4
TORSDOF 5
ENDMDL
MODEL 5
REMARK VINA RESULT: -9.144184510      1.660      2.114
REMARK  5 active torsions:
REMARK  status: ('A' for Active; 'I' for Inactive)
REMARK    1  A    between atoms: C3_3  and  N1_4 
REMARK       I    between atoms: N1_4  and  C4_6 
REMARK    2  A    between atoms: C4_6  and  C5_8 
REMARK    3  A    between atoms: C6_9  and  C7_10 
REMARK       I    between atoms: C7_10  and  N2_12 
REMARK    4  A    between atoms: N2_12  and  C8_14 
REMARK    5  A    between atoms: C11_17  and  C12_18 
ROOT
HETATM    1  C1  UNL     1      12.298   0.064  47.909  1.00  0.00     0.014 C 
HETATM    2  C2  UNL     1      13.428  -0.235  48.195  1.00  0.00    -0.098 C 
HETATM    3  C3  UNL     1      14.795  -0.571  48.540  1.00  0.00     0.216 C 
ENDROOT
BRANCH   3   4
HETATM    4  N1  UNL     1      14.861  -1.255  49.810  1.00  0.00    -0.350 N 
HETATM    5  C4  UNL     1      16.007  -1.253  50.643  1.00  0.00     0.223 C 
HETATM    6  O1  UNL     1      16.997  -0.612  50.219  1.00  0.00    -0.273 OA
ATOM      7  H1  UNL     1      14.037  -1.767  50.125  1.00  0.00     0.163 HD
BRANCH   5   8
HETATM    8  C5  UNL     1      15.954  -1.989  51.917  1.00  0.00     0.097 C 
HETATM    9  C6  UNL     1      14.818  -2.908  52.081  1.00  0.00     0.096 C 
HETATM   10  C16 UNL     1      15.463  -4.151  52.716  1.00  0.00     0.009 C 
HETATM   11  C17 UNL     1      16.067  -4.887  51.552  1.00  0.00     0.026 C 
HETATM   12  C21 UNL     1      16.687  -3.597  53.407  1.00  0.00    -0.037 C 
HETATM   13  C18 UNL     1      17.288  -4.040  51.250  1.00  0.00     0.099 C 
HETATM   14  C19 UNL     1      17.482  -3.790  49.862  1.00  0.00     0.064 C 
HETATM   15  C20 UNL     1      17.177  -2.838  52.150  1.00  0.00     0.025 C 
HETATM   16  N4  UNL     1      17.657  -3.603  48.740  1.00  0.00    -0.197 NA
HETATM   17  C22 UNL     1      16.479  -2.751  54.580  1.00  0.00     0.015 C 
HETATM   18  C23 UNL     1      17.682  -4.666  53.797  1.00  0.00     0.015 C 
BRANCH   9  19
HETATM   19  C7  UNL     1      13.677  -2.442  52.918  1.00  0.00     0.227 C 
HETATM   20  O2  UNL     1      13.731  -1.265  53.312  1.00  0.00    -0.273 OA
HETATM   21  N2  UNL     1      12.604  -3.257  53.254  1.00  0.00    -0.327 N 
ATOM     22  H2  UNL     1      12.670  -4.201  52.873  1.00  0.00     0.169 HD
BRANCH  21  23
HETATM   23  C8  UNL     1      11.451  -3.036  54.013  1.00  0.00     0.036 A 
HETATM   24  C9  UNL     1      10.944  -4.000  54.886  1.00  0.00     0.030 A 
HETATM   25  C10 UNL     1       9.814  -3.755  55.626  1.00  0.00     0.020 A 
HETATM   26  C11 UNL     1       9.128  -2.562  55.549  1.00  0.00     0.068 A 
HETATM   27  C13 UNL     1       9.603  -1.607  54.705  1.00  0.00     0.061 A 
HETATM   28  C14 UNL     1       8.910  -0.361  54.607  1.00  0.00     0.100 C 
HETATM   29  C15 UNL     1      10.760  -1.859  53.949  1.00  0.00     0.053 A 
HETATM   30  N3  UNL     1       8.352   0.642  54.544  1.00  0.00    -0.191 NA
BRANCH  26  31
HETATM   31  C12 UNL     1       7.915  -2.346  56.366  1.00  0.00     0.418 C 
HETATM   32  F1  UNL     1       6.823  -2.099  55.554  1.00  0.00    -0.166 F 
HETATM   33  F2  UNL     1       8.041  -1.285  57.217  1.00  0.00    -0.166 F 
HETATM   34  F3  UNL     1       7.628  -3.515  57.078  1.00  0.00    -0.166 F 
ENDBRANCH  26  31
ENDBRANCH  21  23
ENDBRANCH   9  19
ENDBRANCH   5   8
ENDBRANCH   3   4
TORSDOF 5
ENDMDL
