MODEL 1
REMARK VINA RESULT: -9.317776030      0.000      0.000
REMARK  10 active torsions:
REMARK  status: ('A' for Active; 'I' for Inactive)
REMARK    1  A    between atoms: C5_5  and  C6_6 
REMARK       I    between atoms: C6_6  and  N1_8 
REMARK    2  A    between atoms: N1_8  and  C7_10 
REMARK    3  A    between atoms: C10_13  and  C11_14 
REMARK    4  A    between atoms: C11_14  and  N2_15 
REMARK    5  A    between atoms: N2_15  and  C13_17 
REMARK    6  A    between atoms: C13_17  and  C14_18 
REMARK    7  A    between atoms: C19_25  and  N3_26 
REMARK       I    between atoms: N3_26  and  C20_28 
REMARK       I    between atoms: C20_28  and  N4_30 
REMARK    8  A    between atoms: N4_30  and  C21_32 
REMARK    9  A    between atoms: C21_32  and  C22_33 
REMARK   10  A    between atoms: C21_32  and  C25_36 
ROOT
HETATM    1  C1  UNL     1       2.929  -3.883  16.421  1.00  0.00     0.018 C 
HETATM    2  C2  UNL     1       3.550  -2.998  16.927  1.00  0.00    -0.073 C 
HETATM    3  C3  UNL     1       4.300  -1.945  17.555  1.00  0.00     0.071 A 
HETATM    4  C4  UNL     1       5.198  -1.090  16.903  1.00  0.00     0.068 A 
HETATM    5  C5  UNL     1       5.678  -0.252  17.880  1.00  0.00     0.146 A 
HETATM    6  O2  UNL     1       5.124  -0.567  19.021  1.00  0.00    -0.286 OA
HETATM    7  C19 UNL     1       4.298  -1.567  18.882  1.00  0.00     0.171 A 
ENDROOT
BRANCH   7   8
HETATM    8  N3  UNL     1       3.541  -2.148  19.929  1.00  0.00    -0.288 N 
HETATM    9  C20 UNL     1       4.204  -2.895  20.939  1.00  0.00     0.322 C 
HETATM   10  O3  UNL     1       5.460  -3.051  20.935  1.00  0.00    -0.247 OA
HETATM   11  N4  UNL     1       3.436  -3.481  21.977  1.00  0.00    -0.329 N 
ATOM     12  H4  UNL     1       2.423  -3.364  21.987  1.00  0.00     0.165 HD
ATOM     13  H3  UNL     1       2.528  -2.030  19.959  1.00  0.00     0.172 HD
BRANCH  11  14
HETATM   14  C21 UNL     1       4.078  -4.235  23.012  1.00  0.00     0.197 C 
BRANCH  14  15
HETATM   15  C22 UNL     1       3.726  -3.756  24.401  1.00  0.00     0.009 C 
HETATM   16  C23 UNL     1       2.365  -3.145  24.464  1.00  0.00     0.012 C 
HETATM   17  C24 UNL     1       4.746  -2.699  24.813  1.00  0.00     0.012 C 
ENDBRANCH  14  15
BRANCH  14  18
HETATM   18  C25 UNL     1       3.751  -5.728  22.907  1.00  0.00     0.407 C 
HETATM   19  F1  UNL     1       2.461  -5.866  22.417  1.00  0.00    -0.169 F 
HETATM   20  F2  UNL     1       3.783  -6.332  24.141  1.00  0.00    -0.169 F 
HETATM   21  F3  UNL     1       4.672  -6.285  22.062  1.00  0.00    -0.169 F 
ENDBRANCH  14  18
ENDBRANCH  11  14
ENDBRANCH   7   8
BRANCH   5  22
HETATM   22  C6  UNL     1       6.664   0.824  17.650  1.00  0.00     0.275 C 
HETATM   23  O1  UNL     1       6.499   1.660  16.750  1.00  0.00    -0.265 OA
HETATM   24  N1  UNL     1       7.804   0.874  18.484  1.00  0.00    -0.351 N 
ATOM     25  H1  UNL     1       7.917   0.171  19.216  1.00  0.00     0.163 HD
BRANCH  24  26
HETATM   26  C7  UNL     1       8.812   1.894  18.325  1.00  0.00     0.084 C 
HETATM   27  C8  UNL     1      10.160   1.288  18.605  1.00  0.00     0.026 C 
HETATM   28  C9  UNL     1      11.277   2.284  18.286  1.00  0.00     0.008 C 
HETATM   29  C10 UNL     1      10.822   3.689  18.711  1.00  0.00     0.014 C 
HETATM   30  C17 UNL     1       9.877   3.481  19.853  1.00  0.00     0.008 C 
HETATM   31  C18 UNL     1       8.538   3.030  19.253  1.00  0.00     0.026 C 
BRANCH  29  32
HETATM   32  C11 UNL     1      12.038   4.463  19.107  1.00  0.00     0.276 C 
BRANCH  32  33
HETATM   33  N2  UNL     1      12.874   3.712  20.052  1.00  0.00     0.086 N 
HETATM   34  C12 UNL     1      14.213   3.614  19.595  1.00  0.00     0.310 C 
BRANCH  33  35
HETATM   35  C13 UNL     1      12.624   4.085  21.387  1.00  0.00     0.296 C 
BRANCH  35  36
HETATM   36  C14 UNL     1      12.533   2.946  22.347  1.00  0.00     0.056 C 
HETATM   37  C15 UNL     1      11.883   3.411  23.664  1.00  0.00     0.034 C 
HETATM   38  C16 UNL     1      11.626   1.855  21.805  1.00  0.00     0.034 C 
HETATM   39 CL1  UNL     1      14.065   2.209  22.809  1.00  0.00    -0.118 Cl
ENDBRANCH  35  36
ENDBRANCH  33  35
ENDBRANCH  32  33
ENDBRANCH  29  32
ENDBRANCH  24  26
ENDBRANCH   5  22
TORSDOF 10
ENDMDL
MODEL 2
REMARK VINA RESULT: -9.258554992      1.184      1.577
REMARK  10 active torsions:
REMARK  status: ('A' for Active; 'I' for Inactive)
REMARK    1  A    between atoms: C5_5  and  C6_6 
REMARK       I    between atoms: C6_6  and  N1_8 
REMARK    2  A    between atoms: N1_8  and  C7_10 
REMARK    3  A    between atoms: C10_13  and  C11_14 
REMARK    4  A    between atoms: C11_14  and  N2_15 
REMARK    5  A    between atoms: N2_15  and  C13_17 
REMARK    6  A    between atoms: C13_17  and  C14_18 
REMARK    7  A    between atoms: C19_25  and  N3_26 
REMARK       I    between atoms: N3_26  and  C20_28 
REMARK       I    between atoms: C20_28  and  N4_30 
REMARK    8  A    between atoms: N4_30  and  C21_32 
REMARK    9  A    between atoms: C21_32  and  C22_33 
REMARK   10  A    between atoms: C21_32  and  C25_36 
ROOT
HETATM    1  C1  UNL     1       2.623  -3.874  16.429  1.00  0.00     0.018 C 
HETATM    2  C2  UNL     1       3.467  -3.185  16.917  1.00  0.00    -0.073 C 
HETATM    3  C3  UNL     1       4.493  -2.375  17.514  1.00  0.00     0.071 A 
HETATM    4  C4  UNL     1       5.065  -1.234  16.934  1.00  0.00     0.068 A 
HETATM    5  C5  UNL     1       5.990  -0.787  17.846  1.00  0.00     0.146 A 
HETATM    6  O2  UNL     1       5.983  -1.581  18.884  1.00  0.00    -0.286 OA
HETATM    7  C19 UNL     1       5.111  -2.540  18.736  1.00  0.00     0.171 A 
ENDROOT
BRANCH   7   8
HETATM    8  N3  UNL     1       4.861  -3.565  19.683  1.00  0.00    -0.288 N 
HETATM    9  C20 UNL     1       4.191  -3.247  20.894  1.00  0.00     0.322 C 
HETATM   10  O3  UNL     1       3.800  -2.072  21.150  1.00  0.00    -0.247 OA
HETATM   11  N4  UNL     1       3.955  -4.278  21.839  1.00  0.00    -0.329 N 
ATOM     12  H4  UNL     1       4.270  -5.229  21.644  1.00  0.00     0.165 HD
ATOM     13  H3  UNL     1       5.160  -4.522  19.496  1.00  0.00     0.172 HD
BRANCH  11  14
HETATM   14  C21 UNL     1       3.276  -3.990  23.067  1.00  0.00     0.197 C 
BRANCH  14  15
HETATM   15  C22 UNL     1       2.177  -4.978  23.384  1.00  0.00     0.009 C 
HETATM   16  C23 UNL     1       1.919  -5.923  22.257  1.00  0.00     0.012 C 
HETATM   17  C24 UNL     1       0.896  -4.196  23.657  1.00  0.00     0.012 C 
ENDBRANCH  14  15
BRANCH  14  18
HETATM   18  C25 UNL     1       4.248  -3.935  24.250  1.00  0.00     0.407 C 
HETATM   19  F1  UNL     1       4.775  -5.202  24.449  1.00  0.00    -0.169 F 
HETATM   20  F2  UNL     1       3.601  -3.578  25.408  1.00  0.00    -0.169 F 
HETATM   21  F3  UNL     1       5.223  -3.030  23.930  1.00  0.00    -0.169 F 
ENDBRANCH  14  18
ENDBRANCH  11  14
ENDBRANCH   7   8
BRANCH   5  22
HETATM   22  C6  UNL     1       6.845   0.402  17.655  1.00  0.00     0.275 C 
HETATM   23  O1  UNL     1       6.561   1.264  16.812  1.00  0.00    -0.265 OA
HETATM   24  N1  UNL     1       7.998   0.531  18.463  1.00  0.00    -0.351 N 
ATOM     25  H1  UNL     1       8.210  -0.194  19.149  1.00  0.00     0.163 HD
BRANCH  24  26
HETATM   26  C7  UNL     1       8.883   1.665  18.340  1.00  0.00     0.084 C 
HETATM   27  C8  UNL     1      10.294   1.203  18.576  1.00  0.00     0.026 C 
HETATM   28  C9  UNL     1      11.287   2.331  18.291  1.00  0.00     0.008 C 
HETATM   29  C10 UNL     1      10.686   3.655  18.786  1.00  0.00     0.014 C 
HETATM   30  C17 UNL     1       9.789   3.292  19.927  1.00  0.00     0.008 C 
HETATM   31  C18 UNL     1       8.498   2.721  19.322  1.00  0.00     0.026 C 
BRANCH  29  32
HETATM   32  C11 UNL     1      11.814   4.542  19.203  1.00  0.00     0.276 C 
BRANCH  32  33
HETATM   33  N2  UNL     1      12.760   3.840  20.078  1.00  0.00     0.086 N 
HETATM   34  C12 UNL     1      14.078   3.879  19.556  1.00  0.00     0.310 C 
BRANCH  33  35
HETATM   35  C13 UNL     1      12.545   4.145  21.437  1.00  0.00     0.296 C 
BRANCH  35  36
HETATM   36  C14 UNL     1      12.550   2.965  22.350  1.00  0.00     0.056 C 
HETATM   37  C15 UNL     1      11.969   3.352  23.723  1.00  0.00     0.034 C 
HETATM   38  C16 UNL     1      11.646   1.866  21.817  1.00  0.00     0.034 C 
HETATM   39 CL1  UNL     1      14.130   2.262  22.687  1.00  0.00    -0.118 Cl
ENDBRANCH  35  36
ENDBRANCH  33  35
ENDBRANCH  32  33
ENDBRANCH  29  32
ENDBRANCH  24  26
ENDBRANCH   5  22
TORSDOF 10
ENDMDL
MODEL 3
REMARK VINA RESULT: -8.912575599      4.190      9.739
REMARK  10 active torsions:
REMARK  status: ('A' for Active; 'I' for Inactive)
REMARK    1  A    between atoms: C5_5  and  C6_6 
REMARK       I    between atoms: C6_6  and  N1_8 
REMARK    2  A    between atoms: N1_8  and  C7_10 
REMARK    3  A    between atoms: C10_13  and  C11_14 
REMARK    4  A    between atoms: C11_14  and  N2_15 
REMARK    5  A    between atoms: N2_15  and  C13_17 
REMARK    6  A    between atoms: C13_17  and  C14_18 
REMARK    7  A    between atoms: C19_25  and  N3_26 
REMARK       I    between atoms: N3_26  and  C20_28 
REMARK       I    between atoms: C20_28  and  N4_30 
REMARK    8  A    between atoms: N4_30  and  C21_32 
REMARK    9  A    between atoms: C21_32  and  C22_33 
REMARK   10  A    between atoms: C21_32  and  C25_36 
ROOT
HETATM    1  C1  UNL     1       6.562   2.509  14.399  1.00  0.00     0.018 C 
HETATM    2  C2  UNL     1       6.360   1.859  15.380  1.00  0.00    -0.073 C 
HETATM    3  C3  UNL     1       6.118   1.096  16.573  1.00  0.00     0.071 A 
HETATM    4  C4  UNL     1       5.271  -0.017  16.666  1.00  0.00     0.068 A 
HETATM    5  C5  UNL     1       5.345  -0.423  17.976  1.00  0.00     0.146 A 
HETATM    6  O2  UNL     1       6.159   0.369  18.622  1.00  0.00    -0.286 OA
HETATM    7  C19 UNL     1       6.646   1.288  17.833  1.00  0.00     0.171 A 
ENDROOT
BRANCH   7   8
HETATM    8  N3  UNL     1       7.556   2.299  18.228  1.00  0.00    -0.288 N 
HETATM    9  C20 UNL     1       8.811   1.931  18.782  1.00  0.00     0.322 C 
HETATM   10  O3  UNL     1       9.145   0.719  18.927  1.00  0.00    -0.247 OA
HETATM   11  N4  UNL     1       9.711   2.951  19.183  1.00  0.00    -0.329 N 
ATOM     12  H4  UNL     1       9.450   3.931  19.075  1.00  0.00     0.165 HD
ATOM     13  H3  UNL     1       7.313   3.283  18.115  1.00  0.00     0.172 HD
BRANCH  11  14
HETATM   14  C21 UNL     1      10.986   2.610  19.741  1.00  0.00     0.197 C 
BRANCH  14  15
HETATM   15  C22 UNL     1      12.058   3.631  19.437  1.00  0.00     0.009 C 
HETATM   16  C23 UNL     1      11.527   5.027  19.426  1.00  0.00     0.012 C 
HETATM   17  C24 UNL     1      12.632   3.325  18.058  1.00  0.00     0.012 C 
ENDBRANCH  14  15
BRANCH  14  18
HETATM   18  C25 UNL     1      10.905   2.414  21.258  1.00  0.00     0.407 C 
HETATM   19  F1  UNL     1      12.086   2.866  21.827  1.00  0.00    -0.169 F 
HETATM   20  F2  UNL     1      10.783   1.084  21.581  1.00  0.00    -0.169 F 
HETATM   21  F3  UNL     1       9.826   3.130  21.701  1.00  0.00    -0.169 F 
ENDBRANCH  14  18
ENDBRANCH  11  14
ENDBRANCH   7   8
BRANCH   5  22
HETATM   22  C6  UNL     1       4.607  -1.572  18.539  1.00  0.00     0.275 C 
HETATM   23  O1  UNL     1       3.850  -2.252  17.832  1.00  0.00    -0.265 OA
HETATM   24  N1  UNL     1       4.787  -1.875  19.908  1.00  0.00    -0.351 N 
ATOM     25  H1  UNL     1       5.414  -1.297  20.468  1.00  0.00     0.163 HD
BRANCH  24  26
HETATM   26  C7  UNL     1       4.104  -2.983  20.532  1.00  0.00     0.084 C 
HETATM   27  C8  UNL     1       3.684  -2.572  21.916  1.00  0.00     0.026 C 
HETATM   28  C9  UNL     1       2.809  -3.651  22.558  1.00  0.00     0.008 C 
HETATM   29  C10 UNL     1       3.357  -5.031  22.163  1.00  0.00     0.014 C 
HETATM   30  C17 UNL     1       4.826  -4.839  21.953  1.00  0.00     0.008 C 
HETATM   31  C18 UNL     1       5.003  -4.173  20.581  1.00  0.00     0.026 C 
BRANCH  29  32
HETATM   32  C11 UNL     1       3.055  -5.979  23.278  1.00  0.00     0.276 C 
BRANCH  32  33
HETATM   33  N2  UNL     1       2.854  -5.274  24.549  1.00  0.00     0.086 N 
HETATM   34  C12 UNL     1       1.488  -5.274  24.931  1.00  0.00     0.310 C 
BRANCH  33  35
HETATM   35  C13 UNL     1       3.838  -5.610  25.499  1.00  0.00     0.296 C 
BRANCH  35  36
HETATM   36  C14 UNL     1       4.338  -4.464  26.314  1.00  0.00     0.056 C 
HETATM   37  C15 UNL     1       5.575  -4.889  27.127  1.00  0.00     0.034 C 
HETATM   38  C16 UNL     1       4.806  -3.329  25.418  1.00  0.00     0.034 C 
HETATM   39 CL1  UNL     1       3.202  -3.805  27.488  1.00  0.00    -0.118 Cl
ENDBRANCH  35  36
ENDBRANCH  33  35
ENDBRANCH  32  33
ENDBRANCH  29  32
ENDBRANCH  24  26
ENDBRANCH   5  22
TORSDOF 10
ENDMDL
MODEL 4
REMARK VINA RESULT: -8.658378889      5.382     10.921
REMARK  10 active torsions:
REMARK  status: ('A' for Active; 'I' for Inactive)
REMARK    1  A    between atoms: C5_5  and  C6_6 
REMARK       I    between atoms: C6_6  and  N1_8 
REMARK    2  A    between atoms: N1_8  and  C7_10 
REMARK    3  A    between atoms: C10_13  and  C11_14 
REMARK    4  A    between atoms: C11_14  and  N2_15 
REMARK    5  A    between atoms: N2_15  and  C13_17 
REMARK    6  A    between atoms: C13_17  and  C14_18 
REMARK    7  A    between atoms: C19_25  and  N3_26 
REMARK       I    between atoms: N3_26  and  C20_28 
REMARK       I    between atoms: C20_28  and  N4_30 
REMARK    8  A    between atoms: N4_30  and  C21_32 
REMARK    9  A    between atoms: C21_32  and  C22_33 
REMARK   10  A    between atoms: C21_32  and  C25_36 
ROOT
HETATM    1  C1  UNL     1       6.346   2.454  15.075  1.00  0.00     0.018 C 
HETATM    2  C2  UNL     1       6.175   1.771  16.039  1.00  0.00    -0.073 C 
HETATM    3  C3  UNL     1       5.985   0.960  17.211  1.00  0.00     0.071 A 
HETATM    4  C4  UNL     1       4.759   0.439  17.645  1.00  0.00     0.068 A 
HETATM    5  C5  UNL     1       5.047  -0.263  18.791  1.00  0.00     0.146 A 
HETATM    6  O2  UNL     1       6.328  -0.177  19.032  1.00  0.00    -0.286 OA
HETATM    7  C19 UNL     1       6.931   0.539  18.123  1.00  0.00     0.171 A 
ENDROOT
BRANCH   7   8
HETATM    8  N3  UNL     1       8.319   0.822  18.099  1.00  0.00    -0.288 N 
HETATM    9  C20 UNL     1       8.833   1.865  18.915  1.00  0.00     0.322 C 
HETATM   10  O3  UNL     1       8.084   2.546  19.674  1.00  0.00    -0.247 OA
HETATM   11  N4  UNL     1      10.222   2.147  18.876  1.00  0.00    -0.329 N 
ATOM     12  H4  UNL     1      10.834   1.606  18.264  1.00  0.00     0.165 HD
ATOM     13  H3  UNL     1       8.944   0.282  17.501  1.00  0.00     0.172 HD
BRANCH  11  14
HETATM   14  C21 UNL     1      10.770   3.189  19.693  1.00  0.00     0.197 C 
BRANCH  14  15
HETATM   15  C22 UNL     1      11.607   2.667  20.838  1.00  0.00     0.009 C 
HETATM   16  C23 UNL     1      10.889   1.634  21.642  1.00  0.00     0.012 C 
HETATM   17  C24 UNL     1      11.945   3.839  21.754  1.00  0.00     0.012 C 
ENDBRANCH  14  15
BRANCH  14  18
HETATM   18  C25 UNL     1      11.614   4.166  18.869  1.00  0.00     0.407 C 
HETATM   19  F1  UNL     1      11.219   4.083  17.541  1.00  0.00    -0.169 F 
HETATM   20  F2  UNL     1      12.947   3.834  18.917  1.00  0.00    -0.169 F 
HETATM   21  F3  UNL     1      11.399   5.417  19.380  1.00  0.00    -0.169 F 
ENDBRANCH  14  18
ENDBRANCH  11  14
ENDBRANCH   7   8
BRANCH   5  22
HETATM   22  C6  UNL     1       4.047  -0.987  19.602  1.00  0.00     0.275 C 
HETATM   23  O1  UNL     1       2.843  -0.950  19.313  1.00  0.00    -0.265 OA
HETATM   24  N1  UNL     1       4.502  -1.724  20.719  1.00  0.00    -0.351 N 
ATOM     25  H1  UNL     1       5.499  -1.736  20.936  1.00  0.00     0.163 HD
BRANCH  24  26
HETATM   26  C7  UNL     1       3.589  -2.461  21.560  1.00  0.00     0.084 C 
HETATM   27  C8  UNL     1       4.004  -2.282  22.994  1.00  0.00     0.026 C 
HETATM   28  C9  UNL     1       2.972  -2.903  23.938  1.00  0.00     0.008 C 
HETATM   29  C10 UNL     1       2.453  -4.207  23.312  1.00  0.00     0.014 C 
HETATM   30  C17 UNL     1       3.576  -4.730  22.473  1.00  0.00     0.008 C 
HETATM   31  C18 UNL     1       3.596  -3.903  21.180  1.00  0.00     0.026 C 
BRANCH  29  32
HETATM   32  C11 UNL     1       2.088  -5.135  24.426  1.00  0.00     0.276 C 
BRANCH  32  33
HETATM   33  N2  UNL     1       0.654  -5.079  24.730  1.00  0.00     0.086 N 
HETATM   34  C12 UNL     1       0.416  -4.520  26.012  1.00  0.00     0.310 C 
BRANCH  33  35
HETATM   35  C13 UNL     1      -0.101  -4.630  23.628  1.00  0.00     0.296 C 
BRANCH  35  36
HETATM   36  C14 UNL     1      -1.180  -5.563  23.189  1.00  0.00     0.056 C 
HETATM   37  C15 UNL     1      -2.432  -4.768  22.772  1.00  0.00     0.034 C 
HETATM   38  C16 UNL     1      -0.755  -6.336  21.952  1.00  0.00     0.034 C 
HETATM   39 CL1  UNL     1      -1.734  -6.718  24.398  1.00  0.00    -0.118 Cl
ENDBRANCH  35  36
ENDBRANCH  33  35
ENDBRANCH  32  33
ENDBRANCH  29  32
ENDBRANCH  24  26
ENDBRANCH   5  22
TORSDOF 10
ENDMDL
MODEL 5
REMARK VINA RESULT: -8.639403989      5.337     10.642
REMARK  10 active torsions:
REMARK  status: ('A' for Active; 'I' for Inactive)
REMARK    1  A    between atoms: C5_5  and  C6_6 
REMARK       I    between atoms: C6_6  and  N1_8 
REMARK    2  A    between atoms: N1_8  and  C7_10 
REMARK    3  A    between atoms: C10_13  and  C11_14 
REMARK    4  A    between atoms: C11_14  and  N2_15 
REMARK    5  A    between atoms: N2_15  and  C13_17 
REMARK    6  A    between atoms: C13_17  and  C14_18 
REMARK    7  A    between atoms: C19_25  and  N3_26 
REMARK       I    between atoms: N3_26  and  C20_28 
REMARK       I    between atoms: C20_28  and  N4_30 
REMARK    8  A    between atoms: N4_30  and  C21_32 
REMARK    9  A    between atoms: C21_32  and  C22_33 
REMARK   10  A    between atoms: C21_32  and  C25_36 
ROOT
HETATM    1  C1  UNL     1       7.380   2.901  14.975  1.00  0.00     0.018 C 
HETATM    2  C2  UNL     1       7.385   2.332  16.024  1.00  0.00    -0.073 C 
HETATM    3  C3  UNL     1       7.407   1.662  17.296  1.00  0.00     0.071 A 
HETATM    4  C4  UNL     1       6.296   1.087  17.927  1.00  0.00     0.068 A 
HETATM    5  C5  UNL     1       6.775   0.566  19.105  1.00  0.00     0.146 A 
HETATM    6  O2  UNL     1       8.058   0.802  19.183  1.00  0.00    -0.286 OA
HETATM    7  C19 UNL     1       8.482   1.450  18.133  1.00  0.00     0.171 A 
ENDROOT
BRANCH   7   8
HETATM    8  N3  UNL     1       9.822   1.857  17.915  1.00  0.00    -0.288 N 
HETATM    9  C20 UNL     1      10.318   3.011  18.578  1.00  0.00     0.322 C 
HETATM   10  O3  UNL     1       9.597   3.685  19.369  1.00  0.00    -0.247 OA
HETATM   11  N4  UNL     1      11.657   3.415  18.344  1.00  0.00    -0.329 N 
ATOM     12  H4  UNL     1      12.245   2.880  17.705  1.00  0.00     0.165 HD
ATOM     13  H3  UNL     1      10.425   1.325  17.287  1.00  0.00     0.172 HD
BRANCH  11  14
HETATM   14  C21 UNL     1      12.187   4.572  19.003  1.00  0.00     0.197 C 
BRANCH  14  15
HETATM   15  C22 UNL     1      13.128   4.231  20.135  1.00  0.00     0.009 C 
HETATM   16  C23 UNL     1      14.246   3.343  19.698  1.00  0.00     0.012 C 
HETATM   17  C24 UNL     1      12.331   3.504  21.214  1.00  0.00     0.012 C 
ENDBRANCH  14  15
BRANCH  14  18
HETATM   18  C25 UNL     1      12.910   5.498  18.021  1.00  0.00     0.407 C 
HETATM   19  F1  UNL     1      13.687   4.724  17.171  1.00  0.00    -0.169 F 
HETATM   20  F2  UNL     1      13.760   6.354  18.679  1.00  0.00    -0.169 F 
HETATM   21  F3  UNL     1      11.950   6.188  17.333  1.00  0.00    -0.169 F 
ENDBRANCH  14  18
ENDBRANCH  11  14
ENDBRANCH   7   8
BRANCH   5  22
HETATM   22  C6  UNL     1       5.949  -0.139  20.105  1.00  0.00     0.275 C 
HETATM   23  O1  UNL     1       5.385   0.479  21.018  1.00  0.00    -0.265 OA
HETATM   24  N1  UNL     1       5.819  -1.543  19.993  1.00  0.00    -0.351 N 
ATOM     25  H1  UNL     1       6.296  -2.028  19.233  1.00  0.00     0.163 HD
BRANCH  24  26
HETATM   26  C7  UNL     1       5.027  -2.305  20.928  1.00  0.00     0.084 C 
HETATM   27  C8  UNL     1       5.869  -2.608  22.137  1.00  0.00     0.026 C 
HETATM   28  C9  UNL     1       5.027  -3.268  23.231  1.00  0.00     0.008 C 
HETATM   29  C10 UNL     1       4.029  -4.232  22.572  1.00  0.00     0.014 C 
HETATM   30  C17 UNL     1       4.686  -4.697  21.311  1.00  0.00     0.008 C 
HETATM   31  C18 UNL     1       4.549  -3.563  20.285  1.00  0.00     0.026 C 
BRANCH  29  32
HETATM   32  C11 UNL     1       3.771  -5.349  23.530  1.00  0.00     0.276 C 
BRANCH  32  33
HETATM   33  N2  UNL     1       3.216  -4.860  24.797  1.00  0.00     0.086 N 
HETATM   34  C12 UNL     1       1.987  -4.180  24.597  1.00  0.00     0.310 C 
BRANCH  33  35
HETATM   35  C13 UNL     1       3.316  -5.821  25.822  1.00  0.00     0.296 C 
BRANCH  35  36
HETATM   36  C14 UNL     1       4.561  -5.736  26.640  1.00  0.00     0.056 C 
HETATM   37  C15 UNL     1       4.230  -5.919  28.133  1.00  0.00     0.034 C 
HETATM   38  C16 UNL     1       5.515  -6.866  26.290  1.00  0.00     0.034 C 
HETATM   39 CL1  UNL     1       5.445  -4.216  26.534  1.00  0.00    -0.118 Cl
ENDBRANCH  35  36
ENDBRANCH  33  35
ENDBRANCH  32  33
ENDBRANCH  29  32
ENDBRANCH  24  26
ENDBRANCH   5  22
TORSDOF 10
ENDMDL
