MODEL 1
REMARK VINA RESULT: -9.677878735      0.000      0.000
REMARK  12 active torsions:
REMARK  status: ('A' for Active; 'I' for Inactive)
REMARK    1  A    between atoms: C2_2  and  C3_3 
REMARK    2  A    between atoms: C3_3  and  N1_4 
REMARK       I    between atoms: N1_4  and  C4_6 
REMARK    3  A    between atoms: C4_6  and  C5_8 
REMARK    4  A    between atoms: C5_8  and  C6_9 
REMARK    5  A    between atoms: C5_8  and  N3_26 
REMARK    6  A    between atoms: C6_9  and  C7_10 
REMARK    7  A    between atoms: C7_10  and  C9_12 
REMARK    8  A    between atoms: C9_12  and  N2_13 
REMARK    9  A    between atoms: C13_17  and  C14_18 
REMARK   10  A    between atoms: C14_18  and  O2_19 
REMARK       I    between atoms: N3_26  and  C20_28 
REMARK   11  A    between atoms: C20_28  and  O4_30 
REMARK   12  A    between atoms: O4_30  and  C21_31 
ROOT
HETATM    1  C5  UNL     1       7.378  -0.153  17.971  1.00  0.00     0.179 C 
ENDROOT
BRANCH   1   2
HETATM    2  C4  UNL     1       7.701   0.793  16.863  1.00  0.00     0.240 C 
HETATM    3  N1  UNL     1       6.740   1.139  15.881  1.00  0.00    -0.359 N 
ATOM      4  H1  UNL     1       5.807   0.728  15.925  1.00  0.00     0.162 HD
HETATM    5  O1  UNL     1       8.847   1.310  16.778  1.00  0.00    -0.271 OA
BRANCH   3   6
HETATM    6  C3  UNL     1       7.054   2.053  14.829  1.00  0.00     0.122 C 
BRANCH   6   7
HETATM    7  C2  UNL     1       6.061   2.130  13.718  1.00  0.00     0.015 C 
HETATM    8  C1  UNL     1       4.860   2.911  14.231  1.00  0.00     0.006 C 
ENDBRANCH   6   7
ENDBRANCH   3   6
ENDBRANCH   1   2
BRANCH   1   9
HETATM    9  C6  UNL     1       8.622  -0.427  18.815  1.00  0.00     0.044 C 
BRANCH   9  10
HETATM   10  C7  UNL     1       8.359   0.075  20.207  1.00  0.00     0.022 C 
HETATM   11  C8  UNL     1       7.040  -0.391  20.731  1.00  0.00     0.015 C 
BRANCH  10  12
HETATM   12  C9  UNL     1       8.638   1.518  20.392  1.00  0.00     0.067 C 
BRANCH  12  13
HETATM   13  N2  UNL     1       9.963   1.979  20.372  1.00  0.00    -0.373 N 
HETATM   14  C10 UNL     1      11.030   1.092  20.150  1.00  0.00     0.067 C 
HETATM   15  C11 UNL     1      11.657   1.252  18.766  1.00  0.00     0.079 C 
HETATM   16  C12 UNL     1      12.249   2.610  18.760  1.00  0.00    -0.071 C 
HETATM   17  C13 UNL     1      13.404   2.813  18.198  1.00  0.00     0.040 C 
HETATM   18  C18 UNL     1      11.475   3.692  19.400  1.00  0.00     0.055 C 
HETATM   19  C19 UNL     1      10.068   3.188  19.636  1.00  0.00     0.131 C 
BRANCH  17  20
HETATM   20  C14 UNL     1      14.127   4.065  18.100  1.00  0.00     0.067 C 
HETATM   21  C15 UNL     1      15.086   4.331  18.992  1.00  0.00    -0.054 C 
HETATM   22  C16 UNL     1      15.420   3.363  20.074  1.00  0.00     0.046 C 
HETATM   23  C17 UNL     1      15.819   5.604  18.884  1.00  0.00     0.046 C 
BRANCH  20  24
HETATM   24  O2  UNL     1      13.858   5.002  17.113  1.00  0.00    -0.360 OA
ATOM     25  H2  UNL     1      14.436   5.734  16.938  1.00  0.00     0.217 HD
ENDBRANCH  20  24
ENDBRANCH  17  20
ENDBRANCH  12  13
ENDBRANCH  10  12
ENDBRANCH   9  10
ENDBRANCH   1   9
BRANCH   1  26
HETATM   26  N3  UNL     1       6.727  -1.324  17.482  1.00  0.00    -0.324 N 
HETATM   27  C20 UNL     1       5.339  -1.447  17.332  1.00  0.00     0.362 C 
HETATM   28  O3  UNL     1       4.569  -0.513  17.633  1.00  0.00    -0.238 OA
ATOM     29  H3  UNL     1       7.307  -2.123  17.226  1.00  0.00     0.165 HD
BRANCH  27  30
HETATM   30  O4  UNL     1       4.789  -2.614  16.845  1.00  0.00    -0.294 OA
BRANCH  30  31
HETATM   31  C21 UNL     1       4.320  -3.671  17.628  1.00  0.00     0.061 C 
HETATM   32  C22 UNL     1       5.428  -4.510  18.218  1.00  0.00     0.046 C 
HETATM   33  C23 UNL     1       3.511  -4.579  16.705  1.00  0.00     0.046 C 
HETATM   34  C24 UNL     1       3.434  -3.233  18.754  1.00  0.00     0.046 C 
ENDBRANCH  30  31
ENDBRANCH  27  30
ENDBRANCH   1  26
TORSDOF 12
ENDMDL
MODEL 2
REMARK VINA RESULT: -9.408874808      1.721      4.183
REMARK  12 active torsions:
REMARK  status: ('A' for Active; 'I' for Inactive)
REMARK    1  A    between atoms: C2_2  and  C3_3 
REMARK    2  A    between atoms: C3_3  and  N1_4 
REMARK       I    between atoms: N1_4  and  C4_6 
REMARK    3  A    between atoms: C4_6  and  C5_8 
REMARK    4  A    between atoms: C5_8  and  C6_9 
REMARK    5  A    between atoms: C5_8  and  N3_26 
REMARK    6  A    between atoms: C6_9  and  C7_10 
REMARK    7  A    between atoms: C7_10  and  C9_12 
REMARK    8  A    between atoms: C9_12  and  N2_13 
REMARK    9  A    between atoms: C13_17  and  C14_18 
REMARK   10  A    between atoms: C14_18  and  O2_19 
REMARK       I    between atoms: N3_26  and  C20_28 
REMARK   11  A    between atoms: C20_28  and  O4_30 
REMARK   12  A    between atoms: O4_30  and  C21_31 
ROOT
HETATM    1  C5  UNL     1       6.250  -0.825  18.355  1.00  0.00     0.179 C 
ENDROOT
BRANCH   1   2
HETATM    2  C4  UNL     1       6.222  -2.317  18.333  1.00  0.00     0.240 C 
HETATM    3  N1  UNL     1       5.014  -3.039  18.501  1.00  0.00    -0.359 N 
ATOM      4  H1  UNL     1       4.143  -2.530  18.648  1.00  0.00     0.162 HD
HETATM    5  O1  UNL     1       7.285  -2.973  18.161  1.00  0.00    -0.271 OA
BRANCH   3   6
HETATM    6  C3  UNL     1       4.996  -4.466  18.469  1.00  0.00     0.122 C 
BRANCH   6   7
HETATM    7  C2  UNL     1       4.383  -5.080  17.255  1.00  0.00     0.015 C 
HETATM    8  C1  UNL     1       3.245  -4.174  16.809  1.00  0.00     0.006 C 
ENDBRANCH   6   7
ENDBRANCH   3   6
ENDBRANCH   1   2
BRANCH   1   9
HETATM    9  C6  UNL     1       5.945  -0.308  19.760  1.00  0.00     0.044 C 
BRANCH   9  10
HETATM   10  C7  UNL     1       7.191  -0.450  20.588  1.00  0.00     0.022 C 
HETATM   11  C8  UNL     1       6.938  -1.200  21.856  1.00  0.00     0.015 C 
BRANCH  10  12
HETATM   12  C9  UNL     1       7.963   0.806  20.739  1.00  0.00     0.067 C 
BRANCH  12  13
HETATM   13  N2  UNL     1       9.322   0.832  20.396  1.00  0.00    -0.373 N 
HETATM   14  C10 UNL     1       9.750   0.440  19.115  1.00  0.00     0.067 C 
HETATM   15  C11 UNL     1      10.194   1.620  18.253  1.00  0.00     0.079 C 
HETATM   16  C12 UNL     1      11.391   2.171  18.930  1.00  0.00    -0.071 C 
HETATM   17  C13 UNL     1      12.409   2.574  18.227  1.00  0.00     0.040 C 
HETATM   18  C18 UNL     1      11.364   2.244  20.404  1.00  0.00     0.055 C 
HETATM   19  C19 UNL     1       9.939   2.022  20.860  1.00  0.00     0.131 C 
BRANCH  17  20
HETATM   20  C14 UNL     1      13.651   3.132  18.718  1.00  0.00     0.067 C 
HETATM   21  C15 UNL     1      13.911   4.426  18.505  1.00  0.00    -0.054 C 
HETATM   22  C16 UNL     1      12.944   5.293  17.775  1.00  0.00     0.046 C 
HETATM   23  C17 UNL     1      15.175   4.987  19.011  1.00  0.00     0.046 C 
BRANCH  20  24
HETATM   24  O2  UNL     1      14.587   2.371  19.404  1.00  0.00    -0.360 OA
ATOM     25  H2  UNL     1      15.477   2.260  19.093  1.00  0.00     0.217 HD
ENDBRANCH  20  24
ENDBRANCH  17  20
ENDBRANCH  12  13
ENDBRANCH  10  12
ENDBRANCH   9  10
ENDBRANCH   1   9
BRANCH   1  26
HETATM   26  N3  UNL     1       5.423  -0.274  17.331  1.00  0.00    -0.324 N 
HETATM   27  C20 UNL     1       5.869   0.641  16.368  1.00  0.00     0.362 C 
HETATM   28  O3  UNL     1       7.049   1.046  16.356  1.00  0.00    -0.238 OA
ATOM     29  H3  UNL     1       4.447  -0.565  17.297  1.00  0.00     0.165 HD
BRANCH  27  30
HETATM   30  O4  UNL     1       5.006   1.120  15.406  1.00  0.00    -0.294 OA
BRANCH  30  31
HETATM   31  C21 UNL     1       4.062   2.131  15.603  1.00  0.00     0.061 C 
HETATM   32  C22 UNL     1       2.704   1.606  16.002  1.00  0.00     0.046 C 
HETATM   33  C23 UNL     1       3.893   2.844  14.264  1.00  0.00     0.046 C 
HETATM   34  C24 UNL     1       4.476   3.144  16.627  1.00  0.00     0.046 C 
ENDBRANCH  30  31
ENDBRANCH  27  30
ENDBRANCH   1  26
TORSDOF 12
ENDMDL
MODEL 3
REMARK VINA RESULT: -9.269896017      1.435      4.057
REMARK  12 active torsions:
REMARK  status: ('A' for Active; 'I' for Inactive)
REMARK    1  A    between atoms: C2_2  and  C3_3 
REMARK    2  A    between atoms: C3_3  and  N1_4 
REMARK       I    between atoms: N1_4  and  C4_6 
REMARK    3  A    between atoms: C4_6  and  C5_8 
REMARK    4  A    between atoms: C5_8  and  C6_9 
REMARK    5  A    between atoms: C5_8  and  N3_26 
REMARK    6  A    between atoms: C6_9  and  C7_10 
REMARK    7  A    between atoms: C7_10  and  C9_12 
REMARK    8  A    between atoms: C9_12  and  N2_13 
REMARK    9  A    between atoms: C13_17  and  C14_18 
REMARK   10  A    between atoms: C14_18  and  O2_19 
REMARK       I    between atoms: N3_26  and  C20_28 
REMARK   11  A    between atoms: C20_28  and  O4_30 
REMARK   12  A    between atoms: O4_30  and  C21_31 
ROOT
HETATM    1  C5  UNL     1       7.257  -1.064  18.310  1.00  0.00     0.179 C 
ENDROOT
BRANCH   1   2
HETATM    2  C4  UNL     1       6.928  -2.519  18.278  1.00  0.00     0.240 C 
HETATM    3  N1  UNL     1       5.589  -2.978  18.353  1.00  0.00    -0.359 N 
ATOM      4  H1  UNL     1       4.831  -2.301  18.439  1.00  0.00     0.162 HD
HETATM    5  O1  UNL     1       7.843  -3.380  18.179  1.00  0.00    -0.271 OA
BRANCH   3   6
HETATM    6  C3  UNL     1       5.281  -4.372  18.311  1.00  0.00     0.122 C 
BRANCH   6   7
HETATM    7  C2  UNL     1       4.140  -4.759  17.431  1.00  0.00     0.015 C 
HETATM    8  C1  UNL     1       3.407  -3.483  17.046  1.00  0.00     0.006 C 
ENDBRANCH   6   7
ENDBRANCH   3   6
ENDBRANCH   1   2
BRANCH   1   9
HETATM    9  C6  UNL     1       6.543  -0.384  19.476  1.00  0.00     0.044 C 
BRANCH   9  10
HETATM   10  C7  UNL     1       7.500  -0.318  20.633  1.00  0.00     0.022 C 
HETATM   11  C8  UNL     1       7.069  -1.190  21.768  1.00  0.00     0.015 C 
BRANCH  10  12
HETATM   12  C9  UNL     1       7.899   1.058  21.010  1.00  0.00     0.067 C 
BRANCH  12  13
HETATM   13  N2  UNL     1       9.249   1.434  20.944  1.00  0.00    -0.373 N 
HETATM   14  C10 UNL     1      10.251   0.480  20.696  1.00  0.00     0.067 C 
HETATM   15  C11 UNL     1      10.840   0.591  19.291  1.00  0.00     0.079 C 
HETATM   16  C12 UNL     1      11.516   1.909  19.254  1.00  0.00    -0.071 C 
HETATM   17  C13 UNL     1      12.663   2.035  18.654  1.00  0.00     0.040 C 
HETATM   18  C18 UNL     1      10.833   3.042  19.909  1.00  0.00     0.055 C 
HETATM   19  C19 UNL     1       9.406   2.629  20.195  1.00  0.00     0.131 C 
BRANCH  17  20
HETATM   20  C14 UNL     1      13.460   3.238  18.523  1.00  0.00     0.067 C 
HETATM   21  C15 UNL     1      14.479   3.436  19.364  1.00  0.00    -0.054 C 
HETATM   22  C16 UNL     1      14.805   2.441  20.425  1.00  0.00     0.046 C 
HETATM   23  C17 UNL     1      15.287   4.660  19.222  1.00  0.00     0.046 C 
BRANCH  20  24
HETATM   24  O2  UNL     1      13.202   4.197  17.554  1.00  0.00    -0.360 OA
ATOM     25  H2  UNL     1      12.473   4.802  17.620  1.00  0.00     0.217 HD
ENDBRANCH  20  24
ENDBRANCH  17  20
ENDBRANCH  12  13
ENDBRANCH  10  12
ENDBRANCH   9  10
ENDBRANCH   1   9
BRANCH   1  26
HETATM   26  N3  UNL     1       7.034  -0.452  17.042  1.00  0.00    -0.324 N 
HETATM   27  C20 UNL     1       7.695   0.702  16.598  1.00  0.00     0.362 C 
HETATM   28  O3  UNL     1       8.538   1.281  17.312  1.00  0.00    -0.238 OA
ATOM     29  H3  UNL     1       6.350  -0.879  16.418  1.00  0.00     0.165 HD
BRANCH  27  30
HETATM   30  O4  UNL     1       7.425   1.226  15.352  1.00  0.00    -0.294 OA
BRANCH  30  31
HETATM   31  C21 UNL     1       6.176   1.684  14.925  1.00  0.00     0.061 C 
HETATM   32  C22 UNL     1       5.734   2.945  15.627  1.00  0.00     0.046 C 
HETATM   33  C23 UNL     1       5.164   0.595  15.274  1.00  0.00     0.046 C 
HETATM   34  C24 UNL     1       6.105   1.937  13.450  1.00  0.00     0.046 C 
ENDBRANCH  30  31
ENDBRANCH  27  30
ENDBRANCH   1  26
TORSDOF 12
ENDMDL
MODEL 4
REMARK VINA RESULT: -9.140457081      1.492      4.005
REMARK  12 active torsions:
REMARK  status: ('A' for Active; 'I' for Inactive)
REMARK    1  A    between atoms: C2_2  and  C3_3 
REMARK    2  A    between atoms: C3_3  and  N1_4 
REMARK       I    between atoms: N1_4  and  C4_6 
REMARK    3  A    between atoms: C4_6  and  C5_8 
REMARK    4  A    between atoms: C5_8  and  C6_9 
REMARK    5  A    between atoms: C5_8  and  N3_26 
REMARK    6  A    between atoms: C6_9  and  C7_10 
REMARK    7  A    between atoms: C7_10  and  C9_12 
REMARK    8  A    between atoms: C9_12  and  N2_13 
REMARK    9  A    between atoms: C13_17  and  C14_18 
REMARK   10  A    between atoms: C14_18  and  O2_19 
REMARK       I    between atoms: N3_26  and  C20_28 
REMARK   11  A    between atoms: C20_28  and  O4_30 
REMARK   12  A    between atoms: O4_30  and  C21_31 
ROOT
HETATM    1  C5  UNL     1       6.510  -0.718  18.282  1.00  0.00     0.179 C 
ENDROOT
BRANCH   1   2
HETATM    2  C4  UNL     1       6.481  -2.210  18.237  1.00  0.00     0.240 C 
HETATM    3  N1  UNL     1       5.263  -2.930  18.307  1.00  0.00    -0.359 N 
ATOM      4  H1  UNL     1       4.384  -2.420  18.396  1.00  0.00     0.162 HD
HETATM    5  O1  UNL     1       7.552  -2.867  18.135  1.00  0.00    -0.271 OA
BRANCH   3   6
HETATM    6  C3  UNL     1       5.244  -4.357  18.253  1.00  0.00     0.122 C 
BRANCH   6   7
HETATM    7  C2  UNL     1       4.214  -4.959  17.357  1.00  0.00     0.015 C 
HETATM    8  C1  UNL     1       3.331  -3.828  16.851  1.00  0.00     0.006 C 
ENDBRANCH   6   7
ENDBRANCH   3   6
ENDBRANCH   1   2
BRANCH   1   9
HETATM    9  C6  UNL     1       6.139  -0.221  19.678  1.00  0.00     0.044 C 
BRANCH   9  10
HETATM   10  C7  UNL     1       7.389  -0.202  20.512  1.00  0.00     0.022 C 
HETATM   11  C8  UNL     1       7.337  -1.201  21.622  1.00  0.00     0.015 C 
BRANCH  10  12
HETATM   12  C9  UNL     1       7.832   1.157  20.905  1.00  0.00     0.067 C 
BRANCH  12  13
HETATM   13  N2  UNL     1       9.192   1.493  20.833  1.00  0.00    -0.373 N 
HETATM   14  C10 UNL     1      10.158   0.520  20.523  1.00  0.00     0.067 C 
HETATM   15  C11 UNL     1      10.729   0.681  19.115  1.00  0.00     0.079 C 
HETATM   16  C12 UNL     1      11.446   1.977  19.129  1.00  0.00    -0.071 C 
HETATM   17  C13 UNL     1      12.587   2.096  18.515  1.00  0.00     0.040 C 
HETATM   18  C18 UNL     1      10.810   3.098  19.849  1.00  0.00     0.055 C 
HETATM   19  C19 UNL     1       9.375   2.717  20.139  1.00  0.00     0.131 C 
BRANCH  17  20
HETATM   20  C14 UNL     1      13.419   3.278  18.428  1.00  0.00     0.067 C 
HETATM   21  C15 UNL     1      14.415   3.437  19.305  1.00  0.00    -0.054 C 
HETATM   22  C16 UNL     1      14.678   2.420  20.362  1.00  0.00     0.046 C 
HETATM   23  C17 UNL     1      15.259   4.639  19.207  1.00  0.00     0.046 C 
BRANCH  20  24
HETATM   24  O2  UNL     1      13.220   4.256  17.464  1.00  0.00    -0.360 OA
ATOM     25  H2  UNL     1      13.942   4.685  17.020  1.00  0.00     0.217 HD
ENDBRANCH  20  24
ENDBRANCH  17  20
ENDBRANCH  12  13
ENDBRANCH  10  12
ENDBRANCH   9  10
ENDBRANCH   1   9
BRANCH   1  26
HETATM   26  N3  UNL     1       5.735  -0.151  17.227  1.00  0.00    -0.324 N 
HETATM   27  C20 UNL     1       6.222   0.795  16.315  1.00  0.00     0.362 C 
HETATM   28  O3  UNL     1       7.395   1.214  16.379  1.00  0.00    -0.238 OA
ATOM     29  H3  UNL     1       4.766  -0.453  17.131  1.00  0.00     0.165 HD
BRANCH  27  30
HETATM   30  O4  UNL     1       5.407   1.288  15.318  1.00  0.00    -0.294 OA
BRANCH  30  31
HETATM   31  C21 UNL     1       4.339   2.167  15.513  1.00  0.00     0.061 C 
HETATM   32  C22 UNL     1       3.038   1.463  15.814  1.00  0.00     0.046 C 
HETATM   33  C23 UNL     1       4.148   2.926  14.203  1.00  0.00     0.046 C 
HETATM   34  C24 UNL     1       4.578   3.165  16.605  1.00  0.00     0.046 C 
ENDBRANCH  30  31
ENDBRANCH  27  30
ENDBRANCH   1  26
TORSDOF 12
ENDMDL
MODEL 5
REMARK VINA RESULT: -9.139858102      1.517      4.066
REMARK  12 active torsions:
REMARK  status: ('A' for Active; 'I' for Inactive)
REMARK    1  A    between atoms: C2_2  and  C3_3 
REMARK    2  A    between atoms: C3_3  and  N1_4 
REMARK       I    between atoms: N1_4  and  C4_6 
REMARK    3  A    between atoms: C4_6  and  C5_8 
REMARK    4  A    between atoms: C5_8  and  C6_9 
REMARK    5  A    between atoms: C5_8  and  N3_26 
REMARK    6  A    between atoms: C6_9  and  C7_10 
REMARK    7  A    between atoms: C7_10  and  C9_12 
REMARK    8  A    between atoms: C9_12  and  N2_13 
REMARK    9  A    between atoms: C13_17  and  C14_18 
REMARK   10  A    between atoms: C14_18  and  O2_19 
REMARK       I    between atoms: N3_26  and  C20_28 
REMARK   11  A    between atoms: C20_28  and  O4_30 
REMARK   12  A    between atoms: O4_30  and  C21_31 
ROOT
HETATM    1  C5  UNL     1       6.042   0.223  18.298  1.00  0.00     0.179 C 
ENDROOT
BRANCH   1   2
HETATM    2  C4  UNL     1       5.063  -0.865  18.589  1.00  0.00     0.240 C 
HETATM    3  N1  UNL     1       5.224  -2.169  18.056  1.00  0.00    -0.359 N 
ATOM      4  H1  UNL     1       6.023  -2.369  17.454  1.00  0.00     0.162 HD
HETATM    5  O1  UNL     1       4.062  -0.646  19.323  1.00  0.00    -0.271 OA
BRANCH   3   6
HETATM    6  C3  UNL     1       4.288  -3.207  18.347  1.00  0.00     0.122 C 
BRANCH   6   7
HETATM    7  C2  UNL     1       3.392  -3.607  17.224  1.00  0.00     0.015 C 
HETATM    8  C1  UNL     1       3.863  -4.965  16.725  1.00  0.00     0.006 C 
ENDBRANCH   6   7
ENDBRANCH   3   6
ENDBRANCH   1   2
BRANCH   1   9
HETATM    9  C6  UNL     1       6.592   0.804  19.600  1.00  0.00     0.044 C 
BRANCH   9  10
HETATM   10  C7  UNL     1       8.092   0.729  19.544  1.00  0.00     0.022 C 
HETATM   11  C8  UNL     1       8.571  -0.626  19.135  1.00  0.00     0.015 C 
BRANCH  10  12
HETATM   12  C9  UNL     1       8.771   1.310  20.726  1.00  0.00     0.067 C 
BRANCH  12  13
HETATM   13  N2  UNL     1      10.081   1.796  20.608  1.00  0.00    -0.373 N 
HETATM   14  C10 UNL     1      11.135   0.942  20.241  1.00  0.00     0.067 C 
HETATM   15  C11 UNL     1      11.626   1.187  18.815  1.00  0.00     0.079 C 
HETATM   16  C12 UNL     1      12.196   2.554  18.827  1.00  0.00    -0.071 C 
HETATM   17  C13 UNL     1      13.290   2.809  18.171  1.00  0.00     0.040 C 
HETATM   18  C18 UNL     1      11.470   3.586  19.594  1.00  0.00     0.055 C 
HETATM   19  C19 UNL     1      10.099   3.044  19.932  1.00  0.00     0.131 C 
BRANCH  17  20
HETATM   20  C14 UNL     1      13.983   4.077  18.075  1.00  0.00     0.067 C 
HETATM   21  C15 UNL     1      14.975   4.342  18.931  1.00  0.00    -0.054 C 
HETATM   22  C16 UNL     1      15.374   3.354  19.974  1.00  0.00     0.046 C 
HETATM   23  C17 UNL     1      15.677   5.632  18.825  1.00  0.00     0.046 C 
BRANCH  20  24
HETATM   24  O2  UNL     1      13.653   5.033  17.125  1.00  0.00    -0.360 OA
ATOM     25  H2  UNL     1      13.776   5.962  17.276  1.00  0.00     0.217 HD
ENDBRANCH  20  24
ENDBRANCH  17  20
ENDBRANCH  12  13
ENDBRANCH  10  12
ENDBRANCH   9  10
ENDBRANCH   1   9
BRANCH   1  26
HETATM   26  N3  UNL     1       5.494   1.191  17.405  1.00  0.00    -0.324 N 
HETATM   27  C20 UNL     1       5.141   0.923  16.075  1.00  0.00     0.362 C 
HETATM   28  O3  UNL     1       5.297  -0.211  15.579  1.00  0.00    -0.238 OA
ATOM     29  H3  UNL     1       5.350   2.138  17.755  1.00  0.00     0.165 HD
BRANCH  27  30
HETATM   30  O4  UNL     1       4.610   1.915  15.280  1.00  0.00    -0.294 OA
BRANCH  30  31
HETATM   31  C21 UNL     1       3.322   2.442  15.403  1.00  0.00     0.061 C 
HETATM   32  C22 UNL     1       2.716   2.846  14.081  1.00  0.00     0.046 C 
HETATM   33  C23 UNL     1       3.442   3.707  16.249  1.00  0.00     0.046 C 
HETATM   34  C24 UNL     1       2.358   1.514  16.079  1.00  0.00     0.046 C 
ENDBRANCH  30  31
ENDBRANCH  27  30
ENDBRANCH   1  26
TORSDOF 12
ENDMDL
