MODEL 1
REMARK VINA RESULT: -8.716975533      0.000      0.000
REMARK  13 active torsions:
REMARK  status: ('A' for Active; 'I' for Inactive)
REMARK    1  A    between atoms: C2_2  and  O1_3 
REMARK    2  A    between atoms: O1_3  and  C3_4 
REMARK    3  A    between atoms: C3_4  and  C4_6 
REMARK    4  A    between atoms: C4_6  and  N1_7 
REMARK    5  A    between atoms: C6_11  and  N3_12 
REMARK    6  A    between atoms: N3_12  and  C7_14 
REMARK    7  A    between atoms: C8_17  and  C9_18 
REMARK    8  A    between atoms: C9_18  and  N5_19 
REMARK    9  A    between atoms: N5_19  and  N6_20 
REMARK       I    between atoms: N6_20  and  C10_21 
REMARK   10  A    between atoms: C11_26  and  O4_27 
REMARK   11  A    between atoms: C12_29  and  O5_30 
REMARK   12  A    between atoms: N9_34  and  C15_35 
REMARK   13  A    between atoms: C15_35  and  C16_36 
ROOT
HETATM    1  N1  UNL     1      30.216   0.116  18.941  1.00  0.00    -0.163 NA
HETATM    2  C5  UNL     1      28.812   0.025  18.702  1.00  0.00     0.176 C 
HETATM    3  N2  UNL     1      28.406   0.082  17.344  1.00  0.00    -0.341 N 
ATOM      4  H2  UNL     1      27.410   0.119  17.125  1.00  0.00     0.167 HD
HETATM    5  C6  UNL     1      29.259   0.087  16.382  1.00  0.00     0.137 C 
HETATM    6  C13 UNL     1      30.719   0.060  16.614  1.00  0.00     0.198 C 
HETATM    7  C14 UNL     1      31.137   1.553  16.496  1.00  0.00     0.076 C 
HETATM    8  N9  UNL     1      31.486  -0.739  15.730  1.00  0.00    -0.331 N 
HETATM    9  C19 UNL     1      31.100  -2.088  15.716  1.00  0.00     0.142 C 
HETATM   10  C20 UNL     1      31.238  -2.560  17.124  1.00  0.00     0.130 C 
HETATM   11  N10 UNL     1      31.052  -3.772  17.414  1.00  0.00    -0.383 N 
ATOM     12 1H10 UNL     1      31.146  -4.096  18.377  1.00  0.00     0.157 HD
ATOM     13 2H10 UNL     1      30.810  -4.466  16.706  1.00  0.00     0.157 HD
HETATM   14  N11 UNL     1      31.573  -1.600  18.106  1.00  0.00    -0.269 N 
ATOM     15  H11 UNL     1      32.173  -1.841  18.895  1.00  0.00     0.190 HD
HETATM   16  N12 UNL     1      31.062  -0.323  17.963  1.00  0.00    -0.208 N 
ENDROOT
BRANCH   5  17
HETATM   17  N3  UNL     1      28.711   0.145  15.083  1.00  0.00    -0.326 N 
ATOM     18  H3  UNL     1      28.640  -0.741  14.583  1.00  0.00     0.169 HD
BRANCH  17  19
HETATM   19  C7  UNL     1      28.250   1.284  14.397  1.00  0.00     0.146 A 
HETATM   20  N4  UNL     1      28.986   2.042  13.582  1.00  0.00    -0.324 N 
HETATM   21  C8  UNL     1      28.498   3.124  12.928  1.00  0.00     0.141 A 
ATOM     22  H4  UNL     1      29.966   1.794  13.444  1.00  0.00     0.169 HD
HETATM   23  N8  UNL     1      27.214   3.454  13.102  1.00  0.00    -0.319 N 
HETATM   24  C11 UNL     1      26.373   2.751  13.909  1.00  0.00     0.179 A 
ATOM     25  H8  UNL     1      26.848   4.267  12.607  1.00  0.00     0.169 HD
HETATM   26  C12 UNL     1      26.926   1.664  14.549  1.00  0.00     0.161 A 
BRANCH  21  27
HETATM   27  C9  UNL     1      29.331   3.964  12.093  1.00  0.00     0.273 C 
BRANCH  27  28
HETATM   28  N5  UNL     1      30.504   3.863  11.904  1.00  0.00    -0.253 NA
BRANCH  28  29
HETATM   29  N6  UNL     1      31.693   3.723  11.561  1.00  0.00    -0.188 NA
HETATM   30  C10 UNL     1      33.016   3.567  11.179  1.00  0.00     0.437 C 
HETATM   31  N7  UNL     1      33.291   2.237  10.548  1.00  0.00    -0.023 NA
HETATM   32  O3  UNL     1      33.969   4.261  11.249  1.00  0.00    -0.231 OA
ENDBRANCH  28  29
ENDBRANCH  27  28
ENDBRANCH  21  27
BRANCH  24  33
HETATM   33  O4  UNL     1      25.038   3.110  14.083  1.00  0.00    -0.344 OA
ATOM     34  H4  UNL     1      24.446   2.609  14.633  1.00  0.00     0.219 HD
ENDBRANCH  24  33
BRANCH  26  35
HETATM   35  O5  UNL     1      26.098   0.914  15.388  1.00  0.00    -0.354 OA
ATOM     36  H5  UNL     1      25.598   1.361  16.061  1.00  0.00     0.218 HD
ENDBRANCH  26  35
ENDBRANCH  17  19
ENDBRANCH   5  17
BRANCH   8  37
HETATM   37  C15 UNL     1      32.152  -0.104  14.704  1.00  0.00     0.070 C 
BRANCH  37  38
HETATM   38  C16 UNL     1      33.617  -0.406  14.615  1.00  0.00     0.016 C 
HETATM   39  C17 UNL     1      34.229   0.636  13.664  1.00  0.00     0.015 C 
HETATM   40  C18 UNL     1      34.358  -0.365  15.930  1.00  0.00     0.015 C 
ENDBRANCH  37  38
ENDBRANCH   8  37
BRANCH   1  41
HETATM   41  C4  UNL     1      30.549  -0.428  20.211  1.00  0.00     0.233 C 
BRANCH  41  42
HETATM   42  C3  UNL     1      29.688  -1.527  20.699  1.00  0.00     0.274 C 
HETATM   43  O2  UNL     1      29.587  -2.653  20.175  1.00  0.00    -0.264 OA
BRANCH  42  44
HETATM   44  O1  UNL     1      28.937  -1.266  21.829  1.00  0.00    -0.321 OA
BRANCH  44  45
HETATM   45  C2  UNL     1      27.577  -1.459  22.012  1.00  0.00     0.174 C 
HETATM   46  C1  UNL     1      26.765  -0.237  21.707  1.00  0.00     0.034 C 
ENDBRANCH  44  45
ENDBRANCH  42  44
ENDBRANCH  41  42
ENDBRANCH   1  41
TORSDOF 13
ENDMDL
MODEL 2
REMARK VINA RESULT: -8.543183517      2.286      4.886
REMARK  13 active torsions:
REMARK  status: ('A' for Active; 'I' for Inactive)
REMARK    1  A    between atoms: C2_2  and  O1_3 
REMARK    2  A    between atoms: O1_3  and  C3_4 
REMARK    3  A    between atoms: C3_4  and  C4_6 
REMARK    4  A    between atoms: C4_6  and  N1_7 
REMARK    5  A    between atoms: C6_11  and  N3_12 
REMARK    6  A    between atoms: N3_12  and  C7_14 
REMARK    7  A    between atoms: C8_17  and  C9_18 
REMARK    8  A    between atoms: C9_18  and  N5_19 
REMARK    9  A    between atoms: N5_19  and  N6_20 
REMARK       I    between atoms: N6_20  and  C10_21 
REMARK   10  A    between atoms: C11_26  and  O4_27 
REMARK   11  A    between atoms: C12_29  and  O5_30 
REMARK   12  A    between atoms: N9_34  and  C15_35 
REMARK   13  A    between atoms: C15_35  and  C16_36 
ROOT
HETATM    1  N1  UNL     1      31.569  -1.931  16.957  1.00  0.00    -0.163 NA
HETATM    2  C5  UNL     1      32.569  -1.079  17.515  1.00  0.00     0.176 C 
HETATM    3  N2  UNL     1      32.680   0.212  16.937  1.00  0.00    -0.341 N 
ATOM      4  H2  UNL     1      33.441   0.823  17.232  1.00  0.00     0.167 HD
HETATM    5  C6  UNL     1      31.848   0.631  16.050  1.00  0.00     0.137 C 
HETATM    6  C13 UNL     1      30.733  -0.201  15.551  1.00  0.00     0.198 C 
HETATM    7  C14 UNL     1      31.281  -0.788  14.219  1.00  0.00     0.076 C 
HETATM    8  N9  UNL     1      29.500   0.460  15.328  1.00  0.00    -0.331 N 
HETATM    9  C19 UNL     1      28.989   1.094  16.471  1.00  0.00     0.142 C 
HETATM   10  C20 UNL     1      28.846   0.019  17.496  1.00  0.00     0.130 C 
HETATM   11  N10 UNL     1      28.316   0.266  18.612  1.00  0.00    -0.383 N 
ATOM     12 1H10 UNL     1      28.218  -0.469  19.313  1.00  0.00     0.157 HD
ATOM     13 2H10 UNL     1      27.964   1.193  18.850  1.00  0.00     0.157 HD
HETATM   14  N11 UNL     1      29.334  -1.266  17.168  1.00  0.00    -0.269 N 
ATOM     15  H11 UNL     1      28.859  -2.108  17.496  1.00  0.00     0.190 HD
HETATM   16  N12 UNL     1      30.473  -1.347  16.389  1.00  0.00    -0.208 N 
ENDROOT
BRANCH   5  17
HETATM   17  N3  UNL     1      32.082   1.935  15.565  1.00  0.00    -0.326 N 
ATOM     18  H3  UNL     1      31.803   2.702  16.178  1.00  0.00     0.169 HD
BRANCH  17  19
HETATM   19  C7  UNL     1      32.656   2.301  14.334  1.00  0.00     0.146 A 
HETATM   20  N4  UNL     1      32.061   3.043  13.397  1.00  0.00    -0.324 N 
HETATM   21  C8  UNL     1      32.656   3.385  12.228  1.00  0.00     0.141 A 
ATOM     22  H4  UNL     1      31.109   3.368  13.569  1.00  0.00     0.169 HD
HETATM   23  N8  UNL     1      33.904   2.966  11.997  1.00  0.00    -0.319 N 
HETATM   24  C11 UNL     1      34.605   2.206  12.883  1.00  0.00     0.179 A 
ATOM     25  H8  UNL     1      34.351   3.226  11.118  1.00  0.00     0.169 HD
HETATM   26  C12 UNL     1      33.947   1.887  14.050  1.00  0.00     0.161 A 
BRANCH  21  27
HETATM   27  C9  UNL     1      31.970   4.143  11.203  1.00  0.00     0.273 C 
BRANCH  27  28
HETATM   28  N5  UNL     1      31.134   4.980  11.357  1.00  0.00    -0.253 NA
BRANCH  28  29
HETATM   29  N6  UNL     1      30.284   5.835  11.670  1.00  0.00    -0.188 NA
HETATM   30  C10 UNL     1      29.339   6.787  12.017  1.00  0.00     0.437 C 
HETATM   31  N7  UNL     1      29.843   7.773  13.026  1.00  0.00    -0.023 NA
HETATM   32  O3  UNL     1      28.223   6.981  11.686  1.00  0.00    -0.231 OA
ENDBRANCH  28  29
ENDBRANCH  27  28
ENDBRANCH  21  27
BRANCH  24  33
HETATM   33  O4  UNL     1      35.904   1.772  12.624  1.00  0.00    -0.344 OA
ATOM     34  H4  UNL     1      36.295   1.040  13.087  1.00  0.00     0.219 HD
ENDBRANCH  24  33
BRANCH  26  35
HETATM   35  O5  UNL     1      34.631   1.108  14.988  1.00  0.00    -0.354 OA
ATOM     36  H5  UNL     1      35.570   1.217  15.080  1.00  0.00     0.218 HD
ENDBRANCH  26  35
ENDBRANCH  17  19
ENDBRANCH   5  17
BRANCH   8  37
HETATM   37  C15 UNL     1      29.180   0.805  14.032  1.00  0.00     0.070 C 
BRANCH  37  38
HETATM   38  C16 UNL     1      28.115   1.850  13.898  1.00  0.00     0.016 C 
HETATM   39  C17 UNL     1      28.583   2.823  12.803  1.00  0.00     0.015 C 
HETATM   40  C18 UNL     1      26.746   1.324  13.534  1.00  0.00     0.015 C 
ENDBRANCH  37  38
ENDBRANCH   8  37
BRANCH   1  41
HETATM   41  C4  UNL     1      31.206  -2.953  17.875  1.00  0.00     0.233 C 
BRANCH  41  42
HETATM   42  C3  UNL     1      31.392  -2.641  19.309  1.00  0.00     0.274 C 
HETATM   43  O2  UNL     1      32.356  -3.009  20.009  1.00  0.00    -0.264 OA
BRANCH  42  44
HETATM   44  O1  UNL     1      30.408  -1.879  19.908  1.00  0.00    -0.321 OA
BRANCH  44  45
HETATM   45  C2  UNL     1      29.783  -2.097  21.125  1.00  0.00     0.174 C 
HETATM   46  C1  UNL     1      28.379  -2.604  20.981  1.00  0.00     0.034 C 
ENDBRANCH  44  45
ENDBRANCH  42  44
ENDBRANCH  41  42
ENDBRANCH   1  41
TORSDOF 13
ENDMDL
MODEL 3
REMARK VINA RESULT: -8.380990307      2.951      5.533
REMARK  13 active torsions:
REMARK  status: ('A' for Active; 'I' for Inactive)
REMARK    1  A    between atoms: C2_2  and  O1_3 
REMARK    2  A    between atoms: O1_3  and  C3_4 
REMARK    3  A    between atoms: C3_4  and  C4_6 
REMARK    4  A    between atoms: C4_6  and  N1_7 
REMARK    5  A    between atoms: C6_11  and  N3_12 
REMARK    6  A    between atoms: N3_12  and  C7_14 
REMARK    7  A    between atoms: C8_17  and  C9_18 
REMARK    8  A    between atoms: C9_18  and  N5_19 
REMARK    9  A    between atoms: N5_19  and  N6_20 
REMARK       I    between atoms: N6_20  and  C10_21 
REMARK   10  A    between atoms: C11_26  and  O4_27 
REMARK   11  A    between atoms: C12_29  and  O5_30 
REMARK   12  A    between atoms: N9_34  and  C15_35 
REMARK   13  A    between atoms: C15_35  and  C16_36 
ROOT
HETATM    1  N1  UNL     1      31.663  -2.286  16.550  1.00  0.00    -0.163 NA
HETATM    2  C5  UNL     1      32.688  -1.491  17.147  1.00  0.00     0.176 C 
HETATM    3  N2  UNL     1      32.779  -0.150  16.695  1.00  0.00    -0.341 N 
ATOM      4  H2  UNL     1      33.553   0.431  17.018  1.00  0.00     0.167 HD
HETATM    5  C6  UNL     1      31.911   0.354  15.889  1.00  0.00     0.137 C 
HETATM    6  C13 UNL     1      30.775  -0.427  15.357  1.00  0.00     0.198 C 
HETATM    7  C14 UNL     1      31.266  -0.879  13.952  1.00  0.00     0.076 C 
HETATM    8  N9  UNL     1      29.535   0.251  15.251  1.00  0.00    -0.331 N 
HETATM    9  C19 UNL     1      29.074   0.768  16.471  1.00  0.00     0.142 C 
HETATM   10  C20 UNL     1      28.970  -0.402  17.390  1.00  0.00     0.130 C 
HETATM   11  N10 UNL     1      28.487  -0.268  18.546  1.00  0.00    -0.383 N 
ATOM     12 1H10 UNL     1      28.416  -1.068  19.175  1.00  0.00     0.157 HD
ATOM     13 2H10 UNL     1      28.148   0.632  18.888  1.00  0.00     0.157 HD
HETATM   14  N11 UNL     1      29.441  -1.648  16.917  1.00  0.00    -0.269 N 
ATOM     15  H11 UNL     1      28.978  -2.519  17.179  1.00  0.00     0.190 HD
HETATM   16  N12 UNL     1      30.546  -1.650  16.088  1.00  0.00    -0.208 N 
ENDROOT
BRANCH   5  17
HETATM   17  N3  UNL     1      32.129   1.700  15.525  1.00  0.00    -0.326 N 
ATOM     18  H3  UNL     1      31.878   2.401  16.222  1.00  0.00     0.169 HD
BRANCH  17  19
HETATM   19  C7  UNL     1      32.652   2.186  14.313  1.00  0.00     0.146 A 
HETATM   20  N4  UNL     1      31.963   2.869  13.397  1.00  0.00    -0.324 N 
HETATM   21  C8  UNL     1      32.510   3.333  12.247  1.00  0.00     0.141 A 
ATOM     22  H4  UNL     1      30.974   3.052  13.571  1.00  0.00     0.169 HD
HETATM   23  N8  UNL     1      33.806   3.101  12.013  1.00  0.00    -0.319 N 
HETATM   24  C11 UNL     1      34.602   2.416  12.879  1.00  0.00     0.179 A 
ATOM     25  H8  UNL     1      34.216   3.453  11.148  1.00  0.00     0.169 HD
HETATM   26  C12 UNL     1      33.990   1.967  14.027  1.00  0.00     0.161 A 
BRANCH  21  27
HETATM   27  C9  UNL     1      31.729   4.024  11.241  1.00  0.00     0.273 C 
BRANCH  27  28
HETATM   28  N5  UNL     1      30.925   4.887  11.415  1.00  0.00    -0.253 NA
BRANCH  28  29
HETATM   29  N6  UNL     1      30.140   5.798  11.740  1.00  0.00    -0.188 NA
HETATM   30  C10 UNL     1      29.267   6.813  12.101  1.00  0.00     0.437 C 
HETATM   31  N7  UNL     1      29.871   7.790  13.062  1.00  0.00    -0.023 NA
HETATM   32  O3  UNL     1      28.151   7.065  11.811  1.00  0.00    -0.231 OA
ENDBRANCH  28  29
ENDBRANCH  27  28
ENDBRANCH  21  27
BRANCH  24  33
HETATM   33  O4  UNL     1      35.950   2.178  12.618  1.00  0.00    -0.344 OA
ATOM     34  H4  UNL     1      36.605   2.167  13.307  1.00  0.00     0.219 HD
ENDBRANCH  24  33
BRANCH  26  35
HETATM   35  O5  UNL     1      34.771   1.258  14.945  1.00  0.00    -0.354 OA
ATOM     36  H5  UNL     1      34.887   0.323  14.825  1.00  0.00     0.218 HD
ENDBRANCH  26  35
ENDBRANCH  17  19
ENDBRANCH   5  17
BRANCH   8  37
HETATM   37  C15 UNL     1      29.164   0.722  14.010  1.00  0.00     0.070 C 
BRANCH  37  38
HETATM   38  C16 UNL     1      28.074   1.750  14.020  1.00  0.00     0.016 C 
HETATM   39  C17 UNL     1      28.407   2.763  12.913  1.00  0.00     0.015 C 
HETATM   40  C18 UNL     1      26.683   1.208  13.786  1.00  0.00     0.015 C 
ENDBRANCH  37  38
ENDBRANCH   8  37
BRANCH   1  41
HETATM   41  C4  UNL     1      31.336  -3.394  17.377  1.00  0.00     0.233 C 
BRANCH  41  42
HETATM   42  C3  UNL     1      32.048  -4.658  17.091  1.00  0.00     0.274 C 
HETATM   43  O2  UNL     1      33.181  -4.962  17.512  1.00  0.00    -0.264 OA
BRANCH  42  44
HETATM   44  O1  UNL     1      31.389  -5.568  16.285  1.00  0.00    -0.321 OA
BRANCH  44  45
HETATM   45  C2  UNL     1      30.451  -5.311  15.299  1.00  0.00     0.174 C 
HETATM   46  C1  UNL     1      31.069  -4.936  13.986  1.00  0.00     0.034 C 
ENDBRANCH  44  45
ENDBRANCH  42  44
ENDBRANCH  41  42
ENDBRANCH   1  41
TORSDOF 13
ENDMDL
MODEL 4
REMARK VINA RESULT: -8.356519524      1.688      2.374
REMARK  13 active torsions:
REMARK  status: ('A' for Active; 'I' for Inactive)
REMARK    1  A    between atoms: C2_2  and  O1_3 
REMARK    2  A    between atoms: O1_3  and  C3_4 
REMARK    3  A    between atoms: C3_4  and  C4_6 
REMARK    4  A    between atoms: C4_6  and  N1_7 
REMARK    5  A    between atoms: C6_11  and  N3_12 
REMARK    6  A    between atoms: N3_12  and  C7_14 
REMARK    7  A    between atoms: C8_17  and  C9_18 
REMARK    8  A    between atoms: C9_18  and  N5_19 
REMARK    9  A    between atoms: N5_19  and  N6_20 
REMARK       I    between atoms: N6_20  and  C10_21 
REMARK   10  A    between atoms: C11_26  and  O4_27 
REMARK   11  A    between atoms: C12_29  and  O5_30 
REMARK   12  A    between atoms: N9_34  and  C15_35 
REMARK   13  A    between atoms: C15_35  and  C16_36 
ROOT
HETATM    1  N1  UNL     1      30.509   1.036  19.079  1.00  0.00    -0.163 NA
HETATM    2  C5  UNL     1      29.085   1.103  18.996  1.00  0.00     0.176 C 
HETATM    3  N2  UNL     1      28.528   0.916  17.705  1.00  0.00    -0.341 N 
ATOM      4  H2  UNL     1      27.525   1.050  17.573  1.00  0.00     0.167 HD
HETATM    5  C6  UNL     1      29.252   0.582  16.696  1.00  0.00     0.137 C 
HETATM    6  C13 UNL     1      30.715   0.391  16.797  1.00  0.00     0.198 C 
HETATM    7  C14 UNL     1      31.297   1.742  16.292  1.00  0.00     0.076 C 
HETATM    8  N9  UNL     1      31.265  -0.688  16.061  1.00  0.00    -0.331 N 
HETATM    9  C19 UNL     1      30.717  -1.934  16.400  1.00  0.00     0.142 C 
HETATM   10  C20 UNL     1      30.966  -2.097  17.863  1.00  0.00     0.130 C 
HETATM   11  N10 UNL     1      30.668  -3.174  18.446  1.00  0.00    -0.383 N 
ATOM     12 1H10 UNL     1      30.838  -3.286  19.445  1.00  0.00     0.157 HD
ATOM     13 2H10 UNL     1      30.259  -3.964  17.947  1.00  0.00     0.157 HD
HETATM   14  N11 UNL     1      31.532  -1.003  18.555  1.00  0.00    -0.269 N 
ATOM     15  H11 UNL     1      32.189  -1.150  19.322  1.00  0.00     0.190 HD
HETATM   16  N12 UNL     1      31.169   0.271  18.161  1.00  0.00    -0.208 N 
ENDROOT
BRANCH   5  17
HETATM   17  N3  UNL     1      28.562   0.431  15.475  1.00  0.00    -0.326 N 
ATOM     18  H3  UNL     1      28.409  -0.527  15.158  1.00  0.00     0.169 HD
BRANCH  17  19
HETATM   19  C7  UNL     1      28.060   1.448  14.642  1.00  0.00     0.146 A 
HETATM   20  N4  UNL     1      28.769   2.118  13.732  1.00  0.00    -0.324 N 
HETATM   21  C8  UNL     1      28.241   3.083  12.939  1.00  0.00     0.141 A 
ATOM     22  H4  UNL     1      29.759   1.892  13.627  1.00  0.00     0.169 HD
HETATM   23  N8  UNL     1      26.945   3.381  13.068  1.00  0.00    -0.319 N 
HETATM   24  C11 UNL     1      26.128   2.761  13.963  1.00  0.00     0.179 A 
ATOM     25  H8  UNL     1      26.549   4.106  12.469  1.00  0.00     0.169 HD
HETATM   26  C12 UNL     1      26.722   1.793  14.743  1.00  0.00     0.161 A 
BRANCH  21  27
HETATM   27  C9  UNL     1      29.044   3.835  11.997  1.00  0.00     0.273 C 
BRANCH  27  28
HETATM   28  N5  UNL     1      30.221   3.756  11.823  1.00  0.00    -0.253 NA
BRANCH  28  29
HETATM   29  N6  UNL     1      31.420   3.693  11.490  1.00  0.00    -0.188 NA
HETATM   30  C10 UNL     1      32.754   3.623  11.120  1.00  0.00     0.437 C 
HETATM   31  N7  UNL     1      33.152   2.269  10.620  1.00  0.00    -0.023 NA
HETATM   32  O3  UNL     1      33.638   4.404  11.119  1.00  0.00    -0.231 OA
ENDBRANCH  28  29
ENDBRANCH  27  28
ENDBRANCH  21  27
BRANCH  24  33
HETATM   33  O4  UNL     1      24.780   3.087  14.089  1.00  0.00    -0.344 OA
ATOM     34  H4  UNL     1      24.474   3.751  14.697  1.00  0.00     0.219 HD
ENDBRANCH  24  33
BRANCH  26  35
HETATM   35  O5  UNL     1      25.919   1.130  15.676  1.00  0.00    -0.354 OA
ATOM     36  H5  UNL     1      25.290   0.488  15.369  1.00  0.00     0.218 HD
ENDBRANCH  26  35
ENDBRANCH  17  19
ENDBRANCH   5  17
BRANCH   8  37
HETATM   37  C15 UNL     1      31.875  -0.401  14.859  1.00  0.00     0.070 C 
BRANCH  37  38
HETATM   38  C16 UNL     1      33.261  -0.947  14.704  1.00  0.00     0.016 C 
HETATM   39  C17 UNL     1      33.833  -0.351  13.407  1.00  0.00     0.015 C 
HETATM   40  C18 UNL     1      34.202  -0.633  15.843  1.00  0.00     0.015 C 
ENDBRANCH  37  38
ENDBRANCH   8  37
BRANCH   1  41
HETATM   41  C4  UNL     1      30.924   0.744  20.407  1.00  0.00     0.233 C 
BRANCH  41  42
HETATM   42  C3  UNL     1      31.762   1.766  21.071  1.00  0.00     0.274 C 
HETATM   43  O2  UNL     1      31.427   2.947  21.286  1.00  0.00    -0.264 OA
BRANCH  42  44
HETATM   44  O1  UNL     1      33.019   1.362  21.479  1.00  0.00    -0.321 OA
BRANCH  44  45
HETATM   45  C2  UNL     1      34.234   1.600  20.858  1.00  0.00     0.174 C 
HETATM   46  C1  UNL     1      34.630   0.510  19.908  1.00  0.00     0.034 C 
ENDBRANCH  44  45
ENDBRANCH  42  44
ENDBRANCH  41  42
ENDBRANCH   1  41
TORSDOF 13
ENDMDL
MODEL 5
REMARK VINA RESULT: -8.207603989      2.225      2.957
REMARK  13 active torsions:
REMARK  status: ('A' for Active; 'I' for Inactive)
REMARK    1  A    between atoms: C2_2  and  O1_3 
REMARK    2  A    between atoms: O1_3  and  C3_4 
REMARK    3  A    between atoms: C3_4  and  C4_6 
REMARK    4  A    between atoms: C4_6  and  N1_7 
REMARK    5  A    between atoms: C6_11  and  N3_12 
REMARK    6  A    between atoms: N3_12  and  C7_14 
REMARK    7  A    between atoms: C8_17  and  C9_18 
REMARK    8  A    between atoms: C9_18  and  N5_19 
REMARK    9  A    between atoms: N5_19  and  N6_20 
REMARK       I    between atoms: N6_20  and  C10_21 
REMARK   10  A    between atoms: C11_26  and  O4_27 
REMARK   11  A    between atoms: C12_29  and  O5_30 
REMARK   12  A    between atoms: N9_34  and  C15_35 
REMARK   13  A    between atoms: C15_35  and  C16_36 
ROOT
HETATM    1  N1  UNL     1      31.307   0.720  18.712  1.00  0.00    -0.163 NA
HETATM    2  C5  UNL     1      30.115   1.496  18.593  1.00  0.00     0.176 C 
HETATM    3  N2  UNL     1      29.345   1.279  17.421  1.00  0.00    -0.341 N 
ATOM      4  H2  UNL     1      28.538   1.875  17.240  1.00  0.00     0.167 HD
HETATM    5  C6  UNL     1      29.639   0.350  16.580  1.00  0.00     0.137 C 
HETATM    6  C13 UNL     1      30.805  -0.540  16.755  1.00  0.00     0.198 C 
HETATM    7  C14 UNL     1      31.898   0.104  15.856  1.00  0.00     0.076 C 
HETATM    8  N9  UNL     1      30.620  -1.902  16.408  1.00  0.00    -0.331 N 
HETATM    9  C19 UNL     1      29.583  -2.525  17.119  1.00  0.00     0.142 C 
HETATM   10  C20 UNL     1      29.940  -2.381  18.560  1.00  0.00     0.130 C 
HETATM   11  N10 UNL     1      29.240  -2.931  19.452  1.00  0.00    -0.383 N 
ATOM     12 1H10 UNL     1      29.484  -2.833  20.437  1.00  0.00     0.157 HD
ATOM     13 2H10 UNL     1      28.418  -3.492  19.223  1.00  0.00     0.157 HD
HETATM   14  N11 UNL     1      31.078  -1.604  18.877  1.00  0.00    -0.269 N 
ATOM     15  H11 UNL     1      31.684  -1.854  19.659  1.00  0.00     0.190 HD
HETATM   16  N12 UNL     1      31.344  -0.497  18.094  1.00  0.00    -0.208 N 
ENDROOT
BRANCH   5  17
HETATM   17  N3  UNL     1      28.785   0.252  15.461  1.00  0.00    -0.326 N 
ATOM     18  H3  UNL     1      28.490  -0.689  15.200  1.00  0.00     0.169 HD
BRANCH  17  19
HETATM   19  C7  UNL     1      28.293   1.301  14.663  1.00  0.00     0.146 A 
HETATM   20  N4  UNL     1      29.012   2.000  13.783  1.00  0.00    -0.324 N 
HETATM   21  C8  UNL     1      28.494   2.996  13.022  1.00  0.00     0.141 A 
ATOM     22  H4  UNL     1      30.002   1.774  13.677  1.00  0.00     0.169 HD
HETATM   23  N8  UNL     1      27.198   3.295  13.152  1.00  0.00    -0.319 N 
HETATM   24  C11 UNL     1      26.372   2.646  14.018  1.00  0.00     0.179 A 
ATOM     25  H8  UNL     1      26.810   4.043  12.577  1.00  0.00     0.169 HD
HETATM   26  C12 UNL     1      26.956   1.648  14.767  1.00  0.00     0.161 A 
BRANCH  21  27
HETATM   27  C9  UNL     1      29.307   3.778  12.114  1.00  0.00     0.273 C 
BRANCH  27  28
HETATM   28  N5  UNL     1      30.480   3.679  11.922  1.00  0.00    -0.253 NA
BRANCH  28  29
HETATM   29  N6  UNL     1      31.673   3.597  11.572  1.00  0.00    -0.188 NA
HETATM   30  C10 UNL     1      33.000   3.507  11.182  1.00  0.00     0.437 C 
HETATM   31  N7  UNL     1      33.348   2.176  10.592  1.00  0.00    -0.023 NA
HETATM   32  O3  UNL     1      33.910   4.258  11.221  1.00  0.00    -0.231 OA
ENDBRANCH  28  29
ENDBRANCH  27  28
ENDBRANCH  21  27
BRANCH  24  33
HETATM   33  O4  UNL     1      25.024   2.974  14.146  1.00  0.00    -0.344 OA
ATOM     34  H4  UNL     1      24.332   2.347  13.970  1.00  0.00     0.219 HD
ENDBRANCH  24  33
BRANCH  26  35
HETATM   35  O5  UNL     1      26.144   0.955  15.669  1.00  0.00    -0.354 OA
ATOM     36  H5  UNL     1      25.372   1.385  16.018  1.00  0.00     0.218 HD
ENDBRANCH  26  35
ENDBRANCH  17  19
ENDBRANCH   5  17
BRANCH   8  37
HETATM   37  C15 UNL     1      31.096  -2.324  15.185  1.00  0.00     0.070 C 
BRANCH  37  38
HETATM   38  C16 UNL     1      31.929  -3.568  15.223  1.00  0.00     0.016 C 
HETATM   39  C17 UNL     1      31.222  -4.604  14.333  1.00  0.00     0.015 C 
HETATM   40  C18 UNL     1      33.351  -3.399  14.743  1.00  0.00     0.015 C 
ENDBRANCH  37  38
ENDBRANCH   8  37
BRANCH   1  41
HETATM   41  C4  UNL     1      31.721   0.635  20.069  1.00  0.00     0.233 C 
BRANCH  41  42
HETATM   42  C3  UNL     1      33.093   1.101  20.365  1.00  0.00     0.274 C 
HETATM   43  O2  UNL     1      34.084   0.949  19.624  1.00  0.00    -0.264 OA
BRANCH  42  44
HETATM   44  O1  UNL     1      33.276   1.755  21.568  1.00  0.00    -0.321 OA
BRANCH  44  45
HETATM   45  C2  UNL     1      33.733   3.046  21.775  1.00  0.00     0.174 C 
HETATM   46  C1  UNL     1      35.203   3.110  22.058  1.00  0.00     0.034 C 
ENDBRANCH  44  45
ENDBRANCH  42  44
ENDBRANCH  41  42
ENDBRANCH   1  41
TORSDOF 13
ENDMDL
