MODEL 1
REMARK VINA RESULT: -8.018028513      0.000      0.000
REMARK  5 active torsions:
REMARK  status: ('A' for Active; 'I' for Inactive)
REMARK    1  A    between atoms: C3_4  and  C4_5 
REMARK    2  A    between atoms: C4_5  and  N2_6 
REMARK       I    between atoms: N2_6  and  C5_8 
REMARK       I    between atoms: C5_8  and  N4_12 
REMARK    3  A    between atoms: N4_12  and  C6_14 
REMARK    4  A    between atoms: C6_14  and  C9_17 
REMARK    5  A    between atoms: C9_17  and  N5_18 
ROOT
HETATM    1  N2  UNL     1     -26.261 -11.312  66.660  1.00  0.00    -0.225 N 
ATOM      2  H2  UNL     1     -25.567 -11.249  67.405  1.00  0.00     0.177 HD
HETATM    3  C5  UNL     1     -27.525 -11.899  66.903  1.00  0.00     0.668 C 
HETATM    4  N3  UNL     1     -28.426 -11.213  67.555  1.00  0.00    -0.235 N 
ATOM      5  H31 UNL     1     -29.337 -11.636  67.730  1.00  0.00     0.174 HD
ATOM      6  H32 UNL     1     -28.159 -10.275  67.857  1.00  0.00     0.174 HD
HETATM    7  N4  UNL     1     -27.892 -13.189  66.488  1.00  0.00    -0.217 N 
ATOM      8  H4  UNL     1     -28.362 -13.306  65.590  1.00  0.00     0.178 HD
ENDROOT
BRANCH   1   9
HETATM    9  C4  UNL     1     -25.972 -10.807  65.348  1.00  0.00     0.164 C 
BRANCH   9  10
HETATM   10  C3  UNL     1     -24.527 -10.925  64.970  1.00  0.00     0.120 C 
HETATM   11  C2  UNL     1     -24.128 -12.386  65.189  1.00  0.00     0.151 C 
HETATM   12  N1  UNL     1     -22.931 -12.479  64.395  1.00  0.00    -0.361 N 
HETATM   13  C1  UNL     1     -21.743 -13.276  64.611  1.00  0.00     0.152 C 
HETATM   14  C10 UNL     1     -23.140 -11.590  63.289  1.00  0.00     0.169 C 
HETATM   15  N7  UNL     1     -24.271 -10.770  63.570  1.00  0.00    -0.359 N 
HETATM   16  S1  UNL     1     -22.207 -11.552  61.936  1.00  0.00    -0.041 SA
ATOM     17  H7  UNL     1     -24.791 -10.191  62.911  1.00  0.00     0.162 HD
ENDBRANCH   9  10
ENDBRANCH   1   9
BRANCH   7  18
HETATM   18  C6  UNL     1     -27.625 -14.360  67.296  1.00  0.00     0.057 C 
HETATM   19  C7  UNL     1     -26.166 -14.501  67.599  1.00  0.00     0.040 C 
HETATM   20  C8  UNL     1     -28.458 -14.259  68.551  1.00  0.00     0.040 C 
BRANCH  18  21
HETATM   21  C9  UNL     1     -28.086 -15.597  66.516  1.00  0.00     0.169 C 
BRANCH  21  22
HETATM   22  N5  UNL     1     -28.563 -15.228  65.218  1.00  0.00    -0.341 N 
HETATM   23  N6  UNL     1     -29.207 -15.985  64.472  1.00  0.00    -0.349 N 
ATOM     24  H62 UNL     1     -29.399 -16.923  64.822  1.00  0.00     0.176 HD
ATOM     25  H61 UNL     1     -29.547 -15.721  63.547  1.00  0.00     0.176 HD
ATOM     26  H5  UNL     1     -28.362 -14.285  64.885  1.00  0.00     0.179 HD
ENDBRANCH  21  22
ENDBRANCH  18  21
ENDBRANCH   7  18
TORSDOF 5
ENDMDL
MODEL 2
REMARK VINA RESULT: -7.623692391      1.374      2.086
REMARK  5 active torsions:
REMARK  status: ('A' for Active; 'I' for Inactive)
REMARK    1  A    between atoms: C3_4  and  C4_5 
REMARK    2  A    between atoms: C4_5  and  N2_6 
REMARK       I    between atoms: N2_6  and  C5_8 
REMARK       I    between atoms: C5_8  and  N4_12 
REMARK    3  A    between atoms: N4_12  and  C6_14 
REMARK    4  A    between atoms: C6_14  and  C9_17 
REMARK    5  A    between atoms: C9_17  and  N5_18 
ROOT
HETATM    1  N2  UNL     1     -27.112 -11.407  66.296  1.00  0.00    -0.225 N 
ATOM      2  H2  UNL     1     -26.659 -11.221  67.191  1.00  0.00     0.177 HD
HETATM    3  C5  UNL     1     -28.234 -12.265  66.223  1.00  0.00     0.668 C 
HETATM    4  N3  UNL     1     -29.399 -11.818  66.612  1.00  0.00    -0.235 N 
ATOM      5  H31 UNL     1     -30.208 -12.437  66.558  1.00  0.00     0.174 HD
ATOM      6  H32 UNL     1     -29.431 -10.857  66.953  1.00  0.00     0.174 HD
HETATM    7  N4  UNL     1     -28.190 -13.588  65.754  1.00  0.00    -0.217 N 
ATOM      8  H4  UNL     1     -28.382 -13.771  64.768  1.00  0.00     0.178 HD
ENDROOT
BRANCH   1   9
HETATM    9  C4  UNL     1     -26.622 -10.802  65.091  1.00  0.00     0.164 C 
BRANCH   9  10
HETATM   10  C3  UNL     1     -25.134 -10.887  64.945  1.00  0.00     0.120 C 
HETATM   11  C2  UNL     1     -24.748 -12.351  65.160  1.00  0.00     0.151 C 
HETATM   12  N1  UNL     1     -23.438 -12.395  64.566  1.00  0.00    -0.361 N 
HETATM   13  C1  UNL     1     -22.286 -13.189  64.935  1.00  0.00     0.152 C 
HETATM   14  C10 UNL     1     -23.484 -11.458  63.481  1.00  0.00     0.169 C 
HETATM   15  N7  UNL     1     -24.660 -10.664  63.613  1.00  0.00    -0.359 N 
HETATM   16  S1  UNL     1     -22.347 -11.348  62.298  1.00  0.00    -0.041 SA
ATOM     17  H7  UNL     1     -25.078 -10.061  62.904  1.00  0.00     0.162 HD
ENDBRANCH   9  10
ENDBRANCH   1   9
BRANCH   7  18
HETATM   18  C6  UNL     1     -27.882 -14.701  66.626  1.00  0.00     0.057 C 
HETATM   19  C7  UNL     1     -28.397 -14.475  68.013  1.00  0.00     0.040 C 
HETATM   20  C8  UNL     1     -28.455 -15.951  66.005  1.00  0.00     0.040 C 
BRANCH  18  21
HETATM   21  C9  UNL     1     -26.358 -14.855  66.688  1.00  0.00     0.169 C 
BRANCH  21  22
HETATM   22  N5  UNL     1     -25.858 -14.436  67.961  1.00  0.00    -0.341 N 
HETATM   23  N6  UNL     1     -24.780 -14.821  68.447  1.00  0.00    -0.349 N 
ATOM     24  H62 UNL     1     -24.231 -15.475  67.890  1.00  0.00     0.176 HD
ATOM     25  H61 UNL     1     -24.425 -14.522  69.355  1.00  0.00     0.176 HD
ATOM     26  H5  UNL     1     -26.420 -13.781  68.504  1.00  0.00     0.179 HD
ENDBRANCH  21  22
ENDBRANCH  18  21
ENDBRANCH   7  18
TORSDOF 5
ENDMDL
MODEL 3
REMARK VINA RESULT: -7.618788781      2.437      3.740
REMARK  5 active torsions:
REMARK  status: ('A' for Active; 'I' for Inactive)
REMARK    1  A    between atoms: C3_4  and  C4_5 
REMARK    2  A    between atoms: C4_5  and  N2_6 
REMARK       I    between atoms: N2_6  and  C5_8 
REMARK       I    between atoms: C5_8  and  N4_12 
REMARK    3  A    between atoms: N4_12  and  C6_14 
REMARK    4  A    between atoms: C6_14  and  C9_17 
REMARK    5  A    between atoms: C9_17  and  N5_18 
ROOT
HETATM    1  N2  UNL     1     -26.466 -13.262  67.048  1.00  0.00    -0.225 N 
ATOM      2  H2  UNL     1     -26.334 -12.255  67.135  1.00  0.00     0.177 HD
HETATM    3  C5  UNL     1     -27.747 -13.837  67.219  1.00  0.00     0.668 C 
HETATM    4  N3  UNL     1     -28.620 -13.735  66.251  1.00  0.00    -0.235 N 
ATOM      5  H31 UNL     1     -29.544 -14.150  66.374  1.00  0.00     0.174 HD
ATOM      6  H32 UNL     1     -28.320 -13.237  65.413  1.00  0.00     0.174 HD
HETATM    7  N4  UNL     1     -28.161 -14.523  68.373  1.00  0.00    -0.217 N 
ATOM      8  H4  UNL     1     -28.047 -15.536  68.414  1.00  0.00     0.178 HD
ENDROOT
BRANCH   1   9
HETATM    9  C4  UNL     1     -25.355 -14.121  66.751  1.00  0.00     0.164 C 
BRANCH   9  10
HETATM   10  C3  UNL     1     -24.685 -13.798  65.451  1.00  0.00     0.120 C 
HETATM   11  C2  UNL     1     -25.094 -12.371  65.081  1.00  0.00     0.151 C 
HETATM   12  N1  UNL     1     -24.081 -12.020  64.121  1.00  0.00    -0.361 N 
HETATM   13  C1  UNL     1     -24.171 -11.167  62.956  1.00  0.00     0.152 C 
HETATM   14  C10 UNL     1     -22.897 -12.709  64.552  1.00  0.00     0.169 C 
HETATM   15  N7  UNL     1     -23.262 -13.670  65.538  1.00  0.00    -0.359 N 
HETATM   16  S1  UNL     1     -21.387 -12.409  63.977  1.00  0.00    -0.041 SA
ATOM     17  H7  UNL     1     -22.639 -14.165  66.175  1.00  0.00     0.162 HD
ENDBRANCH   9  10
ENDBRANCH   1   9
BRANCH   7  18
HETATM   18  C6  UNL     1     -28.744 -13.836  69.505  1.00  0.00     0.057 C 
HETATM   19  C7  UNL     1     -28.948 -12.381  69.224  1.00  0.00     0.040 C 
HETATM   20  C8  UNL     1     -30.036 -14.533  69.857  1.00  0.00     0.040 C 
BRANCH  18  21
HETATM   21  C9  UNL     1     -27.788 -13.977  70.696  1.00  0.00     0.169 C 
BRANCH  21  22
HETATM   22  N5  UNL     1     -28.515 -14.008  71.928  1.00  0.00    -0.341 N 
HETATM   23  N6  UNL     1     -27.981 -14.037  73.050  1.00  0.00    -0.349 N 
ATOM     24  H62 UNL     1     -26.962 -14.038  73.076  1.00  0.00     0.176 HD
ATOM     25  H61 UNL     1     -28.499 -14.059  73.928  1.00  0.00     0.176 HD
ATOM     26  H5  UNL     1     -29.533 -14.006  71.883  1.00  0.00     0.179 HD
ENDBRANCH  21  22
ENDBRANCH  18  21
ENDBRANCH   7  18
TORSDOF 5
ENDMDL
MODEL 4
REMARK VINA RESULT: -7.430209639      1.291      2.191
REMARK  5 active torsions:
REMARK  status: ('A' for Active; 'I' for Inactive)
REMARK    1  A    between atoms: C3_4  and  C4_5 
REMARK    2  A    between atoms: C4_5  and  N2_6 
REMARK       I    between atoms: N2_6  and  C5_8 
REMARK       I    between atoms: C5_8  and  N4_12 
REMARK    3  A    between atoms: N4_12  and  C6_14 
REMARK    4  A    between atoms: C6_14  and  C9_17 
REMARK    5  A    between atoms: C9_17  and  N5_18 
ROOT
HETATM    1  N2  UNL     1     -27.064 -11.405  66.249  1.00  0.00    -0.225 N 
ATOM      2  H2  UNL     1     -26.622 -11.169  67.137  1.00  0.00     0.177 HD
HETATM    3  C5  UNL     1     -28.174 -12.282  66.209  1.00  0.00     0.668 C 
HETATM    4  N3  UNL     1     -29.348 -11.832  66.566  1.00  0.00    -0.235 N 
ATOM      5  H31 UNL     1     -30.148 -12.464  66.537  1.00  0.00     0.174 HD
ATOM      6  H32 UNL     1     -29.396 -10.855  66.858  1.00  0.00     0.174 HD
HETATM    7  N4  UNL     1     -28.108 -13.626  65.808  1.00  0.00    -0.217 N 
ATOM      8  H4  UNL     1     -28.288 -13.860  64.831  1.00  0.00     0.178 HD
ENDROOT
BRANCH   1   9
HETATM    9  C4  UNL     1     -26.571 -10.855  65.019  1.00  0.00     0.164 C 
BRANCH   9  10
HETATM   10  C3  UNL     1     -25.082 -10.933  64.886  1.00  0.00     0.120 C 
HETATM   11  C2  UNL     1     -24.689 -12.393  65.126  1.00  0.00     0.151 C 
HETATM   12  N1  UNL     1     -23.374 -12.437  64.543  1.00  0.00    -0.361 N 
HETATM   13  C1  UNL     1     -22.221 -13.219  64.932  1.00  0.00     0.152 C 
HETATM   14  C10 UNL     1     -23.416 -11.515  63.444  1.00  0.00     0.169 C 
HETATM   15  N7  UNL     1     -24.598 -10.727  63.555  1.00  0.00    -0.359 N 
HETATM   16  S1  UNL     1     -22.270 -11.415  62.270  1.00  0.00    -0.041 SA
ATOM     17  H7  UNL     1     -25.013 -10.136  62.835  1.00  0.00     0.162 HD
ENDBRANCH   9  10
ENDBRANCH   1   9
BRANCH   7  18
HETATM   18  C6  UNL     1     -27.793 -14.690  66.738  1.00  0.00     0.057 C 
HETATM   19  C7  UNL     1     -28.361 -16.000  66.292  1.00  0.00     0.040 C 
HETATM   20  C8  UNL     1     -26.293 -14.743  66.891  1.00  0.00     0.040 C 
BRANCH  18  21
HETATM   21  C9  UNL     1     -28.399 -14.330  68.100  1.00  0.00     0.169 C 
BRANCH  21  22
HETATM   22  N5  UNL     1     -27.369 -14.058  69.056  1.00  0.00    -0.341 N 
HETATM   23  N6  UNL     1     -27.583 -13.703  70.228  1.00  0.00    -0.349 N 
ATOM     24  H62 UNL     1     -28.558 -13.605  70.509  1.00  0.00     0.176 HD
ATOM     25  H61 UNL     1     -26.849 -13.510  70.909  1.00  0.00     0.176 HD
ATOM     26  H5  UNL     1     -26.399 -14.162  68.757  1.00  0.00     0.179 HD
ENDBRANCH  21  22
ENDBRANCH  18  21
ENDBRANCH   7  18
TORSDOF 5
ENDMDL
MODEL 5
REMARK VINA RESULT: -7.301362699     12.505     13.769
REMARK  5 active torsions:
REMARK  status: ('A' for Active; 'I' for Inactive)
REMARK    1  A    between atoms: C3_4  and  C4_5 
REMARK    2  A    between atoms: C4_5  and  N2_6 
REMARK       I    between atoms: N2_6  and  C5_8 
REMARK       I    between atoms: C5_8  and  N4_12 
REMARK    3  A    between atoms: N4_12  and  C6_14 
REMARK    4  A    between atoms: C6_14  and  C9_17 
REMARK    5  A    between atoms: C9_17  and  N5_18 
ROOT
HETATM    1  N2  UNL     1     -32.920  -9.471  75.596  1.00  0.00    -0.225 N 
ATOM      2  H2  UNL     1     -33.261  -8.776  76.260  1.00  0.00     0.177 HD
HETATM    3  C5  UNL     1     -33.651  -9.763  74.421  1.00  0.00     0.668 C 
HETATM    4  N3  UNL     1     -33.602  -8.923  73.420  1.00  0.00    -0.235 N 
ATOM      5  H31 UNL     1     -34.129  -9.133  72.573  1.00  0.00     0.174 HD
ATOM      6  H32 UNL     1     -33.028  -8.089  73.549  1.00  0.00     0.174 HD
HETATM    7  N4  UNL     1     -34.441 -10.910  74.243  1.00  0.00    -0.217 N 
ATOM      8  H4  UNL     1     -34.026 -11.736  73.812  1.00  0.00     0.178 HD
ENDROOT
BRANCH   1   9
HETATM    9  C4  UNL     1     -31.690 -10.170  75.839  1.00  0.00     0.164 C 
BRANCH   9  10
HETATM   10  C3  UNL     1     -30.841  -9.531  76.894  1.00  0.00     0.120 C 
HETATM   11  C2  UNL     1     -31.794  -8.915  77.921  1.00  0.00     0.151 C 
HETATM   12  N1  UNL     1     -30.928  -8.753  79.058  1.00  0.00    -0.361 N 
HETATM   13  C1  UNL     1     -30.935  -7.731  80.082  1.00  0.00     0.152 C 
HETATM   14  C10 UNL     1     -30.006  -9.850  78.990  1.00  0.00     0.169 C 
HETATM   15  N7  UNL     1     -30.115 -10.459  77.707  1.00  0.00    -0.359 N 
HETATM   16  S1  UNL     1     -29.003 -10.299  80.213  1.00  0.00    -0.041 SA
ATOM     17  H7  UNL     1     -29.750 -11.368  77.424  1.00  0.00     0.162 HD
ENDBRANCH   9  10
ENDBRANCH   1   9
BRANCH   7  18
HETATM   18  C6  UNL     1     -35.829 -10.956  74.653  1.00  0.00     0.057 C 
HETATM   19  C7  UNL     1     -35.976 -11.474  76.050  1.00  0.00     0.040 C 
HETATM   20  C8  UNL     1     -36.406  -9.570  74.498  1.00  0.00     0.040 C 
BRANCH  18  21
HETATM   21  C9  UNL     1     -36.580 -11.894  73.700  1.00  0.00     0.169 C 
BRANCH  21  22
HETATM   22  N5  UNL     1     -37.199 -12.962  74.425  1.00  0.00    -0.341 N 
HETATM   23  N6  UNL     1     -37.269 -14.133  74.013  1.00  0.00    -0.349 N 
ATOM     24  H62 UNL     1     -36.856 -14.327  73.102  1.00  0.00     0.176 HD
ATOM     25  H61 UNL     1     -37.711 -14.893  74.530  1.00  0.00     0.176 HD
ATOM     26  H5  UNL     1     -37.607 -12.749  75.335  1.00  0.00     0.179 HD
ENDBRANCH  21  22
ENDBRANCH  18  21
ENDBRANCH   7  18
TORSDOF 5
ENDMDL
