MODEL 1
REMARK VINA RESULT: -6.899642138      0.000      0.000
REMARK  6 active torsions:
REMARK  status: ('A' for Active; 'I' for Inactive)
REMARK    1  A    between atoms: S1_2  and  C2_3 
REMARK    2  A    between atoms: C4_8  and  C5_9 
REMARK    3  A    between atoms: C5_9  and  C6_10 
REMARK    4  A    between atoms: C5_9  and  N2_14 
REMARK    5  A    between atoms: C6_10  and  C7_11 
REMARK    6  A    between atoms: N2_14  and  C10_16 
ROOT
HETATM    1  C5  UNL     1      12.045  20.136  -8.119  1.00  0.00     0.116 C 
ENDROOT
BRANCH   1   2
HETATM    2  C4  UNL     1      11.861  18.962  -7.246  1.00  0.00     0.039 A 
HETATM    3  C3  UNL     1      10.581  18.484  -7.048  1.00  0.00     0.255 A 
HETATM    4  N1  UNL     1      10.223  17.476  -6.281  1.00  0.00    -0.312 N 
HETATM    5  O1  UNL     1       9.637  19.072  -7.667  1.00  0.00    -0.268 OA
HETATM    6  C2  UNL     1      10.976  16.685  -5.525  1.00  0.00     0.114 A 
ATOM      7  H1  UNL     1       9.224  17.274  -6.264  1.00  0.00     0.170 HD
HETATM    8  S2  UNL     1      12.643  17.066  -5.587  1.00  0.00    -0.076 SA
HETATM    9  C16 UNL     1      12.962  18.406  -6.630  1.00  0.00     0.067 A 
BRANCH   6  10
HETATM   10  S1  UNL     1      10.305  15.345  -4.539  1.00  0.00    -0.109 SA
HETATM   11  C1  UNL     1       9.972  13.922  -5.641  1.00  0.00     0.097 C 
ENDBRANCH   6  10
ENDBRANCH   1   2
BRANCH   1  12
HETATM   12  C6  UNL     1      13.420  20.307  -8.682  1.00  0.00     0.034 C 
BRANCH  12  13
HETATM   13  C7  UNL     1      13.658  19.563  -9.973  1.00  0.00    -0.021 C 
HETATM   14  C8  UNL     1      15.130  19.124 -10.028  1.00  0.00     0.009 C 
HETATM   15  C9  UNL     1      13.523  20.524 -11.168  1.00  0.00     0.009 C 
ENDBRANCH  12  13
ENDBRANCH   1  12
BRANCH   1  16
HETATM   16  N2  UNL     1      11.604  21.284  -7.381  1.00  0.00    -0.409 N 
ATOM     17  H2  UNL     1      11.296  21.209  -6.411  1.00  0.00     0.154 HD
BRANCH  16  18
HETATM   18  C10 UNL     1      11.613  22.529  -8.061  1.00  0.00     0.079 C 
HETATM   19  C11 UNL     1      11.015  23.563  -7.097  1.00  0.00     0.030 C 
HETATM   20  C12 UNL     1       9.549  23.315  -7.021  1.00  0.00     0.046 C 
HETATM   21  C13 UNL     1       8.734  24.286  -7.833  1.00  0.00     0.055 C 
HETATM   22  N3  UNL     1       8.964  24.248  -9.221  1.00  0.00    -0.402 N 
HETATM   23  C14 UNL     1      10.297  23.914  -9.645  1.00  0.00     0.120 C 
ATOM     24  H3  UNL     1       8.222  24.447  -9.892  1.00  0.00     0.158 HD
HETATM   25  C15 UNL     1      10.711  22.511  -9.295  1.00  0.00     0.044 C 
ENDBRANCH  16  18
ENDBRANCH   1  16
TORSDOF 6
ENDMDL
MODEL 2
REMARK VINA RESULT: -6.732685363      3.306      7.256
REMARK  6 active torsions:
REMARK  status: ('A' for Active; 'I' for Inactive)
REMARK    1  A    between atoms: S1_2  and  C2_3 
REMARK    2  A    between atoms: C4_8  and  C5_9 
REMARK    3  A    between atoms: C5_9  and  C6_10 
REMARK    4  A    between atoms: C5_9  and  N2_14 
REMARK    5  A    between atoms: C6_10  and  C7_11 
REMARK    6  A    between atoms: N2_14  and  C10_16 
ROOT
HETATM    1  C5  UNL     1      10.603  19.094  -5.447  1.00  0.00     0.116 C 
ENDROOT
BRANCH   1   2
HETATM    2  C4  UNL     1      10.464  20.358  -6.193  1.00  0.00     0.039 A 
HETATM    3  C3  UNL     1       9.389  20.502  -7.047  1.00  0.00     0.255 A 
HETATM    4  N1  UNL     1       9.122  21.536  -7.815  1.00  0.00    -0.312 N 
HETATM    5  O1  UNL     1       8.558  19.538  -7.107  1.00  0.00    -0.268 OA
HETATM    6  C2  UNL     1       9.795  22.672  -7.962  1.00  0.00     0.114 A 
ATOM      7  H1  UNL     1       8.276  21.455  -8.379  1.00  0.00     0.170 HD
HETATM    8  S2  UNL     1      11.205  22.758  -6.996  1.00  0.00    -0.076 SA
HETATM    9  C16 UNL     1      11.425  21.333  -6.044  1.00  0.00     0.067 A 
BRANCH   6  10
HETATM   10  S1  UNL     1       9.272  23.985  -9.066  1.00  0.00    -0.109 SA
HETATM   11  C1  UNL     1      10.689  24.455 -10.125  1.00  0.00     0.097 C 
ENDBRANCH   6  10
ENDBRANCH   1   2
BRANCH   1  12
HETATM   12  C6  UNL     1      11.097  19.231  -4.041  1.00  0.00     0.034 C 
BRANCH  12  13
HETATM   13  C7  UNL     1      10.071  18.897  -2.988  1.00  0.00    -0.021 C 
HETATM   14  C8  UNL     1      10.606  19.339  -1.616  1.00  0.00     0.009 C 
HETATM   15  C9  UNL     1       9.935  17.370  -2.848  1.00  0.00     0.009 C 
ENDBRANCH  12  13
ENDBRANCH   1  12
BRANCH   1  16
HETATM   16  N2  UNL     1      11.423  18.223  -6.238  1.00  0.00    -0.409 N 
ATOM     17  H2  UNL     1      11.268  18.110  -7.240  1.00  0.00     0.154 HD
BRANCH  16  18
HETATM   18  C10 UNL     1      12.460  17.528  -5.566  1.00  0.00     0.079 C 
HETATM   19  C11 UNL     1      13.772  17.902  -6.270  1.00  0.00     0.030 C 
HETATM   20  C12 UNL     1      13.795  17.204  -7.583  1.00  0.00     0.046 C 
HETATM   21  C13 UNL     1      14.676  15.983  -7.598  1.00  0.00     0.055 C 
HETATM   22  N3  UNL     1      14.283  14.950  -6.727  1.00  0.00    -0.402 N 
HETATM   23  C14 UNL     1      13.645  15.348  -5.502  1.00  0.00     0.120 C 
ATOM     24  H3  UNL     1      14.444  13.969  -6.953  1.00  0.00     0.158 HD
HETATM   25  C15 UNL     1      12.311  16.012  -5.700  1.00  0.00     0.044 C 
ENDBRANCH  16  18
ENDBRANCH   1  16
TORSDOF 6
ENDMDL
MODEL 3
REMARK VINA RESULT: -6.723517393      2.063      2.353
REMARK  6 active torsions:
REMARK  status: ('A' for Active; 'I' for Inactive)
REMARK    1  A    between atoms: S1_2  and  C2_3 
REMARK    2  A    between atoms: C4_8  and  C5_9 
REMARK    3  A    between atoms: C5_9  and  C6_10 
REMARK    4  A    between atoms: C5_9  and  N2_14 
REMARK    5  A    between atoms: C6_10  and  C7_11 
REMARK    6  A    between atoms: N2_14  and  C10_16 
ROOT
HETATM    1  C5  UNL     1      11.016  19.405  -7.586  1.00  0.00     0.116 C 
ENDROOT
BRANCH   1   2
HETATM    2  C4  UNL     1       9.985  18.423  -7.201  1.00  0.00     0.039 A 
HETATM    3  C3  UNL     1       8.672  18.683  -7.538  1.00  0.00     0.255 A 
HETATM    4  N1  UNL     1       7.620  17.946  -7.250  1.00  0.00    -0.312 N 
HETATM    5  O1  UNL     1       8.439  19.746  -8.199  1.00  0.00    -0.268 OA
HETATM    6  C2  UNL     1       7.554  16.799  -6.583  1.00  0.00     0.114 A 
ATOM      7  H1  UNL     1       6.728  18.307  -7.587  1.00  0.00     0.170 HD
HETATM    8  S2  UNL     1       9.075  16.238  -6.038  1.00  0.00    -0.076 SA
HETATM    9  C16 UNL     1      10.358  17.305  -6.488  1.00  0.00     0.067 A 
BRANCH   6  10
HETATM   10  S1  UNL     1       6.015  15.926  -6.287  1.00  0.00    -0.109 SA
HETATM   11  C1  UNL     1       5.749  14.737  -7.653  1.00  0.00     0.097 C 
ENDBRANCH   6  10
ENDBRANCH   1   2
BRANCH   1  12
HETATM   12  C6  UNL     1      12.430  18.935  -7.451  1.00  0.00     0.034 C 
BRANCH  12  13
HETATM   13  C7  UNL     1      13.104  18.614  -8.762  1.00  0.00    -0.021 C 
HETATM   14  C8  UNL     1      14.141  17.503  -8.527  1.00  0.00     0.009 C 
HETATM   15  C9  UNL     1      13.954  19.810  -9.225  1.00  0.00     0.009 C 
ENDBRANCH  12  13
ENDBRANCH   1  12
BRANCH   1  16
HETATM   16  N2  UNL     1      10.759  20.603  -6.840  1.00  0.00    -0.409 N 
ATOM     17  H2  UNL     1      10.238  20.583  -5.963  1.00  0.00     0.154 HD
BRANCH  16  18
HETATM   18  C10 UNL     1      11.260  21.816  -7.378  1.00  0.00     0.079 C 
HETATM   19  C11 UNL     1      10.515  22.954  -6.667  1.00  0.00     0.030 C 
HETATM   20  C12 UNL     1       9.125  22.985  -7.197  1.00  0.00     0.046 C 
HETATM   21  C13 UNL     1       8.890  24.082  -8.202  1.00  0.00     0.055 C 
HETATM   22  N3  UNL     1       9.649  23.985  -9.382  1.00  0.00    -0.402 N 
HETATM   23  C14 UNL     1      10.959  23.404  -9.261  1.00  0.00     0.120 C 
ATOM     24  H3  UNL     1       9.288  24.312 -10.279  1.00  0.00     0.158 HD
HETATM   25  C15 UNL     1      10.944  21.953  -8.867  1.00  0.00     0.044 C 
ENDBRANCH  16  18
ENDBRANCH   1  16
TORSDOF 6
ENDMDL
MODEL 4
REMARK VINA RESULT: -6.686780437      3.500      7.215
REMARK  6 active torsions:
REMARK  status: ('A' for Active; 'I' for Inactive)
REMARK    1  A    between atoms: S1_2  and  C2_3 
REMARK    2  A    between atoms: C4_8  and  C5_9 
REMARK    3  A    between atoms: C5_9  and  C6_10 
REMARK    4  A    between atoms: C5_9  and  N2_14 
REMARK    5  A    between atoms: C6_10  and  C7_11 
REMARK    6  A    between atoms: N2_14  and  C10_16 
ROOT
HETATM    1  C5  UNL     1       9.636  17.389  -6.065  1.00  0.00     0.116 C 
ENDROOT
BRANCH   1   2
HETATM    2  C4  UNL     1       9.897  18.783  -6.469  1.00  0.00     0.039 A 
HETATM    3  C3  UNL     1       9.123  19.783  -5.915  1.00  0.00     0.255 A 
HETATM    4  N1  UNL     1       9.186  21.070  -6.180  1.00  0.00    -0.312 N 
HETATM    5  O1  UNL     1       8.251  19.437  -5.054  1.00  0.00    -0.268 OA
HETATM    6  C2  UNL     1       9.985  21.719  -7.020  1.00  0.00     0.114 A 
ATOM      7  H1  UNL     1       8.527  21.655  -5.666  1.00  0.00     0.170 HD
HETATM    8  S2  UNL     1      11.070  20.694  -7.857  1.00  0.00    -0.076 SA
HETATM    9  C16 UNL     1      10.871  19.037  -7.409  1.00  0.00     0.067 A 
BRANCH   6  10
HETATM   10  S1  UNL     1       9.930  23.497  -7.248  1.00  0.00    -0.109 SA
HETATM   11  C1  UNL     1      10.207  23.865  -9.020  1.00  0.00     0.097 C 
ENDBRANCH   6  10
ENDBRANCH   1   2
BRANCH   1  12
HETATM   12  C6  UNL     1      10.832  16.489  -6.060  1.00  0.00     0.034 C 
BRANCH  12  13
HETATM   13  C7  UNL     1      11.006  15.697  -4.789  1.00  0.00    -0.021 C 
HETATM   14  C8  UNL     1      10.294  14.344  -4.947  1.00  0.00     0.009 C 
HETATM   15  C9  UNL     1      10.244  16.374  -3.636  1.00  0.00     0.009 C 
ENDBRANCH  12  13
ENDBRANCH   1  12
BRANCH   1  16
HETATM   16  N2  UNL     1       8.578  16.897  -6.899  1.00  0.00    -0.409 N 
ATOM     17  H2  UNL     1       8.558  17.086  -7.901  1.00  0.00     0.154 HD
BRANCH  16  18
HETATM   18  C10 UNL     1       7.561  16.136  -6.268  1.00  0.00     0.079 C 
HETATM   19  C11 UNL     1       7.417  14.838  -7.073  1.00  0.00     0.030 C 
HETATM   20  C12 UNL     1       6.739  15.173  -8.355  1.00  0.00     0.046 C 
HETATM   21  C13 UNL     1       5.280  14.802  -8.376  1.00  0.00     0.055 C 
HETATM   22  N3  UNL     1       4.476  15.475  -7.437  1.00  0.00    -0.402 N 
HETATM   23  C14 UNL     1       5.100  15.827  -6.190  1.00  0.00     0.120 C 
ATOM     24  H3  UNL     1       3.501  15.701  -7.631  1.00  0.00     0.158 HD
HETATM   25  C15 UNL     1       6.204  16.838  -6.327  1.00  0.00     0.044 C 
ENDBRANCH  16  18
ENDBRANCH   1  16
TORSDOF 6
ENDMDL
MODEL 5
REMARK VINA RESULT: -6.635699173      1.875      2.524
REMARK  6 active torsions:
REMARK  status: ('A' for Active; 'I' for Inactive)
REMARK    1  A    between atoms: S1_2  and  C2_3 
REMARK    2  A    between atoms: C4_8  and  C5_9 
REMARK    3  A    between atoms: C5_9  and  C6_10 
REMARK    4  A    between atoms: C5_9  and  N2_14 
REMARK    5  A    between atoms: C6_10  and  C7_11 
REMARK    6  A    between atoms: N2_14  and  C10_16 
ROOT
HETATM    1  C5  UNL     1      12.196  18.563  -7.601  1.00  0.00     0.116 C 
ENDROOT
BRANCH   1   2
HETATM    2  C4  UNL     1      11.290  17.521  -7.084  1.00  0.00     0.039 A 
HETATM    3  C3  UNL     1      10.947  16.475  -7.918  1.00  0.00     0.255 A 
HETATM    4  N1  UNL     1      10.130  15.481  -7.644  1.00  0.00    -0.312 N 
HETATM    5  O1  UNL     1      11.471  16.459  -9.078  1.00  0.00    -0.268 OA
HETATM    6  C2  UNL     1       9.447  15.234  -6.532  1.00  0.00     0.114 A 
ATOM      7  H1  UNL     1      10.002  14.802  -8.394  1.00  0.00     0.170 HD
HETATM    8  S2  UNL     1       9.694  16.403  -5.307  1.00  0.00    -0.076 SA
HETATM    9  C16 UNL     1      10.787  17.644  -5.807  1.00  0.00     0.067 A 
BRANCH   6  10
HETATM   10  S1  UNL     1       8.373  13.811  -6.338  1.00  0.00    -0.109 SA
HETATM   11  C1  UNL     1       6.661  14.313  -6.751  1.00  0.00     0.097 C 
ENDBRANCH   6  10
ENDBRANCH   1   2
BRANCH   1  12
HETATM   12  C6  UNL     1      13.651  18.334  -7.338  1.00  0.00     0.034 C 
BRANCH  12  13
HETATM   13  C7  UNL     1      14.560  18.769  -8.461  1.00  0.00    -0.021 C 
HETATM   14  C8  UNL     1      13.728  18.902  -9.747  1.00  0.00     0.009 C 
HETATM   15  C9  UNL     1      15.562  17.649  -8.794  1.00  0.00     0.009 C 
ENDBRANCH  12  13
ENDBRANCH   1  12
BRANCH   1  16
HETATM   16  N2  UNL     1      11.733  19.819  -7.087  1.00  0.00    -0.409 N 
ATOM     17  H2  UNL     1      11.955  20.121  -6.138  1.00  0.00     0.154 HD
BRANCH  16  18
HETATM   18  C10 UNL     1      10.952  20.623  -7.957  1.00  0.00     0.079 C 
HETATM   19  C11 UNL     1      11.799  21.858  -8.295  1.00  0.00     0.030 C 
HETATM   20  C12 UNL     1      11.830  22.729  -7.089  1.00  0.00     0.046 C 
HETATM   21  C13 UNL     1      10.903  23.912  -7.179  1.00  0.00     0.055 C 
HETATM   22  N3  UNL     1       9.535  23.597  -7.275  1.00  0.00    -0.402 N 
HETATM   23  C14 UNL     1       9.201  22.381  -7.966  1.00  0.00     0.120 C 
ATOM     24  H3  UNL     1       8.818  24.200  -6.874  1.00  0.00     0.158 HD
HETATM   25  C15 UNL     1       9.685  21.137  -7.274  1.00  0.00     0.044 C 
ENDBRANCH  16  18
ENDBRANCH   1  16
TORSDOF 6
ENDMDL
