MODEL 1
REMARK VINA RESULT: -6.860143464      0.000      0.000
REMARK  8 active torsions:
REMARK  status: ('A' for Active; 'I' for Inactive)
REMARK    1  A    between atoms: C2_2  and  C3_3 
REMARK    2  A    between atoms: C3_3  and  C4_4 
REMARK    3  A    between atoms: C3_3  and  N1_6 
REMARK    4  A    between atoms: C7_9  and  O1_10 
REMARK    5  A    between atoms: O1_10  and  C8_11 
REMARK    6  A    between atoms: C8_11  and  C9_12 
REMARK    7  A    between atoms: C9_12  and  C10_13 
REMARK    8  A    between atoms: C16_22  and  N3_23 
ROOT
HETATM    1  N1  UNL     1       9.948  20.193  -6.117  1.00  0.00    -0.368 N 
ATOM      2  H1  UNL     1       9.064  20.701  -6.135  1.00  0.00     0.161 HD
HETATM    3  C6  UNL     1      10.508  20.618  -7.131  1.00  0.00     0.161 A 
HETATM    4  C7  UNL     1      11.752  20.186  -7.495  1.00  0.00     0.127 A 
HETATM    5  C13 UNL     1      12.500  20.635  -8.567  1.00  0.00     0.019 A 
HETATM    6  C14 UNL     1      13.829  20.054  -8.808  1.00  0.00     0.059 C 
HETATM    7  S1  UNL     1      11.759  21.857  -9.514  1.00  0.00    -0.054 SA
HETATM    8  C15 UNL     1      10.218  22.245  -8.891  1.00  0.00     0.187 A 
HETATM    9  N2  UNL     1       9.242  23.135  -9.278  1.00  0.00    -0.167 N 
ATOM     10  H2  UNL     1       9.285  23.769 -10.076  1.00  0.00     0.186 HD
HETATM   11  C16 UNL     1       8.225  23.017  -8.416  1.00  0.00     0.693 A 
HETATM   12  N4  UNL     1       8.579  22.076  -7.529  1.00  0.00    -0.122 N 
ATOM     13  H4  UNL     1       8.002  21.766  -6.747  1.00  0.00     0.206 HD
HETATM   14  N5  UNL     1       9.810  21.597  -7.817  1.00  0.00    -0.200 N 
ENDROOT
BRANCH   1  15
HETATM   15  C3  UNL     1       9.821  19.451  -4.999  1.00  0.00     0.082 C 
BRANCH  15  16
HETATM   16  C2  UNL     1       8.365  19.169  -4.698  1.00  0.00     0.021 C 
HETATM   17  C1  UNL     1       7.856  17.833  -5.077  1.00  0.00     0.007 C 
ENDBRANCH  15  16
BRANCH  15  18
HETATM   18  C4  UNL     1      10.607  19.912  -3.786  1.00  0.00     0.021 C 
HETATM   19  C5  UNL     1      10.441  19.162  -2.535  1.00  0.00     0.007 C 
ENDBRANCH  15  18
ENDBRANCH   1  15
BRANCH   4  20
HETATM   20  O1  UNL     1      12.383  19.195  -6.766  1.00  0.00    -0.346 OA
BRANCH  20  21
HETATM   21  C8  UNL     1      12.278  17.815  -7.013  1.00  0.00     0.176 C 
BRANCH  21  22
HETATM   22  C9  UNL     1      13.513  17.160  -6.461  1.00  0.00     0.030 C 
BRANCH  22  23
HETATM   23  C10 UNL     1      13.206  16.066  -5.467  1.00  0.00    -0.021 C 
HETATM   24  C11 UNL     1      11.813  16.141  -4.917  1.00  0.00     0.009 C 
HETATM   25  C12 UNL     1      13.306  14.747  -6.244  1.00  0.00     0.009 C 
ENDBRANCH  22  23
ENDBRANCH  21  22
ENDBRANCH  20  21
ENDBRANCH   4  20
BRANCH  11  26
HETATM   26  N3  UNL     1       7.121  23.680  -8.439  1.00  0.00    -0.233 N 
ATOM     27  H32 UNL     1       6.968  24.598  -8.854  1.00  0.00     0.174 HD
ATOM     28  H31 UNL     1       6.229  23.385  -8.044  1.00  0.00     0.174 HD
ENDBRANCH  11  26
TORSDOF 8
ENDMDL
MODEL 2
REMARK VINA RESULT: -6.825847963      2.844      6.080
REMARK  8 active torsions:
REMARK  status: ('A' for Active; 'I' for Inactive)
REMARK    1  A    between atoms: C2_2  and  C3_3 
REMARK    2  A    between atoms: C3_3  and  C4_4 
REMARK    3  A    between atoms: C3_3  and  N1_6 
REMARK    4  A    between atoms: C7_9  and  O1_10 
REMARK    5  A    between atoms: O1_10  and  C8_11 
REMARK    6  A    between atoms: C8_11  and  C9_12 
REMARK    7  A    between atoms: C9_12  and  C10_13 
REMARK    8  A    between atoms: C16_22  and  N3_23 
ROOT
HETATM    1  N1  UNL     1      11.666  20.447  -7.291  1.00  0.00    -0.368 N 
ATOM      2  H1  UNL     1      11.094  20.248  -6.470  1.00  0.00     0.161 HD
HETATM    3  C6  UNL     1      12.481  19.521  -7.266  1.00  0.00     0.161 A 
HETATM    4  C7  UNL     1      13.457  19.403  -8.214  1.00  0.00     0.127 A 
HETATM    5  C13 UNL     1      14.380  18.380  -8.325  1.00  0.00     0.019 A 
HETATM    6  C14 UNL     1      15.363  18.415  -9.418  1.00  0.00     0.059 C 
HETATM    7  S1  UNL     1      14.257  17.153  -7.133  1.00  0.00    -0.054 SA
HETATM    8  C15 UNL     1      12.981  17.496  -6.051  1.00  0.00     0.187 A 
HETATM    9  N2  UNL     1      12.483  16.845  -4.945  1.00  0.00    -0.167 N 
ATOM     10  H2  UNL     1      12.828  15.967  -4.556  1.00  0.00     0.186 HD
HETATM   11  C16 UNL     1      11.464  17.574  -4.475  1.00  0.00     0.693 A 
HETATM   12  N4  UNL     1      11.351  18.640  -5.278  1.00  0.00    -0.122 N 
ATOM     13  H4  UNL     1      10.657  19.381  -5.168  1.00  0.00     0.206 HD
HETATM   14  N5  UNL     1      12.285  18.597  -6.255  1.00  0.00    -0.200 N 
ENDROOT
BRANCH   1  15
HETATM   15  C3  UNL     1      11.088  21.568  -7.768  1.00  0.00     0.082 C 
BRANCH  15  16
HETATM   16  C2  UNL     1      11.752  22.804  -7.201  1.00  0.00     0.021 C 
HETATM   17  C1  UNL     1      10.890  23.991  -7.010  1.00  0.00     0.007 C 
ENDBRANCH  15  16
BRANCH  15  18
HETATM   18  C4  UNL     1       9.573  21.623  -7.717  1.00  0.00     0.021 C 
HETATM   19  C5  UNL     1       8.838  21.473  -8.979  1.00  0.00     0.007 C 
ENDBRANCH  15  18
ENDBRANCH   1  15
BRANCH   4  20
HETATM   20  O1  UNL     1      13.600  20.374  -9.188  1.00  0.00    -0.346 OA
BRANCH  20  21
HETATM   21  C8  UNL     1      13.049  20.314 -10.480  1.00  0.00     0.176 C 
BRANCH  21  22
HETATM   22  C9  UNL     1      13.044  21.710 -11.037  1.00  0.00     0.030 C 
BRANCH  22  23
HETATM   23  C10 UNL     1      11.666  22.180 -11.436  1.00  0.00    -0.021 C 
HETATM   24  C11 UNL     1      11.326  23.538 -10.899  1.00  0.00     0.009 C 
HETATM   25  C12 UNL     1      11.687  22.300 -12.965  1.00  0.00     0.009 C 
ENDBRANCH  22  23
ENDBRANCH  21  22
ENDBRANCH  20  21
ENDBRANCH   4  20
BRANCH  11  26
HETATM   26  N3  UNL     1      10.738  17.300  -3.447  1.00  0.00    -0.233 N 
ATOM     27  H32 UNL     1      11.066  17.008  -2.527  1.00  0.00     0.174 HD
ATOM     28  H31 UNL     1       9.720  17.333  -3.399  1.00  0.00     0.174 HD
ENDBRANCH  11  26
TORSDOF 8
ENDMDL
MODEL 3
REMARK VINA RESULT: -6.806338785      3.321      6.400
REMARK  8 active torsions:
REMARK  status: ('A' for Active; 'I' for Inactive)
REMARK    1  A    between atoms: C2_2  and  C3_3 
REMARK    2  A    between atoms: C3_3  and  C4_4 
REMARK    3  A    between atoms: C3_3  and  N1_6 
REMARK    4  A    between atoms: C7_9  and  O1_10 
REMARK    5  A    between atoms: O1_10  and  C8_11 
REMARK    6  A    between atoms: C8_11  and  C9_12 
REMARK    7  A    between atoms: C9_12  and  C10_13 
REMARK    8  A    between atoms: C16_22  and  N3_23 
ROOT
HETATM    1  N1  UNL     1      12.454  18.709  -8.128  1.00  0.00    -0.368 N 
ATOM      2  H1  UNL     1      12.399  17.775  -8.534  1.00  0.00     0.161 HD
HETATM    3  C6  UNL     1      11.357  18.812  -7.573  1.00  0.00     0.161 A 
HETATM    4  C7  UNL     1      11.004  19.941  -6.890  1.00  0.00     0.127 A 
HETATM    5  C13 UNL     1       9.836  20.145  -6.180  1.00  0.00     0.019 A 
HETATM    6  C14 UNL     1       9.625  21.431  -5.499  1.00  0.00     0.059 C 
HETATM    7  S1  UNL     1       8.741  18.825  -6.181  1.00  0.00    -0.054 SA
HETATM    8  C15 UNL     1       9.371  17.525  -7.091  1.00  0.00     0.187 A 
HETATM    9  N2  UNL     1       8.896  16.270  -7.396  1.00  0.00    -0.167 N 
ATOM     10  H2  UNL     1       8.003  15.875  -7.099  1.00  0.00     0.186 HD
HETATM   11  C16 UNL     1       9.817  15.664  -8.155  1.00  0.00     0.693 A 
HETATM   12  N4  UNL     1      10.825  16.533  -8.303  1.00  0.00    -0.122 N 
ATOM     13  H4  UNL     1      11.677  16.352  -8.836  1.00  0.00     0.206 HD
HETATM   14  N5  UNL     1      10.557  17.685  -7.647  1.00  0.00    -0.200 N 
ENDROOT
BRANCH   1  15
HETATM   15  C3  UNL     1      13.684  19.108  -8.511  1.00  0.00     0.082 C 
BRANCH  15  16
HETATM   16  C2  UNL     1      13.804  19.124 -10.019  1.00  0.00     0.021 C 
HETATM   17  C1  UNL     1      14.404  20.333 -10.623  1.00  0.00     0.007 C 
ENDBRANCH  15  16
BRANCH  15  18
HETATM   18  C4  UNL     1      14.858  18.438  -7.822  1.00  0.00     0.021 C 
HETATM   19  C5  UNL     1      15.618  17.437  -8.579  1.00  0.00     0.007 C 
ENDBRANCH  15  18
ENDBRANCH   1  15
BRANCH   4  20
HETATM   20  O1  UNL     1      11.852  21.033  -6.871  1.00  0.00    -0.346 OA
BRANCH  20  21
HETATM   21  C8  UNL     1      11.607  22.262  -7.510  1.00  0.00     0.176 C 
BRANCH  21  22
HETATM   22  C9  UNL     1      11.523  21.997  -8.987  1.00  0.00     0.030 C 
BRANCH  22  23
HETATM   23  C10 UNL     1      10.382  22.727  -9.652  1.00  0.00    -0.021 C 
HETATM   24  C11 UNL     1       9.442  23.370  -8.676  1.00  0.00     0.009 C 
HETATM   25  C12 UNL     1      11.021  23.862 -10.463  1.00  0.00     0.009 C 
ENDBRANCH  22  23
ENDBRANCH  21  22
ENDBRANCH  20  21
ENDBRANCH   4  20
BRANCH  11  26
HETATM   26  N3  UNL     1       9.742  14.476  -8.645  1.00  0.00    -0.233 N 
ATOM     27  H32 UNL     1      10.060  13.612  -8.205  1.00  0.00     0.174 HD
ATOM     28  H31 UNL     1       9.352  14.218  -9.551  1.00  0.00     0.174 HD
ENDBRANCH  11  26
TORSDOF 8
ENDMDL
MODEL 4
REMARK VINA RESULT: -6.800628642      0.987      1.366
REMARK  8 active torsions:
REMARK  status: ('A' for Active; 'I' for Inactive)
REMARK    1  A    between atoms: C2_2  and  C3_3 
REMARK    2  A    between atoms: C3_3  and  C4_4 
REMARK    3  A    between atoms: C3_3  and  N1_6 
REMARK    4  A    between atoms: C7_9  and  O1_10 
REMARK    5  A    between atoms: O1_10  and  C8_11 
REMARK    6  A    between atoms: C8_11  and  C9_12 
REMARK    7  A    between atoms: C9_12  and  C10_13 
REMARK    8  A    between atoms: C16_22  and  N3_23 
ROOT
HETATM    1  N1  UNL     1       9.444  19.624  -6.778  1.00  0.00    -0.368 N 
ATOM      2  H1  UNL     1       8.605  20.202  -6.834  1.00  0.00     0.161 HD
HETATM    3  C6  UNL     1      10.207  20.205  -7.556  1.00  0.00     0.161 A 
HETATM    4  C7  UNL     1      11.475  19.751  -7.785  1.00  0.00     0.127 A 
HETATM    5  C13 UNL     1      12.434  20.349  -8.580  1.00  0.00     0.019 A 
HETATM    6  C14 UNL     1      13.755  19.718  -8.710  1.00  0.00     0.059 C 
HETATM    7  S1  UNL     1      11.946  21.807  -9.340  1.00  0.00    -0.054 SA
HETATM    8  C15 UNL     1      10.335  22.190  -8.924  1.00  0.00     0.187 A 
HETATM    9  N2  UNL     1       9.494  23.225  -9.263  1.00  0.00    -0.167 N 
ATOM     10  H2  UNL     1       9.719  24.008  -9.877  1.00  0.00     0.186 HD
HETATM   11  C16 UNL     1       8.328  23.016  -8.642  1.00  0.00     0.693 A 
HETATM   12  N4  UNL     1       8.461  21.881  -7.944  1.00  0.00    -0.122 N 
ATOM     13  H4  UNL     1       7.732  21.463  -7.365  1.00  0.00     0.206 HD
HETATM   14  N5  UNL     1       9.700  21.365  -8.113  1.00  0.00    -0.200 N 
ENDROOT
BRANCH   1  15
HETATM   15  C3  UNL     1       9.071  18.674  -5.897  1.00  0.00     0.082 C 
BRANCH  15  16
HETATM   16  C2  UNL     1       8.049  17.741  -6.507  1.00  0.00     0.021 C 
HETATM   17  C1  UNL     1       8.515  16.881  -7.615  1.00  0.00     0.007 C 
ENDBRANCH  15  16
BRANCH  15  18
HETATM   18  C4  UNL     1       8.696  19.151  -4.506  1.00  0.00     0.021 C 
HETATM   19  C5  UNL     1       9.758  19.223  -3.496  1.00  0.00     0.007 C 
ENDBRANCH  15  18
ENDBRANCH   1  15
BRANCH   4  20
HETATM   20  O1  UNL     1      11.907  18.575  -7.201  1.00  0.00    -0.346 OA
BRANCH  20  21
HETATM   21  C8  UNL     1      12.557  18.476  -5.958  1.00  0.00     0.176 C 
BRANCH  21  22
HETATM   22  C9  UNL     1      12.910  17.031  -5.744  1.00  0.00     0.030 C 
BRANCH  22  23
HETATM   23  C10 UNL     1      11.716  16.113  -5.834  1.00  0.00    -0.021 C 
HETATM   24  C11 UNL     1      12.054  14.754  -6.371  1.00  0.00     0.009 C 
HETATM   25  C12 UNL     1      11.226  15.912  -4.394  1.00  0.00     0.009 C 
ENDBRANCH  22  23
ENDBRANCH  21  22
ENDBRANCH  20  21
ENDBRANCH   4  20
BRANCH  11  26
HETATM   26  N3  UNL     1       7.282  23.765  -8.707  1.00  0.00    -0.233 N 
ATOM     27  H32 UNL     1       7.174  24.700  -8.314  1.00  0.00     0.174 HD
ATOM     28  H31 UNL     1       6.400  23.534  -9.162  1.00  0.00     0.174 HD
ENDBRANCH  11  26
TORSDOF 8
ENDMDL
MODEL 5
REMARK VINA RESULT: -6.741188575      1.772      2.560
REMARK  8 active torsions:
REMARK  status: ('A' for Active; 'I' for Inactive)
REMARK    1  A    between atoms: C2_2  and  C3_3 
REMARK    2  A    between atoms: C3_3  and  C4_4 
REMARK    3  A    between atoms: C3_3  and  N1_6 
REMARK    4  A    between atoms: C7_9  and  O1_10 
REMARK    5  A    between atoms: O1_10  and  C8_11 
REMARK    6  A    between atoms: C8_11  and  C9_12 
REMARK    7  A    between atoms: C9_12  and  C10_13 
REMARK    8  A    between atoms: C16_22  and  N3_23 
ROOT
HETATM    1  N1  UNL     1       9.205  18.517  -7.390  1.00  0.00    -0.368 N 
ATOM      2  H1  UNL     1       8.375  19.088  -7.550  1.00  0.00     0.161 HD
HETATM    3  C6  UNL     1      10.111  19.282  -7.731  1.00  0.00     0.161 A 
HETATM    4  C7  UNL     1      11.423  18.906  -7.674  1.00  0.00     0.127 A 
HETATM    5  C13 UNL     1      12.521  19.693  -7.967  1.00  0.00     0.019 A 
HETATM    6  C14 UNL     1      13.869  19.119  -7.848  1.00  0.00     0.059 C 
HETATM    7  S1  UNL     1      12.160  21.299  -8.449  1.00  0.00    -0.054 SA
HETATM    8  C15 UNL     1      10.472  21.557  -8.456  1.00  0.00     0.187 A 
HETATM    9  N2  UNL     1       9.686  22.644  -8.762  1.00  0.00    -0.167 N 
ATOM     10  H2  UNL     1      10.016  23.562  -9.063  1.00  0.00     0.186 HD
HETATM   11  C16 UNL     1       8.410  22.279  -8.593  1.00  0.00     0.693 A 
HETATM   12  N4  UNL     1       8.425  21.000  -8.195  1.00  0.00    -0.122 N 
ATOM     13  H4  UNL     1       7.595  20.445  -7.986  1.00  0.00     0.206 HD
HETATM   14  N5  UNL     1       9.697  20.548  -8.106  1.00  0.00    -0.200 N 
ENDROOT
BRANCH   1  15
HETATM   15  C3  UNL     1       8.669  17.369  -6.929  1.00  0.00     0.082 C 
BRANCH  15  16
HETATM   16  C2  UNL     1       8.248  16.471  -8.071  1.00  0.00     0.021 C 
HETATM   17  C1  UNL     1       9.278  15.556  -8.609  1.00  0.00     0.007 C 
ENDBRANCH  15  16
BRANCH  15  18
HETATM   18  C4  UNL     1       7.613  17.501  -5.847  1.00  0.00     0.021 C 
HETATM   19  C5  UNL     1       6.409  16.670  -5.960  1.00  0.00     0.007 C 
ENDBRANCH  15  18
ENDBRANCH   1  15
BRANCH   4  20
HETATM   20  O1  UNL     1      11.760  17.618  -7.301  1.00  0.00    -0.346 OA
BRANCH  20  21
HETATM   21  C8  UNL     1      12.052  17.203  -5.990  1.00  0.00     0.176 C 
BRANCH  21  22
HETATM   22  C9  UNL     1      11.841  15.716  -5.926  1.00  0.00     0.030 C 
BRANCH  22  23
HETATM   23  C10 UNL     1      11.147  15.273  -4.662  1.00  0.00    -0.021 C 
HETATM   24  C11 UNL     1      10.570  16.411  -3.873  1.00  0.00     0.009 C 
HETATM   25  C12 UNL     1       9.966  14.402  -5.110  1.00  0.00     0.009 C 
ENDBRANCH  22  23
ENDBRANCH  21  22
ENDBRANCH  20  21
ENDBRANCH   4  20
BRANCH  11  26
HETATM   26  N3  UNL     1       7.372  23.017  -8.781  1.00  0.00    -0.233 N 
ATOM     27  H32 UNL     1       7.015  23.740  -8.157  1.00  0.00     0.174 HD
ATOM     28  H31 UNL     1       6.746  22.990  -9.586  1.00  0.00     0.174 HD
ENDBRANCH  11  26
TORSDOF 8
ENDMDL
