MODEL 1
REMARK VINA RESULT: -8.391073386      0.000      0.000
REMARK  5 active torsions:
REMARK  status: ('A' for Active; 'I' for Inactive)
REMARK    1  A    between atoms: C2_2  and  C3_3 
REMARK    2  A    between atoms: C3_3  and  N1_4 
REMARK    3  A    between atoms: N2_12  and  C10_14 
REMARK    4  A    between atoms: C10_14  and  C11_15 
REMARK    5  A    between atoms: C16_20  and  O2_21 
ROOT
HETATM    1  C11 UNL     1      16.369   7.217  11.626  1.00  0.00     0.039 A 
HETATM    2  C12 UNL     1      15.439   8.197  11.360  1.00  0.00     0.011 A 
HETATM    3  C13 UNL     1      14.500   8.857  12.119  1.00  0.00     0.015 A 
HETATM    4  C14 UNL     1      13.685   9.816  11.521  1.00  0.00     0.004 A 
HETATM    5  C15 UNL     1      13.771  10.143  10.193  1.00  0.00     0.039 A 
HETATM    6  C16 UNL     1      14.706   9.488   9.428  1.00  0.00     0.095 A 
HETATM    7  C17 UNL     1      15.516   8.538  10.008  1.00  0.00     0.104 A 
HETATM    8  N3  UNL     1      16.472   7.784   9.462  1.00  0.00    -0.222 N 
HETATM    9  N4  UNL     1      17.107   7.512   8.348  1.00  0.00    -0.217 N 
ATOM     10  H4  UNL     1      16.920   7.969   7.456  1.00  0.00     0.206 HD
HETATM   11  N5  UNL     1      18.028   6.566   8.526  1.00  0.00    -0.005 NA
HETATM   12  N6  UNL     1      17.955   6.242   9.809  1.00  0.00    -0.266 N 
ATOM     13  H6  UNL     1      18.530   5.542  10.277  1.00  0.00     0.186 HD
HETATM   14  C18 UNL     1      17.002   6.984  10.394  1.00  0.00     0.154 A 
ENDROOT
BRANCH   1  15
HETATM   15  C10 UNL     1      16.668   6.611  12.736  1.00  0.00     0.106 C 
BRANCH  15  16
HETATM   16  N2  UNL     1      16.892   5.240  12.895  1.00  0.00    -0.351 N 
HETATM   17  C9  UNL     1      16.536   4.563  13.958  1.00  0.00     0.110 A 
HETATM   18  N1  UNL     1      16.822   3.179  13.997  1.00  0.00    -0.296 N 
HETATM   19  C8  UNL     1      15.836   5.227  15.044  1.00  0.00     0.050 A 
HETATM   20  C4  UNL     1      16.382   2.468  15.168  1.00  0.00     0.258 A 
HETATM   21  O1  UNL     1      16.596   1.219  15.290  1.00  0.00    -0.267 OA
HETATM   22  C5  UNL     1      15.683   3.164  16.239  1.00  0.00     0.023 A 
HETATM   23  C6  UNL     1      15.291   2.491  17.296  1.00  0.00     0.029 C 
HETATM   24  C7  UNL     1      15.424   4.593  16.127  1.00  0.00     0.020 A 
ATOM     25  H2  UNL     1      17.359   4.738  12.140  1.00  0.00     0.166 HD
BRANCH  18  26
HETATM   26  C3  UNL     1      17.515   2.445  12.994  1.00  0.00     0.160 C 
BRANCH  26  27
HETATM   27  C2  UNL     1      16.690   1.847  11.932  1.00  0.00    -0.017 C 
HETATM   28  C1  UNL     1      16.978   0.628  11.508  1.00  0.00     0.008 C 
ENDBRANCH  26  27
ENDBRANCH  18  26
ENDBRANCH  15  16
ENDBRANCH   1  15
BRANCH   6  29
HETATM   29  O2  UNL     1      14.778   9.830   8.098  1.00  0.00    -0.358 OA
ATOM     30  H2  UNL     1      15.528  10.346   7.824  1.00  0.00     0.217 HD
ENDBRANCH   6  29
TORSDOF 5
ENDMDL
MODEL 2
REMARK VINA RESULT: -8.367805716      2.799      7.481
REMARK  5 active torsions:
REMARK  status: ('A' for Active; 'I' for Inactive)
REMARK    1  A    between atoms: C2_2  and  C3_3 
REMARK    2  A    between atoms: C3_3  and  N1_4 
REMARK    3  A    between atoms: N2_12  and  C10_14 
REMARK    4  A    between atoms: C10_14  and  C11_15 
REMARK    5  A    between atoms: C16_20  and  O2_21 
ROOT
HETATM    1  C11 UNL     1      16.475   4.882  14.301  1.00  0.00     0.039 A 
HETATM    2  C12 UNL     1      16.608   4.244  13.089  1.00  0.00     0.011 A 
HETATM    3  C13 UNL     1      16.582   4.664  11.778  1.00  0.00     0.015 A 
HETATM    4  C14 UNL     1      16.742   3.730  10.755  1.00  0.00     0.004 A 
HETATM    5  C15 UNL     1      16.926   2.393  10.989  1.00  0.00     0.039 A 
HETATM    6  C16 UNL     1      16.952   1.966  12.295  1.00  0.00     0.095 A 
HETATM    7  C17 UNL     1      16.796   2.878  13.314  1.00  0.00     0.104 A 
HETATM    8  N3  UNL     1      16.779   2.689  14.635  1.00  0.00    -0.222 N 
HETATM    9  N4  UNL     1      16.875   1.787  15.581  1.00  0.00    -0.217 N 
ATOM     10  H4  UNL     1      17.023   0.793  15.412  1.00  0.00     0.206 HD
HETATM   11  N5  UNL     1      16.754   2.331  16.791  1.00  0.00    -0.005 NA
HETATM   12  N6  UNL     1      16.576   3.627  16.577  1.00  0.00    -0.266 N 
ATOM     13  H6  UNL     1      16.450   4.335  17.301  1.00  0.00     0.186 HD
HETATM   14  C18 UNL     1      16.589   3.858  15.256  1.00  0.00     0.154 A 
ENDROOT
BRANCH   1  15
HETATM   15  C10 UNL     1      16.304   6.139  14.584  1.00  0.00     0.106 C 
BRANCH  15  16
HETATM   16  N2  UNL     1      17.222   7.169  14.363  1.00  0.00    -0.351 N 
HETATM   17  C9  UNL     1      17.122   8.037  13.387  1.00  0.00     0.110 A 
HETATM   18  N1  UNL     1      18.121   9.031  13.270  1.00  0.00    -0.296 N 
HETATM   19  C8  UNL     1      15.989   7.985  12.479  1.00  0.00     0.050 A 
HETATM   20  C4  UNL     1      17.952   9.985  12.206  1.00  0.00     0.258 A 
HETATM   21  O1  UNL     1      18.801  10.915  12.025  1.00  0.00    -0.267 OA
HETATM   22  C5  UNL     1      16.804   9.904  11.313  1.00  0.00     0.023 A 
HETATM   23  C6  UNL     1      16.673  10.788  10.351  1.00  0.00     0.029 C 
HETATM   24  C7  UNL     1      15.815   8.849  11.496  1.00  0.00     0.020 A 
ATOM     25  H2  UNL     1      18.016   7.250  14.997  1.00  0.00     0.166 HD
BRANCH  18  26
HETATM   26  C3  UNL     1      19.272   9.154  14.098  1.00  0.00     0.160 C 
BRANCH  26  27
HETATM   27  C2  UNL     1      19.153  10.055  15.255  1.00  0.00    -0.017 C 
HETATM   28  C1  UNL     1      20.189  10.804  15.592  1.00  0.00     0.008 C 
ENDBRANCH  26  27
ENDBRANCH  18  26
ENDBRANCH  15  16
ENDBRANCH   1  15
BRANCH   6  29
HETATM   29  O2  UNL     1      17.140   0.620  12.511  1.00  0.00    -0.358 OA
ATOM     30  H2  UNL     1      18.005   0.343  12.789  1.00  0.00     0.217 HD
ENDBRANCH   6  29
TORSDOF 5
ENDMDL
MODEL 3
REMARK VINA RESULT: -8.247210641      2.387      7.317
REMARK  5 active torsions:
REMARK  status: ('A' for Active; 'I' for Inactive)
REMARK    1  A    between atoms: C2_2  and  C3_3 
REMARK    2  A    between atoms: C3_3  and  N1_4 
REMARK    3  A    between atoms: N2_12  and  C10_14 
REMARK    4  A    between atoms: C10_14  and  C11_15 
REMARK    5  A    between atoms: C16_20  and  O2_21 
ROOT
HETATM    1  C11 UNL     1      15.738   5.600  14.735  1.00  0.00     0.039 A 
HETATM    2  C12 UNL     1      15.327   4.716  15.707  1.00  0.00     0.011 A 
HETATM    3  C13 UNL     1      14.508   4.818  16.809  1.00  0.00     0.015 A 
HETATM    4  C14 UNL     1      14.303   3.701  17.617  1.00  0.00     0.004 A 
HETATM    5  C15 UNL     1      14.884   2.485  17.369  1.00  0.00     0.039 A 
HETATM    6  C16 UNL     1      15.703   2.376  16.272  1.00  0.00     0.095 A 
HETATM    7  C17 UNL     1      15.914   3.472  15.465  1.00  0.00     0.104 A 
HETATM    8  N3  UNL     1      16.666   3.594  14.370  1.00  0.00    -0.222 N 
HETATM    9  N4  UNL     1      17.469   2.956  13.554  1.00  0.00    -0.217 N 
ATOM     10  H4  UNL     1      17.722   1.973  13.652  1.00  0.00     0.206 HD
HETATM   11  N5  UNL     1      17.912   3.750  12.581  1.00  0.00    -0.005 NA
HETATM   12  N6  UNL     1      17.356   4.931  12.810  1.00  0.00    -0.266 N 
ATOM     13  H6  UNL     1      17.489   5.768  12.244  1.00  0.00     0.186 HD
HETATM   14  C18 UNL     1      16.587   4.847  13.907  1.00  0.00     0.154 A 
ENDROOT
BRANCH   1  15
HETATM   15  C10 UNL     1      15.441   6.850  14.544  1.00  0.00     0.106 C 
BRANCH  15  16
HETATM   16  N2  UNL     1      15.730   7.604  13.402  1.00  0.00    -0.351 N 
HETATM   17  C9  UNL     1      16.796   8.353  13.275  1.00  0.00     0.110 A 
HETATM   18  N1  UNL     1      16.972   9.069  12.069  1.00  0.00    -0.296 N 
HETATM   19  C8  UNL     1      17.781   8.406  14.342  1.00  0.00     0.050 A 
HETATM   20  C4  UNL     1      18.175   9.851  11.958  1.00  0.00     0.258 A 
HETATM   21  O1  UNL     1      18.417  10.528  10.908  1.00  0.00    -0.267 OA
HETATM   22  C5  UNL     1      19.141   9.882  13.048  1.00  0.00     0.023 A 
HETATM   23  C6  UNL     1      20.231  10.602  12.920  1.00  0.00     0.029 C 
HETATM   24  C7  UNL     1      18.891   9.117  14.262  1.00  0.00     0.020 A 
ATOM     25  H2  UNL     1      15.072   7.569  12.624  1.00  0.00     0.166 HD
BRANCH  18  26
HETATM   26  C3  UNL     1      16.059   9.093  10.977  1.00  0.00     0.160 C 
BRANCH  26  27
HETATM   27  C2  UNL     1      15.020  10.134  11.015  1.00  0.00    -0.017 C 
HETATM   28  C1  UNL     1      13.818   9.821  11.472  1.00  0.00     0.008 C 
ENDBRANCH  26  27
ENDBRANCH  18  26
ENDBRANCH  15  16
ENDBRANCH   1  15
BRANCH   6  29
HETATM   29  O2  UNL     1      16.277   1.147  16.038  1.00  0.00    -0.358 OA
ATOM     30  H2  UNL     1      16.821   0.785  16.727  1.00  0.00     0.217 HD
ENDBRANCH   6  29
TORSDOF 5
ENDMDL
MODEL 4
REMARK VINA RESULT: -8.233541211      2.233      7.484
REMARK  5 active torsions:
REMARK  status: ('A' for Active; 'I' for Inactive)
REMARK    1  A    between atoms: C2_2  and  C3_3 
REMARK    2  A    between atoms: C3_3  and  N1_4 
REMARK    3  A    between atoms: N2_12  and  C10_14 
REMARK    4  A    between atoms: C10_14  and  C11_15 
REMARK    5  A    between atoms: C16_20  and  O2_21 
ROOT
HETATM    1  C11 UNL     1      15.799   5.721  14.302  1.00  0.00     0.039 A 
HETATM    2  C12 UNL     1      15.354   4.948  15.351  1.00  0.00     0.011 A 
HETATM    3  C13 UNL     1      14.514   5.173  16.418  1.00  0.00     0.015 A 
HETATM    4  C14 UNL     1      14.275   4.149  17.332  1.00  0.00     0.004 A 
HETATM    5  C15 UNL     1      14.844   2.907  17.224  1.00  0.00     0.039 A 
HETATM    6  C16 UNL     1      15.685   2.674  16.163  1.00  0.00     0.095 A 
HETATM    7  C17 UNL     1      15.928   3.678  15.253  1.00  0.00     0.104 A 
HETATM    8  N3  UNL     1      16.705   3.677  14.168  1.00  0.00    -0.222 N 
HETATM    9  N4  UNL     1      17.515   2.948  13.441  1.00  0.00    -0.217 N 
ATOM     10  H4  UNL     1      17.752   1.977  13.645  1.00  0.00     0.206 HD
HETATM   11  N5  UNL     1      17.991   3.631  12.400  1.00  0.00    -0.005 NA
HETATM   12  N6  UNL     1      17.447   4.836  12.494  1.00  0.00    -0.266 N 
ATOM     13  H6  UNL     1      17.604   5.608  11.848  1.00  0.00     0.186 HD
HETATM   14  C18 UNL     1      16.654   4.875  13.576  1.00  0.00     0.154 A 
ENDROOT
BRANCH   1  15
HETATM   15  C10 UNL     1      15.524   6.948  13.976  1.00  0.00     0.106 C 
BRANCH  15  16
HETATM   16  N2  UNL     1      16.311   7.790  13.186  1.00  0.00    -0.351 N 
HETATM   17  C9  UNL     1      15.823   8.655  12.333  1.00  0.00     0.110 A 
HETATM   18  N1  UNL     1      16.728   9.447  11.590  1.00  0.00    -0.296 N 
HETATM   19  C8  UNL     1      14.385   8.807  12.192  1.00  0.00     0.050 A 
HETATM   20  C4  UNL     1      16.147  10.410  10.691  1.00  0.00     0.258 A 
HETATM   21  O1  UNL     1      16.885  11.166   9.982  1.00  0.00    -0.267 OA
HETATM   22  C5  UNL     1      14.701  10.536  10.575  1.00  0.00     0.023 A 
HETATM   23  C6  UNL     1      14.197  11.423   9.748  1.00  0.00     0.029 C 
HETATM   24  C7  UNL     1      13.831   9.683  11.374  1.00  0.00     0.020 A 
ATOM     25  H2  UNL     1      17.325   7.727  13.278  1.00  0.00     0.166 HD
BRANCH  18  26
HETATM   26  C3  UNL     1      18.147   9.361  11.646  1.00  0.00     0.160 C 
BRANCH  26  27
HETATM   27  C2  UNL     1      18.821  10.263  12.594  1.00  0.00    -0.017 C 
HETATM   28  C1  UNL     1      19.175   9.796  13.780  1.00  0.00     0.008 C 
ENDBRANCH  26  27
ENDBRANCH  18  26
ENDBRANCH  15  16
ENDBRANCH   1  15
BRANCH   6  29
HETATM   29  O2  UNL     1      16.245   1.421  16.070  1.00  0.00    -0.358 OA
ATOM     30  H2  UNL     1      16.570   1.032  16.873  1.00  0.00     0.217 HD
ENDBRANCH   6  29
TORSDOF 5
ENDMDL
MODEL 5
REMARK VINA RESULT: -8.220434981      1.105      1.329
REMARK  5 active torsions:
REMARK  status: ('A' for Active; 'I' for Inactive)
REMARK    1  A    between atoms: C2_2  and  C3_3 
REMARK    2  A    between atoms: C3_3  and  N1_4 
REMARK    3  A    between atoms: N2_12  and  C10_14 
REMARK    4  A    between atoms: C10_14  and  C11_15 
REMARK    5  A    between atoms: C16_20  and  O2_21 
ROOT
HETATM    1  C11 UNL     1      16.895   7.116  10.569  1.00  0.00     0.039 A 
HETATM    2  C12 UNL     1      15.856   7.933  10.951  1.00  0.00     0.011 A 
HETATM    3  C13 UNL     1      15.215   8.172  12.146  1.00  0.00     0.015 A 
HETATM    4  C14 UNL     1      14.159   9.082  12.189  1.00  0.00     0.004 A 
HETATM    5  C15 UNL     1      13.717   9.762  11.085  1.00  0.00     0.039 A 
HETATM    6  C16 UNL     1      14.351   9.528   9.888  1.00  0.00     0.095 A 
HETATM    7  C17 UNL     1      15.395   8.633   9.833  1.00  0.00     0.104 A 
HETATM    8  N3  UNL     1      16.138   8.250   8.793  1.00  0.00    -0.222 N 
HETATM    9  N4  UNL     1      16.332   8.414   7.507  1.00  0.00    -0.217 N 
ATOM     10  H4  UNL     1      15.789   9.048   6.922  1.00  0.00     0.206 HD
HETATM   11  N5  UNL     1      17.328   7.650   7.060  1.00  0.00    -0.005 NA
HETATM   12  N6  UNL     1      17.765   6.987   8.121  1.00  0.00    -0.266 N 
ATOM     13  H6  UNL     1      18.529   6.311   8.124  1.00  0.00     0.186 HD
HETATM   14  C18 UNL     1      17.041   7.348   9.191  1.00  0.00     0.154 A 
ENDROOT
BRANCH   1  15
HETATM   15  C10 UNL     1      17.635   6.305  11.263  1.00  0.00     0.106 C 
BRANCH  15  16
HETATM   16  N2  UNL     1      17.337   4.975  11.575  1.00  0.00    -0.351 N 
HETATM   17  C9  UNL     1      17.207   4.525  12.798  1.00  0.00     0.110 A 
HETATM   18  N1  UNL     1      16.907   3.156  12.979  1.00  0.00    -0.296 N 
HETATM   19  C8  UNL     1      17.337   5.432  13.925  1.00  0.00     0.050 A 
HETATM   20  C4  UNL     1      16.737   2.713  14.338  1.00  0.00     0.258 A 
HETATM   21  O1  UNL     1      16.465   1.497  14.597  1.00  0.00    -0.267 OA
HETATM   22  C5  UNL     1      16.875   3.649  15.445  1.00  0.00     0.023 A 
HETATM   23  C6  UNL     1      16.713   3.218  16.675  1.00  0.00     0.029 C 
HETATM   24  C7  UNL     1      17.186   5.047  15.179  1.00  0.00     0.020 A 
ATOM     25  H2  UNL     1      17.215   4.317  10.806  1.00  0.00     0.166 HD
BRANCH  18  26
HETATM   26  C3  UNL     1      16.777   2.189  11.943  1.00  0.00     0.160 C 
BRANCH  26  27
HETATM   27  C2  UNL     1      18.013   1.512  11.520  1.00  0.00    -0.017 C 
HETATM   28  C1  UNL     1      17.974   0.216  11.257  1.00  0.00     0.008 C 
ENDBRANCH  26  27
ENDBRANCH  18  26
ENDBRANCH  15  16
ENDBRANCH   1  15
BRANCH   6  29
HETATM   29  O2  UNL     1      13.894  10.221   8.791  1.00  0.00    -0.358 OA
ATOM     30  H2  UNL     1      12.985  10.093   8.546  1.00  0.00     0.217 HD
ENDBRANCH   6  29
TORSDOF 5
ENDMDL
