MODEL 1
REMARK VINA RESULT: -8.369077594      0.000      0.000
REMARK  3 active torsions:
REMARK  status: ('A' for Active; 'I' for Inactive)
REMARK    1  A    between atoms: N1_4  and  C3_5 
REMARK    2  A    between atoms: C4_8  and  N3_9 
REMARK    3  A    between atoms: C10_17  and  N5_18 
ROOT
HETATM    1  C3  UNL     1      17.854   3.912  12.400  1.00  0.00     0.709 A 
HETATM    2  N2  UNL     1      17.093   3.685  13.503  1.00  0.00    -0.021 N 
ATOM      3  H2  UNL     1      16.482   2.867  13.518  1.00  0.00     0.203 HD
HETATM    4  C4  UNL     1      17.113   4.494  14.575  1.00  0.00     0.709 A 
HETATM    5  N4  UNL     1      17.932   5.562  14.517  1.00  0.00    -0.021 N 
ATOM      6  H4  UNL     1      17.974   6.200  15.312  1.00  0.00     0.203 HD
HETATM    7  C10 UNL     1      18.693   5.808  13.440  1.00  0.00     0.709 A 
HETATM    8  N6  UNL     1      18.657   4.988  12.384  1.00  0.00    -0.021 N 
ATOM      9  H6  UNL     1      19.238   5.180  11.568  1.00  0.00     0.203 HD
ENDROOT
BRANCH   1  10
HETATM   10  N1  UNL     1      17.813   3.043  11.284  1.00  0.00    -0.206 N 
HETATM   11  C2  UNL     1      16.719   3.024  10.335  1.00  0.00     0.244 C 
HETATM   12  C1  UNL     1      16.503   1.600   9.948  1.00  0.00     0.236 C 
HETATM   13  O1  UNL     1      15.725   1.407   8.966  1.00  0.00    -0.272 OA
HETATM   14  N7  UNL     1      17.133   0.544  10.645  1.00  0.00    -0.358 N 
HETATM   15  C16 UNL     1      18.360   0.729  11.412  1.00  0.00     0.143 C 
ATOM     16  H7  UNL     1      16.713  -0.385  10.611  1.00  0.00     0.162 HD
HETATM   17  C15 UNL     1      18.900   2.118  11.053  1.00  0.00     0.161 C 
ENDBRANCH   1  10
BRANCH   4  18
HETATM   18  N3  UNL     1      16.306   4.246  15.736  1.00  0.00    -0.217 N 
HETATM   19  C5  UNL     1      15.072   4.953  15.884  1.00  0.00     0.141 C 
HETATM   20  C6  UNL     1      14.051   4.298  16.723  1.00  0.00     0.020 C 
HETATM   21  C7  UNL     1      14.553   3.233  17.644  1.00  0.00     0.003 C 
HETATM   22  C8  UNL     1      15.635   2.377  17.042  1.00  0.00     0.020 C 
HETATM   23  C9  UNL     1      16.791   3.289  16.693  1.00  0.00     0.141 C 
ENDBRANCH   4  18
BRANCH   7  24
HETATM   24  N5  UNL     1      19.528   6.936  13.435  1.00  0.00    -0.213 N 
HETATM   25  C11 UNL     1      20.613   7.044  12.501  1.00  0.00     0.167 C 
HETATM   26  C12 UNL     1      20.390   8.253  11.641  1.00  0.00     0.188 C 
HETATM   27  O2  UNL     1      19.620   9.224  12.264  1.00  0.00    -0.388 OA
HETATM   28  C13 UNL     1      19.827   9.293  13.627  1.00  0.00     0.188 C 
HETATM   29  C14 UNL     1      19.355   8.053  14.360  1.00  0.00     0.167 C 
ENDBRANCH   7  24
TORSDOF 3
ENDMDL
MODEL 2
REMARK VINA RESULT: -8.264936361      2.034      5.371
REMARK  3 active torsions:
REMARK  status: ('A' for Active; 'I' for Inactive)
REMARK    1  A    between atoms: N1_4  and  C3_5 
REMARK    2  A    between atoms: C4_8  and  N3_9 
REMARK    3  A    between atoms: C10_17  and  N5_18 
ROOT
HETATM    1  C3  UNL     1      17.346   3.815  12.772  1.00  0.00     0.709 A 
HETATM    2  N2  UNL     1      17.808   5.091  12.704  1.00  0.00    -0.021 N 
ATOM      3  H2  UNL     1      18.260   5.404  11.844  1.00  0.00     0.203 HD
HETATM    4  C4  UNL     1      17.695   5.957  13.725  1.00  0.00     0.709 A 
HETATM    5  N4  UNL     1      17.093   5.506  14.843  1.00  0.00    -0.021 N 
ATOM      6  H4  UNL     1      16.989   6.135  15.639  1.00  0.00     0.203 HD
HETATM    7  C10 UNL     1      16.628   4.251  14.935  1.00  0.00     0.709 A 
HETATM    8  N6  UNL     1      16.751   3.406  13.906  1.00  0.00    -0.021 N 
ATOM      9  H6  UNL     1      16.396   2.454  13.981  1.00  0.00     0.203 HD
ENDROOT
BRANCH   1  10
HETATM   10  N1  UNL     1      17.479   2.923  11.682  1.00  0.00    -0.206 N 
HETATM   11  C2  UNL     1      16.779   3.098  10.426  1.00  0.00     0.244 C 
HETATM   12  C1  UNL     1      16.389   1.739   9.951  1.00  0.00     0.236 C 
HETATM   13  O1  UNL     1      15.951   1.673   8.763  1.00  0.00    -0.272 OA
HETATM   14  N7  UNL     1      16.505   0.605  10.789  1.00  0.00    -0.358 N 
HETATM   15  C16 UNL     1      17.423   0.554  11.920  1.00  0.00     0.143 C 
ATOM     16  H7  UNL     1      15.923  -0.209  10.594  1.00  0.00     0.162 HD
HETATM   17  C15 UNL     1      18.346   1.772  11.797  1.00  0.00     0.161 C 
ENDBRANCH   1  10
BRANCH   4  18
HETATM   18  N3  UNL     1      18.187   7.303  13.644  1.00  0.00    -0.217 N 
HETATM   19  C5  UNL     1      17.751   8.259  14.613  1.00  0.00     0.141 C 
HETATM   20  C6  UNL     1      18.656   9.398  14.848  1.00  0.00     0.020 C 
HETATM   21  C7  UNL     1      19.670   9.653  13.779  1.00  0.00     0.003 C 
HETATM   22  C8  UNL     1      20.247   8.396  13.185  1.00  0.00     0.020 C 
HETATM   23  C9  UNL     1      19.101   7.615  12.579  1.00  0.00     0.141 C 
ENDBRANCH   4  18
BRANCH   7  24
HETATM   24  N5  UNL     1      16.009   3.836  16.124  1.00  0.00    -0.213 N 
HETATM   25  C11 UNL     1      14.800   4.461  16.580  1.00  0.00     0.167 C 
HETATM   26  C12 UNL     1      13.718   3.424  16.649  1.00  0.00     0.188 C 
HETATM   27  O2  UNL     1      14.211   2.141  16.836  1.00  0.00    -0.388 OA
HETATM   28  C13 UNL     1      15.347   2.101  17.619  1.00  0.00     0.188 C 
HETATM   29  C14 UNL     1      16.542   2.764  16.961  1.00  0.00     0.167 C 
ENDBRANCH   7  24
TORSDOF 3
ENDMDL
MODEL 3
REMARK VINA RESULT: -8.227037201      3.156      6.787
REMARK  3 active torsions:
REMARK  status: ('A' for Active; 'I' for Inactive)
REMARK    1  A    between atoms: N1_4  and  C3_5 
REMARK    2  A    between atoms: C4_8  and  N3_9 
REMARK    3  A    between atoms: C10_17  and  N5_18 
ROOT
HETATM    1  C3  UNL     1      15.944   6.200  13.291  1.00  0.00     0.709 A 
HETATM    2  N2  UNL     1      16.449   5.336  12.372  1.00  0.00    -0.021 N 
ATOM      3  H2  UNL     1      16.665   5.686  11.438  1.00  0.00     0.203 HD
HETATM    4  C4  UNL     1      16.673   4.040  12.644  1.00  0.00     0.709 A 
HETATM    5  N4  UNL     1      16.373   3.618  13.887  1.00  0.00    -0.021 N 
ATOM      6  H4  UNL     1      16.530   2.639  14.131  1.00  0.00     0.203 HD
HETATM    7  C10 UNL     1      15.875   4.450  14.813  1.00  0.00     0.709 A 
HETATM    8  N6  UNL     1      15.660   5.737  14.520  1.00  0.00    -0.021 N 
ATOM      9  H6  UNL     1      15.281   6.366  15.228  1.00  0.00     0.203 HD
ENDROOT
BRANCH   1  10
HETATM   10  N1  UNL     1      15.717   7.561  12.978  1.00  0.00    -0.206 N 
HETATM   11  C2  UNL     1      14.396   8.151  12.925  1.00  0.00     0.244 C 
HETATM   12  C1  UNL     1      14.398   9.125  11.795  1.00  0.00     0.236 C 
HETATM   13  O1  UNL     1      13.393   9.893  11.724  1.00  0.00    -0.272 OA
HETATM   14  N7  UNL     1      15.466   9.173  10.867  1.00  0.00    -0.358 N 
HETATM   15  C16 UNL     1      16.803   8.685  11.181  1.00  0.00     0.143 C 
ATOM     16  H7  UNL     1      15.292   9.564   9.941  1.00  0.00     0.162 HD
HETATM   17  C15 UNL     1      16.837   8.429  12.693  1.00  0.00     0.161 C 
ENDBRANCH   1  10
BRANCH   4  18
HETATM   18  N3  UNL     1      17.206   3.135  11.665  1.00  0.00    -0.217 N 
HETATM   19  C5  UNL     1      18.616   3.120  11.433  1.00  0.00     0.141 C 
HETATM   20  C6  UNL     1      19.167   1.864  10.891  1.00  0.00     0.020 C 
HETATM   21  C7  UNL     1      18.176   0.941  10.255  1.00  0.00     0.003 C 
HETATM   22  C8  UNL     1      16.856   0.887  10.976  1.00  0.00     0.020 C 
HETATM   23  C9  UNL     1      16.279   2.286  10.968  1.00  0.00     0.141 C 
ENDBRANCH   4  18
BRANCH   7  24
HETATM   24  N5  UNL     1      15.582   3.955  16.093  1.00  0.00    -0.213 N 
HETATM   25  C11 UNL     1      14.396   4.368  16.788  1.00  0.00     0.167 C 
HETATM   26  C12 UNL     1      13.544   3.162  17.048  1.00  0.00     0.188 C 
HETATM   27  O2  UNL     1      14.278   1.987  17.113  1.00  0.00    -0.388 OA
HETATM   28  C13 UNL     1      15.534   2.157  17.657  1.00  0.00     0.188 C 
HETATM   29  C14 UNL     1      16.444   3.005  16.790  1.00  0.00     0.167 C 
ENDBRANCH   7  24
TORSDOF 3
ENDMDL
MODEL 4
REMARK VINA RESULT: -8.105303677      0.549      1.137
REMARK  3 active torsions:
REMARK  status: ('A' for Active; 'I' for Inactive)
REMARK    1  A    between atoms: N1_4  and  C3_5 
REMARK    2  A    between atoms: C4_8  and  N3_9 
REMARK    3  A    between atoms: C10_17  and  N5_18 
ROOT
HETATM    1  C3  UNL     1      17.684   3.856  12.462  1.00  0.00     0.709 A 
HETATM    2  N2  UNL     1      16.858   3.506  13.482  1.00  0.00    -0.021 N 
ATOM      3  H2  UNL     1      16.315   2.646  13.400  1.00  0.00     0.203 HD
HETATM    4  C4  UNL     1      16.729   4.248  14.595  1.00  0.00     0.709 A 
HETATM    5  N4  UNL     1      17.462   5.375  14.665  1.00  0.00    -0.021 N 
ATOM      6  H4  UNL     1      17.390   5.964  15.495  1.00  0.00     0.203 HD
HETATM    7  C10 UNL     1      18.285   5.743  13.671  1.00  0.00     0.709 A 
HETATM    8  N6  UNL     1      18.398   4.989  12.573  1.00  0.00    -0.021 N 
ATOM      9  H6  UNL     1      19.026   5.273  11.820  1.00  0.00     0.203 HD
ENDROOT
BRANCH   1  10
HETATM   10  N1  UNL     1      17.801   3.057  11.300  1.00  0.00    -0.206 N 
HETATM   11  C2  UNL     1      16.827   3.070  10.229  1.00  0.00     0.244 C 
HETATM   12  C1  UNL     1      16.702   1.667   9.736  1.00  0.00     0.236 C 
HETATM   13  O1  UNL     1      16.051   1.515   8.660  1.00  0.00    -0.272 OA
HETATM   14  N7  UNL     1      17.280   0.585  10.441  1.00  0.00    -0.358 N 
HETATM   15  C16 UNL     1      18.402   0.753  11.357  1.00  0.00     0.143 C 
ATOM     16  H7  UNL     1      16.896  -0.350  10.304  1.00  0.00     0.162 HD
HETATM   17  C15 UNL     1      18.936   2.175  11.146  1.00  0.00     0.161 C 
ENDBRANCH   1  10
BRANCH   4  18
HETATM   18  N3  UNL     1      15.853   3.869  15.668  1.00  0.00    -0.217 N 
HETATM   19  C5  UNL     1      16.190   2.733  16.467  1.00  0.00     0.141 C 
HETATM   20  C6  UNL     1      15.629   2.715  17.831  1.00  0.00     0.020 C 
HETATM   21  C7  UNL     1      14.464   3.622  18.066  1.00  0.00     0.003 C 
HETATM   22  C8  UNL     1      14.582   4.948  17.362  1.00  0.00     0.020 C 
HETATM   23  C9  UNL     1      14.674   4.665  15.878  1.00  0.00     0.141 C 
ENDBRANCH   4  18
BRANCH   7  24
HETATM   24  N5  UNL     1      19.026   6.928  13.799  1.00  0.00    -0.213 N 
HETATM   25  C11 UNL     1      20.333   7.043  13.218  1.00  0.00     0.167 C 
HETATM   26  C12 UNL     1      20.318   8.158  12.214  1.00  0.00     0.188 C 
HETATM   27  O2  UNL     1      19.350   9.114  12.484  1.00  0.00    -0.388 OA
HETATM   28  C13 UNL     1      19.136   9.308  13.833  1.00  0.00     0.188 C 
HETATM   29  C14 UNL     1      18.528   8.098  14.516  1.00  0.00     0.167 C 
ENDBRANCH   7  24
TORSDOF 3
ENDMDL
MODEL 5
REMARK VINA RESULT: -8.058126445      0.896      5.667
REMARK  3 active torsions:
REMARK  status: ('A' for Active; 'I' for Inactive)
REMARK    1  A    between atoms: N1_4  and  C3_5 
REMARK    2  A    between atoms: C4_8  and  N3_9 
REMARK    3  A    between atoms: C10_17  and  N5_18 
ROOT
HETATM    1  C3  UNL     1      18.694   5.665  13.357  1.00  0.00     0.709 A 
HETATM    2  N2  UNL     1      17.925   5.470  14.460  1.00  0.00    -0.021 N 
ATOM      3  H2  UNL     1      17.987   6.141  15.226  1.00  0.00     0.203 HD
HETATM    4  C4  UNL     1      17.085   4.428  14.580  1.00  0.00     0.709 A 
HETATM    5  N4  UNL     1      17.033   3.565  13.548  1.00  0.00    -0.021 N 
ATOM      6  H4  UNL     1      16.407   2.762  13.603  1.00  0.00     0.203 HD
HETATM    7  C10 UNL     1      17.782   3.736  12.448  1.00  0.00     0.709 A 
HETATM    8  N6  UNL     1      18.611   4.781  12.350  1.00  0.00    -0.021 N 
ATOM      9  H6  UNL     1      19.178   4.905  11.511  1.00  0.00     0.203 HD
ENDROOT
BRANCH   1  10
HETATM   10  N1  UNL     1      19.571   6.772  13.256  1.00  0.00    -0.206 N 
HETATM   11  C2  UNL     1      19.592   7.856  14.215  1.00  0.00     0.244 C 
HETATM   12  C1  UNL     1      19.832   9.112  13.448  1.00  0.00     0.236 C 
HETATM   13  O1  UNL     1      20.092  10.142  14.140  1.00  0.00    -0.272 OA
HETATM   14  N7  UNL     1      19.769   9.135  12.035  1.00  0.00    -0.358 N 
HETATM   15  C16 UNL     1      19.964   7.942  11.219  1.00  0.00     0.143 C 
ATOM     16  H7  UNL     1      19.580  10.022  11.567  1.00  0.00     0.162 HD
HETATM   17  C15 UNL     1      20.503   6.851  12.153  1.00  0.00     0.161 C 
ENDBRANCH   1  10
BRANCH   4  18
HETATM   18  N3  UNL     1      16.276   4.231  15.749  1.00  0.00    -0.217 N 
HETATM   19  C5  UNL     1      15.069   4.982  15.890  1.00  0.00     0.141 C 
HETATM   20  C6  UNL     1      14.030   4.380  16.746  1.00  0.00     0.020 C 
HETATM   21  C7  UNL     1      14.500   3.317  17.686  1.00  0.00     0.003 C 
HETATM   22  C8  UNL     1      15.548   2.412  17.095  1.00  0.00     0.020 C 
HETATM   23  C9  UNL     1      16.733   3.276  16.723  1.00  0.00     0.141 C 
ENDBRANCH   4  18
BRANCH   7  24
HETATM   24  N5  UNL     1      17.685   2.804  11.403  1.00  0.00    -0.213 N 
HETATM   25  C11 UNL     1      18.763   1.898  11.124  1.00  0.00     0.167 C 
HETATM   26  C12 UNL     1      18.268   0.493  11.292  1.00  0.00     0.188 C 
HETATM   27  O2  UNL     1      16.900   0.376  11.092  1.00  0.00    -0.388 OA
HETATM   28  C13 UNL     1      16.412   1.240  10.134  1.00  0.00     0.188 C 
HETATM   29  C14 UNL     1      16.508   2.696  10.547  1.00  0.00     0.167 C 
ENDBRANCH   7  24
TORSDOF 3
ENDMDL
