MODEL 1
REMARK VINA RESULT: -8.852280831      0.000      0.000
REMARK  7 active torsions:
REMARK  status: ('A' for Active; 'I' for Inactive)
REMARK    1  A    between atoms: O1_2  and  C2_3 
REMARK    2  A    between atoms: C2_3  and  C3_5 
REMARK    3  A    between atoms: C5_7  and  O3_8 
REMARK    4  A    between atoms: O3_8  and  C6_9 
REMARK    5  A    between atoms: C6_9  and  C10_14 
REMARK    6  A    between atoms: C12_17  and  O5_18 
REMARK    7  A    between atoms: C13_20  and  C14_21 
ROOT
HETATM    1  C6  UNL     1      35.906  -0.960 -21.303  1.00  0.00     0.101 C 
HETATM    2  C7  UNL     1      34.657  -1.343 -21.434  1.00  0.00     0.053 C 
HETATM    3  C8  UNL     1      33.857  -1.602 -20.190  1.00  0.00     0.063 C 
HETATM    4  C9  UNL     1      34.034  -1.543 -22.692  1.00  0.00     0.097 C 
HETATM    5  N1  UNL     1      33.507  -1.728 -23.718  1.00  0.00    -0.192 NA
ENDROOT
BRANCH   1   6
HETATM    6  O3  UNL     1      36.454  -0.805 -20.015  1.00  0.00    -0.318 OA
BRANCH   6   7
HETATM    7  C5  UNL     1      36.771   0.408 -19.426  1.00  0.00     0.267 C 
HETATM    8  C4  UNL     1      37.141   0.215 -17.973  1.00  0.00     0.076 C 
HETATM    9  C3  UNL     1      37.332   1.625 -17.417  1.00  0.00     0.101 C 
HETATM   10  C28 UNL     1      35.955   2.270 -17.329  1.00  0.00    -0.005 C 
HETATM   11  C15 UNL     1      35.143   1.715 -18.461  1.00  0.00     0.134 C 
HETATM   12  C27 UNL     1      36.144   3.764 -17.419  1.00  0.00     0.015 C 
HETATM   13  C29 UNL     1      35.363   1.918 -15.998  1.00  0.00     0.019 C 
HETATM   14  O6  UNL     1      35.848   1.414 -19.595  1.00  0.00    -0.355 OA
HETATM   15  C16 UNL     1      33.906   2.525 -18.790  1.00  0.00     0.040 C 
HETATM   16  C17 UNL     1      34.246   3.826 -19.530  1.00  0.00     0.020 C 
HETATM   17  C18 UNL     1      33.424   3.834 -20.750  1.00  0.00     0.008 C 
HETATM   18  C25 UNL     1      34.298   4.975 -18.618  1.00  0.00     0.164 C 
HETATM   19  C19 UNL     1      33.599   4.850 -21.797  1.00  0.00     0.006 C 
HETATM   20  C20 UNL     1      33.823   6.231 -21.418  1.00  0.00    -0.002 C 
HETATM   21  C21 UNL     1      33.264   7.429 -22.088  1.00  0.00     0.014 C 
HETATM   22  C30 UNL     1      32.830   6.602 -20.361  1.00  0.00     0.001 A 
HETATM   23  C22 UNL     1      32.883   7.998 -20.694  1.00  0.00     0.036 A 
HETATM   24  C23 UNL     1      33.476   7.541 -19.462  1.00  0.00     0.105 A 
HETATM   25  C24 UNL     1      34.798   8.179 -19.397  1.00  0.00     0.050 C 
HETATM   26  O7  UNL     1      33.125   6.931 -18.298  1.00  0.00    -0.228 OA
HETATM   27  O8  UNL     1      33.191   5.640 -18.267  1.00  0.00    -0.234 OA
HETATM   28  C31 UNL     1      31.456   6.118 -20.307  1.00  0.00     0.019 C 
HETATM   29  C26 UNL     1      34.850   4.456 -17.262  1.00  0.00     0.036 C 
BRANCH   9  30
HETATM   30  C2  UNL     1      38.068   1.578 -16.161  1.00  0.00     0.263 C 
HETATM   31  O2  UNL     1      38.108   0.466 -15.524  1.00  0.00    -0.265 OA
BRANCH  30  32
HETATM   32  O1  UNL     1      38.748   2.616 -15.552  1.00  0.00    -0.326 OA
HETATM   33  C1  UNL     1      38.269   3.227 -14.348  1.00  0.00     0.213 C 
ENDBRANCH  30  32
ENDBRANCH   9  30
ENDBRANCH   6   7
ENDBRANCH   1   6
BRANCH   1  34
HETATM   34  C10 UNL     1      36.697  -0.702 -22.513  1.00  0.00     0.033 A 
HETATM   35  C11 UNL     1      37.609  -1.517 -23.137  1.00  0.00     0.159 A 
HETATM   36  O4  UNL     1      38.104  -0.865 -24.183  1.00  0.00    -0.299 OA
HETATM   37  C12 UNL     1      37.576   0.312 -24.275  1.00  0.00     0.191 A 
HETATM   38  C13 UNL     1      36.679   0.477 -23.252  1.00  0.00     0.029 A 
BRANCH  37  39
HETATM   39  O5  UNL     1      37.896   1.245 -25.282  1.00  0.00    -0.340 OA
ATOM     40  H5  UNL     1      38.565   1.914 -25.195  1.00  0.00     0.220 HD
ENDBRANCH  37  39
BRANCH  38  41
HETATM   41  C14 UNL     1      35.866   1.676 -23.000  1.00  0.00     0.159 C 
HETATM   42 CL1  UNL     1      36.910   3.007 -22.438  1.00  0.00    -0.125 Cl
ENDBRANCH  38  41
ENDBRANCH   1  34
TORSDOF 7
ENDMDL
MODEL 2
REMARK VINA RESULT: -8.524041696      1.471      1.927
REMARK  7 active torsions:
REMARK  status: ('A' for Active; 'I' for Inactive)
REMARK    1  A    between atoms: O1_2  and  C2_3 
REMARK    2  A    between atoms: C2_3  and  C3_5 
REMARK    3  A    between atoms: C5_7  and  O3_8 
REMARK    4  A    between atoms: O3_8  and  C6_9 
REMARK    5  A    between atoms: C6_9  and  C10_14 
REMARK    6  A    between atoms: C12_17  and  O5_18 
REMARK    7  A    between atoms: C13_20  and  C14_21 
ROOT
HETATM    1  C6  UNL     1      36.380  -1.127 -21.068  1.00  0.00     0.101 C 
HETATM    2  C7  UNL     1      37.434  -1.640 -21.657  1.00  0.00     0.053 C 
HETATM    3  C8  UNL     1      38.640  -1.947 -20.818  1.00  0.00     0.063 C 
HETATM    4  C9  UNL     1      37.496  -1.899 -23.050  1.00  0.00     0.097 C 
HETATM    5  N1  UNL     1      37.573  -2.105 -24.197  1.00  0.00    -0.192 NA
ENDROOT
BRANCH   1   6
HETATM    6  O3  UNL     1      36.408  -0.881 -19.681  1.00  0.00    -0.318 OA
BRANCH   6   7
HETATM    7  C5  UNL     1      36.701   0.339 -19.095  1.00  0.00     0.267 C 
HETATM    8  C4  UNL     1      36.987   0.168 -17.621  1.00  0.00     0.076 C 
HETATM    9  C3  UNL     1      37.159   1.585 -17.078  1.00  0.00     0.101 C 
HETATM   10  C28 UNL     1      35.784   2.242 -17.079  1.00  0.00    -0.005 C 
HETATM   11  C15 UNL     1      35.033   1.675 -18.246  1.00  0.00     0.134 C 
HETATM   12  C27 UNL     1      35.992   3.733 -17.183  1.00  0.00     0.015 C 
HETATM   13  C29 UNL     1      35.115   1.918 -15.778  1.00  0.00     0.019 C 
HETATM   14  O6  UNL     1      35.799   1.349 -19.332  1.00  0.00    -0.355 OA
HETATM   15  C16 UNL     1      33.824   2.489 -18.658  1.00  0.00     0.040 C 
HETATM   16  C17 UNL     1      34.217   3.774 -19.399  1.00  0.00     0.020 C 
HETATM   17  C18 UNL     1      33.464   3.769 -20.663  1.00  0.00     0.008 C 
HETATM   18  C25 UNL     1      34.227   4.939 -18.504  1.00  0.00     0.164 C 
HETATM   19  C19 UNL     1      33.707   4.765 -21.715  1.00  0.00     0.006 C 
HETATM   20  C20 UNL     1      33.922   6.151 -21.347  1.00  0.00    -0.002 C 
HETATM   21  C21 UNL     1      33.412   7.342 -22.067  1.00  0.00     0.014 C 
HETATM   22  C30 UNL     1      32.875   6.547 -20.353  1.00  0.00     0.001 A 
HETATM   23  C22 UNL     1      32.958   7.936 -20.706  1.00  0.00     0.036 A 
HETATM   24  C23 UNL     1      33.477   7.496 -19.435  1.00  0.00     0.105 A 
HETATM   25  C24 UNL     1      34.798   8.124 -19.306  1.00  0.00     0.050 C 
HETATM   26  O7  UNL     1      33.056   6.909 -18.283  1.00  0.00    -0.228 OA
HETATM   27  O8  UNL     1      33.108   5.618 -18.227  1.00  0.00    -0.234 OA
HETATM   28  C31 UNL     1      31.496   6.075 -20.370  1.00  0.00     0.019 C 
HETATM   29  C26 UNL     1      34.697   4.437 -17.110  1.00  0.00     0.036 C 
BRANCH   9  30
HETATM   30  C2  UNL     1      37.822   1.554 -15.782  1.00  0.00     0.263 C 
HETATM   31  O2  UNL     1      38.006   0.414 -15.223  1.00  0.00    -0.265 OA
BRANCH  30  32
HETATM   32  O1  UNL     1      38.292   2.633 -15.058  1.00  0.00    -0.326 OA
HETATM   33  C1  UNL     1      38.188   2.685 -13.630  1.00  0.00     0.213 C 
ENDBRANCH  30  32
ENDBRANCH   9  30
ENDBRANCH   6   7
ENDBRANCH   1   6
BRANCH   1  34
HETATM   34  C10 UNL     1      35.194  -0.823 -21.879  1.00  0.00     0.033 A 
HETATM   35  C11 UNL     1      34.129  -1.633 -22.188  1.00  0.00     0.159 A 
HETATM   36  O4  UNL     1      33.300  -0.953 -22.972  1.00  0.00    -0.299 OA
HETATM   37  C12 UNL     1      33.756   0.237 -23.189  1.00  0.00     0.191 A 
HETATM   38  C13 UNL     1      34.947   0.384 -22.527  1.00  0.00     0.029 A 
BRANCH  37  39
HETATM   39  O5  UNL     1      33.101   1.201 -23.983  1.00  0.00    -0.340 OA
ATOM     40  H5  UNL     1      32.907   2.085 -23.695  1.00  0.00     0.220 HD
ENDBRANCH  37  39
BRANCH  38  41
HETATM   41  C14 UNL     1      35.788   1.590 -22.517  1.00  0.00     0.159 C 
HETATM   42 CL1  UNL     1      36.956   1.524 -23.861  1.00  0.00    -0.125 Cl
ENDBRANCH  38  41
ENDBRANCH   1  34
TORSDOF 7
ENDMDL
MODEL 3
REMARK VINA RESULT: -8.253926689      1.384      1.623
REMARK  7 active torsions:
REMARK  status: ('A' for Active; 'I' for Inactive)
REMARK    1  A    between atoms: O1_2  and  C2_3 
REMARK    2  A    between atoms: C2_3  and  C3_5 
REMARK    3  A    between atoms: C5_7  and  O3_8 
REMARK    4  A    between atoms: O3_8  and  C6_9 
REMARK    5  A    between atoms: C6_9  and  C10_14 
REMARK    6  A    between atoms: C12_17  and  O5_18 
REMARK    7  A    between atoms: C13_20  and  C14_21 
ROOT
HETATM    1  C6  UNL     1      36.658  -1.717 -20.981  1.00  0.00     0.101 C 
HETATM    2  C7  UNL     1      37.344  -2.781 -20.633  1.00  0.00     0.053 C 
HETATM    3  C8  UNL     1      37.363  -3.174 -19.184  1.00  0.00     0.063 C 
HETATM    4  C9  UNL     1      38.081  -3.565 -21.556  1.00  0.00     0.097 C 
HETATM    5  N1  UNL     1      38.708  -4.215 -22.297  1.00  0.00    -0.192 NA
ENDROOT
BRANCH   1   6
HETATM    6  O3  UNL     1      35.968  -0.981 -19.997  1.00  0.00    -0.318 OA
BRANCH   6   7
HETATM    7  C5  UNL     1      36.396   0.220 -19.456  1.00  0.00     0.267 C 
HETATM    8  C4  UNL     1      36.835   0.032 -18.022  1.00  0.00     0.076 C 
HETATM    9  C3  UNL     1      37.151   1.437 -17.512  1.00  0.00     0.101 C 
HETATM   10  C28 UNL     1      35.825   2.174 -17.363  1.00  0.00    -0.005 C 
HETATM   11  C15 UNL     1      34.916   1.651 -18.434  1.00  0.00     0.134 C 
HETATM   12  C27 UNL     1      36.107   3.650 -17.500  1.00  0.00     0.015 C 
HETATM   13  C29 UNL     1      35.289   1.890 -15.993  1.00  0.00     0.019 C 
HETATM   14  O6  UNL     1      35.534   1.281 -19.598  1.00  0.00    -0.355 OA
HETATM   15  C16 UNL     1      33.718   2.536 -18.714  1.00  0.00     0.040 C 
HETATM   16  C17 UNL     1      34.100   3.795 -19.503  1.00  0.00     0.020 C 
HETATM   17  C18 UNL     1      33.211   3.834 -20.675  1.00  0.00     0.008 C 
HETATM   18  C25 UNL     1      34.279   4.958 -18.622  1.00  0.00     0.164 C 
HETATM   19  C19 UNL     1      33.393   4.814 -21.754  1.00  0.00     0.006 C 
HETATM   20  C20 UNL     1      33.729   6.185 -21.422  1.00  0.00    -0.002 C 
HETATM   21  C21 UNL     1      33.212   7.404 -22.089  1.00  0.00     0.014 C 
HETATM   22  C30 UNL     1      32.824   6.643 -20.320  1.00  0.00     0.001 A 
HETATM   23  C22 UNL     1      32.949   8.025 -20.689  1.00  0.00     0.036 A 
HETATM   24  C23 UNL     1      33.581   7.555 -19.482  1.00  0.00     0.105 A 
HETATM   25  C24 UNL     1      34.943   8.104 -19.505  1.00  0.00     0.050 C 
HETATM   26  O7  UNL     1      33.258   6.994 -18.286  1.00  0.00    -0.228 OA
HETATM   27  O8  UNL     1      33.240   5.702 -18.227  1.00  0.00    -0.234 OA
HETATM   28  C31 UNL     1      31.427   6.253 -20.179  1.00  0.00     0.019 C 
HETATM   29  C26 UNL     1      34.873   4.430 -17.288  1.00  0.00     0.036 C 
BRANCH   9  30
HETATM   30  C2  UNL     1      37.952   1.366 -16.298  1.00  0.00     0.263 C 
HETATM   31  O2  UNL     1      38.054   0.235 -15.704  1.00  0.00    -0.265 OA
BRANCH  30  32
HETATM   32  O1  UNL     1      38.637   2.401 -15.688  1.00  0.00    -0.326 OA
HETATM   33  C1  UNL     1      38.301   2.854 -14.371  1.00  0.00     0.213 C 
ENDBRANCH  30  32
ENDBRANCH   9  30
ENDBRANCH   6   7
ENDBRANCH   1   6
BRANCH   1  34
HETATM   34  C10 UNL     1      36.630  -1.325 -22.396  1.00  0.00     0.033 A 
HETATM   35  C11 UNL     1      35.807  -1.771 -23.400  1.00  0.00     0.159 A 
HETATM   36  O4  UNL     1      36.156  -1.164 -24.528  1.00  0.00    -0.299 OA
HETATM   37  C12 UNL     1      37.146  -0.358 -24.321  1.00  0.00     0.191 A 
HETATM   38  C13 UNL     1      37.492  -0.411 -22.996  1.00  0.00     0.029 A 
BRANCH  37  39
HETATM   39  O5  UNL     1      37.743   0.433 -25.324  1.00  0.00    -0.340 OA
ATOM     40  H5  UNL     1      37.416   1.282 -25.598  1.00  0.00     0.220 HD
ENDBRANCH  37  39
BRANCH  38  41
HETATM   41  C14 UNL     1      38.570   0.354 -22.353  1.00  0.00     0.159 C 
HETATM   42 CL1  UNL     1      38.012   2.011 -22.008  1.00  0.00    -0.125 Cl
ENDBRANCH  38  41
ENDBRANCH   1  34
TORSDOF 7
ENDMDL
MODEL 4
REMARK VINA RESULT: -8.136849309      2.942      5.962
REMARK  7 active torsions:
REMARK  status: ('A' for Active; 'I' for Inactive)
REMARK    1  A    between atoms: O1_2  and  C2_3 
REMARK    2  A    between atoms: C2_3  and  C3_5 
REMARK    3  A    between atoms: C5_7  and  O3_8 
REMARK    4  A    between atoms: O3_8  and  C6_9 
REMARK    5  A    between atoms: C6_9  and  C10_14 
REMARK    6  A    between atoms: C12_17  and  O5_18 
REMARK    7  A    between atoms: C13_20  and  C14_21 
ROOT
HETATM    1  C6  UNL     1      36.346  -0.087 -16.902  1.00  0.00     0.101 C 
HETATM    2  C7  UNL     1      37.187  -1.078 -17.090  1.00  0.00     0.053 C 
HETATM    3  C8  UNL     1      36.641  -2.393 -17.564  1.00  0.00     0.063 C 
HETATM    4  C9  UNL     1      38.580  -0.971 -16.848  1.00  0.00     0.097 C 
HETATM    5  N1  UNL     1      39.727  -0.909 -16.640  1.00  0.00    -0.192 NA
ENDROOT
BRANCH   1   6
HETATM    6  O3  UNL     1      34.973  -0.282 -17.146  1.00  0.00    -0.318 OA
BRANCH   6   7
HETATM    7  C5  UNL     1      34.303   0.122 -18.290  1.00  0.00     0.267 C 
HETATM    8  C4  UNL     1      34.735  -0.704 -19.480  1.00  0.00     0.076 C 
HETATM    9  C3  UNL     1      34.031  -0.075 -20.680  1.00  0.00     0.101 C 
HETATM   10  C28 UNL     1      34.698   1.269 -20.945  1.00  0.00    -0.005 C 
HETATM   11  C15 UNL     1      35.135   1.806 -19.615  1.00  0.00     0.134 C 
HETATM   12  C27 UNL     1      33.686   2.153 -21.631  1.00  0.00     0.015 C 
HETATM   13  C29 UNL     1      35.862   1.036 -21.859  1.00  0.00     0.019 C 
HETATM   14  O6  UNL     1      34.335   1.470 -18.557  1.00  0.00    -0.355 OA
HETATM   15  C16 UNL     1      35.439   3.290 -19.617  1.00  0.00     0.040 C 
HETATM   16  C17 UNL     1      34.163   4.141 -19.661  1.00  0.00     0.020 C 
HETATM   17  C18 UNL     1      34.256   5.084 -18.536  1.00  0.00     0.008 C 
HETATM   18  C25 UNL     1      33.850   4.586 -21.026  1.00  0.00     0.164 C 
HETATM   19  C19 UNL     1      33.134   5.955 -18.158  1.00  0.00     0.006 C 
HETATM   20  C20 UNL     1      32.351   6.597 -19.195  1.00  0.00    -0.002 C 
HETATM   21  C21 UNL     1      31.809   7.976 -19.162  1.00  0.00     0.014 C 
HETATM   22  C30 UNL     1      33.288   7.199 -20.195  1.00  0.00     0.001 A 
HETATM   23  C22 UNL     1      32.331   8.187 -20.610  1.00  0.00     0.036 A 
HETATM   24  C23 UNL     1      32.659   7.102 -21.500  1.00  0.00     0.105 A 
HETATM   25  C24 UNL     1      31.375   6.596 -22.002  1.00  0.00     0.050 C 
HETATM   26  O7  UNL     1      33.727   6.584 -22.164  1.00  0.00    -0.228 OA
HETATM   27  O8  UNL     1      34.417   5.677 -21.553  1.00  0.00    -0.234 OA
HETATM   28  C31 UNL     1      34.572   7.807 -19.867  1.00  0.00     0.019 C 
HETATM   29  C26 UNL     1      34.294   3.449 -21.987  1.00  0.00     0.036 C 
BRANCH   9  30
HETATM   30  C2  UNL     1      34.037  -0.995 -21.810  1.00  0.00     0.263 C 
HETATM   31  O2  UNL     1      33.138  -0.851 -22.713  1.00  0.00    -0.265 OA
BRANCH  30  32
HETATM   32  O1  UNL     1      34.919  -2.035 -22.035  1.00  0.00    -0.326 OA
HETATM   33  C1  UNL     1      34.480  -3.295 -22.555  1.00  0.00     0.213 C 
ENDBRANCH  30  32
ENDBRANCH   9  30
ENDBRANCH   6   7
ENDBRANCH   1   6
BRANCH   1  34
HETATM   34  C10 UNL     1      36.869   1.205 -16.439  1.00  0.00     0.033 A 
HETATM   35  C11 UNL     1      37.502   2.189 -17.159  1.00  0.00     0.159 A 
HETATM   36  O4  UNL     1      37.827   3.172 -16.328  1.00  0.00    -0.299 OA
HETATM   37  C12 UNL     1      37.449   2.891 -15.124  1.00  0.00     0.191 A 
HETATM   38  C13 UNL     1      36.837   1.664 -15.125  1.00  0.00     0.029 A 
BRANCH  37  39
HETATM   39  O5  UNL     1      37.651   3.738 -14.014  1.00  0.00    -0.340 OA
ATOM     40  H5  UNL     1      37.885   3.431 -13.146  1.00  0.00     0.220 HD
ENDBRANCH  37  39
BRANCH  38  41
HETATM   41  C14 UNL     1      36.266   0.982 -13.955  1.00  0.00     0.159 C 
HETATM   42 CL1  UNL     1      37.530   0.734 -12.723  1.00  0.00    -0.125 Cl
ENDBRANCH  38  41
ENDBRANCH   1  34
TORSDOF 7
ENDMDL
MODEL 5
REMARK VINA RESULT: -8.136584994      4.126      6.860
REMARK  7 active torsions:
REMARK  status: ('A' for Active; 'I' for Inactive)
REMARK    1  A    between atoms: O1_2  and  C2_3 
REMARK    2  A    between atoms: C2_3  and  C3_5 
REMARK    3  A    between atoms: C5_7  and  O3_8 
REMARK    4  A    between atoms: O3_8  and  C6_9 
REMARK    5  A    between atoms: C6_9  and  C10_14 
REMARK    6  A    between atoms: C12_17  and  O5_18 
REMARK    7  A    between atoms: C13_20  and  C14_21 
ROOT
HETATM    1  C6  UNL     1      35.583  -2.343 -21.710  1.00  0.00     0.101 C 
HETATM    2  C7  UNL     1      35.187  -3.455 -22.283  1.00  0.00     0.053 C 
HETATM    3  C8  UNL     1      36.185  -4.565 -22.448  1.00  0.00     0.063 C 
HETATM    4  C9  UNL     1      33.870  -3.652 -22.771  1.00  0.00     0.097 C 
HETATM    5  N1  UNL     1      32.796  -3.828 -23.193  1.00  0.00    -0.192 NA
ENDROOT
BRANCH   1   6
HETATM    6  O3  UNL     1      36.916  -2.221 -21.271  1.00  0.00    -0.318 OA
BRANCH   6   7
HETATM    7  C5  UNL     1      37.577  -1.023 -21.056  1.00  0.00     0.267 C 
HETATM    8  C4  UNL     1      38.759  -0.891 -21.988  1.00  0.00     0.076 C 
HETATM    9  C3  UNL     1      39.467   0.392 -21.559  1.00  0.00     0.101 C 
HETATM   10  C28 UNL     1      40.129   0.118 -20.214  1.00  0.00    -0.005 C 
HETATM   11  C15 UNL     1      39.254  -0.862 -19.492  1.00  0.00     0.134 C 
HETATM   12  C27 UNL     1      40.256   1.437 -19.492  1.00  0.00     0.015 C 
HETATM   13  C29 UNL     1      41.493  -0.444 -20.476  1.00  0.00     0.019 C 
HETATM   14  O6  UNL     1      37.915  -0.752 -19.751  1.00  0.00    -0.355 OA
HETATM   15  C16 UNL     1      39.514  -0.940 -18.001  1.00  0.00     0.040 C 
HETATM   16  C17 UNL     1      38.954   0.276 -17.251  1.00  0.00     0.020 C 
HETATM   17  C18 UNL     1      38.105  -0.257 -16.175  1.00  0.00     0.008 C 
HETATM   18  C25 UNL     1      39.991   1.285 -16.998  1.00  0.00     0.164 C 
HETATM   19  C19 UNL     1      37.265   0.617 -15.344  1.00  0.00     0.006 C 
HETATM   20  C20 UNL     1      37.793   1.888 -14.888  1.00  0.00    -0.002 C 
HETATM   21  C21 UNL     1      37.581   2.501 -13.555  1.00  0.00     0.014 C 
HETATM   22  C30 UNL     1      39.172   1.664 -14.348  1.00  0.00     0.001 A 
HETATM   23  C22 UNL     1      39.102   2.810 -13.486  1.00  0.00     0.036 A 
HETATM   24  C23 UNL     1      39.957   2.848 -14.646  1.00  0.00     0.105 A 
HETATM   25  C24 UNL     1      39.691   4.137 -15.296  1.00  0.00     0.050 C 
HETATM   26  O7  UNL     1      41.038   2.207 -15.166  1.00  0.00    -0.228 OA
HETATM   27  O8  UNL     1      40.808   1.199 -15.942  1.00  0.00    -0.234 OA
HETATM   28  C31 UNL     1      39.593   0.475 -13.619  1.00  0.00     0.019 C 
HETATM   29  C26 UNL     1      40.962   1.253 -18.210  1.00  0.00     0.036 C 
BRANCH   9  30
HETATM   30  C2  UNL     1      40.372   0.846 -22.606  1.00  0.00     0.263 C 
HETATM   31  O2  UNL     1      40.561   0.080 -23.617  1.00  0.00    -0.265 OA
BRANCH  30  32
HETATM   32  O1  UNL     1      41.074   2.036 -22.646  1.00  0.00    -0.326 OA
HETATM   33  C1  UNL     1      42.469   2.077 -22.967  1.00  0.00     0.213 C 
ENDBRANCH  30  32
ENDBRANCH   9  30
ENDBRANCH   6   7
ENDBRANCH   1   6
BRANCH   1  34
HETATM   34  C10 UNL     1      34.615  -1.251 -21.541  1.00  0.00     0.033 A 
HETATM   35  C11 UNL     1      34.183  -0.330 -22.464  1.00  0.00     0.159 A 
HETATM   36  O4  UNL     1      33.326   0.489 -21.867  1.00  0.00    -0.299 OA
HETATM   37  C12 UNL     1      33.175   0.161 -20.625  1.00  0.00     0.191 A 
HETATM   38  C13 UNL     1      33.960  -0.930 -20.356  1.00  0.00     0.029 A 
BRANCH  37  39
HETATM   39  O5  UNL     1      32.328   0.840 -19.725  1.00  0.00    -0.340 OA
ATOM     40  H5  UNL     1      31.380   0.837 -19.781  1.00  0.00     0.220 HD
ENDBRANCH  37  39
BRANCH  38  41
HETATM   41  C14 UNL     1      34.076  -1.613 -19.059  1.00  0.00     0.159 C 
HETATM   42 CL1  UNL     1      34.974  -0.585 -17.913  1.00  0.00    -0.125 Cl
ENDBRANCH  38  41
ENDBRANCH   1  34
TORSDOF 7
ENDMDL
