MODEL 1
REMARK VINA RESULT: -9.099760516      0.000      0.000
REMARK  7 active torsions:
REMARK  status: ('A' for Active; 'I' for Inactive)
REMARK    1  A    between atoms: N1_2  and  C3_4 
REMARK    2  A    between atoms: C6_13  and  N5_14 
REMARK    3  A    between atoms: N5_14  and  C7_16 
REMARK    4  A    between atoms: C16_29  and  C17_30 
REMARK    5  A    between atoms: C17_30  and  C18_31 
REMARK    6  A    between atoms: C21_34  and  C22_35 
REMARK    7  A    between atoms: C27_40  and  N7_41 
ROOT
HETATM    1  C3  UNL     1     -20.890  -7.480  22.039  1.00  0.00     0.125 A 
HETATM    2  N2  UNL     1     -19.777  -6.901  21.777  1.00  0.00    -0.328 N 
ATOM      3  H2  UNL     1     -19.501  -6.604  20.841  1.00  0.00     0.169 HD
HETATM    4  C4  UNL     1     -18.967  -6.718  22.934  1.00  0.00     0.121 A 
HETATM    5  N3  UNL     1     -17.736  -6.163  23.109  1.00  0.00    -0.338 N 
ATOM      6  H3  UNL     1     -17.217  -5.775  22.321  1.00  0.00     0.168 HD
HETATM    7  C5  UNL     1     -17.228  -6.140  24.345  1.00  0.00     0.183 A 
HETATM    8  N4  UNL     1     -17.892  -6.644  25.405  1.00  0.00    -0.338 N 
ATOM      9  H4  UNL     1     -17.460  -6.602  26.328  1.00  0.00     0.168 HD
HETATM   10  C6  UNL     1     -19.102  -7.199  25.275  1.00  0.00     0.120 A 
HETATM   11  C13 UNL     1     -19.658  -7.237  23.996  1.00  0.00     0.076 A 
HETATM   12  C14 UNL     1     -20.933  -7.751  23.457  1.00  0.00     0.181 A 
HETATM   13  N6  UNL     1     -21.073  -9.141  23.801  1.00  0.00    -0.327 N 
ATOM     14  H6  UNL     1     -20.278  -9.769  23.918  1.00  0.00     0.165 HD
HETATM   15  C15 UNL     1     -22.423  -9.560  23.964  1.00  0.00     0.260 C 
HETATM   16  O1  UNL     1     -22.757 -10.714  23.538  1.00  0.00    -0.267 OA
HETATM   17  C16 UNL     1     -23.242  -8.587  24.606  1.00  0.00     0.072 C 
HETATM   18  S1  UNL     1     -22.363  -7.026  24.307  1.00  0.00    -0.079 SA
ENDROOT
BRANCH   1  19
HETATM   19  N1  UNL     1     -21.847  -7.755  21.007  1.00  0.00    -0.376 N 
HETATM   20  C1  UNL     1     -22.031  -9.091  20.483  1.00  0.00     0.150 C 
HETATM   21  C2  UNL     1     -22.652  -6.663  20.477  1.00  0.00     0.150 C 
ENDBRANCH   1  19
BRANCH  10  22
HETATM   22  N5  UNL     1     -19.774  -7.690  26.228  1.00  0.00    -0.342 N 
ATOM     23  H5  UNL     1     -19.953  -8.694  26.254  1.00  0.00     0.167 HD
BRANCH  22  24
HETATM   24  C7  UNL     1     -20.288  -6.850  27.273  1.00  0.00     0.033 A 
HETATM   25  C8  UNL     1     -20.539  -5.514  27.087  1.00  0.00     0.031 A 
HETATM   26  C9  UNL     1     -21.028  -4.737  28.104  1.00  0.00     0.026 A 
HETATM   27  C10 UNL     1     -21.271  -5.312  29.329  1.00  0.00     0.034 A 
HETATM   28 CL1  UNL     1     -21.906  -4.317  30.654  1.00  0.00    -0.084 Cl
HETATM   29  C11 UNL     1     -21.031  -6.652  29.554  1.00  0.00     0.026 A 
HETATM   30  C12 UNL     1     -20.541  -7.398  28.510  1.00  0.00     0.031 A 
ENDBRANCH  22  24
ENDBRANCH  10  22
BRANCH  17  31
HETATM   31  C17 UNL     1     -24.354  -8.682  25.262  1.00  0.00     0.035 C 
BRANCH  31  32
HETATM   32  C18 UNL     1     -24.510  -8.977  26.664  1.00  0.00    -0.035 A 
HETATM   33  C19 UNL     1     -25.654  -8.852  27.372  1.00  0.00     0.012 A 
HETATM   34  C20 UNL     1     -25.697  -9.207  28.723  1.00  0.00     0.013 A 
HETATM   35  C21 UNL     1     -24.578  -9.695  29.387  1.00  0.00    -0.024 A 
HETATM   36  C28 UNL     1     -23.433  -9.809  28.643  1.00  0.00     0.013 A 
HETATM   37  C29 UNL     1     -23.373  -9.466  27.315  1.00  0.00     0.012 A 
BRANCH  35  38
HETATM   38  C22 UNL     1     -24.676 -10.092  30.777  1.00  0.00     0.007 A 
HETATM   39  C23 UNL     1     -24.667 -11.467  31.072  1.00  0.00     0.015 A 
HETATM   40  C24 UNL     1     -24.713 -11.973  32.327  1.00  0.00     0.001 A 
HETATM   41  C25 UNL     1     -24.774 -11.105  33.398  1.00  0.00     0.002 A 
HETATM   42  C26 UNL     1     -24.786  -9.754  33.155  1.00  0.00     0.037 A 
HETATM   43  C27 UNL     1     -24.738  -9.235  31.848  1.00  0.00     0.114 A 
BRANCH  43  44
HETATM   44  N7  UNL     1     -24.768  -7.839  31.696  1.00  0.00    -0.115 N 
HETATM   45  O2  UNL     1     -23.659  -7.216  31.752  1.00  0.00    -0.532 OA
HETATM   46  O3  UNL     1     -25.861  -7.069  31.489  1.00  0.00    -0.532 OA
ENDBRANCH  43  44
ENDBRANCH  35  38
ENDBRANCH  31  32
ENDBRANCH  17  31
TORSDOF 7
ENDMDL
MODEL 2
REMARK VINA RESULT: -9.084519305      1.129      1.633
REMARK  7 active torsions:
REMARK  status: ('A' for Active; 'I' for Inactive)
REMARK    1  A    between atoms: N1_2  and  C3_4 
REMARK    2  A    between atoms: C6_13  and  N5_14 
REMARK    3  A    between atoms: N5_14  and  C7_16 
REMARK    4  A    between atoms: C16_29  and  C17_30 
REMARK    5  A    between atoms: C17_30  and  C18_31 
REMARK    6  A    between atoms: C21_34  and  C22_35 
REMARK    7  A    between atoms: C27_40  and  N7_41 
ROOT
HETATM    1  C3  UNL     1     -20.911  -7.714  22.244  1.00  0.00     0.125 A 
HETATM    2  N2  UNL     1     -19.814  -7.095  22.007  1.00  0.00    -0.328 N 
ATOM      3  H2  UNL     1     -19.527  -6.790  21.077  1.00  0.00     0.169 HD
HETATM    4  C4  UNL     1     -19.041  -6.878  23.183  1.00  0.00     0.121 A 
HETATM    5  N3  UNL     1     -17.837  -6.276  23.387  1.00  0.00    -0.338 N 
ATOM      6  H3  UNL     1     -17.313  -5.871  22.610  1.00  0.00     0.168 HD
HETATM    7  C5  UNL     1     -17.361  -6.230  24.635  1.00  0.00     0.183 A 
HETATM    8  N4  UNL     1     -18.031  -6.756  25.680  1.00  0.00    -0.338 N 
ATOM      9  H4  UNL     1     -17.624  -6.695  26.614  1.00  0.00     0.168 HD
HETATM   10  C6  UNL     1     -19.216  -7.356  25.522  1.00  0.00     0.120 A 
HETATM   11  C13 UNL     1     -19.738  -7.420  24.230  1.00  0.00     0.076 A 
HETATM   12  C14 UNL     1     -20.979  -7.982  23.662  1.00  0.00     0.181 A 
HETATM   13  N6  UNL     1     -21.076  -9.375  24.008  1.00  0.00    -0.327 N 
ATOM     14  H6  UNL     1     -20.261  -9.973  24.147  1.00  0.00     0.165 HD
HETATM   15  C15 UNL     1     -22.413  -9.844  24.138  1.00  0.00     0.260 C 
HETATM   16  O1  UNL     1     -22.692 -11.012  23.709  1.00  0.00    -0.267 OA
HETATM   17  C16 UNL     1     -23.284  -8.901  24.757  1.00  0.00     0.072 C 
HETATM   18  S1  UNL     1     -22.457  -7.309  24.473  1.00  0.00    -0.079 SA
ENDROOT
BRANCH   1  19
HETATM   19  N1  UNL     1     -21.831  -8.028  21.189  1.00  0.00    -0.376 N 
HETATM   20  C1  UNL     1     -21.967  -9.375  20.681  1.00  0.00     0.150 C 
HETATM   21  C2  UNL     1     -22.647  -6.965  20.620  1.00  0.00     0.150 C 
ENDBRANCH   1  19
BRANCH  10  22
HETATM   22  N5  UNL     1     -19.893  -7.870  26.460  1.00  0.00    -0.342 N 
ATOM     23  H5  UNL     1     -20.055  -8.877  26.472  1.00  0.00     0.167 HD
BRANCH  22  24
HETATM   24  C7  UNL     1     -20.435  -7.051  27.507  1.00  0.00     0.033 A 
HETATM   25  C8  UNL     1     -20.870  -5.769  27.288  1.00  0.00     0.031 A 
HETATM   26  C9  UNL     1     -21.382  -5.009  28.308  1.00  0.00     0.026 A 
HETATM   27  C10 UNL     1     -21.459  -5.549  29.571  1.00  0.00     0.034 A 
HETATM   28 CL1  UNL     1     -22.121  -4.577  30.900  1.00  0.00    -0.084 Cl
HETATM   29  C11 UNL     1     -21.031  -6.835  29.830  1.00  0.00     0.026 A 
HETATM   30  C12 UNL     1     -20.524  -7.563  28.781  1.00  0.00     0.031 A 
ENDBRANCH  22  24
ENDBRANCH  10  22
BRANCH  17  31
HETATM   31  C17 UNL     1     -24.407  -9.036  25.385  1.00  0.00     0.035 C 
BRANCH  31  32
HETATM   32  C18 UNL     1     -24.629  -8.894  26.802  1.00  0.00    -0.035 A 
HETATM   33  C19 UNL     1     -23.704  -9.088  27.767  1.00  0.00     0.012 A 
HETATM   34  C20 UNL     1     -24.025  -8.880  29.111  1.00  0.00     0.013 A 
HETATM   35  C21 UNL     1     -25.294  -8.474  29.507  1.00  0.00    -0.024 A 
HETATM   36  C28 UNL     1     -26.210  -8.289  28.505  1.00  0.00     0.013 A 
HETATM   37  C29 UNL     1     -25.912  -8.486  27.180  1.00  0.00     0.012 A 
BRANCH  35  38
HETATM   38  C22 UNL     1     -25.573  -8.229  30.907  1.00  0.00     0.007 A 
HETATM   39  C23 UNL     1     -25.351  -9.278  31.816  1.00  0.00     0.015 A 
HETATM   40  C24 UNL     1     -25.533  -9.173  33.154  1.00  0.00     0.001 A 
HETATM   41  C25 UNL     1     -25.962  -7.971  33.680  1.00  0.00     0.002 A 
HETATM   42  C26 UNL     1     -26.192  -6.920  32.826  1.00  0.00     0.037 A 
HETATM   43  C27 UNL     1     -26.002  -7.037  31.438  1.00  0.00     0.114 A 
BRANCH  43  44
HETATM   44  N7  UNL     1     -26.274  -5.913  30.642  1.00  0.00    -0.115 N 
HETATM   45  O2  UNL     1     -27.494  -5.616  30.436  1.00  0.00    -0.532 OA
HETATM   46  O3  UNL     1     -25.368  -5.092  30.061  1.00  0.00    -0.532 OA
ENDBRANCH  43  44
ENDBRANCH  35  38
ENDBRANCH  31  32
ENDBRANCH  17  31
TORSDOF 7
ENDMDL
MODEL 3
REMARK VINA RESULT: -9.060330613      1.908      2.304
REMARK  7 active torsions:
REMARK  status: ('A' for Active; 'I' for Inactive)
REMARK    1  A    between atoms: N1_2  and  C3_4 
REMARK    2  A    between atoms: C6_13  and  N5_14 
REMARK    3  A    between atoms: N5_14  and  C7_16 
REMARK    4  A    between atoms: C16_29  and  C17_30 
REMARK    5  A    between atoms: C17_30  and  C18_31 
REMARK    6  A    between atoms: C21_34  and  C22_35 
REMARK    7  A    between atoms: C27_40  and  N7_41 
ROOT
HETATM    1  C3  UNL     1     -20.756  -7.472  22.690  1.00  0.00     0.125 A 
HETATM    2  N2  UNL     1     -19.592  -6.939  22.625  1.00  0.00    -0.328 N 
ATOM      3  H2  UNL     1     -19.190  -6.563  21.766  1.00  0.00     0.169 HD
HETATM    4  C4  UNL     1     -18.922  -6.926  23.882  1.00  0.00     0.121 A 
HETATM    5  N3  UNL     1     -17.697  -6.467  24.259  1.00  0.00    -0.338 N 
ATOM      6  H3  UNL     1     -17.068  -6.032  23.584  1.00  0.00     0.168 HD
HETATM    7  C5  UNL     1     -17.344  -6.603  25.542  1.00  0.00     0.183 A 
HETATM    8  N4  UNL     1     -18.156  -7.173  26.454  1.00  0.00    -0.338 N 
ATOM      9  H4  UNL     1     -17.839  -7.254  27.421  1.00  0.00     0.168 HD
HETATM   10  C6  UNL     1     -19.366  -7.637  26.124  1.00  0.00     0.120 A 
HETATM   11  C13 UNL     1     -19.762  -7.509  24.793  1.00  0.00     0.076 A 
HETATM   12  C14 UNL     1     -20.985  -7.886  24.055  1.00  0.00     0.181 A 
HETATM   13  N6  UNL     1     -21.232  -9.293  24.225  1.00  0.00    -0.327 N 
ATOM     14  H6  UNL     1     -20.488  -9.977  24.364  1.00  0.00     0.165 HD
HETATM   15  C15 UNL     1     -22.610  -9.644  24.182  1.00  0.00     0.260 C 
HETATM   16  O1  UNL     1     -22.945 -10.726  23.596  1.00  0.00    -0.267 OA
HETATM   17  C16 UNL     1     -23.455  -8.695  24.828  1.00  0.00     0.072 C 
HETATM   18  S1  UNL     1     -22.472  -7.168  24.806  1.00  0.00    -0.079 SA
ENDROOT
BRANCH   1  19
HETATM   19  N1  UNL     1     -21.591  -7.581  21.529  1.00  0.00    -0.376 N 
HETATM   20  C1  UNL     1     -21.749  -8.835  20.826  1.00  0.00     0.150 C 
HETATM   21  C2  UNL     1     -22.296  -6.400  21.051  1.00  0.00     0.150 C 
ENDBRANCH   1  19
BRANCH  10  22
HETATM   22  N5  UNL     1     -20.172  -8.183  26.932  1.00  0.00    -0.342 N 
ATOM     23  H5  UNL     1     -20.361  -9.183  26.857  1.00  0.00     0.167 HD
BRANCH  22  24
HETATM   24  C7  UNL     1     -20.824  -7.411  27.952  1.00  0.00     0.033 A 
HETATM   25  C8  UNL     1     -20.856  -6.040  27.930  1.00  0.00     0.031 A 
HETATM   26  C9  UNL     1     -21.485  -5.329  28.919  1.00  0.00     0.026 A 
HETATM   27  C10 UNL     1     -22.094  -6.008  29.947  1.00  0.00     0.034 A 
HETATM   28 CL1  UNL     1     -22.914  -5.100  31.232  1.00  0.00    -0.084 Cl
HETATM   29  C11 UNL     1     -22.084  -7.387  30.003  1.00  0.00     0.026 A 
HETATM   30  C12 UNL     1     -21.443  -8.063  28.993  1.00  0.00     0.031 A 
ENDBRANCH  22  24
ENDBRANCH  10  22
BRANCH  17  31
HETATM   31  C17 UNL     1     -24.642  -8.791  25.335  1.00  0.00     0.035 C 
BRANCH  31  32
HETATM   32  C18 UNL     1     -25.039  -8.456  26.679  1.00  0.00    -0.035 A 
HETATM   33  C19 UNL     1     -25.370  -9.340  27.645  1.00  0.00     0.012 A 
HETATM   34  C20 UNL     1     -25.701  -8.899  28.930  1.00  0.00     0.013 A 
HETATM   35  C21 UNL     1     -25.707  -7.549  29.261  1.00  0.00    -0.024 A 
HETATM   36  C28 UNL     1     -25.369  -6.678  28.260  1.00  0.00     0.013 A 
HETATM   37  C29 UNL     1     -25.039  -7.093  26.994  1.00  0.00     0.012 A 
BRANCH  35  38
HETATM   38  C22 UNL     1     -26.015  -7.138  30.616  1.00  0.00     0.007 A 
HETATM   39  C23 UNL     1     -25.271  -7.709  31.663  1.00  0.00     0.015 A 
HETATM   40  C24 UNL     1     -25.428  -7.386  32.968  1.00  0.00     0.001 A 
HETATM   41  C25 UNL     1     -26.372  -6.439  33.316  1.00  0.00     0.002 A 
HETATM   42  C26 UNL     1     -27.121  -5.857  32.323  1.00  0.00     0.037 A 
HETATM   43  C27 UNL     1     -26.953  -6.199  30.969  1.00  0.00     0.114 A 
BRANCH  43  44
HETATM   44  N7  UNL     1     -27.773  -5.560  30.025  1.00  0.00    -0.115 N 
HETATM   45  O2  UNL     1     -27.578  -4.320  29.817  1.00  0.00    -0.532 OA
HETATM   46  O3  UNL     1     -28.764  -6.126  29.297  1.00  0.00    -0.532 OA
ENDBRANCH  43  44
ENDBRANCH  35  38
ENDBRANCH  31  32
ENDBRANCH  17  31
TORSDOF 7
ENDMDL
MODEL 4
REMARK VINA RESULT: -9.043972038      5.615      7.735
REMARK  7 active torsions:
REMARK  status: ('A' for Active; 'I' for Inactive)
REMARK    1  A    between atoms: N1_2  and  C3_4 
REMARK    2  A    between atoms: C6_13  and  N5_14 
REMARK    3  A    between atoms: N5_14  and  C7_16 
REMARK    4  A    between atoms: C16_29  and  C17_30 
REMARK    5  A    between atoms: C17_30  and  C18_31 
REMARK    6  A    between atoms: C21_34  and  C22_35 
REMARK    7  A    between atoms: C27_40  and  N7_41 
ROOT
HETATM    1  C3  UNL     1     -26.328  -0.857  28.163  1.00  0.00     0.125 A 
HETATM    2  N2  UNL     1     -26.201  -0.674  26.901  1.00  0.00    -0.328 N 
ATOM      3  H2  UNL     1     -25.971   0.226  26.481  1.00  0.00     0.169 HD
HETATM    4  C4  UNL     1     -26.414  -1.865  26.149  1.00  0.00     0.121 A 
HETATM    5  N3  UNL     1     -26.380  -2.119  24.812  1.00  0.00    -0.338 N 
ATOM      6  H3  UNL     1     -26.170  -1.380  24.141  1.00  0.00     0.168 HD
HETATM    7  C5  UNL     1     -26.631  -3.367  24.404  1.00  0.00     0.183 A 
HETATM    8  N4  UNL     1     -26.913  -4.363  25.268  1.00  0.00    -0.338 N 
ATOM      9  H4  UNL     1     -27.097  -5.299  24.906  1.00  0.00     0.168 HD
HETATM   10  C6  UNL     1     -26.956  -4.154  26.589  1.00  0.00     0.120 A 
HETATM   11  C13 UNL     1     -26.698  -2.862  27.044  1.00  0.00     0.076 A 
HETATM   12  C14 UNL     1     -26.653  -2.247  28.386  1.00  0.00     0.181 A 
HETATM   13  N6  UNL     1     -27.904  -2.473  29.059  1.00  0.00    -0.327 N 
ATOM     14  H6  UNL     1     -28.793  -2.561  28.567  1.00  0.00     0.165 HD
HETATM   15  C15 UNL     1     -27.787  -2.563  30.474  1.00  0.00     0.260 C 
HETATM   16  O1  UNL     1     -28.699  -2.036  31.194  1.00  0.00    -0.267 OA
HETATM   17  C16 UNL     1     -26.620  -3.259  30.902  1.00  0.00     0.072 C 
HETATM   18  S1  UNL     1     -25.494  -3.111  29.484  1.00  0.00    -0.079 SA
ENDROOT
BRANCH   1  19
HETATM   19  N1  UNL     1     -26.152   0.221  29.093  1.00  0.00    -0.376 N 
HETATM   20  C1  UNL     1     -25.682  -0.012  30.441  1.00  0.00     0.150 C 
HETATM   21  C2  UNL     1     -26.453   1.581  28.667  1.00  0.00     0.150 C 
ENDBRANCH   1  19
BRANCH  10  22
HETATM   22  N5  UNL     1     -27.215  -5.045  27.449  1.00  0.00    -0.342 N 
ATOM     23  H5  UNL     1     -28.017  -4.929  28.070  1.00  0.00     0.167 HD
BRANCH  22  24
HETATM   24  C7  UNL     1     -26.393  -6.217  27.563  1.00  0.00     0.033 A 
HETATM   25  C8  UNL     1     -26.364  -7.192  26.598  1.00  0.00     0.031 A 
HETATM   26  C9  UNL     1     -25.570  -8.301  26.735  1.00  0.00     0.026 A 
HETATM   27  C10 UNL     1     -24.790  -8.432  27.860  1.00  0.00     0.034 A 
HETATM   28 CL1  UNL     1     -23.757  -9.862  28.048  1.00  0.00    -0.084 Cl
HETATM   29  C11 UNL     1     -24.792  -7.472  28.851  1.00  0.00     0.026 A 
HETATM   30  C12 UNL     1     -25.602  -6.375  28.678  1.00  0.00     0.031 A 
ENDBRANCH  22  24
ENDBRANCH  10  22
BRANCH  17  31
HETATM   31  C17 UNL     1     -26.327  -3.873  32.003  1.00  0.00     0.035 C 
BRANCH  31  32
HETATM   32  C18 UNL     1     -26.130  -5.290  32.178  1.00  0.00    -0.035 A 
HETATM   33  C19 UNL     1     -27.093  -6.233  32.100  1.00  0.00     0.012 A 
HETATM   34  C20 UNL     1     -26.775  -7.587  32.248  1.00  0.00     0.013 A 
HETATM   35  C21 UNL     1     -25.472  -8.012  32.482  1.00  0.00    -0.024 A 
HETATM   36  C28 UNL     1     -24.520  -7.030  32.558  1.00  0.00     0.013 A 
HETATM   37  C29 UNL     1     -24.813  -5.697  32.413  1.00  0.00     0.012 A 
BRANCH  35  38
HETATM   38  C22 UNL     1     -25.180  -9.427  32.588  1.00  0.00     0.007 A 
HETATM   39  C23 UNL     1     -24.977 -10.147  31.398  1.00  0.00     0.015 A 
HETATM   40  C24 UNL     1     -24.659 -11.463  31.353  1.00  0.00     0.001 A 
HETATM   41  C25 UNL     1     -24.521 -12.159  32.537  1.00  0.00     0.002 A 
HETATM   42  C26 UNL     1     -24.712 -11.493  33.723  1.00  0.00     0.037 A 
HETATM   43  C27 UNL     1     -25.043 -10.127  33.761  1.00  0.00     0.114 A 
BRANCH  43  44
HETATM   44  N7  UNL     1     -25.232  -9.533  35.020  1.00  0.00    -0.115 N 
HETATM   45  O2  UNL     1     -24.261  -9.573  35.842  1.00  0.00    -0.532 OA
HETATM   46  O3  UNL     1     -26.348  -8.910  35.463  1.00  0.00    -0.532 OA
ENDBRANCH  43  44
ENDBRANCH  35  38
ENDBRANCH  31  32
ENDBRANCH  17  31
TORSDOF 7
ENDMDL
MODEL 5
REMARK VINA RESULT: -9.033025197      2.325      2.882
REMARK  7 active torsions:
REMARK  status: ('A' for Active; 'I' for Inactive)
REMARK    1  A    between atoms: N1_2  and  C3_4 
REMARK    2  A    between atoms: C6_13  and  N5_14 
REMARK    3  A    between atoms: N5_14  and  C7_16 
REMARK    4  A    between atoms: C16_29  and  C17_30 
REMARK    5  A    between atoms: C17_30  and  C18_31 
REMARK    6  A    between atoms: C21_34  and  C22_35 
REMARK    7  A    between atoms: C27_40  and  N7_41 
ROOT
HETATM    1  C3  UNL     1     -20.675  -7.397  22.802  1.00  0.00     0.125 A 
HETATM    2  N2  UNL     1     -19.510  -6.870  22.719  1.00  0.00    -0.328 N 
ATOM      3  H2  UNL     1     -19.126  -6.481  21.858  1.00  0.00     0.169 HD
HETATM    4  C4  UNL     1     -18.811  -6.884  23.960  1.00  0.00     0.121 A 
HETATM    5  N3  UNL     1     -17.574  -6.440  24.317  1.00  0.00    -0.338 N 
ATOM      6  H3  UNL     1     -16.958  -5.996  23.636  1.00  0.00     0.168 HD
HETATM    7  C5  UNL     1     -17.193  -6.601  25.588  1.00  0.00     0.183 A 
HETATM    8  N4  UNL     1     -17.986  -7.183  26.509  1.00  0.00    -0.338 N 
ATOM      9  H4  UNL     1     -17.647  -7.283  27.466  1.00  0.00     0.168 HD
HETATM   10  C6  UNL     1     -19.207  -7.633  26.199  1.00  0.00     0.120 A 
HETATM   11  C13 UNL     1     -19.633  -7.479  24.880  1.00  0.00     0.076 A 
HETATM   12  C14 UNL     1     -20.875  -7.834  24.164  1.00  0.00     0.181 A 
HETATM   13  N6  UNL     1     -21.128  -9.242  24.315  1.00  0.00    -0.327 N 
ATOM     14  H6  UNL     1     -20.385  -9.933  24.424  1.00  0.00     0.165 HD
HETATM   15  C15 UNL     1     -22.509  -9.584  24.298  1.00  0.00     0.260 C 
HETATM   16  O1  UNL     1     -22.864 -10.653  23.700  1.00  0.00    -0.267 OA
HETATM   17  C16 UNL     1     -23.332  -8.642  24.980  1.00  0.00     0.072 C 
HETATM   18  S1  UNL     1     -22.340  -7.120  24.963  1.00  0.00    -0.079 SA
ENDROOT
BRANCH   1  19
HETATM   19  N1  UNL     1     -21.538  -7.480  21.659  1.00  0.00    -0.376 N 
HETATM   20  C1  UNL     1     -22.312  -6.342  21.212  1.00  0.00     0.150 C 
HETATM   21  C2  UNL     1     -21.634  -8.738  20.933  1.00  0.00     0.150 C 
ENDBRANCH   1  19
BRANCH  10  22
HETATM   22  N5  UNL     1     -19.998  -8.189  27.015  1.00  0.00    -0.342 N 
ATOM     23  H5  UNL     1     -20.130  -9.200  26.981  1.00  0.00     0.167 HD
BRANCH  22  24
HETATM   24  C7  UNL     1     -20.711  -7.412  27.990  1.00  0.00     0.033 A 
HETATM   25  C8  UNL     1     -20.540  -6.057  28.119  1.00  0.00     0.031 A 
HETATM   26  C9  UNL     1     -21.234  -5.341  29.060  1.00  0.00     0.026 A 
HETATM   27  C10 UNL     1     -22.117  -5.998  29.884  1.00  0.00     0.034 A 
HETATM   28 CL1  UNL     1     -23.023  -5.083  31.105  1.00  0.00    -0.084 Cl
HETATM   29  C11 UNL     1     -22.316  -7.360  29.784  1.00  0.00     0.026 A 
HETATM   30  C12 UNL     1     -21.602  -8.042  28.829  1.00  0.00     0.031 A 
ENDBRANCH  22  24
ENDBRANCH  10  22
BRANCH  17  31
HETATM   31  C17 UNL     1     -24.507  -8.739  25.513  1.00  0.00     0.035 C 
BRANCH  31  32
HETATM   32  C18 UNL     1     -24.972  -8.085  26.711  1.00  0.00    -0.035 A 
HETATM   33  C19 UNL     1     -24.920  -6.757  26.952  1.00  0.00     0.012 A 
HETATM   34  C20 UNL     1     -25.441  -6.229  28.137  1.00  0.00     0.013 A 
HETATM   35  C21 UNL     1     -26.023  -7.038  29.105  1.00  0.00    -0.024 A 
HETATM   36  C28 UNL     1     -26.059  -8.380  28.831  1.00  0.00     0.013 A 
HETATM   37  C29 UNL     1     -25.555  -8.916  27.672  1.00  0.00     0.012 A 
BRANCH  35  38
HETATM   38  C22 UNL     1     -26.589  -6.445  30.300  1.00  0.00     0.007 A 
HETATM   39  C23 UNL     1     -26.031  -6.802  31.540  1.00  0.00     0.015 A 
HETATM   40  C24 UNL     1     -26.437  -6.295  32.728  1.00  0.00     0.001 A 
HETATM   41  C25 UNL     1     -27.461  -5.369  32.746  1.00  0.00     0.002 A 
HETATM   42  C26 UNL     1     -28.035  -4.993  31.557  1.00  0.00     0.037 A 
HETATM   43  C27 UNL     1     -27.609  -5.526  30.327  1.00  0.00     0.114 A 
BRANCH  43  44
HETATM   44  N7  UNL     1     -28.264  -5.092  29.163  1.00  0.00    -0.115 N 
HETATM   45  O2  UNL     1     -28.110  -3.876  28.818  1.00  0.00    -0.532 OA
HETATM   46  O3  UNL     1     -29.051  -5.835  28.351  1.00  0.00    -0.532 OA
ENDBRANCH  43  44
ENDBRANCH  35  38
ENDBRANCH  31  32
ENDBRANCH  17  31
TORSDOF 7
ENDMDL
