MODEL 1
REMARK VINA RESULT: -6.493529266      0.000      0.000
REMARK  11 active torsions:
REMARK  status: ('A' for Active; 'I' for Inactive)
REMARK    1  A    between atoms: C2_3  and  C3_4 
REMARK    2  A    between atoms: C3_4  and  C6_7 
REMARK    3  A    between atoms: C6_7  and  N2_8 
REMARK       I    between atoms: N2_8  and  C7_10 
REMARK       I    between atoms: C7_10  and  N3_12 
REMARK    4  A    between atoms: N4_15  and  C10_16 
REMARK    5  A    between atoms: C10_16  and  C11_17 
REMARK    6  A    between atoms: C11_17  and  O2_18 
REMARK    7  A    between atoms: C11_17  and  C12_20 
REMARK    8  A    between atoms: C12_20  and  C13_21 
REMARK    9  A    between atoms: N5_28  and  C19_30 
REMARK   10  A    between atoms: C19_30  and  N6_32 
REMARK   11  A    between atoms: N6_32  and  C21_34 
ROOT
HETATM    1  C1  UNL     1      12.953   9.989 -17.062  1.00  0.00     0.227 C 
HETATM    2  N1  UNL     1      12.986   9.227 -16.185  1.00  0.00    -0.445 NA
HETATM    3  C2  UNL     1      13.006   8.297 -15.128  1.00  0.00     0.167 C 
ENDROOT
BRANCH   3   4
HETATM    4  C3  UNL     1      13.142   6.921 -15.771  1.00  0.00     0.029 C 
HETATM    5  C4  UNL     1      13.471   5.929 -14.596  1.00  0.00     0.027 C 
HETATM    6  C5  UNL     1      14.300   6.796 -16.689  1.00  0.00     0.027 C 
BRANCH   4   7
HETATM    7  C6  UNL     1      11.804   6.495 -16.265  1.00  0.00     0.081 C 
BRANCH   7   8
HETATM    8  N2  UNL     1      11.252   7.101 -17.409  1.00  0.00    -0.321 N 
HETATM    9  C7  UNL     1       9.903   7.217 -17.791  1.00  0.00     0.322 C 
HETATM   10  O1  UNL     1       8.936   6.787 -17.133  1.00  0.00    -0.247 OA
HETATM   11  N3  UNL     1       9.546   7.876 -19.033  1.00  0.00    -0.324 N 
HETATM   12  C8  UNL     1       8.172   7.972 -19.387  1.00  0.00     0.148 C 
HETATM   13  C26 UNL     1      10.637   8.398 -19.831  1.00  0.00     0.230 C 
HETATM   14  C9  UNL     1       7.777   9.180 -20.167  1.00  0.00     0.146 C 
HETATM   15  N4  UNL     1       8.848   9.800 -20.898  1.00  0.00    -0.347 N 
HETATM   16  C25 UNL     1      10.144   9.184 -20.989  1.00  0.00     0.237 C 
HETATM   17  O4  UNL     1      10.800   9.338 -22.044  1.00  0.00    -0.272 OA
ATOM     18  H2  UNL     1      11.927   7.515 -18.053  1.00  0.00     0.169 HD
BRANCH  15  19
HETATM   19  C10 UNL     1       8.599  11.070 -21.547  1.00  0.00     0.157 C 
BRANCH  19  20
HETATM   20  C11 UNL     1       9.013  12.249 -20.694  1.00  0.00     0.140 C 
BRANCH  20  21
HETATM   21  O2  UNL     1       9.637  11.829 -19.550  1.00  0.00    -0.394 OA
ATOM     22  H2  UNL     1       9.628  12.511 -18.888  1.00  0.00     0.210 HD
ENDBRANCH  20  21
BRANCH  20  23
HETATM   23  C12 UNL     1       9.907  13.112 -21.559  1.00  0.00     0.072 C 
BRANCH  23  24
HETATM   24  C13 UNL     1       9.252  14.365 -21.996  1.00  0.00    -0.053 A 
HETATM   25  C14 UNL     1       9.664  15.072 -23.119  1.00  0.00     0.017 A 
HETATM   26  C15 UNL     1       9.072  16.227 -23.531  1.00  0.00    -0.025 A 
HETATM   27  C16 UNL     1       9.535  16.961 -24.737  1.00  0.00     0.051 C 
HETATM   28  C17 UNL     1       8.009  16.747 -22.828  1.00  0.00     0.112 A 
HETATM   29  O3  UNL     1       7.270  17.797 -22.978  1.00  0.00    -0.276 OA
HETATM   30  C23 UNL     1       7.569  16.067 -21.698  1.00  0.00     0.070 A 
HETATM   31  C18 UNL     1       6.355  17.888 -22.038  1.00  0.00     0.230 A 
HETATM   32  N5  UNL     1       5.469  18.791 -21.888  1.00  0.00    -0.312 N 
HETATM   33  N7  UNL     1       6.543  16.806 -21.239  1.00  0.00    -0.319 N 
ATOM     34  H5  UNL     1       4.823  18.723 -21.101  1.00  0.00     0.170 HD
ATOM     35  H7  UNL     1       5.988  16.586 -20.412  1.00  0.00     0.169 HD
HETATM   36  C24 UNL     1       8.188  14.897 -21.300  1.00  0.00     0.039 A 
BRANCH  32  37
HETATM   37  C19 UNL     1       5.352  19.881 -22.774  1.00  0.00     0.075 C 
HETATM   38  C20 UNL     1       4.117  19.994 -23.591  1.00  0.00     0.089 C 
BRANCH  37  39
HETATM   39  N6  UNL     1       6.264  20.791 -22.914  1.00  0.00    -0.380 N 
ATOM     40  H6  UNL     1       6.808  21.115 -22.115  1.00  0.00     0.160 HD
BRANCH  39  41
HETATM   41  C21 UNL     1       6.493  21.337 -24.239  1.00  0.00     0.116 C 
HETATM   42  C22 UNL     1       7.651  20.615 -24.885  1.00  0.00     0.026 C 
ENDBRANCH  39  41
ENDBRANCH  37  39
ENDBRANCH  32  37
ENDBRANCH  23  24
ENDBRANCH  20  23
ENDBRANCH  19  20
ENDBRANCH  15  19
ENDBRANCH   7   8
ENDBRANCH   4   7
ENDBRANCH   3   4
TORSDOF 11
ENDMDL
MODEL 2
REMARK VINA RESULT: -6.365910434      1.251      1.416
REMARK  11 active torsions:
REMARK  status: ('A' for Active; 'I' for Inactive)
REMARK    1  A    between atoms: C2_3  and  C3_4 
REMARK    2  A    between atoms: C3_4  and  C6_7 
REMARK    3  A    between atoms: C6_7  and  N2_8 
REMARK       I    between atoms: N2_8  and  C7_10 
REMARK       I    between atoms: C7_10  and  N3_12 
REMARK    4  A    between atoms: N4_15  and  C10_16 
REMARK    5  A    between atoms: C10_16  and  C11_17 
REMARK    6  A    between atoms: C11_17  and  O2_18 
REMARK    7  A    between atoms: C11_17  and  C12_20 
REMARK    8  A    between atoms: C12_20  and  C13_21 
REMARK    9  A    between atoms: N5_28  and  C19_30 
REMARK   10  A    between atoms: C19_30  and  N6_32 
REMARK   11  A    between atoms: N6_32  and  C21_34 
ROOT
HETATM    1  C1  UNL     1      12.957   9.962 -16.909  1.00  0.00     0.227 C 
HETATM    2  N1  UNL     1      12.993   9.167 -16.063  1.00  0.00    -0.445 NA
HETATM    3  C2  UNL     1      13.017   8.195 -15.044  1.00  0.00     0.167 C 
ENDROOT
BRANCH   3   4
HETATM    4  C3  UNL     1      13.213   6.852 -15.738  1.00  0.00     0.029 C 
HETATM    5  C4  UNL     1      13.559   5.826 -14.596  1.00  0.00     0.027 C 
HETATM    6  C5  UNL     1      14.391   6.804 -16.639  1.00  0.00     0.027 C 
BRANCH   4   7
HETATM    7  C6  UNL     1      11.900   6.399 -16.273  1.00  0.00     0.081 C 
BRANCH   7   8
HETATM    8  N2  UNL     1      11.367   7.000 -17.428  1.00  0.00    -0.321 N 
HETATM    9  C7  UNL     1      10.022   7.175 -17.800  1.00  0.00     0.322 C 
HETATM   10  O1  UNL     1       9.041   6.815 -17.120  1.00  0.00    -0.247 OA
HETATM   11  N3  UNL     1       9.685   7.816 -19.056  1.00  0.00    -0.324 N 
HETATM   12  C8  UNL     1       8.313   7.973 -19.400  1.00  0.00     0.148 C 
HETATM   13  C26 UNL     1      10.793   8.258 -19.880  1.00  0.00     0.230 C 
HETATM   14  C9  UNL     1       7.972   9.177 -20.210  1.00  0.00     0.146 C 
HETATM   15  N4  UNL     1       9.066   9.720 -20.969  1.00  0.00    -0.347 N 
HETATM   16  C25 UNL     1      10.327   9.035 -21.055  1.00  0.00     0.237 C 
HETATM   17  O4  UNL     1      10.979   9.125 -22.121  1.00  0.00    -0.272 OA
ATOM     18  H2  UNL     1      12.055   7.360 -18.090  1.00  0.00     0.169 HD
BRANCH  15  19
HETATM   19  C10 UNL     1       8.875  10.982 -21.652  1.00  0.00     0.157 C 
BRANCH  19  20
HETATM   20  C11 UNL     1       9.142  12.173 -20.758  1.00  0.00     0.140 C 
BRANCH  20  21
HETATM   21  O2  UNL     1       9.966  11.828 -19.719  1.00  0.00    -0.394 OA
ATOM     22  H2  UNL     1       9.511  11.898 -18.888  1.00  0.00     0.210 HD
ENDBRANCH  20  21
BRANCH  20  23
HETATM   23  C12 UNL     1       9.741  13.248 -21.640  1.00  0.00     0.072 C 
BRANCH  23  24
HETATM   24  C13 UNL     1       8.745  14.249 -22.085  1.00  0.00    -0.053 A 
HETATM   25  C14 UNL     1       8.196  14.241 -23.361  1.00  0.00     0.017 A 
HETATM   26  C15 UNL     1       7.281  15.156 -23.785  1.00  0.00    -0.025 A 
HETATM   27  C16 UNL     1       6.711  15.121 -25.155  1.00  0.00     0.051 C 
HETATM   28  C17 UNL     1       6.855  16.150 -22.934  1.00  0.00     0.112 A 
HETATM   29  O3  UNL     1       6.019  17.130 -23.056  1.00  0.00    -0.276 OA
HETATM   30  C23 UNL     1       7.383  16.191 -21.649  1.00  0.00     0.070 A 
HETATM   31  C18 UNL     1       5.933  17.838 -21.951  1.00  0.00     0.230 A 
HETATM   32  N5  UNL     1       5.211  18.863 -21.729  1.00  0.00    -0.312 N 
HETATM   33  N7  UNL     1       6.786  17.249 -21.072  1.00  0.00    -0.319 N 
ATOM     34  H5  UNL     1       5.253  19.308 -20.812  1.00  0.00     0.170 HD
ATOM     35  H7  UNL     1       6.950  17.565 -20.116  1.00  0.00     0.169 HD
HETATM   36  C24 UNL     1       8.311  15.250 -21.243  1.00  0.00     0.039 A 
BRANCH  32  37
HETATM   37  C19 UNL     1       4.353  19.402 -22.709  1.00  0.00     0.075 C 
HETATM   38  C20 UNL     1       3.094  20.052 -22.262  1.00  0.00     0.089 C 
BRANCH  37  39
HETATM   39  N6  UNL     1       4.604  19.363 -23.980  1.00  0.00    -0.380 N 
ATOM     40  H6  UNL     1       5.547  19.523 -24.332  1.00  0.00     0.160 HD
BRANCH  39  41
HETATM   41  C21 UNL     1       3.508  19.086 -24.889  1.00  0.00     0.116 C 
HETATM   42  C22 UNL     1       3.600  17.655 -25.362  1.00  0.00     0.026 C 
ENDBRANCH  39  41
ENDBRANCH  37  39
ENDBRANCH  32  37
ENDBRANCH  23  24
ENDBRANCH  20  23
ENDBRANCH  19  20
ENDBRANCH  15  19
ENDBRANCH   7   8
ENDBRANCH   4   7
ENDBRANCH   3   4
TORSDOF 11
ENDMDL
MODEL 3
REMARK VINA RESULT: -6.307678837      2.540      4.022
REMARK  11 active torsions:
REMARK  status: ('A' for Active; 'I' for Inactive)
REMARK    1  A    between atoms: C2_3  and  C3_4 
REMARK    2  A    between atoms: C3_4  and  C6_7 
REMARK    3  A    between atoms: C6_7  and  N2_8 
REMARK       I    between atoms: N2_8  and  C7_10 
REMARK       I    between atoms: C7_10  and  N3_12 
REMARK    4  A    between atoms: N4_15  and  C10_16 
REMARK    5  A    between atoms: C10_16  and  C11_17 
REMARK    6  A    between atoms: C11_17  and  O2_18 
REMARK    7  A    between atoms: C11_17  and  C12_20 
REMARK    8  A    between atoms: C12_20  and  C13_21 
REMARK    9  A    between atoms: N5_28  and  C19_30 
REMARK   10  A    between atoms: C19_30  and  N6_32 
REMARK   11  A    between atoms: N6_32  and  C21_34 
ROOT
HETATM    1  C1  UNL     1      10.293   5.451 -16.017  1.00  0.00     0.227 C 
HETATM    2  N1  UNL     1      11.410   5.574 -16.311  1.00  0.00    -0.445 NA
HETATM    3  C2  UNL     1      12.760   5.742 -16.676  1.00  0.00     0.167 C 
ENDROOT
BRANCH   3   4
HETATM    4  C3  UNL     1      13.298   6.879 -15.816  1.00  0.00     0.029 C 
HETATM    5  C4  UNL     1      14.866   6.759 -15.877  1.00  0.00     0.027 C 
HETATM    6  C5  UNL     1      12.979   6.749 -14.373  1.00  0.00     0.027 C 
BRANCH   4   7
HETATM    7  C6  UNL     1      12.989   8.169 -16.491  1.00  0.00     0.081 C 
BRANCH   7   8
HETATM    8  N2  UNL     1      11.918   8.248 -17.400  1.00  0.00    -0.321 N 
HETATM    9  C7  UNL     1      11.902   8.752 -18.713  1.00  0.00     0.322 C 
HETATM   10  O1  UNL     1      12.889   9.223 -19.309  1.00  0.00    -0.247 OA
HETATM   11  N3  UNL     1      10.673   8.752 -19.483  1.00  0.00    -0.324 N 
HETATM   12  C8  UNL     1      10.694   9.273 -20.807  1.00  0.00     0.148 C 
HETATM   13  C26 UNL     1       9.496   8.209 -18.835  1.00  0.00     0.230 C 
HETATM   14  C9  UNL     1       9.751   8.644 -21.776  1.00  0.00     0.146 C 
HETATM   15  N4  UNL     1       8.615   7.999 -21.176  1.00  0.00    -0.347 N 
HETATM   16  C25 UNL     1       8.347   8.117 -19.768  1.00  0.00     0.237 C 
HETATM   17  O4  UNL     1       7.153   8.136 -19.392  1.00  0.00    -0.272 OA
ATOM     18  H2  UNL     1      11.027   7.887 -17.058  1.00  0.00     0.169 HD
BRANCH  15  19
HETATM   19  C10 UNL     1       7.736   7.219 -22.022  1.00  0.00     0.157 C 
BRANCH  19  20
HETATM   20  C11 UNL     1       7.207   8.011 -23.198  1.00  0.00     0.140 C 
BRANCH  20  21
HETATM   21  O2  UNL     1       6.691   7.178 -24.156  1.00  0.00    -0.394 OA
ATOM     22  H2  UNL     1       6.555   7.644 -24.972  1.00  0.00     0.210 HD
ENDBRANCH  20  21
BRANCH  20  23
HETATM   23  C12 UNL     1       6.172   8.967 -22.643  1.00  0.00     0.072 C 
BRANCH  23  24
HETATM   24  C13 UNL     1       6.619  10.378 -22.667  1.00  0.00    -0.053 A 
HETATM   25  C14 UNL     1       6.817  11.079 -23.849  1.00  0.00     0.017 A 
HETATM   26  C15 UNL     1       7.229  12.377 -23.887  1.00  0.00    -0.025 A 
HETATM   27  C16 UNL     1       7.433  13.101 -25.167  1.00  0.00     0.051 C 
HETATM   28  C17 UNL     1       7.469  13.058 -22.715  1.00  0.00     0.112 A 
HETATM   29  O3  UNL     1       7.857  14.263 -22.449  1.00  0.00    -0.276 OA
HETATM   30  C23 UNL     1       7.281  12.389 -21.511  1.00  0.00     0.070 A 
HETATM   31  C18 UNL     1       7.948  14.470 -21.154  1.00  0.00     0.230 A 
HETATM   32  N5  UNL     1       8.299  15.537 -20.551  1.00  0.00    -0.312 N 
HETATM   33  N7  UNL     1       7.588  13.298 -20.569  1.00  0.00    -0.319 N 
ATOM     34  H5  UNL     1       8.321  15.543 -19.531  1.00  0.00     0.170 HD
ATOM     35  H7  UNL     1       7.555  13.132 -19.563  1.00  0.00     0.169 HD
HETATM   36  C24 UNL     1       6.862  11.071 -21.501  1.00  0.00     0.039 A 
BRANCH  32  37
HETATM   37  C19 UNL     1       8.658  16.708 -21.248  1.00  0.00     0.075 C 
HETATM   38  C20 UNL     1       7.873  17.944 -20.996  1.00  0.00     0.089 C 
BRANCH  37  39
HETATM   39  N6  UNL     1       9.634  16.766 -22.098  1.00  0.00    -0.380 N 
ATOM     40  H6  UNL     1      10.541  16.351 -21.882  1.00  0.00     0.160 HD
BRANCH  39  41
HETATM   41  C21 UNL     1       9.406  17.435 -23.364  1.00  0.00     0.116 C 
HETATM   42  C22 UNL     1       9.587  16.447 -24.492  1.00  0.00     0.026 C 
ENDBRANCH  39  41
ENDBRANCH  37  39
ENDBRANCH  32  37
ENDBRANCH  23  24
ENDBRANCH  20  23
ENDBRANCH  19  20
ENDBRANCH  15  19
ENDBRANCH   7   8
ENDBRANCH   4   7
ENDBRANCH   3   4
TORSDOF 11
ENDMDL
MODEL 4
REMARK VINA RESULT: -6.267073304      2.480      3.829
REMARK  11 active torsions:
REMARK  status: ('A' for Active; 'I' for Inactive)
REMARK    1  A    between atoms: C2_3  and  C3_4 
REMARK    2  A    between atoms: C3_4  and  C6_7 
REMARK    3  A    between atoms: C6_7  and  N2_8 
REMARK       I    between atoms: N2_8  and  C7_10 
REMARK       I    between atoms: C7_10  and  N3_12 
REMARK    4  A    between atoms: N4_15  and  C10_16 
REMARK    5  A    between atoms: C10_16  and  C11_17 
REMARK    6  A    between atoms: C11_17  and  O2_18 
REMARK    7  A    between atoms: C11_17  and  C12_20 
REMARK    8  A    between atoms: C12_20  and  C13_21 
REMARK    9  A    between atoms: N5_28  and  C19_30 
REMARK   10  A    between atoms: C19_30  and  N6_32 
REMARK   11  A    between atoms: N6_32  and  C21_34 
ROOT
HETATM    1  C1  UNL     1      14.991   6.395 -16.209  1.00  0.00     0.227 C 
HETATM    2  N1  UNL     1      14.417   7.073 -16.958  1.00  0.00    -0.445 NA
HETATM    3  C2  UNL     1      13.704   7.881 -17.865  1.00  0.00     0.167 C 
ENDROOT
BRANCH   3   4
HETATM    4  C3  UNL     1      12.647   8.613 -17.046  1.00  0.00     0.029 C 
HETATM    5  C4  UNL     1      12.079   9.739 -17.987  1.00  0.00     0.027 C 
HETATM    6  C5  UNL     1      13.191   9.352 -15.880  1.00  0.00     0.027 C 
BRANCH   4   7
HETATM    7  C6  UNL     1      11.501   7.691 -16.820  1.00  0.00     0.081 C 
BRANCH   7   8
HETATM    8  N2  UNL     1      10.629   7.382 -17.880  1.00  0.00    -0.321 N 
HETATM    9  C7  UNL     1       9.349   6.798 -17.838  1.00  0.00     0.322 C 
HETATM   10  O1  UNL     1       8.755   6.456 -16.797  1.00  0.00    -0.247 OA
HETATM   11  N3  UNL     1       8.615   6.550 -19.064  1.00  0.00    -0.324 N 
HETATM   12  C8  UNL     1       7.325   5.955 -18.982  1.00  0.00     0.148 C 
HETATM   13  C26 UNL     1       9.263   6.935 -20.302  1.00  0.00     0.230 C 
HETATM   14  C9  UNL     1       6.347   6.359 -20.032  1.00  0.00     0.146 C 
HETATM   15  N4  UNL     1       6.939   6.849 -21.247  1.00  0.00    -0.347 N 
HETATM   16  C25 UNL     1       8.358   6.781 -21.467  1.00  0.00     0.237 C 
HETATM   17  O4  UNL     1       8.769   6.593 -22.635  1.00  0.00    -0.272 OA
ATOM     18  H2  UNL     1      10.973   7.614 -18.812  1.00  0.00     0.169 HD
BRANCH  15  19
HETATM   19  C10 UNL     1       6.073   7.421 -22.257  1.00  0.00     0.157 C 
BRANCH  19  20
HETATM   20  C11 UNL     1       5.449   8.727 -21.816  1.00  0.00     0.140 C 
BRANCH  20  21
HETATM   21  O2  UNL     1       4.251   8.509 -21.187  1.00  0.00    -0.394 OA
ATOM     22  H2  UNL     1       3.548   8.418 -21.820  1.00  0.00     0.210 HD
ENDBRANCH  20  21
BRANCH  20  23
HETATM   23  C12 UNL     1       6.461   9.404 -20.917  1.00  0.00     0.072 C 
BRANCH  23  24
HETATM   24  C13 UNL     1       6.868  10.739 -21.410  1.00  0.00    -0.053 A 
HETATM   25  C14 UNL     1       6.911  11.056 -22.762  1.00  0.00     0.017 A 
HETATM   26  C15 UNL     1       7.285  12.278 -23.230  1.00  0.00    -0.025 A 
HETATM   27  C16 UNL     1       7.320  12.587 -24.682  1.00  0.00     0.051 C 
HETATM   28  C17 UNL     1       7.643  13.274 -22.350  1.00  0.00     0.112 A 
HETATM   29  O3  UNL     1       8.032  14.498 -22.500  1.00  0.00    -0.276 OA
HETATM   30  C23 UNL     1       7.613  12.994 -20.989  1.00  0.00     0.070 A 
HETATM   31  C18 UNL     1       8.269  15.079 -21.344  1.00  0.00     0.230 A 
HETATM   32  N5  UNL     1       8.662  16.272 -21.130  1.00  0.00    -0.312 N 
HETATM   33  N7  UNL     1       8.007  14.138 -20.401  1.00  0.00    -0.319 N 
ATOM     34  H5  UNL     1       8.803  16.581 -20.168  1.00  0.00     0.170 HD
ATOM     35  H7  UNL     1       8.095  14.278 -19.394  1.00  0.00     0.169 HD
HETATM   36  C24 UNL     1       7.230  11.744 -20.539  1.00  0.00     0.039 A 
BRANCH  32  37
HETATM   37  C19 UNL     1       8.910  17.180 -22.181  1.00  0.00     0.075 C 
HETATM   38  C20 UNL     1       8.016  18.359 -22.316  1.00  0.00     0.089 C 
BRANCH  37  39
HETATM   39  N6  UNL     1       9.874  17.042 -23.034  1.00  0.00    -0.380 N 
ATOM     40  H6  UNL     1      10.836  16.917 -22.721  1.00  0.00     0.160 HD
BRANCH  39  41
HETATM   41  C21 UNL     1       9.550  17.070 -24.448  1.00  0.00     0.116 C 
HETATM   42  C22 UNL     1       9.957  15.759 -25.080  1.00  0.00     0.026 C 
ENDBRANCH  39  41
ENDBRANCH  37  39
ENDBRANCH  32  37
ENDBRANCH  23  24
ENDBRANCH  20  23
ENDBRANCH  19  20
ENDBRANCH  15  19
ENDBRANCH   7   8
ENDBRANCH   4   7
ENDBRANCH   3   4
TORSDOF 11
ENDMDL
MODEL 5
REMARK VINA RESULT: -6.247351768      3.888      7.305
REMARK  11 active torsions:
REMARK  status: ('A' for Active; 'I' for Inactive)
REMARK    1  A    between atoms: C2_3  and  C3_4 
REMARK    2  A    between atoms: C3_4  and  C6_7 
REMARK    3  A    between atoms: C6_7  and  N2_8 
REMARK       I    between atoms: N2_8  and  C7_10 
REMARK       I    between atoms: C7_10  and  N3_12 
REMARK    4  A    between atoms: N4_15  and  C10_16 
REMARK    5  A    between atoms: C10_16  and  C11_17 
REMARK    6  A    between atoms: C11_17  and  O2_18 
REMARK    7  A    between atoms: C11_17  and  C12_20 
REMARK    8  A    between atoms: C12_20  and  C13_21 
REMARK    9  A    between atoms: N5_28  and  C19_30 
REMARK   10  A    between atoms: C19_30  and  N6_32 
REMARK   11  A    between atoms: N6_32  and  C21_34 
ROOT
HETATM    1  C1  UNL     1       7.863   8.261 -22.464  1.00  0.00     0.227 C 
HETATM    2  N1  UNL     1       6.758   8.366 -22.121  1.00  0.00    -0.445 NA
HETATM    3  C2  UNL     1       5.418   8.474 -21.701  1.00  0.00     0.167 C 
ENDROOT
BRANCH   3   4
HETATM    4  C3  UNL     1       5.436   8.361 -20.181  1.00  0.00     0.029 C 
HETATM    5  C4  UNL     1       3.959   8.629 -19.713  1.00  0.00     0.027 C 
HETATM    6  C5  UNL     1       6.230   9.417 -19.506  1.00  0.00     0.027 C 
BRANCH   4   7
HETATM    7  C6  UNL     1       5.700   6.942 -19.815  1.00  0.00     0.081 C 
BRANCH   7   8
HETATM    8  N2  UNL     1       6.864   6.605 -19.101  1.00  0.00    -0.321 N 
HETATM    9  C7  UNL     1       7.981   5.859 -19.521  1.00  0.00     0.322 C 
HETATM   10  O1  UNL     1       8.122   5.364 -20.656  1.00  0.00    -0.247 OA
HETATM   11  N3  UNL     1       9.083   5.613 -18.611  1.00  0.00    -0.324 N 
HETATM   12  C8  UNL     1      10.194   4.852 -19.070  1.00  0.00     0.148 C 
HETATM   13  C26 UNL     1       8.967   6.173 -17.279  1.00  0.00     0.230 C 
HETATM   14  C9  UNL     1      11.519   5.206 -18.486  1.00  0.00     0.146 C 
HETATM   15  N4  UNL     1      11.457   5.860 -17.207  1.00  0.00    -0.347 N 
HETATM   16  C25 UNL     1      10.214   5.993 -16.497  1.00  0.00     0.237 C 
HETATM   17  O4  UNL     1      10.240   5.950 -15.245  1.00  0.00    -0.272 OA
ATOM     18  H2  UNL     1       6.905   6.951 -18.142  1.00  0.00     0.169 HD
BRANCH  15  19
HETATM   19  C10 UNL     1      12.680   6.390 -16.641  1.00  0.00     0.157 C 
BRANCH  19  20
HETATM   20  C11 UNL     1      12.735   7.902 -16.691  1.00  0.00     0.140 C 
BRANCH  20  21
HETATM   21  O2  UNL     1      13.428   8.400 -15.620  1.00  0.00    -0.394 OA
ATOM     22  H2  UNL     1      12.838   8.635 -14.913  1.00  0.00     0.210 HD
ENDBRANCH  20  21
BRANCH  20  23
HETATM   23  C12 UNL     1      13.373   8.265 -18.014  1.00  0.00     0.072 C 
BRANCH  23  24
HETATM   24  C13 UNL     1      12.432   8.928 -18.945  1.00  0.00    -0.053 A 
HETATM   25  C14 UNL     1      12.497   8.756 -20.322  1.00  0.00     0.017 A 
HETATM   26  C15 UNL     1      11.639   9.360 -21.190  1.00  0.00    -0.025 A 
HETATM   27  C16 UNL     1      11.733   9.156 -22.658  1.00  0.00     0.051 C 
HETATM   28  C17 UNL     1      10.647  10.188 -20.716  1.00  0.00     0.112 A 
HETATM   29  O3  UNL     1       9.714  10.878 -21.287  1.00  0.00    -0.276 OA
HETATM   30  C23 UNL     1      10.551  10.384 -19.343  1.00  0.00     0.070 A 
HETATM   31  C18 UNL     1       8.985  11.532 -20.409  1.00  0.00     0.230 A 
HETATM   32  N5  UNL     1       7.992  12.300 -20.628  1.00  0.00    -0.312 N 
HETATM   33  N7  UNL     1       9.509  11.222 -19.195  1.00  0.00    -0.319 N 
ATOM     34  H5  UNL     1       7.524  12.739 -19.835  1.00  0.00     0.170 HD
ATOM     35  H7  UNL     1       9.164  11.574 -18.302  1.00  0.00     0.169 HD
HETATM   36  C24 UNL     1      11.434   9.759 -18.483  1.00  0.00     0.039 A 
BRANCH  32  37
HETATM   37  C19 UNL     1       7.519  12.561 -21.930  1.00  0.00     0.075 C 
HETATM   38  C20 UNL     1       7.693  13.930 -22.480  1.00  0.00     0.089 C 
BRANCH  37  39
HETATM   39  N6  UNL     1       6.942  11.671 -22.674  1.00  0.00    -0.380 N 
ATOM     40  H6  UNL     1       6.261  11.022 -22.281  1.00  0.00     0.160 HD
BRANCH  39  41
HETATM   41  C21 UNL     1       7.289  11.622 -24.082  1.00  0.00     0.116 C 
HETATM   42  C22 UNL     1       6.284  10.765 -24.815  1.00  0.00     0.026 C 
ENDBRANCH  39  41
ENDBRANCH  37  39
ENDBRANCH  32  37
ENDBRANCH  23  24
ENDBRANCH  20  23
ENDBRANCH  19  20
ENDBRANCH  15  19
ENDBRANCH   7   8
ENDBRANCH   4   7
ENDBRANCH   3   4
TORSDOF 11
ENDMDL
