MODEL 1
REMARK VINA RESULT: -6.905484159      0.000      0.000
REMARK  9 active torsions:
REMARK  status: ('A' for Active; 'I' for Inactive)
REMARK    1  A    between atoms: C4_5  and  C5_6 
REMARK       I    between atoms: C5_6  and  N2_8 
REMARK    2  A    between atoms: N3_11  and  C8_12 
REMARK    3  A    between atoms: C8_12  and  C9_13 
REMARK       I    between atoms: C9_13  and  N4_15 
REMARK    4  A    between atoms: N4_15  and  C10_17 
REMARK    5  A    between atoms: C10_17  and  C11_18 
REMARK    6  A    between atoms: C14_21  and  C15_22 
REMARK    7  A    between atoms: C15_22  and  N5_23 
REMARK    8  A    between atoms: C19_27  and  C20_28 
REMARK    9  A    between atoms: C27_37  and  O3_38 
ROOT
HETATM    1  N1  UNL     1       8.063  16.871 -17.593  1.00  0.00    -0.191 NA
HETATM    2  C1  UNL     1       7.925  16.449 -18.671  1.00  0.00     0.102 C 
HETATM    3  C2  UNL     1       7.731  15.929 -19.985  1.00  0.00     0.078 A 
HETATM    4  C3  UNL     1       7.892  14.584 -20.246  1.00  0.00     0.042 A 
HETATM    5  C4  UNL     1       7.719  14.038 -21.491  1.00  0.00     0.034 A 
HETATM    6  C25 UNL     1       7.360  14.926 -22.513  1.00  0.00     0.020 A 
HETATM    7  C26 UNL     1       7.195  16.271 -22.266  1.00  0.00     0.039 A 
HETATM    8  C27 UNL     1       7.379  16.799 -20.990  1.00  0.00     0.086 A 
ENDROOT
BRANCH   8   9
HETATM    9  O3  UNL     1       7.199  18.162 -20.808  1.00  0.00    -0.359 OA
ATOM     10  H3  UNL     1       7.533  18.826 -21.400  1.00  0.00     0.217 HD
ENDBRANCH   8   9
BRANCH   5  11
HETATM   11  C5  UNL     1       7.888  12.654 -21.859  1.00  0.00     0.262 C 
HETATM   12  O1  UNL     1       6.898  11.876 -21.674  1.00  0.00    -0.267 OA
HETATM   13  N2  UNL     1       9.074  12.123 -22.406  1.00  0.00    -0.283 N 
HETATM   14  C6  UNL     1      10.230  12.730 -22.705  1.00  0.00     0.118 A 
HETATM   15  C24 UNL     1       9.287  10.814 -22.743  1.00  0.00     0.193 A 
HETATM   16  C7  UNL     1      11.125  11.823 -23.210  1.00  0.00     0.110 A 
HETATM   17  N3  UNL     1      10.512  10.631 -23.224  1.00  0.00    -0.343 N 
BRANCH  17  18
HETATM   18  C8  UNL     1      11.136   9.393 -23.694  1.00  0.00     0.231 C 
BRANCH  18  19
HETATM   19  C9  UNL     1      12.473   9.346 -23.020  1.00  0.00     0.236 C 
HETATM   20  O2  UNL     1      13.540   9.494 -23.635  1.00  0.00    -0.272 OA
HETATM   21  N4  UNL     1      12.489   9.124 -21.624  1.00  0.00    -0.355 N 
ATOM     22  H4  UNL     1      11.616   9.002 -21.111  1.00  0.00     0.162 HD
BRANCH  21  23
HETATM   23  C10 UNL     1      13.757   9.074 -20.936  1.00  0.00     0.161 C 
BRANCH  23  24
HETATM   24  C11 UNL     1      13.530   8.489 -19.580  1.00  0.00    -0.041 A 
HETATM   25  C12 UNL     1      13.071   9.270 -18.530  1.00  0.00     0.009 A 
HETATM   26  C13 UNL     1      12.857   8.750 -17.263  1.00  0.00     0.009 A 
HETATM   27  C14 UNL     1      13.096   7.417 -17.004  1.00  0.00    -0.040 A 
HETATM   28  C22 UNL     1      13.554   6.633 -18.050  1.00  0.00     0.009 A 
HETATM   29  C23 UNL     1      13.767   7.157 -19.313  1.00  0.00     0.009 A 
BRANCH  27  30
HETATM   30  C15 UNL     1      12.884   6.800 -15.679  1.00  0.00     0.166 C 
BRANCH  30  31
HETATM   31  N5  UNL     1      12.092   5.586 -15.757  1.00  0.00    -0.361 N 
HETATM   32  C16 UNL     1      12.604   4.356 -15.780  1.00  0.00     0.090 A 
HETATM   33  C17 UNL     1      11.753   3.265 -15.852  1.00  0.00     0.018 A 
HETATM   34  C18 UNL     1      10.372   3.404 -15.904  1.00  0.00     0.017 A 
HETATM   35  C19 UNL     1       9.879   4.691 -15.878  1.00  0.00     0.015 A 
HETATM   36  C21 UNL     1      10.760   5.747 -15.805  1.00  0.00     0.105 A 
BRANCH  35  37
HETATM   37  C20 UNL     1       8.426   4.905 -15.931  1.00  0.00     0.124 C 
HETATM   38  N6  UNL     1       7.921   6.092 -16.511  1.00  0.00    -0.089 NA
HETATM   39  S1  UNL     1       7.393   3.808 -15.338  1.00  0.00    -0.063 SA
ENDBRANCH  35  37
ENDBRANCH  30  31
ENDBRANCH  27  30
ENDBRANCH  23  24
ENDBRANCH  21  23
ENDBRANCH  18  19
ENDBRANCH  17  18
ENDBRANCH   5  11
TORSDOF 9
ENDMDL
MODEL 2
REMARK VINA RESULT: -6.786043947      4.201     10.059
REMARK  9 active torsions:
REMARK  status: ('A' for Active; 'I' for Inactive)
REMARK    1  A    between atoms: C4_5  and  C5_6 
REMARK       I    between atoms: C5_6  and  N2_8 
REMARK    2  A    between atoms: N3_11  and  C8_12 
REMARK    3  A    between atoms: C8_12  and  C9_13 
REMARK       I    between atoms: C9_13  and  N4_15 
REMARK    4  A    between atoms: N4_15  and  C10_17 
REMARK    5  A    between atoms: C10_17  and  C11_18 
REMARK    6  A    between atoms: C14_21  and  C15_22 
REMARK    7  A    between atoms: C15_22  and  N5_23 
REMARK    8  A    between atoms: C19_27  and  C20_28 
REMARK    9  A    between atoms: C27_37  and  O3_38 
ROOT
HETATM    1  N1  UNL     1      13.145  10.132 -15.635  1.00  0.00    -0.191 NA
HETATM    2  C1  UNL     1      12.939   9.156 -16.238  1.00  0.00     0.102 C 
HETATM    3  C2  UNL     1      12.697   7.972 -16.996  1.00  0.00     0.078 A 
HETATM    4  C3  UNL     1      11.500   7.785 -17.655  1.00  0.00     0.042 A 
HETATM    5  C4  UNL     1      11.219   6.665 -18.393  1.00  0.00     0.034 A 
HETATM    6  C25 UNL     1      12.228   5.695 -18.455  1.00  0.00     0.020 A 
HETATM    7  C26 UNL     1      13.428   5.870 -17.802  1.00  0.00     0.039 A 
HETATM    8  C27 UNL     1      13.685   7.018 -17.058  1.00  0.00     0.086 A 
ENDROOT
BRANCH   8   9
HETATM    9  O3  UNL     1      14.914   7.132 -16.424  1.00  0.00    -0.359 OA
ATOM     10  H3  UNL     1      15.039   7.032 -15.487  1.00  0.00     0.217 HD
ENDBRANCH   8   9
BRANCH   5  11
HETATM   11  C5  UNL     1       9.992   6.376 -19.092  1.00  0.00     0.262 C 
HETATM   12  O1  UNL     1       9.985   6.545 -20.354  1.00  0.00    -0.267 OA
HETATM   13  N2  UNL     1       8.815   5.920 -18.464  1.00  0.00    -0.283 N 
HETATM   14  C6  UNL     1       8.577   5.656 -17.173  1.00  0.00     0.118 A 
HETATM   15  C24 UNL     1       7.623   5.661 -19.083  1.00  0.00     0.193 A 
HETATM   16  C7  UNL     1       7.280   5.245 -17.003  1.00  0.00     0.110 A 
HETATM   17  N3  UNL     1       6.703   5.257 -18.213  1.00  0.00    -0.343 N 
BRANCH  17  18
HETATM   18  C8  UNL     1       5.310   4.883 -18.460  1.00  0.00     0.231 C 
BRANCH  18  19
HETATM   19  C9  UNL     1       4.829   5.832 -19.515  1.00  0.00     0.236 C 
HETATM   20  O2  UNL     1       4.659   5.491 -20.696  1.00  0.00    -0.272 OA
HETATM   21  N4  UNL     1       4.567   7.163 -19.120  1.00  0.00    -0.355 N 
ATOM     22  H4  UNL     1       4.704   7.451 -18.152  1.00  0.00     0.162 HD
BRANCH  21  23
HETATM   23  C10 UNL     1       4.100   8.109 -20.107  1.00  0.00     0.161 C 
BRANCH  23  24
HETATM   24  C11 UNL     1       5.247   8.985 -20.492  1.00  0.00    -0.041 A 
HETATM   25  C12 UNL     1       5.831   9.846 -19.575  1.00  0.00     0.009 A 
HETATM   26  C13 UNL     1       6.894  10.671 -19.910  1.00  0.00     0.009 A 
HETATM   27  C14 UNL     1       7.411  10.661 -21.188  1.00  0.00    -0.040 A 
HETATM   28  C22 UNL     1       6.830   9.802 -22.108  1.00  0.00     0.009 A 
HETATM   29  C23 UNL     1       5.770   8.982 -21.768  1.00  0.00     0.009 A 
BRANCH  27  30
HETATM   30  C15 UNL     1       8.543  11.510 -21.611  1.00  0.00     0.166 C 
BRANCH  30  31
HETATM   31  N5  UNL     1       8.111  12.822 -22.057  1.00  0.00    -0.361 N 
HETATM   32  C16 UNL     1       7.751  13.109 -23.306  1.00  0.00     0.090 A 
HETATM   33  C17 UNL     1       7.352  14.398 -23.623  1.00  0.00     0.018 A 
HETATM   34  C18 UNL     1       7.314  15.415 -22.678  1.00  0.00     0.017 A 
HETATM   35  C19 UNL     1       7.694  15.081 -21.396  1.00  0.00     0.015 A 
HETATM   36  C21 UNL     1       8.083  13.789 -21.124  1.00  0.00     0.105 A 
BRANCH  35  37
HETATM   37  C20 UNL     1       7.676  16.114 -20.349  1.00  0.00     0.124 C 
HETATM   38  N6  UNL     1       7.314  15.757 -19.030  1.00  0.00    -0.089 NA
HETATM   39  S1  UNL     1       8.064  17.650 -20.680  1.00  0.00    -0.063 SA
ENDBRANCH  35  37
ENDBRANCH  30  31
ENDBRANCH  27  30
ENDBRANCH  23  24
ENDBRANCH  21  23
ENDBRANCH  18  19
ENDBRANCH  17  18
ENDBRANCH   5  11
TORSDOF 9
ENDMDL
MODEL 3
REMARK VINA RESULT: -6.773276926      4.990      9.242
REMARK  9 active torsions:
REMARK  status: ('A' for Active; 'I' for Inactive)
REMARK    1  A    between atoms: C4_5  and  C5_6 
REMARK       I    between atoms: C5_6  and  N2_8 
REMARK    2  A    between atoms: N3_11  and  C8_12 
REMARK    3  A    between atoms: C8_12  and  C9_13 
REMARK       I    between atoms: C9_13  and  N4_15 
REMARK    4  A    between atoms: N4_15  and  C10_17 
REMARK    5  A    between atoms: C10_17  and  C11_18 
REMARK    6  A    between atoms: C14_21  and  C15_22 
REMARK    7  A    between atoms: C15_22  and  N5_23 
REMARK    8  A    between atoms: C19_27  and  C20_28 
REMARK    9  A    between atoms: C27_37  and  O3_38 
ROOT
HETATM    1  N1  UNL     1       4.753   8.721 -19.506  1.00  0.00    -0.191 NA
HETATM    2  C1  UNL     1       5.680   9.387 -19.746  1.00  0.00     0.102 C 
HETATM    3  C2  UNL     1       6.811  10.213 -20.017  1.00  0.00     0.078 A 
HETATM    4  C3  UNL     1       6.674  11.395 -20.713  1.00  0.00     0.042 A 
HETATM    5  C4  UNL     1       7.729  12.221 -21.000  1.00  0.00     0.034 A 
HETATM    6  C25 UNL     1       8.985  11.805 -20.540  1.00  0.00     0.020 A 
HETATM    7  C26 UNL     1       9.135  10.627 -19.842  1.00  0.00     0.039 A 
HETATM    8  C27 UNL     1       8.044   9.806 -19.567  1.00  0.00     0.086 A 
ENDROOT
BRANCH   8   9
HETATM    9  O3  UNL     1       8.264   8.632 -18.860  1.00  0.00    -0.359 OA
ATOM     10  H3  UNL     1       8.888   8.549 -18.149  1.00  0.00     0.217 HD
ENDBRANCH   8   9
BRANCH   5  11
HETATM   11  C5  UNL     1       7.683  13.458 -21.739  1.00  0.00     0.262 C 
HETATM   12  O1  UNL     1       7.522  13.378 -22.999  1.00  0.00    -0.267 OA
HETATM   13  N2  UNL     1       7.802  14.733 -21.152  1.00  0.00    -0.283 N 
HETATM   14  C6  UNL     1       7.961  15.077 -19.867  1.00  0.00     0.118 A 
HETATM   15  C24 UNL     1       7.792  15.929 -21.818  1.00  0.00     0.193 A 
HETATM   16  C7  UNL     1       8.045  16.440 -19.746  1.00  0.00     0.110 A 
HETATM   17  N3  UNL     1       7.937  16.951 -20.981  1.00  0.00    -0.343 N 
BRANCH  17  18
HETATM   18  C8  UNL     1       7.980  18.383 -21.282  1.00  0.00     0.231 C 
BRANCH  18  19
HETATM   19  C9  UNL     1       8.157  18.467 -22.766  1.00  0.00     0.236 C 
HETATM   20  O2  UNL     1       7.294  18.946 -23.518  1.00  0.00    -0.272 OA
HETATM   21  N4  UNL     1       9.366  17.974 -23.305  1.00  0.00    -0.355 N 
ATOM     22  H4  UNL     1      10.081  17.579 -22.694  1.00  0.00     0.162 HD
BRANCH  21  23
HETATM   23  C10 UNL     1       9.576  18.038 -24.733  1.00  0.00     0.161 C 
BRANCH  23  24
HETATM   24  C11 UNL     1       9.398  16.666 -25.294  1.00  0.00    -0.041 A 
HETATM   25  C12 UNL     1       8.448  16.408 -26.271  1.00  0.00     0.009 A 
HETATM   26  C13 UNL     1       8.262  15.141 -26.803  1.00  0.00     0.009 A 
HETATM   27  C14 UNL     1       9.029  14.081 -26.371  1.00  0.00    -0.040 A 
HETATM   28  C22 UNL     1       9.980  14.334 -25.395  1.00  0.00     0.009 A 
HETATM   29  C23 UNL     1      10.161  15.599 -24.867  1.00  0.00     0.009 A 
BRANCH  27  30
HETATM   30  C15 UNL     1       8.886  12.710 -26.899  1.00  0.00     0.166 C 
BRANCH  30  31
HETATM   31  N5  UNL     1       8.080  11.867 -26.034  1.00  0.00    -0.361 N 
HETATM   32  C16 UNL     1       6.749  11.862 -26.020  1.00  0.00     0.090 A 
HETATM   33  C17 UNL     1       6.079  11.013 -25.154  1.00  0.00     0.018 A 
HETATM   34  C18 UNL     1       6.749  10.157 -24.289  1.00  0.00     0.017 A 
HETATM   35  C19 UNL     1       8.126  10.190 -24.331  1.00  0.00     0.015 A 
HETATM   36  C21 UNL     1       8.752  11.048 -25.207  1.00  0.00     0.105 A 
BRANCH  35  37
HETATM   37  C20 UNL     1       8.894   9.309 -23.439  1.00  0.00     0.124 C 
HETATM   38  N6  UNL     1       8.227   8.271 -22.749  1.00  0.00    -0.089 NA
HETATM   39  S1  UNL     1      10.488   9.506 -23.234  1.00  0.00    -0.063 SA
ENDBRANCH  35  37
ENDBRANCH  30  31
ENDBRANCH  27  30
ENDBRANCH  23  24
ENDBRANCH  21  23
ENDBRANCH  18  19
ENDBRANCH  17  18
ENDBRANCH   5  11
TORSDOF 9
ENDMDL
MODEL 4
REMARK VINA RESULT: -6.752002008      3.384      4.951
REMARK  9 active torsions:
REMARK  status: ('A' for Active; 'I' for Inactive)
REMARK    1  A    between atoms: C4_5  and  C5_6 
REMARK       I    between atoms: C5_6  and  N2_8 
REMARK    2  A    between atoms: N3_11  and  C8_12 
REMARK    3  A    between atoms: C8_12  and  C9_13 
REMARK       I    between atoms: C9_13  and  N4_15 
REMARK    4  A    between atoms: N4_15  and  C10_17 
REMARK    5  A    between atoms: C10_17  and  C11_18 
REMARK    6  A    between atoms: C14_21  and  C15_22 
REMARK    7  A    between atoms: C15_22  and  N5_23 
REMARK    8  A    between atoms: C19_27  and  C20_28 
REMARK    9  A    between atoms: C27_37  and  O3_38 
ROOT
HETATM    1  N1  UNL     1       7.689  16.163 -18.668  1.00  0.00    -0.191 NA
HETATM    2  C1  UNL     1       7.894  15.530 -19.626  1.00  0.00     0.102 C 
HETATM    3  C2  UNL     1       8.126  14.769 -20.810  1.00  0.00     0.078 A 
HETATM    4  C3  UNL     1       7.494  13.560 -21.010  1.00  0.00     0.042 A 
HETATM    5  C4  UNL     1       7.685  12.792 -22.128  1.00  0.00     0.034 A 
HETATM    6  C25 UNL     1       8.571  13.302 -23.086  1.00  0.00     0.020 A 
HETATM    7  C26 UNL     1       9.208  14.509 -22.899  1.00  0.00     0.039 A 
HETATM    8  C27 UNL     1       8.995  15.268 -21.751  1.00  0.00     0.086 A 
ENDROOT
BRANCH   8   9
HETATM    9  O3  UNL     1       9.668  16.474 -21.623  1.00  0.00    -0.359 OA
ATOM     10  H3  UNL     1      10.331  16.779 -22.232  1.00  0.00     0.217 HD
ENDBRANCH   8   9
BRANCH   5  11
HETATM   11  C5  UNL     1       7.088  11.510 -22.409  1.00  0.00     0.262 C 
HETATM   12  O1  UNL     1       7.057  11.135 -23.625  1.00  0.00    -0.267 OA
HETATM   13  N2  UNL     1       6.546  10.660 -21.424  1.00  0.00    -0.283 N 
HETATM   14  C6  UNL     1       6.473  10.820 -20.096  1.00  0.00     0.118 A 
HETATM   15  C24 UNL     1       5.946   9.451 -21.649  1.00  0.00     0.193 A 
HETATM   16  C7  UNL     1       5.848   9.742 -19.522  1.00  0.00     0.110 A 
HETATM   17  N3  UNL     1       5.528   8.899 -20.514  1.00  0.00    -0.343 N 
BRANCH  17  18
HETATM   18  C8  UNL     1       4.841   7.622 -20.315  1.00  0.00     0.231 C 
BRANCH  18  19
HETATM   19  C9  UNL     1       5.916   6.655 -19.924  1.00  0.00     0.236 C 
HETATM   20  O2  UNL     1       5.996   6.164 -18.788  1.00  0.00    -0.272 OA
HETATM   21  N4  UNL     1       6.863   6.304 -20.912  1.00  0.00    -0.355 N 
ATOM     22  H4  UNL     1       6.805   6.702 -21.849  1.00  0.00     0.162 HD
BRANCH  21  23
HETATM   23  C10 UNL     1       7.915   5.373 -20.576  1.00  0.00     0.161 C 
BRANCH  23  24
HETATM   24  C11 UNL     1       9.168   6.150 -20.335  1.00  0.00    -0.041 A 
HETATM   25  C12 UNL     1      10.416   5.581 -20.543  1.00  0.00     0.009 A 
HETATM   26  C13 UNL     1      11.592   6.282 -20.323  1.00  0.00     0.009 A 
HETATM   27  C14 UNL     1      11.556   7.588 -19.885  1.00  0.00    -0.040 A 
HETATM   28  C22 UNL     1      10.311   8.161 -19.677  1.00  0.00     0.009 A 
HETATM   29  C23 UNL     1       9.141   7.457 -19.897  1.00  0.00     0.009 A 
BRANCH  27  30
HETATM   30  C15 UNL     1      12.769   8.392 -19.635  1.00  0.00     0.166 C 
BRANCH  30  31
HETATM   31  N5  UNL     1      12.982   8.647 -18.222  1.00  0.00    -0.361 N 
HETATM   32  C16 UNL     1      12.817   9.833 -17.640  1.00  0.00     0.090 A 
HETATM   33  C17 UNL     1      13.045   9.963 -16.279  1.00  0.00     0.018 A 
HETATM   34  C18 UNL     1      13.444   8.893 -15.490  1.00  0.00     0.017 A 
HETATM   35  C19 UNL     1      13.604   7.681 -16.126  1.00  0.00     0.015 A 
HETATM   36  C21 UNL     1      13.367   7.596 -17.479  1.00  0.00     0.105 A 
BRANCH  35  37
HETATM   37  C20 UNL     1      14.026   6.509 -15.345  1.00  0.00     0.124 C 
HETATM   38  N6  UNL     1      13.161   5.988 -14.356  1.00  0.00    -0.089 NA
HETATM   39  S1  UNL     1      15.462   5.806 -15.596  1.00  0.00    -0.063 SA
ENDBRANCH  35  37
ENDBRANCH  30  31
ENDBRANCH  27  30
ENDBRANCH  23  24
ENDBRANCH  21  23
ENDBRANCH  18  19
ENDBRANCH  17  18
ENDBRANCH   5  11
TORSDOF 9
ENDMDL
MODEL 5
REMARK VINA RESULT: -6.698440638      4.400      9.245
REMARK  9 active torsions:
REMARK  status: ('A' for Active; 'I' for Inactive)
REMARK    1  A    between atoms: C4_5  and  C5_6 
REMARK       I    between atoms: C5_6  and  N2_8 
REMARK    2  A    between atoms: N3_11  and  C8_12 
REMARK    3  A    between atoms: C8_12  and  C9_13 
REMARK       I    between atoms: C9_13  and  N4_15 
REMARK    4  A    between atoms: N4_15  and  C10_17 
REMARK    5  A    between atoms: C10_17  and  C11_18 
REMARK    6  A    between atoms: C14_21  and  C15_22 
REMARK    7  A    between atoms: C15_22  and  N5_23 
REMARK    8  A    between atoms: C19_27  and  C20_28 
REMARK    9  A    between atoms: C27_37  and  O3_38 
ROOT
HETATM    1  N1  UNL     1      11.526   9.792 -18.695  1.00  0.00    -0.191 NA
HETATM    2  C1  UNL     1      10.495  10.131 -19.121  1.00  0.00     0.102 C 
HETATM    3  C2  UNL     1       9.238  10.533 -19.663  1.00  0.00     0.078 A 
HETATM    4  C3  UNL     1       9.108  11.727 -20.340  1.00  0.00     0.042 A 
HETATM    5  C4  UNL     1       7.922  12.157 -20.877  1.00  0.00     0.034 A 
HETATM    6  C25 UNL     1       6.821  11.309 -20.706  1.00  0.00     0.020 A 
HETATM    7  C26 UNL     1       6.937  10.114 -20.032  1.00  0.00     0.039 A 
HETATM    8  C27 UNL     1       8.155   9.702 -19.496  1.00  0.00     0.086 A 
ENDROOT
BRANCH   8   9
HETATM    9  O3  UNL     1       8.205   8.488 -18.827  1.00  0.00    -0.359 OA
ATOM     10  H3  UNL     1       8.014   7.650 -19.233  1.00  0.00     0.217 HD
ENDBRANCH   8   9
BRANCH   5  11
HETATM   11  C5  UNL     1       7.690  13.396 -21.577  1.00  0.00     0.262 C 
HETATM   12  O1  UNL     1       7.381  13.321 -22.809  1.00  0.00    -0.267 OA
HETATM   13  N2  UNL     1       7.782  14.669 -20.979  1.00  0.00    -0.283 N 
HETATM   14  C6  UNL     1       8.072  15.007 -19.715  1.00  0.00     0.118 A 
HETATM   15  C24 UNL     1       7.597  15.869 -21.611  1.00  0.00     0.193 A 
HETATM   16  C7  UNL     1       8.065  16.370 -19.575  1.00  0.00     0.110 A 
HETATM   17  N3  UNL     1       7.765  16.888 -20.774  1.00  0.00    -0.343 N 
BRANCH  17  18
HETATM   18  C8  UNL     1       7.661  18.322 -21.046  1.00  0.00     0.231 C 
BRANCH  18  19
HETATM   19  C9  UNL     1       7.859  18.458 -22.524  1.00  0.00     0.236 C 
HETATM   20  O2  UNL     1       6.970  18.872 -23.284  1.00  0.00    -0.272 OA
HETATM   21  N4  UNL     1       9.120  18.095 -23.046  1.00  0.00    -0.355 N 
ATOM     22  H4  UNL     1       9.856  17.754 -22.428  1.00  0.00     0.162 HD
BRANCH  21  23
HETATM   23  C10 UNL     1       9.352  18.213 -24.467  1.00  0.00     0.161 C 
BRANCH  23  24
HETATM   24  C11 UNL     1       9.250  16.851 -25.071  1.00  0.00    -0.041 A 
HETATM   25  C12 UNL     1       8.450  16.617 -26.180  1.00  0.00     0.009 A 
HETATM   26  C13 UNL     1       8.337  15.361 -26.756  1.00  0.00     0.009 A 
HETATM   27  C14 UNL     1       9.029  14.288 -26.236  1.00  0.00    -0.040 A 
HETATM   28  C22 UNL     1       9.830  14.518 -25.129  1.00  0.00     0.009 A 
HETATM   29  C23 UNL     1       9.938  15.773 -24.557  1.00  0.00     0.009 A 
BRANCH  27  30
HETATM   30  C15 UNL     1       8.957  12.927 -26.803  1.00  0.00     0.166 C 
BRANCH  30  31
HETATM   31  N5  UNL     1       8.176  12.025 -25.976  1.00  0.00    -0.361 N 
HETATM   32  C16 UNL     1       6.846  11.959 -25.986  1.00  0.00     0.090 A 
HETATM   33  C17 UNL     1       6.201  11.057 -25.155  1.00  0.00     0.018 A 
HETATM   34  C18 UNL     1       6.895  10.210 -24.301  1.00  0.00     0.017 A 
HETATM   35  C19 UNL     1       8.270  10.306 -24.318  1.00  0.00     0.015 A 
HETATM   36  C21 UNL     1       8.870  11.215 -25.159  1.00  0.00     0.105 A 
BRANCH  35  37
HETATM   37  C20 UNL     1       9.062   9.436 -23.436  1.00  0.00     0.124 C 
HETATM   38  N6  UNL     1       8.439   8.334 -22.807  1.00  0.00    -0.089 NA
HETATM   39  S1  UNL     1      10.635   9.717 -23.172  1.00  0.00    -0.063 SA
ENDBRANCH  35  37
ENDBRANCH  30  31
ENDBRANCH  27  30
ENDBRANCH  23  24
ENDBRANCH  21  23
ENDBRANCH  18  19
ENDBRANCH  17  18
ENDBRANCH   5  11
TORSDOF 9
ENDMDL
