MODEL 1
REMARK VINA RESULT: -8.317968607      0.000      0.000
REMARK  6 active torsions:
REMARK  status: ('A' for Active; 'I' for Inactive)
REMARK    1  A    between atoms: N1_6  and  C6_7 
REMARK    2  A    between atoms: C6_7  and  C7_8 
REMARK    3  A    between atoms: C7_8  and  N2_9 
REMARK    4  A    between atoms: N3_12  and  C10_13 
REMARK    5  A    between atoms: C10_13  and  C11_14 
REMARK    6  A    between atoms: C23_29  and  C25_32 
ROOT
HETATM    1  N2  UNL     1      34.043  36.455  24.300  1.00  0.00    -0.358 N 
HETATM    2  C8  UNL     1      34.906  35.417  24.650  1.00  0.00     0.080 C 
HETATM    3  C9  UNL     1      34.796  34.220  23.776  1.00  0.00     0.167 C 
HETATM    4  N3  UNL     1      34.721  34.545  22.381  1.00  0.00    -0.374 N 
HETATM    5  C15 UNL     1      35.021  35.727  21.655  1.00  0.00     0.022 C 
HETATM    6  C16 UNL     1      34.894  36.967  22.106  1.00  0.00     0.062 C 
HETATM    7  C17 UNL     1      35.244  38.029  21.177  1.00  0.00     0.162 C 
HETATM    8  O1  UNL     1      34.824  39.182  21.195  1.00  0.00    -0.292 OA
HETATM    9  C18 UNL     1      36.217  37.729  20.046  1.00  0.00     0.093 C 
HETATM   10  C19 UNL     1      35.624  36.517  19.345  1.00  0.00    -0.036 C 
HETATM   11  C20 UNL     1      36.619  36.115  18.280  1.00  0.00     0.015 C 
HETATM   12  C21 UNL     1      34.295  36.897  18.797  1.00  0.00     0.015 C 
HETATM   13  C22 UNL     1      35.570  35.416  20.365  1.00  0.00     0.066 C 
HETATM   14  C23 UNL     1      34.467  37.515  23.453  1.00  0.00     0.253 C 
HETATM   15  C24 UNL     1      33.400  38.490  23.268  1.00  0.00     0.106 C 
HETATM   16  N5  UNL     1      32.548  39.291  23.090  1.00  0.00    -0.194 NA
ENDROOT
BRANCH  14  17
HETATM   17  C25 UNL     1      35.651  38.186  24.092  1.00  0.00     0.431 C 
HETATM   18  F1  UNL     1      35.635  37.955  25.494  1.00  0.00    -0.167 F 
HETATM   19  F2  UNL     1      36.885  37.869  23.661  1.00  0.00    -0.167 F 
HETATM   20  F3  UNL     1      35.516  39.607  24.120  1.00  0.00    -0.167 F 
ENDBRANCH  14  17
BRANCH   1  21
HETATM   21  C7  UNL     1      32.666  36.057  24.266  1.00  0.00     0.154 C 
BRANCH  21  22
HETATM   22  C6  UNL     1      32.061  36.016  25.674  1.00  0.00     0.292 C 
BRANCH  22  23
HETATM   23  N1  UNL     1      32.820  36.830  26.544  1.00  0.00     0.094 N 
HETATM   24  C2  UNL     1      33.104  36.204  27.832  1.00  0.00     0.219 C 
HETATM   25  C1  UNL     1      31.911  35.899  28.659  1.00  0.00     0.043 C 
HETATM   26  C3  UNL     1      33.899  37.342  28.474  1.00  0.00     0.037 C 
HETATM   27  C4  UNL     1      33.079  38.536  28.034  1.00  0.00     0.032 C 
HETATM   28  C5  UNL     1      32.087  38.017  26.994  1.00  0.00     0.273 C 
ENDBRANCH  22  23
ENDBRANCH  21  22
ENDBRANCH   1  21
BRANCH   4  29
HETATM   29  C10 UNL     1      34.234  33.464  21.566  1.00  0.00     0.163 C 
BRANCH  29  30
HETATM   30  C11 UNL     1      32.879  32.979  21.936  1.00  0.00    -0.024 A 
HETATM   31  C12 UNL     1      32.622  31.659  22.343  1.00  0.00     0.027 A 
HETATM   32  C13 UNL     1      31.276  31.588  22.610  1.00  0.00     0.088 A 
HETATM   33  N4  UNL     1      30.689  32.776  22.395  1.00  0.00    -0.375 N 
HETATM   34  C14 UNL     1      31.670  33.622  21.985  1.00  0.00     0.096 A 
ATOM     35  H4  UNL     1      29.702  32.999  22.516  1.00  0.00     0.164 HD
ENDBRANCH  29  30
ENDBRANCH   4  29
TORSDOF 6
ENDMDL
MODEL 2
REMARK VINA RESULT: -8.265447824      0.996      1.584
REMARK  6 active torsions:
REMARK  status: ('A' for Active; 'I' for Inactive)
REMARK    1  A    between atoms: N1_6  and  C6_7 
REMARK    2  A    between atoms: C6_7  and  C7_8 
REMARK    3  A    between atoms: C7_8  and  N2_9 
REMARK    4  A    between atoms: N3_12  and  C10_13 
REMARK    5  A    between atoms: C10_13  and  C11_14 
REMARK    6  A    between atoms: C23_29  and  C25_32 
ROOT
HETATM    1  N2  UNL     1      34.296  36.717  24.201  1.00  0.00    -0.358 N 
HETATM    2  C8  UNL     1      35.235  35.766  24.597  1.00  0.00     0.080 C 
HETATM    3  C9  UNL     1      35.133  34.476  23.866  1.00  0.00     0.167 C 
HETATM    4  N3  UNL     1      34.948  34.640  22.454  1.00  0.00    -0.374 N 
HETATM    5  C15 UNL     1      35.135  35.749  21.585  1.00  0.00     0.022 C 
HETATM    6  C16 UNL     1      34.970  37.023  21.909  1.00  0.00     0.062 C 
HETATM    7  C17 UNL     1      35.200  37.991  20.850  1.00  0.00     0.162 C 
HETATM    8  O1  UNL     1      34.720  39.119  20.775  1.00  0.00    -0.292 OA
HETATM    9  C18 UNL     1      36.111  37.615  19.691  1.00  0.00     0.093 C 
HETATM   10  C19 UNL     1      35.540  36.306  19.167  1.00  0.00    -0.036 C 
HETATM   11  C20 UNL     1      36.482  35.837  18.082  1.00  0.00     0.015 C 
HETATM   12  C21 UNL     1      34.159  36.560  18.678  1.00  0.00     0.015 C 
HETATM   13  C22 UNL     1      35.614  35.323  20.300  1.00  0.00     0.066 C 
HETATM   14  C23 UNL     1      34.604  37.696  23.217  1.00  0.00     0.253 C 
HETATM   15  C24 UNL     1      33.476  38.593  23.006  1.00  0.00     0.106 C 
HETATM   16  N5  UNL     1      32.572  39.328  22.806  1.00  0.00    -0.194 NA
ENDROOT
BRANCH  14  17
HETATM   17  C25 UNL     1      35.789  38.488  23.694  1.00  0.00     0.431 C 
HETATM   18  F1  UNL     1      35.774  38.569  25.114  1.00  0.00    -0.167 F 
HETATM   19  F2  UNL     1      37.023  38.082  23.343  1.00  0.00    -0.167 F 
HETATM   20  F3  UNL     1      35.657  39.881  23.412  1.00  0.00    -0.167 F 
ENDBRANCH  14  17
BRANCH   1  21
HETATM   21  C7  UNL     1      32.943  36.253  24.309  1.00  0.00     0.154 C 
BRANCH  21  22
HETATM   22  C6  UNL     1      32.335  36.614  25.668  1.00  0.00     0.292 C 
BRANCH  22  23
HETATM   23  N1  UNL     1      31.651  35.498  26.198  1.00  0.00     0.094 N 
HETATM   24  C2  UNL     1      32.085  35.130  27.543  1.00  0.00     0.219 C 
HETATM   25  C1  UNL     1      33.501  34.702  27.651  1.00  0.00     0.043 C 
HETATM   26  C3  UNL     1      31.164  33.929  27.765  1.00  0.00     0.037 C 
HETATM   27  C4  UNL     1      31.244  33.265  26.407  1.00  0.00     0.032 C 
HETATM   28  C5  UNL     1      31.954  34.255  25.484  1.00  0.00     0.273 C 
ENDBRANCH  22  23
ENDBRANCH  21  22
ENDBRANCH   1  21
BRANCH   4  29
HETATM   29  C10 UNL     1      34.468  33.455  21.795  1.00  0.00     0.163 C 
BRANCH  29  30
HETATM   30  C11 UNL     1      33.036  33.150  22.050  1.00  0.00    -0.024 A 
HETATM   31  C12 UNL     1      32.603  31.966  22.670  1.00  0.00     0.027 A 
HETATM   32  C13 UNL     1      31.233  32.042  22.742  1.00  0.00     0.088 A 
HETATM   33  N4  UNL     1      30.796  33.193  22.209  1.00  0.00    -0.375 N 
HETATM   34  C14 UNL     1      31.898  33.866  21.788  1.00  0.00     0.096 A 
ATOM     35  H4  UNL     1      29.826  33.502  22.135  1.00  0.00     0.164 HD
ENDBRANCH  29  30
ENDBRANCH   4  29
TORSDOF 6
ENDMDL
MODEL 3
REMARK VINA RESULT: -8.122830415      2.018      3.877
REMARK  6 active torsions:
REMARK  status: ('A' for Active; 'I' for Inactive)
REMARK    1  A    between atoms: N1_6  and  C6_7 
REMARK    2  A    between atoms: C6_7  and  C7_8 
REMARK    3  A    between atoms: C7_8  and  N2_9 
REMARK    4  A    between atoms: N3_12  and  C10_13 
REMARK    5  A    between atoms: C10_13  and  C11_14 
REMARK    6  A    between atoms: C23_29  and  C25_32 
ROOT
HETATM    1  N2  UNL     1      33.720  35.741  25.116  1.00  0.00    -0.358 N 
HETATM    2  C8  UNL     1      34.970  35.149  24.949  1.00  0.00     0.080 C 
HETATM    3  C9  UNL     1      35.334  34.895  23.531  1.00  0.00     0.167 C 
HETATM    4  N3  UNL     1      35.029  35.995  22.664  1.00  0.00    -0.374 N 
HETATM    5  C15 UNL     1      34.731  37.361  22.917  1.00  0.00     0.022 C 
HETATM    6  C16 UNL     1      34.106  37.833  23.986  1.00  0.00     0.062 C 
HETATM    7  C17 UNL     1      33.893  39.270  24.025  1.00  0.00     0.162 C 
HETATM    8  O1  UNL     1      33.014  39.860  24.646  1.00  0.00    -0.292 OA
HETATM    9  C18 UNL     1      34.818  40.175  23.226  1.00  0.00     0.093 C 
HETATM   10  C19 UNL     1      34.767  39.619  21.811  1.00  0.00    -0.036 C 
HETATM   11  C20 UNL     1      35.760  40.423  21.004  1.00  0.00     0.015 C 
HETATM   12  C21 UNL     1      33.371  39.736  21.312  1.00  0.00     0.015 C 
HETATM   13  C22 UNL     1      35.270  38.206  21.888  1.00  0.00     0.066 C 
HETATM   14  C23 UNL     1      33.578  37.151  25.233  1.00  0.00     0.253 C 
HETATM   15  C24 UNL     1      32.183  37.517  25.435  1.00  0.00     0.106 C 
HETATM   16  N5  UNL     1      31.056  37.844  25.588  1.00  0.00    -0.194 NA
ENDROOT
BRANCH  14  17
HETATM   17  C25 UNL     1      34.391  37.611  26.410  1.00  0.00     0.431 C 
HETATM   18  F1  UNL     1      34.383  36.611  27.421  1.00  0.00    -0.167 F 
HETATM   19  F2  UNL     1      35.677  37.954  26.215  1.00  0.00    -0.167 F 
HETATM   20  F3  UNL     1      33.738  38.646  27.145  1.00  0.00    -0.167 F 
ENDBRANCH  14  17
BRANCH   1  21
HETATM   21  C7  UNL     1      32.655  34.991  24.514  1.00  0.00     0.154 C 
BRANCH  21  22
HETATM   22  C6  UNL     1      32.129  33.909  25.462  1.00  0.00     0.292 C 
BRANCH  22  23
HETATM   23  N1  UNL     1      31.416  32.934  24.728  1.00  0.00     0.094 N 
HETATM   24  C2  UNL     1      30.450  32.188  25.529  1.00  0.00     0.219 C 
HETATM   25  C1  UNL     1      31.036  31.378  26.625  1.00  0.00     0.043 C 
HETATM   26  C3  UNL     1      29.907  31.264  24.438  1.00  0.00     0.037 C 
HETATM   27  C4  UNL     1      31.188  30.905  23.716  1.00  0.00     0.032 C 
HETATM   28  C5  UNL     1      32.268  31.835  24.267  1.00  0.00     0.273 C 
ENDBRANCH  22  23
ENDBRANCH  21  22
ENDBRANCH   1  21
BRANCH   4  29
HETATM   29  C10 UNL     1      35.007  35.640  21.270  1.00  0.00     0.163 C 
BRANCH  29  30
HETATM   30  C11 UNL     1      34.465  34.285  20.991  1.00  0.00    -0.024 A 
HETATM   31  C12 UNL     1      35.235  33.251  20.432  1.00  0.00     0.027 A 
HETATM   32  C13 UNL     1      34.408  32.158  20.333  1.00  0.00     0.088 A 
HETATM   33  N4  UNL     1      33.182  32.451  20.795  1.00  0.00    -0.375 N 
HETATM   34  C14 UNL     1      33.221  33.748  21.196  1.00  0.00     0.096 A 
ATOM     35  H4  UNL     1      32.380  31.823  20.837  1.00  0.00     0.164 HD
ENDBRANCH  29  30
ENDBRANCH   4  29
TORSDOF 6
ENDMDL
MODEL 4
REMARK VINA RESULT: -7.934848205      2.077      3.154
REMARK  6 active torsions:
REMARK  status: ('A' for Active; 'I' for Inactive)
REMARK    1  A    between atoms: N1_6  and  C6_7 
REMARK    2  A    between atoms: C6_7  and  C7_8 
REMARK    3  A    between atoms: C7_8  and  N2_9 
REMARK    4  A    between atoms: N3_12  and  C10_13 
REMARK    5  A    between atoms: C10_13  and  C11_14 
REMARK    6  A    between atoms: C23_29  and  C25_32 
ROOT
HETATM    1  N2  UNL     1      33.740  35.747  25.102  1.00  0.00    -0.358 N 
HETATM    2  C8  UNL     1      35.007  35.188  24.943  1.00  0.00     0.080 C 
HETATM    3  C9  UNL     1      35.375  34.917  23.529  1.00  0.00     0.167 C 
HETATM    4  N3  UNL     1      35.036  35.992  22.642  1.00  0.00    -0.374 N 
HETATM    5  C15 UNL     1      34.701  37.353  22.870  1.00  0.00     0.022 C 
HETATM    6  C16 UNL     1      34.065  37.828  23.932  1.00  0.00     0.062 C 
HETATM    7  C17 UNL     1      33.812  39.259  23.944  1.00  0.00     0.162 C 
HETATM    8  O1  UNL     1      32.917  39.836  24.556  1.00  0.00    -0.292 OA
HETATM    9  C18 UNL     1      34.708  40.174  23.125  1.00  0.00     0.093 C 
HETATM   10  C19 UNL     1      34.671  39.590  21.722  1.00  0.00    -0.036 C 
HETATM   11  C20 UNL     1      35.639  40.406  20.897  1.00  0.00     0.015 C 
HETATM   12  C21 UNL     1      33.271  39.658  21.225  1.00  0.00     0.015 C 
HETATM   13  C22 UNL     1      35.214  38.194  21.824  1.00  0.00     0.066 C 
HETATM   14  C23 UNL     1      33.559  37.154  25.192  1.00  0.00     0.253 C 
HETATM   15  C24 UNL     1      32.154  37.485  25.392  1.00  0.00     0.106 C 
HETATM   16  N5  UNL     1      31.020  37.783  25.541  1.00  0.00    -0.194 NA
ENDROOT
BRANCH  14  17
HETATM   17  C25 UNL     1      34.361  37.660  26.358  1.00  0.00     0.431 C 
HETATM   18  F1  UNL     1      34.395  36.675  27.382  1.00  0.00    -0.167 F 
HETATM   19  F2  UNL     1      35.633  38.046  26.151  1.00  0.00    -0.167 F 
HETATM   20  F3  UNL     1      33.675  38.681  27.084  1.00  0.00    -0.167 F 
ENDBRANCH  14  17
BRANCH   1  21
HETATM   21  C7  UNL     1      32.696  34.956  24.517  1.00  0.00     0.154 C 
BRANCH  21  22
HETATM   22  C6  UNL     1      32.448  33.676  25.321  1.00  0.00     0.292 C 
BRANCH  22  23
HETATM   23  N1  UNL     1      32.001  34.006  26.621  1.00  0.00     0.094 N 
HETATM   24  C2  UNL     1      32.949  33.655  27.673  1.00  0.00     0.219 C 
HETATM   25  C1  UNL     1      33.232  32.205  27.805  1.00  0.00     0.043 C 
HETATM   26  C3  UNL     1      32.145  34.136  28.882  1.00  0.00     0.037 C 
HETATM   27  C4  UNL     1      30.760  33.658  28.501  1.00  0.00     0.032 C 
HETATM   28  C5  UNL     1      30.846  33.209  27.042  1.00  0.00     0.273 C 
ENDBRANCH  22  23
ENDBRANCH  21  22
ENDBRANCH   1  21
BRANCH   4  29
HETATM   29  C10 UNL     1      35.022  35.610  21.255  1.00  0.00     0.163 C 
BRANCH  29  30
HETATM   30  C11 UNL     1      34.507  34.239  21.003  1.00  0.00    -0.024 A 
HETATM   31  C12 UNL     1      35.299  33.209  20.466  1.00  0.00     0.027 A 
HETATM   32  C13 UNL     1      34.493  32.099  20.387  1.00  0.00     0.088 A 
HETATM   33  N4  UNL     1      33.261  32.377  20.841  1.00  0.00    -0.375 N 
HETATM   34  C14 UNL     1      33.273  33.682  21.215  1.00  0.00     0.096 A 
ATOM     35  H4  UNL     1      32.471  31.734  20.893  1.00  0.00     0.164 HD
ENDBRANCH  29  30
ENDBRANCH   4  29
TORSDOF 6
ENDMDL
MODEL 5
REMARK VINA RESULT: -7.885584556      1.335      1.752
REMARK  6 active torsions:
REMARK  status: ('A' for Active; 'I' for Inactive)
REMARK    1  A    between atoms: N1_6  and  C6_7 
REMARK    2  A    between atoms: C6_7  and  C7_8 
REMARK    3  A    between atoms: C7_8  and  N2_9 
REMARK    4  A    between atoms: N3_12  and  C10_13 
REMARK    5  A    between atoms: C10_13  and  C11_14 
REMARK    6  A    between atoms: C23_29  and  C25_32 
ROOT
HETATM    1  N2  UNL     1      33.910  36.115  23.942  1.00  0.00    -0.358 N 
HETATM    2  C8  UNL     1      34.622  34.937  24.161  1.00  0.00     0.080 C 
HETATM    3  C9  UNL     1      34.388  33.890  23.132  1.00  0.00     0.167 C 
HETATM    4  N3  UNL     1      34.398  34.402  21.793  1.00  0.00    -0.374 N 
HETATM    5  C15 UNL     1      34.869  35.621  21.236  1.00  0.00     0.022 C 
HETATM    6  C16 UNL     1      34.886  36.796  21.848  1.00  0.00     0.062 C 
HETATM    7  C17 UNL     1      35.398  37.916  21.075  1.00  0.00     0.162 C 
HETATM    8  O1  UNL     1      35.129  39.102  21.243  1.00  0.00    -0.292 OA
HETATM    9  C18 UNL     1      36.359  37.644  19.928  1.00  0.00     0.093 C 
HETATM   10  C19 UNL     1      35.639  36.622  19.062  1.00  0.00    -0.036 C 
HETATM   11  C20 UNL     1      36.606  36.238  17.966  1.00  0.00     0.015 C 
HETATM   12  C21 UNL     1      34.387  37.241  18.551  1.00  0.00     0.015 C 
HETATM   13  C22 UNL     1      35.414  35.413  19.923  1.00  0.00     0.066 C 
HETATM   14  C23 UNL     1      34.492  37.213  23.251  1.00  0.00     0.253 C 
HETATM   15  C24 UNL     1      33.564  38.334  23.184  1.00  0.00     0.106 C 
HETATM   16  N5  UNL     1      32.827  39.256  23.104  1.00  0.00    -0.194 NA
ENDROOT
BRANCH  14  17
HETATM   17  C25 UNL     1      35.731  37.634  23.990  1.00  0.00     0.431 C 
HETATM   18  F1  UNL     1      35.620  37.270  25.360  1.00  0.00    -0.167 F 
HETATM   19  F2  UNL     1      36.924  37.181  23.565  1.00  0.00    -0.167 F 
HETATM   20  F3  UNL     1      35.802  39.049  24.163  1.00  0.00    -0.167 F 
ENDBRANCH  14  17
BRANCH   1  21
HETATM   21  C7  UNL     1      32.494  35.909  23.836  1.00  0.00     0.154 C 
BRANCH  21  22
HETATM   22  C6  UNL     1      31.837  35.826  25.217  1.00  0.00     0.292 C 
BRANCH  22  23
HETATM   23  N1  UNL     1      32.523  36.663  26.125  1.00  0.00     0.094 N 
HETATM   24  C2  UNL     1      32.960  35.978  27.338  1.00  0.00     0.219 C 
HETATM   25  C1  UNL     1      31.867  35.440  28.183  1.00  0.00     0.043 C 
HETATM   26  C3  UNL     1      33.626  37.159  28.045  1.00  0.00     0.037 C 
HETATM   27  C4  UNL     1      32.628  38.258  27.750  1.00  0.00     0.032 C 
HETATM   28  C5  UNL     1      31.660  37.693  26.710  1.00  0.00     0.273 C 
ENDBRANCH  22  23
ENDBRANCH  21  22
ENDBRANCH   1  21
BRANCH   4  29
HETATM   29  C10 UNL     1      33.802  33.511  20.832  1.00  0.00     0.163 C 
BRANCH  29  30
HETATM   30  C11 UNL     1      34.563  32.254  20.609  1.00  0.00    -0.024 A 
HETATM   31  C12 UNL     1      35.837  32.022  21.154  1.00  0.00     0.027 A 
HETATM   32  C13 UNL     1      36.214  30.766  20.744  1.00  0.00     0.088 A 
HETATM   33  N4  UNL     1      35.256  30.210  19.985  1.00  0.00    -0.375 N 
HETATM   34  C14 UNL     1      34.251  31.121  19.905  1.00  0.00     0.096 A 
ATOM     35  H4  UNL     1      35.279  29.286  19.554  1.00  0.00     0.164 HD
ENDBRANCH  29  30
ENDBRANCH   4  29
TORSDOF 6
ENDMDL
