MODEL 1
REMARK VINA RESULT: -9.457858713      0.000      0.000
REMARK  6 active torsions:
REMARK  status: ('A' for Active; 'I' for Inactive)
REMARK    1  A    between atoms: N2_5  and  C4_6 
REMARK    2  A    between atoms: C4_6  and  C5_7 
REMARK    3  A    between atoms: C5_7  and  N3_8 
REMARK    4  A    between atoms: C11_14  and  C12_15 
REMARK    5  A    between atoms: C11_14  and  C20_30 
REMARK    6  A    between atoms: C15_20  and  C16_21 
ROOT
HETATM    1  N3  UNL     1      33.218  36.782  24.897  1.00  0.00     0.099 N 
HETATM    2  C6  UNL     1      34.156  37.507  25.724  1.00  0.00     0.223 C 
HETATM    3  C7  UNL     1      33.518  38.898  25.854  1.00  0.00     0.038 C 
HETATM    4  C8  UNL     1      32.512  38.926  24.745  1.00  0.00     0.038 C 
HETATM    5  C9  UNL     1      32.730  37.677  23.925  1.00  0.00     0.224 C 
HETATM    6  C10 UNL     1      33.482  37.797  22.689  1.00  0.00     0.053 C 
HETATM    7  C11 UNL     1      34.947  37.852  22.692  1.00  0.00     0.024 C 
HETATM    8  C23 UNL     1      35.548  36.975  23.787  1.00  0.00     0.020 C 
HETATM    9  C24 UNL     1      35.526  37.655  25.150  1.00  0.00     0.037 C 
ENDROOT
BRANCH   7  10
HETATM   10  C12 UNL     1      35.513  37.381  21.405  1.00  0.00     0.091 A 
HETATM   11  N4  UNL     1      34.779  37.132  20.278  1.00  0.00    -0.343 N 
HETATM   12  C13 UNL     1      35.615  36.849  19.248  1.00  0.00     0.061 A 
ATOM     13  H4  UNL     1      33.760  37.155  20.221  1.00  0.00     0.167 HD
HETATM   14  C14 UNL     1      35.410  36.574  17.892  1.00  0.00     0.048 A 
HETATM   15  C19 UNL     1      36.882  36.925  19.751  1.00  0.00     0.060 A 
HETATM   16  C15 UNL     1      36.465  36.371  17.037  1.00  0.00     0.050 A 
HETATM   17  C17 UNL     1      37.748  36.436  17.542  1.00  0.00     0.018 A 
HETATM   18  C18 UNL     1      37.924  36.713  18.900  1.00  0.00     0.032 A 
HETATM   19  N5  UNL     1      36.811  37.236  21.041  1.00  0.00    -0.343 N 
ATOM     20  H5  UNL     1      37.611  37.349  21.664  1.00  0.00     0.167 HD
BRANCH  16  21
HETATM   21  C16 UNL     1      36.186  36.089  15.584  1.00  0.00     0.417 C 
HETATM   22  F1  UNL     1      34.839  36.031  15.386  1.00  0.00    -0.166 F 
HETATM   23  F2  UNL     1      36.685  37.169  14.859  1.00  0.00    -0.166 F 
HETATM   24  F3  UNL     1      36.834  34.918  15.237  1.00  0.00    -0.166 F 
ENDBRANCH  16  21
ENDBRANCH   7  10
BRANCH   7  25
HETATM   25  C20 UNL     1      35.510  39.240  22.909  1.00  0.00     0.002 A 
HETATM   26  C21 UNL     1      34.793  40.518  22.914  1.00  0.00     0.006 A 
HETATM   27  C22 UNL     1      35.165  40.079  21.605  1.00  0.00     0.006 A 
ENDBRANCH   7  25
BRANCH   1  28
HETATM   28  C5  UNL     1      32.138  36.318  25.718  1.00  0.00     0.292 C 
BRANCH  28  29
HETATM   29  C4  UNL     1      31.065  35.524  25.030  1.00  0.00     0.147 C 
BRANCH  29  30
HETATM   30  N2  UNL     1      31.534  34.182  24.962  1.00  0.00    -0.407 N 
HETATM   31  C3  UNL     1      31.760  33.586  23.708  1.00  0.00     0.147 C 
HETATM   32  C2  UNL     1      32.125  32.112  23.894  1.00  0.00     0.291 C 
HETATM   33  N1  UNL     1      31.124  31.367  24.602  1.00  0.00     0.087 N 
HETATM   34  C1  UNL     1      31.657  30.288  25.400  1.00  0.00     0.310 C 
HETATM   35  C26 UNL     1      30.202  32.181  25.363  1.00  0.00     0.291 C 
HETATM   36  C25 UNL     1      30.939  33.332  25.979  1.00  0.00     0.147 C 
ENDBRANCH  29  30
ENDBRANCH  28  29
ENDBRANCH   1  28
TORSDOF 6
ENDMDL
MODEL 2
REMARK VINA RESULT: -9.394824459      0.868      1.270
REMARK  6 active torsions:
REMARK  status: ('A' for Active; 'I' for Inactive)
REMARK    1  A    between atoms: N2_5  and  C4_6 
REMARK    2  A    between atoms: C4_6  and  C5_7 
REMARK    3  A    between atoms: C5_7  and  N3_8 
REMARK    4  A    between atoms: C11_14  and  C12_15 
REMARK    5  A    between atoms: C11_14  and  C20_30 
REMARK    6  A    between atoms: C15_20  and  C16_21 
ROOT
HETATM    1  N3  UNL     1      34.047  36.676  25.268  1.00  0.00     0.099 N 
HETATM    2  C6  UNL     1      34.606  37.899  25.797  1.00  0.00     0.223 C 
HETATM    3  C7  UNL     1      33.408  38.860  25.817  1.00  0.00     0.038 C 
HETATM    4  C8  UNL     1      32.416  38.202  24.910  1.00  0.00     0.038 C 
HETATM    5  C9  UNL     1      33.120  37.030  24.268  1.00  0.00     0.224 C 
HETATM    6  C10 UNL     1      33.624  37.196  22.917  1.00  0.00     0.053 C 
HETATM    7  C11 UNL     1      34.891  37.887  22.657  1.00  0.00     0.024 C 
HETATM    8  C23 UNL     1      35.919  37.624  23.754  1.00  0.00     0.020 C 
HETATM    9  C24 UNL     1      35.697  38.504  24.977  1.00  0.00     0.037 C 
ENDROOT
BRANCH   7  10
HETATM   10  C12 UNL     1      35.501  37.444  21.380  1.00  0.00     0.091 A 
HETATM   11  N4  UNL     1      34.796  37.066  20.272  1.00  0.00    -0.343 N 
HETATM   12  C13 UNL     1      35.653  36.852  19.242  1.00  0.00     0.061 A 
ATOM     13  H4  UNL     1      33.782  36.960  20.226  1.00  0.00     0.167 HD
HETATM   14  C14 UNL     1      35.474  36.505  17.899  1.00  0.00     0.048 A 
HETATM   15  C19 UNL     1      36.905  37.103  19.728  1.00  0.00     0.060 A 
HETATM   16  C15 UNL     1      36.540  36.404  17.040  1.00  0.00     0.050 A 
HETATM   17  C17 UNL     1      37.808  36.647  17.526  1.00  0.00     0.018 A 
HETATM   18  C18 UNL     1      37.959  36.993  18.872  1.00  0.00     0.032 A 
HETATM   19  N5  UNL     1      36.805  37.449  21.007  1.00  0.00    -0.343 N 
ATOM     20  H5  UNL     1      37.589  37.683  21.616  1.00  0.00     0.167 HD
BRANCH  16  21
HETATM   21  C16 UNL     1      36.288  36.038  15.600  1.00  0.00     0.417 C 
HETATM   22  F1  UNL     1      34.945  36.014  15.369  1.00  0.00    -0.166 F 
HETATM   23  F2  UNL     1      36.843  37.051  14.821  1.00  0.00    -0.166 F 
HETATM   24  F3  UNL     1      36.902  34.825  15.347  1.00  0.00    -0.166 F 
ENDBRANCH  16  21
ENDBRANCH   7  10
BRANCH   7  25
HETATM   25  C20 UNL     1      34.760  39.391  22.554  1.00  0.00     0.002 A 
HETATM   26  C21 UNL     1      33.536  40.190  22.448  1.00  0.00     0.006 A 
HETATM   27  C22 UNL     1      34.001  39.689  21.191  1.00  0.00     0.006 A 
ENDBRANCH   7  25
BRANCH   1  28
HETATM   28  C5  UNL     1      33.379  35.976  26.326  1.00  0.00     0.292 C 
BRANCH  28  29
HETATM   29  C4  UNL     1      33.541  34.483  26.351  1.00  0.00     0.147 C 
BRANCH  29  30
HETATM   30  N2  UNL     1      32.346  33.936  25.805  1.00  0.00    -0.407 N 
HETATM   31  C3  UNL     1      31.372  33.395  26.664  1.00  0.00     0.147 C 
HETATM   32  C2  UNL     1      30.254  32.752  25.840  1.00  0.00     0.291 C 
HETATM   33  N1  UNL     1      30.726  31.731  24.948  1.00  0.00     0.087 N 
HETATM   34  C1  UNL     1      29.956  31.621  23.732  1.00  0.00     0.310 C 
HETATM   35  C26 UNL     1      32.144  31.788  24.673  1.00  0.00     0.291 C 
HETATM   36  C25 UNL     1      32.578  33.219  24.564  1.00  0.00     0.147 C 
ENDBRANCH  29  30
ENDBRANCH  28  29
ENDBRANCH   1  28
TORSDOF 6
ENDMDL
MODEL 3
REMARK VINA RESULT: -9.290097049      1.207      1.469
REMARK  6 active torsions:
REMARK  status: ('A' for Active; 'I' for Inactive)
REMARK    1  A    between atoms: N2_5  and  C4_6 
REMARK    2  A    between atoms: C4_6  and  C5_7 
REMARK    3  A    between atoms: C5_7  and  N3_8 
REMARK    4  A    between atoms: C11_14  and  C12_15 
REMARK    5  A    between atoms: C11_14  and  C20_30 
REMARK    6  A    between atoms: C15_20  and  C16_21 
ROOT
HETATM    1  N3  UNL     1      33.877  36.591  25.239  1.00  0.00     0.099 N 
HETATM    2  C6  UNL     1      34.489  37.764  25.819  1.00  0.00     0.223 C 
HETATM    3  C7  UNL     1      33.345  38.789  25.843  1.00  0.00     0.038 C 
HETATM    4  C8  UNL     1      32.341  38.214  24.893  1.00  0.00     0.038 C 
HETATM    5  C9  UNL     1      32.995  37.026  24.230  1.00  0.00     0.224 C 
HETATM    6  C10 UNL     1      33.540  37.205  22.897  1.00  0.00     0.053 C 
HETATM    7  C11 UNL     1      34.848  37.833  22.688  1.00  0.00     0.024 C 
HETATM    8  C23 UNL     1      35.834  37.480  23.798  1.00  0.00     0.020 C 
HETATM    9  C24 UNL     1      35.631  38.333  25.044  1.00  0.00     0.037 C 
ENDROOT
BRANCH   7  10
HETATM   10  C12 UNL     1      35.464  37.397  21.411  1.00  0.00     0.091 A 
HETATM   11  N4  UNL     1      34.764  37.039  20.293  1.00  0.00    -0.343 N 
HETATM   12  C13 UNL     1      35.627  36.827  19.268  1.00  0.00     0.061 A 
ATOM     13  H4  UNL     1      33.749  36.946  20.237  1.00  0.00     0.167 HD
HETATM   14  C14 UNL     1      35.455  36.496  17.920  1.00  0.00     0.048 A 
HETATM   15  C19 UNL     1      36.877  37.057  19.767  1.00  0.00     0.060 A 
HETATM   16  C15 UNL     1      36.527  36.392  17.068  1.00  0.00     0.050 A 
HETATM   17  C17 UNL     1      37.794  36.614  17.568  1.00  0.00     0.018 A 
HETATM   18  C18 UNL     1      37.937  36.943  18.919  1.00  0.00     0.032 A 
HETATM   19  N5  UNL     1      36.771  37.390  21.049  1.00  0.00    -0.343 N 
ATOM     20  H5  UNL     1      37.553  37.608  21.667  1.00  0.00     0.167 HD
BRANCH  16  21
HETATM   21  C16 UNL     1      36.283  36.044  15.623  1.00  0.00     0.417 C 
HETATM   22  F1  UNL     1      34.941  36.037  15.381  1.00  0.00    -0.166 F 
HETATM   23  F2  UNL     1      36.855  37.060  14.860  1.00  0.00    -0.166 F 
HETATM   24  F3  UNL     1      36.886  34.828  15.361  1.00  0.00    -0.166 F 
ENDBRANCH  16  21
ENDBRANCH   7  10
BRANCH   7  25
HETATM   25  C20 UNL     1      34.803  39.344  22.630  1.00  0.00     0.002 A 
HETATM   26  C21 UNL     1      33.624  40.215  22.575  1.00  0.00     0.006 A 
HETATM   27  C22 UNL     1      34.033  39.726  21.294  1.00  0.00     0.006 A 
ENDBRANCH   7  25
BRANCH   1  28
HETATM   28  C5  UNL     1      33.146  35.896  26.258  1.00  0.00     0.292 C 
BRANCH  28  29
HETATM   29  C4  UNL     1      33.625  34.516  26.606  1.00  0.00     0.147 C 
BRANCH  29  30
HETATM   30  N2  UNL     1      32.490  33.661  26.523  1.00  0.00    -0.407 N 
HETATM   31  C3  UNL     1      31.378  34.052  25.756  1.00  0.00     0.147 C 
HETATM   32  C2  UNL     1      30.244  33.039  25.934  1.00  0.00     0.291 C 
HETATM   33  N1  UNL     1      29.845  32.873  27.302  1.00  0.00     0.087 N 
HETATM   34  C1  UNL     1      29.375  31.544  27.614  1.00  0.00     0.310 C 
HETATM   35  C26 UNL     1      30.821  33.328  28.268  1.00  0.00     0.291 C 
HETATM   36  C25 UNL     1      32.201  32.996  27.782  1.00  0.00     0.147 C 
ENDBRANCH  29  30
ENDBRANCH  28  29
ENDBRANCH   1  28
TORSDOF 6
ENDMDL
MODEL 4
REMARK VINA RESULT: -9.216740059      1.393      2.161
REMARK  6 active torsions:
REMARK  status: ('A' for Active; 'I' for Inactive)
REMARK    1  A    between atoms: N2_5  and  C4_6 
REMARK    2  A    between atoms: C4_6  and  C5_7 
REMARK    3  A    between atoms: C5_7  and  N3_8 
REMARK    4  A    between atoms: C11_14  and  C12_15 
REMARK    5  A    between atoms: C11_14  and  C20_30 
REMARK    6  A    between atoms: C15_20  and  C16_21 
ROOT
HETATM    1  N3  UNL     1      32.976  35.305  24.757  1.00  0.00     0.099 N 
HETATM    2  C6  UNL     1      34.144  35.192  25.602  1.00  0.00     0.223 C 
HETATM    3  C7  UNL     1      34.045  36.425  26.514  1.00  0.00     0.038 C 
HETATM    4  C8  UNL     1      33.068  37.309  25.803  1.00  0.00     0.038 C 
HETATM    5  C9  UNL     1      32.795  36.671  24.462  1.00  0.00     0.224 C 
HETATM    6  C10 UNL     1      33.488  37.201  23.302  1.00  0.00     0.053 C 
HETATM    7  C11 UNL     1      34.876  36.831  23.010  1.00  0.00     0.024 C 
HETATM    8  C23 UNL     1      35.174  35.384  23.394  1.00  0.00     0.020 C 
HETATM    9  C24 UNL     1      35.452  35.226  24.883  1.00  0.00     0.037 C 
ENDROOT
BRANCH   7  10
HETATM   10  C12 UNL     1      35.184  36.965  21.566  1.00  0.00     0.091 A 
HETATM   11  N4  UNL     1      36.380  36.633  20.991  1.00  0.00    -0.343 N 
HETATM   12  C13 UNL     1      36.280  36.748  19.643  1.00  0.00     0.061 A 
ATOM     13  H4  UNL     1      37.217  36.344  21.498  1.00  0.00     0.167 HD
HETATM   14  C14 UNL     1      37.164  36.493  18.590  1.00  0.00     0.048 A 
HETATM   15  C19 UNL     1      35.003  37.158  19.387  1.00  0.00     0.060 A 
HETATM   16  C15 UNL     1      36.778  36.648  17.281  1.00  0.00     0.050 A 
HETATM   17  C17 UNL     1      35.492  37.071  17.015  1.00  0.00     0.018 A 
HETATM   18  C18 UNL     1      34.630  37.319  18.087  1.00  0.00     0.032 A 
HETATM   19  N5  UNL     1      34.358  37.292  20.541  1.00  0.00    -0.343 N 
ATOM     20  H5  UNL     1      33.389  37.594  20.641  1.00  0.00     0.167 HD
BRANCH  16  21
HETATM   21  C16 UNL     1      37.768  36.347  16.186  1.00  0.00     0.417 C 
HETATM   22  F1  UNL     1      37.550  35.088  15.713  1.00  0.00    -0.166 F 
HETATM   23  F2  UNL     1      37.516  37.248  15.153  1.00  0.00    -0.166 F 
HETATM   24  F3  UNL     1      39.043  36.520  16.693  1.00  0.00    -0.166 F 
ENDBRANCH  16  21
ENDBRANCH   7  10
BRANCH   7  25
HETATM   25  C20 UNL     1      35.902  37.677  23.732  1.00  0.00     0.002 A 
HETATM   26  C21 UNL     1      35.678  38.867  24.558  1.00  0.00     0.006 A 
HETATM   27  C22 UNL     1      35.761  39.152  23.159  1.00  0.00     0.006 A 
ENDBRANCH   7  25
BRANCH   1  28
HETATM   28  C5  UNL     1      31.838  34.806  25.472  1.00  0.00     0.292 C 
BRANCH  28  29
HETATM   29  C4  UNL     1      31.992  33.466  26.132  1.00  0.00     0.147 C 
BRANCH  29  30
HETATM   30  N2  UNL     1      31.001  32.617  25.564  1.00  0.00    -0.407 N 
HETATM   31  C3  UNL     1      30.619  31.444  26.239  1.00  0.00     0.147 C 
HETATM   32  C2  UNL     1      29.650  30.639  25.370  1.00  0.00     0.291 C 
HETATM   33  N1  UNL     1      30.194  30.296  24.087  1.00  0.00     0.087 N 
HETATM   34  C1  UNL     1      29.205  30.216  23.039  1.00  0.00     0.310 C 
HETATM   35  C26 UNL     1      31.327  31.100  23.685  1.00  0.00     0.291 C 
HETATM   36  C25 UNL     1      31.114  32.519  24.119  1.00  0.00     0.147 C 
ENDBRANCH  29  30
ENDBRANCH  28  29
ENDBRANCH   1  28
TORSDOF 6
ENDMDL
MODEL 5
REMARK VINA RESULT: -9.209587572      1.471      1.927
REMARK  6 active torsions:
REMARK  status: ('A' for Active; 'I' for Inactive)
REMARK    1  A    between atoms: N2_5  and  C4_6 
REMARK    2  A    between atoms: C4_6  and  C5_7 
REMARK    3  A    between atoms: C5_7  and  N3_8 
REMARK    4  A    between atoms: C11_14  and  C12_15 
REMARK    5  A    between atoms: C11_14  and  C20_30 
REMARK    6  A    between atoms: C15_20  and  C16_21 
ROOT
HETATM    1  N3  UNL     1      33.162  36.575  24.821  1.00  0.00     0.099 N 
HETATM    2  C6  UNL     1      34.072  37.260  25.709  1.00  0.00     0.223 C 
HETATM    3  C7  UNL     1      33.424  38.641  25.890  1.00  0.00     0.038 C 
HETATM    4  C8  UNL     1      32.449  38.721  24.757  1.00  0.00     0.038 C 
HETATM    5  C9  UNL     1      32.696  37.516  23.881  1.00  0.00     0.224 C 
HETATM    6  C10 UNL     1      33.481  37.701  22.674  1.00  0.00     0.053 C 
HETATM    7  C11 UNL     1      34.945  37.760  22.722  1.00  0.00     0.024 C 
HETATM    8  C23 UNL     1      35.520  36.831  23.788  1.00  0.00     0.020 C 
HETATM    9  C24 UNL     1      35.457  37.442  25.181  1.00  0.00     0.037 C 
ENDROOT
BRANCH   7  10
HETATM   10  C12 UNL     1      35.549  37.356  21.429  1.00  0.00     0.091 A 
HETATM   11  N4  UNL     1      34.839  37.075  20.294  1.00  0.00    -0.343 N 
HETATM   12  C13 UNL     1      35.697  36.874  19.262  1.00  0.00     0.061 A 
ATOM     13  H4  UNL     1      33.822  37.024  20.232  1.00  0.00     0.167 HD
HETATM   14  C14 UNL     1      35.518  36.609  17.901  1.00  0.00     0.048 A 
HETATM   15  C19 UNL     1      36.954  37.033  19.774  1.00  0.00     0.060 A 
HETATM   16  C15 UNL     1      36.588  36.500  17.048  1.00  0.00     0.050 A 
HETATM   17  C17 UNL     1      37.861  36.651  17.560  1.00  0.00     0.018 A 
HETATM   18  C18 UNL     1      38.011  36.915  18.924  1.00  0.00     0.032 A 
HETATM   19  N5  UNL     1      36.855  37.314  21.069  1.00  0.00    -0.343 N 
ATOM     20  H5  UNL     1      37.643  37.474  21.697  1.00  0.00     0.167 HD
BRANCH  16  21
HETATM   21  C16 UNL     1      36.336  36.226  15.589  1.00  0.00     0.417 C 
HETATM   22  F1  UNL     1      36.863  37.236  14.841  1.00  0.00    -0.166 F 
HETATM   23  F2  UNL     1      37.018  35.053  15.273  1.00  0.00    -0.166 F 
HETATM   24  F3  UNL     1      34.974  36.072  15.405  1.00  0.00    -0.166 F 
ENDBRANCH  16  21
ENDBRANCH   7  10
BRANCH   7  25
HETATM   25  C20 UNL     1      35.495  39.137  23.023  1.00  0.00     0.002 A 
HETATM   26  C21 UNL     1      34.768  40.408  23.096  1.00  0.00     0.006 A 
HETATM   27  C22 UNL     1      35.154  40.048  21.767  1.00  0.00     0.006 A 
ENDBRANCH   7  25
BRANCH   1  28
HETATM   28  C5  UNL     1      32.061  36.066  25.587  1.00  0.00     0.292 C 
BRANCH  28  29
HETATM   29  C4  UNL     1      31.633  34.657  25.294  1.00  0.00     0.147 C 
BRANCH  29  30
HETATM   30  N2  UNL     1      32.012  33.875  26.420  1.00  0.00    -0.407 N 
HETATM   31  C3  UNL     1      32.242  34.503  27.658  1.00  0.00     0.147 C 
HETATM   32  C2  UNL     1      32.766  33.479  28.668  1.00  0.00     0.291 C 
HETATM   33  N1  UNL     1      33.967  32.823  28.236  1.00  0.00     0.087 N 
HETATM   34  C1  UNL     1      34.092  31.466  28.710  1.00  0.00     0.310 C 
HETATM   35  C26 UNL     1      34.216  32.912  26.814  1.00  0.00     0.291 C 
HETATM   36  C25 UNL     1      32.919  32.797  26.069  1.00  0.00     0.147 C 
ENDBRANCH  29  30
ENDBRANCH  28  29
ENDBRANCH   1  28
TORSDOF 6
ENDMDL
