MODEL 1
REMARK VINA RESULT: -6.586313383      0.000      0.000
REMARK  4 active torsions:
REMARK  status: ('A' for Active; 'I' for Inactive)
REMARK    1  A    between atoms: N1_2  and  O3_4 
REMARK    2  A    between atoms: O3_4  and  C1_5 
REMARK    3  A    between atoms: C4_9  and  O5_10 
REMARK    4  A    between atoms: C5_12  and  O6_13 
ROOT
HETATM    1  C1  UNL     1      -5.027   4.062  13.998  1.00  0.00     0.189 C 
HETATM    2  C2  UNL     1      -3.853   4.112  14.955  1.00  0.00     0.203 C 
HETATM    3  O4  UNL     1      -3.673   2.855  15.465  1.00  0.00    -0.380 OA
HETATM    4  C3  UNL     1      -4.533   1.984  14.840  1.00  0.00     0.159 C 
HETATM    5  C4  UNL     1      -4.846   0.750  15.596  1.00  0.00     0.176 C 
HETATM    6  C5  UNL     1      -5.881   0.904  16.658  1.00  0.00     0.149 C 
HETATM    7  C6  UNL     1      -5.959   2.367  17.038  1.00  0.00     0.035 C 
HETATM    8  C7  UNL     1      -6.426   3.195  15.891  1.00  0.00     0.012 C 
HETATM    9  C8  UNL     1      -5.773   2.852  14.579  1.00  0.00     0.051 C 
ENDROOT
BRANCH   1  10
HETATM   10  O3  UNL     1      -5.800   5.214  14.001  1.00  0.00    -0.213 OA
BRANCH  10  11
HETATM   11  N1  UNL     1      -6.145   5.786  12.802  1.00  0.00     0.005 N 
HETATM   12  O1  UNL     1      -5.446   5.754  11.773  1.00  0.00    -0.511 OA
HETATM   13  O2  UNL     1      -7.347   6.441  12.734  1.00  0.00    -0.511 OA
ENDBRANCH  10  11
ENDBRANCH   1  10
BRANCH   5  14
HETATM   14  O5  UNL     1      -3.652   0.274  16.166  1.00  0.00    -0.390 OA
ATOM     15  H5  UNL     1      -3.372  -0.487  15.671  1.00  0.00     0.210 HD
ENDBRANCH   5  14
BRANCH   6  16
HETATM   16  O6  UNL     1      -5.509   0.138  17.752  1.00  0.00    -0.393 OA
ATOM     17  H6  UNL     1      -6.272   0.009  18.304  1.00  0.00     0.210 HD
ENDBRANCH   6  16
TORSDOF 4
ENDMDL
MODEL 2
REMARK VINA RESULT: -6.159852375      2.088      5.313
REMARK  4 active torsions:
REMARK  status: ('A' for Active; 'I' for Inactive)
REMARK    1  A    between atoms: N1_2  and  O3_4 
REMARK    2  A    between atoms: O3_4  and  C1_5 
REMARK    3  A    between atoms: C4_9  and  O5_10 
REMARK    4  A    between atoms: C5_12  and  O6_13 
ROOT
HETATM    1  C1  UNL     1      -5.811   2.666  15.485  1.00  0.00     0.189 C 
HETATM    2  C2  UNL     1      -6.485   3.985  15.805  1.00  0.00     0.203 C 
HETATM    3  O4  UNL     1      -6.350   4.802  14.715  1.00  0.00    -0.380 OA
HETATM    4  C3  UNL     1      -5.767   4.096  13.689  1.00  0.00     0.159 C 
HETATM    5  C4  UNL     1      -5.084   4.918  12.663  1.00  0.00     0.176 C 
HETATM    6  C5  UNL     1      -3.716   5.381  13.033  1.00  0.00     0.149 C 
HETATM    7  C6  UNL     1      -3.591   5.342  14.540  1.00  0.00     0.035 C 
HETATM    8  C7  UNL     1      -3.698   3.946  15.051  1.00  0.00     0.012 C 
HETATM    9  C8  UNL     1      -4.810   3.147  14.425  1.00  0.00     0.051 C 
ENDROOT
BRANCH   1  10
HETATM   10  O3  UNL     1      -5.189   2.077  16.575  1.00  0.00    -0.213 OA
BRANCH  10  11
HETATM   11  N1  UNL     1      -4.799   0.764  16.489  1.00  0.00     0.005 N 
HETATM   12  O1  UNL     1      -3.655   0.381  16.182  1.00  0.00    -0.511 OA
HETATM   13  O2  UNL     1      -5.739  -0.197  16.761  1.00  0.00    -0.511 OA
ENDBRANCH  10  11
ENDBRANCH   1  10
BRANCH   5  14
HETATM   14  O5  UNL     1      -5.899   6.028  12.381  1.00  0.00    -0.390 OA
ATOM     15  H5  UNL     1      -5.342   6.729  12.062  1.00  0.00     0.210 HD
ENDBRANCH   5  14
BRANCH   6  16
HETATM   16  O6  UNL     1      -3.548   6.677  12.566  1.00  0.00    -0.393 OA
ATOM     17  H6  UNL     1      -2.864   6.674  11.906  1.00  0.00     0.210 HD
ENDBRANCH   6  16
TORSDOF 4
ENDMDL
MODEL 3
REMARK VINA RESULT: -6.109573448      2.327      4.923
REMARK  4 active torsions:
REMARK  status: ('A' for Active; 'I' for Inactive)
REMARK    1  A    between atoms: N1_2  and  O3_4 
REMARK    2  A    between atoms: O3_4  and  C1_5 
REMARK    3  A    between atoms: C4_9  and  O5_10 
REMARK    4  A    between atoms: C5_12  and  O6_13 
ROOT
HETATM    1  C1  UNL     1      -4.367   1.743  16.258  1.00  0.00     0.189 C 
HETATM    2  C2  UNL     1      -4.670   0.923  15.020  1.00  0.00     0.203 C 
HETATM    3  O4  UNL     1      -4.364   1.685  13.925  1.00  0.00    -0.380 OA
HETATM    4  C3  UNL     1      -3.782   2.860  14.339  1.00  0.00     0.159 C 
HETATM    5  C4  UNL     1      -3.870   3.984  13.378  1.00  0.00     0.176 C 
HETATM    6  C5  UNL     1      -5.173   4.709  13.372  1.00  0.00     0.149 C 
HETATM    7  C6  UNL     1      -6.229   3.796  13.956  1.00  0.00     0.035 C 
HETATM    8  C7  UNL     1      -5.942   3.490  15.385  1.00  0.00     0.012 C 
HETATM    9  C8  UNL     1      -4.501   3.153  15.664  1.00  0.00     0.051 C 
ENDROOT
BRANCH   1  10
HETATM   10  O3  UNL     1      -5.249   1.521  17.305  1.00  0.00    -0.213 OA
BRANCH  10  11
HETATM   11  N1  UNL     1      -6.140   0.481  17.215  1.00  0.00     0.005 N 
HETATM   12  O1  UNL     1      -5.845  -0.721  17.354  1.00  0.00    -0.511 OA
HETATM   13  O2  UNL     1      -7.450   0.788  16.954  1.00  0.00    -0.511 OA
ENDBRANCH  10  11
ENDBRANCH   1  10
BRANCH   5  14
HETATM   14  O5  UNL     1      -3.605   3.480  12.093  1.00  0.00    -0.390 OA
ATOM     15  H5  UNL     1      -4.381   3.023  11.789  1.00  0.00     0.210 HD
ENDBRANCH   5  14
BRANCH   6  16
HETATM   16  O6  UNL     1      -5.488   5.039  12.062  1.00  0.00    -0.393 OA
ATOM     17  H6  UNL     1      -5.895   4.286  11.650  1.00  0.00     0.210 HD
ENDBRANCH   6  16
TORSDOF 4
ENDMDL
MODEL 4
REMARK VINA RESULT: -6.084590244      2.211      5.540
REMARK  4 active torsions:
REMARK  status: ('A' for Active; 'I' for Inactive)
REMARK    1  A    between atoms: N1_2  and  O3_4 
REMARK    2  A    between atoms: O3_4  and  C1_5 
REMARK    3  A    between atoms: C4_9  and  O5_10 
REMARK    4  A    between atoms: C5_12  and  O6_13 
ROOT
HETATM    1  C1  UNL     1      -4.732   2.293  14.406  1.00  0.00     0.189 C 
HETATM    2  C2  UNL     1      -5.940   3.183  14.622  1.00  0.00     0.203 C 
HETATM    3  O4  UNL     1      -5.934   4.144  13.648  1.00  0.00    -0.380 OA
HETATM    4  C3  UNL     1      -4.916   3.885  12.761  1.00  0.00     0.159 C 
HETATM    5  C4  UNL     1      -4.439   5.053  11.986  1.00  0.00     0.176 C 
HETATM    6  C5  UNL     1      -3.491   5.948  12.709  1.00  0.00     0.149 C 
HETATM    7  C6  UNL     1      -3.672   5.730  14.196  1.00  0.00     0.035 C 
HETATM    8  C7  UNL     1      -3.296   4.342  14.584  1.00  0.00     0.012 C 
HETATM    9  C8  UNL     1      -3.825   3.281  13.657  1.00  0.00     0.051 C 
ENDROOT
BRANCH   1  10
HETATM   10  O3  UNL     1      -4.160   1.832  15.582  1.00  0.00    -0.213 OA
BRANCH  10  11
HETATM   11  N1  UNL     1      -4.637   0.675  16.145  1.00  0.00     0.005 N 
HETATM   12  O1  UNL     1      -4.932   0.539  17.347  1.00  0.00    -0.511 OA
HETATM   13  O2  UNL     1      -4.802  -0.409  15.323  1.00  0.00    -0.511 OA
ENDBRANCH  10  11
ENDBRANCH   1  10
BRANCH   5  14
HETATM   14  O5  UNL     1      -5.562   5.790  11.573  1.00  0.00    -0.390 OA
ATOM     15  H5  UNL     1      -5.303   6.338  10.841  1.00  0.00     0.210 HD
ENDBRANCH   5  14
BRANCH   6  16
HETATM   16  O6  UNL     1      -3.781   7.262  12.373  1.00  0.00    -0.393 OA
ATOM     17  H6  UNL     1      -3.926   7.309  11.435  1.00  0.00     0.210 HD
ENDBRANCH   6  16
TORSDOF 4
ENDMDL
MODEL 5
REMARK VINA RESULT: -6.027888952      2.347      5.346
REMARK  4 active torsions:
REMARK  status: ('A' for Active; 'I' for Inactive)
REMARK    1  A    between atoms: N1_2  and  O3_4 
REMARK    2  A    between atoms: O3_4  and  C1_5 
REMARK    3  A    between atoms: C4_9  and  O5_10 
REMARK    4  A    between atoms: C5_12  and  O6_13 
ROOT
HETATM    1  C1  UNL     1      -4.319   2.867  14.555  1.00  0.00     0.189 C 
HETATM    2  C2  UNL     1      -5.120   2.277  13.413  1.00  0.00     0.203 C 
HETATM    3  O4  UNL     1      -5.209   3.223  12.429  1.00  0.00    -0.380 OA
HETATM    4  C3  UNL     1      -4.444   4.311  12.775  1.00  0.00     0.159 C 
HETATM    5  C4  UNL     1      -4.824   5.587  12.125  1.00  0.00     0.176 C 
HETATM    6  C5  UNL     1      -5.984   6.291  12.743  1.00  0.00     0.149 C 
HETATM    7  C6  UNL     1      -6.790   5.279  13.528  1.00  0.00     0.035 C 
HETATM    8  C7  UNL     1      -5.999   4.727  14.663  1.00  0.00     0.012 C 
HETATM    9  C8  UNL     1      -4.584   4.358  14.303  1.00  0.00     0.051 C 
ENDROOT
BRANCH   1  10
HETATM   10  O3  UNL     1      -4.747   2.456  15.809  1.00  0.00    -0.213 OA
BRANCH  10  11
HETATM   11  N1  UNL     1      -4.682   1.122  16.129  1.00  0.00     0.005 N 
HETATM   12  O1  UNL     1      -3.627   0.483  16.299  1.00  0.00    -0.511 OA
HETATM   13  O2  UNL     1      -5.865   0.446  16.273  1.00  0.00    -0.511 OA
ENDBRANCH  10  11
ENDBRANCH   1  10
BRANCH   5  14
HETATM   14  O5  UNL     1      -5.099   5.321  10.772  1.00  0.00    -0.390 OA
ATOM     15  H5  UNL     1      -4.310   5.491  10.271  1.00  0.00     0.210 HD
ENDBRANCH   5  14
BRANCH   6  16
HETATM   16  O6  UNL     1      -6.754   6.845  11.731  1.00  0.00    -0.393 OA
ATOM     17  H6  UNL     1      -6.982   6.158  11.115  1.00  0.00     0.210 HD
ENDBRANCH   6  16
TORSDOF 4
ENDMDL
