MODEL 1
REMARK VINA RESULT: -6.262186708      0.000      0.000
REMARK  12 active torsions:
REMARK  status: ('A' for Active; 'I' for Inactive)
REMARK    1  A    between atoms: O1_2  and  C2_3 
REMARK    2  A    between atoms: C2_3  and  C3_4 
REMARK    3  A    between atoms: C3_4  and  C4_5 
REMARK       I    between atoms: C4_5  and  N1_7 
REMARK    4  A    between atoms: N1_7  and  C5_9 
REMARK    5  A    between atoms: C6_10  and  O3_11 
REMARK    6  A    between atoms: C9_15  and  S1_16 
REMARK    7  A    between atoms: S1_16  and  C10_17 
REMARK    8  A    between atoms: C11_19  and  C12_20 
REMARK    9  A    between atoms: C12_20  and  O5_21 
REMARK   10  A    between atoms: C13_23  and  O6_24 
REMARK   11  A    between atoms: C14_26  and  O7_27 
REMARK   12  A    between atoms: C15_29  and  O8_30 
ROOT
HETATM    1  C5  UNL     1      30.127  18.228  23.402  1.00  0.00     0.127 C 
HETATM    2  C6  UNL     1      29.012  18.285  24.418  1.00  0.00     0.142 C 
HETATM    3  C7  UNL     1      28.751  19.794  24.544  1.00  0.00     0.035 C 
HETATM    4  C8  UNL     1      28.761  20.202  23.092  1.00  0.00     0.020 C 
HETATM    5  C9  UNL     1      29.936  19.427  22.546  1.00  0.00     0.075 C 
ENDROOT
BRANCH   5   6
HETATM    6  S1  UNL     1      29.657  19.021  20.802  1.00  0.00    -0.128 SA
BRANCH   6   7
HETATM    7  C10 UNL     1      27.865  18.949  20.543  1.00  0.00     0.215 C 
HETATM    8  O4  UNL     1      27.583  19.487  19.304  1.00  0.00    -0.363 OA
HETATM    9  C11 UNL     1      26.219  19.669  19.184  1.00  0.00     0.178 C 
HETATM   10  C13 UNL     1      25.390  19.100  20.280  1.00  0.00     0.180 C 
HETATM   11  C14 UNL     1      25.795  17.705  20.685  1.00  0.00     0.181 C 
HETATM   12  C15 UNL     1      27.324  17.563  20.670  1.00  0.00     0.188 C 
BRANCH   9  13
HETATM   13  C12 UNL     1      25.788  19.179  17.812  1.00  0.00     0.198 C 
BRANCH  13  14
HETATM   14  O5  UNL     1      26.676  18.198  17.363  1.00  0.00    -0.398 OA
ATOM     15  H5  UNL     1      26.459  17.955  16.471  1.00  0.00     0.209 HD
ENDBRANCH  13  14
ENDBRANCH   9  13
BRANCH  10  16
HETATM   16  O6  UNL     1      24.063  19.001  19.825  1.00  0.00    -0.390 OA
ATOM     17  H6  UNL     1      23.816  18.083  19.827  1.00  0.00     0.210 HD
ENDBRANCH  10  16
BRANCH  11  18
HETATM   18  O7  UNL     1      25.379  17.488  21.999  1.00  0.00    -0.390 OA
ATOM     19  H7  UNL     1      25.054  16.598  22.068  1.00  0.00     0.210 HD
ENDBRANCH  11  18
BRANCH  12  20
HETATM   20  O8  UNL     1      27.743  16.680  19.702  1.00  0.00    -0.389 OA
ATOM     21  H8  UNL     1      28.279  15.961  20.016  1.00  0.00     0.210 HD
ENDBRANCH  12  20
ENDBRANCH   6   7
ENDBRANCH   5   6
BRANCH   1  22
HETATM   22  N1  UNL     1      30.227  16.997  22.691  1.00  0.00    -0.353 N 
HETATM   23  C4  UNL     1      30.987  15.904  23.139  1.00  0.00     0.223 C 
HETATM   24  O2  UNL     1      31.604  16.035  24.226  1.00  0.00    -0.273 OA
ATOM     25  H1  UNL     1      29.720  16.904  21.811  1.00  0.00     0.163 HD
BRANCH  23  26
HETATM   26  C3  UNL     1      31.064  14.665  22.385  1.00  0.00     0.171 C 
BRANCH  26  27
HETATM   27  C2  UNL     1      29.734  14.074  21.971  1.00  0.00     0.171 C 
HETATM   28  C16 UNL     1      29.698  12.589  22.056  1.00  0.00     0.069 C 
HETATM   29  C17 UNL     1      28.470  12.139  21.243  1.00  0.00     0.007 C 
HETATM   30  C18 UNL     1      27.295  12.735  21.997  1.00  0.00     0.026 C 
HETATM   31  C19 UNL     1      27.491  14.207  22.249  1.00  0.00     0.171 C 
HETATM   32  O9  UNL     1      28.698  14.585  22.740  1.00  0.00    -0.355 OA
BRANCH  27  33
HETATM   33  O1  UNL     1      29.520  14.483  20.667  1.00  0.00    -0.359 OA
HETATM   34  C1  UNL     1      30.632  14.559  19.875  1.00  0.00     0.205 C 
ENDBRANCH  27  33
ENDBRANCH  26  27
ENDBRANCH  23  26
ENDBRANCH   1  22
BRANCH   2  35
HETATM   35  O3  UNL     1      27.842  17.723  23.922  1.00  0.00    -0.393 OA
ATOM     36  H3  UNL     1      27.171  17.668  24.592  1.00  0.00     0.210 HD
ENDBRANCH   2  35
TORSDOF 12
ENDMDL
MODEL 2
REMARK VINA RESULT: -6.176608682      2.505      5.206
REMARK  12 active torsions:
REMARK  status: ('A' for Active; 'I' for Inactive)
REMARK    1  A    between atoms: O1_2  and  C2_3 
REMARK    2  A    between atoms: C2_3  and  C3_4 
REMARK    3  A    between atoms: C3_4  and  C4_5 
REMARK       I    between atoms: C4_5  and  N1_7 
REMARK    4  A    between atoms: N1_7  and  C5_9 
REMARK    5  A    between atoms: C6_10  and  O3_11 
REMARK    6  A    between atoms: C9_15  and  S1_16 
REMARK    7  A    between atoms: S1_16  and  C10_17 
REMARK    8  A    between atoms: C11_19  and  C12_20 
REMARK    9  A    between atoms: C12_20  and  O5_21 
REMARK   10  A    between atoms: C13_23  and  O6_24 
REMARK   11  A    between atoms: C14_26  and  O7_27 
REMARK   12  A    between atoms: C15_29  and  O8_30 
ROOT
HETATM    1  C5  UNL     1      28.315  18.494  20.748  1.00  0.00     0.127 C 
HETATM    2  C6  UNL     1      27.657  19.811  20.408  1.00  0.00     0.142 C 
HETATM    3  C7  UNL     1      27.050  19.534  19.024  1.00  0.00     0.035 C 
HETATM    4  C8  UNL     1      26.437  18.175  19.255  1.00  0.00     0.020 C 
HETATM    5  C9  UNL     1      27.511  17.463  20.042  1.00  0.00     0.075 C 
ENDROOT
BRANCH   5   6
HETATM    6  S1  UNL     1      26.763  16.251  21.162  1.00  0.00    -0.128 SA
BRANCH   6   7
HETATM    7  C10 UNL     1      26.796  14.645  20.321  1.00  0.00     0.215 C 
HETATM    8  O4  UNL     1      27.860  13.919  20.815  1.00  0.00    -0.363 OA
HETATM    9  C11 UNL     1      28.055  12.801  20.027  1.00  0.00     0.178 C 
HETATM   10  C13 UNL     1      27.015  12.546  18.994  1.00  0.00     0.180 C 
HETATM   11  C14 UNL     1      25.605  12.706  19.503  1.00  0.00     0.181 C 
HETATM   12  C15 UNL     1      25.512  13.898  20.466  1.00  0.00     0.188 C 
BRANCH   9  13
HETATM   13  C12 UNL     1      28.281  11.605  20.936  1.00  0.00     0.198 C 
BRANCH  13  14
HETATM   14  O5  UNL     1      28.003  11.963  22.259  1.00  0.00    -0.398 OA
ATOM     15  H5  UNL     1      28.773  11.820  22.796  1.00  0.00     0.209 HD
ENDBRANCH  13  14
ENDBRANCH   9  13
BRANCH  10  16
HETATM   16  O6  UNL     1      27.126  11.208  18.576  1.00  0.00    -0.390 OA
ATOM     17  H6  UNL     1      26.273  10.919  18.275  1.00  0.00     0.210 HD
ENDBRANCH  10  16
BRANCH  11  18
HETATM   18  O7  UNL     1      24.775  12.994  18.419  1.00  0.00    -0.390 OA
ATOM     19  H7  UNL     1      23.940  12.562  18.556  1.00  0.00     0.210 HD
ENDBRANCH  11  18
BRANCH  12  20
HETATM   20  O8  UNL     1      25.211  13.493  21.747  1.00  0.00    -0.389 OA
ATOM     21  H8  UNL     1      24.322  13.673  22.029  1.00  0.00     0.210 HD
ENDBRANCH  12  20
ENDBRANCH   6   7
ENDBRANCH   5   6
BRANCH   1  22
HETATM   22  N1  UNL     1      28.497  18.257  22.141  1.00  0.00    -0.353 N 
HETATM   23  C4  UNL     1      29.657  18.625  22.843  1.00  0.00     0.223 C 
HETATM   24  O2  UNL     1      30.571  19.191  22.195  1.00  0.00    -0.273 OA
ATOM     25  H1  UNL     1      27.746  17.798  22.656  1.00  0.00     0.163 HD
BRANCH  23  26
HETATM   26  C3  UNL     1      29.804  18.366  24.265  1.00  0.00     0.171 C 
BRANCH  26  27
HETATM   27  C2  UNL     1      29.477  16.955  24.705  1.00  0.00     0.171 C 
HETATM   28  C16 UNL     1      28.171  16.847  25.410  1.00  0.00     0.069 C 
HETATM   29  C17 UNL     1      28.179  15.483  26.125  1.00  0.00     0.007 C 
HETATM   30  C18 UNL     1      28.247  14.477  24.991  1.00  0.00     0.026 C 
HETATM   31  C19 UNL     1      29.368  14.795  24.037  1.00  0.00     0.171 C 
HETATM   32  O9  UNL     1      29.470  16.084  23.626  1.00  0.00    -0.355 OA
BRANCH  27  33
HETATM   33  O1  UNL     1      30.506  16.565  25.543  1.00  0.00    -0.359 OA
HETATM   34  C1  UNL     1      31.740  17.079  25.252  1.00  0.00     0.205 C 
ENDBRANCH  27  33
ENDBRANCH  26  27
ENDBRANCH  23  26
ENDBRANCH   1  22
BRANCH   2  35
HETATM   35  O3  UNL     1      26.594  20.082  21.259  1.00  0.00    -0.393 OA
ATOM     36  H3  UNL     1      25.776  20.159  20.781  1.00  0.00     0.210 HD
ENDBRANCH   2  35
TORSDOF 12
ENDMDL
MODEL 3
REMARK VINA RESULT: -6.102966850      2.479      5.552
REMARK  12 active torsions:
REMARK  status: ('A' for Active; 'I' for Inactive)
REMARK    1  A    between atoms: O1_2  and  C2_3 
REMARK    2  A    between atoms: C2_3  and  C3_4 
REMARK    3  A    between atoms: C3_4  and  C4_5 
REMARK       I    between atoms: C4_5  and  N1_7 
REMARK    4  A    between atoms: N1_7  and  C5_9 
REMARK    5  A    between atoms: C6_10  and  O3_11 
REMARK    6  A    between atoms: C9_15  and  S1_16 
REMARK    7  A    between atoms: S1_16  and  C10_17 
REMARK    8  A    between atoms: C11_19  and  C12_20 
REMARK    9  A    between atoms: C12_20  and  O5_21 
REMARK   10  A    between atoms: C13_23  and  O6_24 
REMARK   11  A    between atoms: C14_26  and  O7_27 
REMARK   12  A    between atoms: C15_29  and  O8_30 
ROOT
HETATM    1  C5  UNL     1      26.806  17.805  20.295  1.00  0.00     0.127 C 
HETATM    2  C6  UNL     1      26.545  18.270  18.883  1.00  0.00     0.142 C 
HETATM    3  C7  UNL     1      27.033  19.727  18.915  1.00  0.00     0.035 C 
HETATM    4  C8  UNL     1      28.336  19.569  19.658  1.00  0.00     0.020 C 
HETATM    5  C9  UNL     1      27.965  18.608  20.763  1.00  0.00     0.075 C 
ENDROOT
BRANCH   5   6
HETATM    6  S1  UNL     1      29.398  17.596  21.215  1.00  0.00    -0.128 SA
BRANCH   6   7
HETATM    7  C10 UNL     1      29.177  17.088  22.942  1.00  0.00     0.215 C 
HETATM    8  O4  UNL     1      28.451  15.915  22.960  1.00  0.00    -0.363 OA
HETATM    9  C11 UNL     1      28.061  15.639  24.257  1.00  0.00     0.178 C 
HETATM   10  C13 UNL     1      28.640  16.517  25.308  1.00  0.00     0.180 C 
HETATM   11  C14 UNL     1      30.119  16.763  25.146  1.00  0.00     0.181 C 
HETATM   12  C15 UNL     1      30.476  16.935  23.662  1.00  0.00     0.188 C 
BRANCH   9  13
HETATM   13  C12 UNL     1      28.304  14.165  24.528  1.00  0.00     0.198 C 
BRANCH  13  14
HETATM   14  O5  UNL     1      27.294  13.667  25.357  1.00  0.00    -0.398 OA
ATOM     15  H5  UNL     1      27.308  12.718  25.342  1.00  0.00     0.209 HD
ENDBRANCH  13  14
ENDBRANCH   9  13
BRANCH  10  16
HETATM   16  O6  UNL     1      28.489  15.876  26.551  1.00  0.00    -0.390 OA
ATOM     17  H6  UNL     1      28.944  16.390  27.208  1.00  0.00     0.210 HD
ENDBRANCH  10  16
BRANCH  11  18
HETATM   18  O7  UNL     1      30.440  17.961  25.783  1.00  0.00    -0.390 OA
ATOM     19  H7  UNL     1      29.865  18.067  26.533  1.00  0.00     0.210 HD
ENDBRANCH  11  18
BRANCH  12  20
HETATM   20  O8  UNL     1      31.280  15.913  23.212  1.00  0.00    -0.389 OA
ATOM     21  H8  UNL     1      31.412  15.202  23.827  1.00  0.00     0.210 HD
ENDBRANCH  12  20
ENDBRANCH   6   7
ENDBRANCH   5   6
BRANCH   1  22
HETATM   22  N1  UNL     1      26.958  16.396  20.443  1.00  0.00    -0.353 N 
HETATM   23  C4  UNL     1      25.889  15.526  20.716  1.00  0.00     0.223 C 
HETATM   24  O2  UNL     1      24.746  16.033  20.832  1.00  0.00    -0.273 OA
ATOM     25  H1  UNL     1      27.892  15.997  20.346  1.00  0.00     0.163 HD
BRANCH  23  26
HETATM   26  C3  UNL     1      26.085  14.095  20.860  1.00  0.00     0.171 C 
BRANCH  26  27
HETATM   27  C2  UNL     1      26.461  13.360  19.591  1.00  0.00     0.171 C 
HETATM   28  C16 UNL     1      25.348  12.547  19.030  1.00  0.00     0.069 C 
HETATM   29  C17 UNL     1      25.987  11.580  18.017  1.00  0.00     0.007 C 
HETATM   30  C18 UNL     1      26.558  12.495  16.949  1.00  0.00     0.026 C 
HETATM   31  C19 UNL     1      27.415  13.577  17.549  1.00  0.00     0.171 C 
HETATM   32  O9  UNL     1      26.899  14.242  18.614  1.00  0.00    -0.355 OA
BRANCH  27  33
HETATM   33  O1  UNL     1      27.529  12.545  19.919  1.00  0.00    -0.359 OA
HETATM   34  C1  UNL     1      27.724  12.327  21.255  1.00  0.00     0.205 C 
ENDBRANCH  27  33
ENDBRANCH  26  27
ENDBRANCH  23  26
ENDBRANCH   1  22
BRANCH   2  35
HETATM   35  O3  UNL     1      27.353  17.603  17.970  1.00  0.00    -0.393 OA
ATOM     36  H3  UNL     1      27.485  16.696  18.220  1.00  0.00     0.210 HD
ENDBRANCH   2  35
TORSDOF 12
ENDMDL
MODEL 4
REMARK VINA RESULT: -5.982866783      1.393      1.732
REMARK  12 active torsions:
REMARK  status: ('A' for Active; 'I' for Inactive)
REMARK    1  A    between atoms: O1_2  and  C2_3 
REMARK    2  A    between atoms: C2_3  and  C3_4 
REMARK    3  A    between atoms: C3_4  and  C4_5 
REMARK       I    between atoms: C4_5  and  N1_7 
REMARK    4  A    between atoms: N1_7  and  C5_9 
REMARK    5  A    between atoms: C6_10  and  O3_11 
REMARK    6  A    between atoms: C9_15  and  S1_16 
REMARK    7  A    between atoms: S1_16  and  C10_17 
REMARK    8  A    between atoms: C11_19  and  C12_20 
REMARK    9  A    between atoms: C12_20  and  O5_21 
REMARK   10  A    between atoms: C13_23  and  O6_24 
REMARK   11  A    between atoms: C14_26  and  O7_27 
REMARK   12  A    between atoms: C15_29  and  O8_30 
ROOT
HETATM    1  C5  UNL     1      29.783  18.056  23.355  1.00  0.00     0.127 C 
HETATM    2  C6  UNL     1      30.147  18.657  24.692  1.00  0.00     0.142 C 
HETATM    3  C7  UNL     1      29.877  20.153  24.470  1.00  0.00     0.035 C 
HETATM    4  C8  UNL     1      28.546  20.096  23.763  1.00  0.00     0.020 C 
HETATM    5  C9  UNL     1      28.743  18.955  22.793  1.00  0.00     0.075 C 
ENDROOT
BRANCH   5   6
HETATM    6  S1  UNL     1      27.165  18.118  22.488  1.00  0.00    -0.128 SA
BRANCH   6   7
HETATM    7  C10 UNL     1      26.493  18.778  20.940  1.00  0.00     0.215 C 
HETATM    8  O4  UNL     1      27.388  18.504  19.926  1.00  0.00    -0.363 OA
HETATM    9  C11 UNL     1      27.022  19.204  18.792  1.00  0.00     0.178 C 
HETATM   10  C13 UNL     1      25.713  19.905  18.858  1.00  0.00     0.180 C 
HETATM   11  C14 UNL     1      24.608  19.071  19.454  1.00  0.00     0.181 C 
HETATM   12  C15 UNL     1      25.137  18.236  20.629  1.00  0.00     0.188 C 
BRANCH   9  13
HETATM   13  C12 UNL     1      27.126  18.271  17.598  1.00  0.00     0.198 C 
BRANCH  13  14
HETATM   14  O5  UNL     1      27.240  16.950  18.043  1.00  0.00    -0.398 OA
ATOM     15  H5  UNL     1      27.952  16.520  17.585  1.00  0.00     0.209 HD
ENDBRANCH  13  14
ENDBRANCH   9  13
BRANCH  10  16
HETATM   16  O6  UNL     1      25.306  20.205  17.545  1.00  0.00    -0.390 OA
ATOM     17  H6  UNL     1      24.967  19.411  17.150  1.00  0.00     0.210 HD
ENDBRANCH  10  16
BRANCH  11  18
HETATM   18  O7  UNL     1      23.635  19.928  19.970  1.00  0.00    -0.390 OA
ATOM     19  H7  UNL     1      23.288  19.545  20.766  1.00  0.00     0.210 HD
ENDBRANCH  11  18
BRANCH  12  20
HETATM   20  O8  UNL     1      25.093  16.889  20.355  1.00  0.00    -0.389 OA
ATOM     21  H8  UNL     1      24.881  16.666  19.456  1.00  0.00     0.210 HD
ENDBRANCH  12  20
ENDBRANCH   6   7
ENDBRANCH   5   6
BRANCH   1  22
HETATM   22  N1  UNL     1      29.421  16.678  23.397  1.00  0.00    -0.353 N 
HETATM   23  C4  UNL     1      30.348  15.630  23.264  1.00  0.00     0.223 C 
HETATM   24  O2  UNL     1      31.554  15.941  23.100  1.00  0.00    -0.273 OA
ATOM     25  H1  UNL     1      28.439  16.440  23.531  1.00  0.00     0.163 HD
BRANCH  23  26
HETATM   26  C3  UNL     1      29.940  14.238  23.312  1.00  0.00     0.171 C 
BRANCH  26  27
HETATM   27  C2  UNL     1      29.052  13.782  22.174  1.00  0.00     0.171 C 
HETATM   28  C16 UNL     1      28.433  12.449  22.407  1.00  0.00     0.069 C 
HETATM   29  C17 UNL     1      27.914  11.968  21.040  1.00  0.00     0.007 C 
HETATM   30  C18 UNL     1      26.846  12.984  20.677  1.00  0.00     0.026 C 
HETATM   31  C19 UNL     1      27.363  14.394  20.795  1.00  0.00     0.171 C 
HETATM   32  O9  UNL     1      28.041  14.701  21.930  1.00  0.00    -0.355 OA
BRANCH  27  33
HETATM   33  O1  UNL     1      29.855  13.745  21.048  1.00  0.00    -0.359 OA
HETATM   34  C1  UNL     1      30.986  12.983  21.148  1.00  0.00     0.205 C 
ENDBRANCH  27  33
ENDBRANCH  26  27
ENDBRANCH  23  26
ENDBRANCH   1  22
BRANCH   2  35
HETATM   35  O3  UNL     1      29.274  18.243  25.690  1.00  0.00    -0.393 OA
ATOM     36  H3  UNL     1      29.175  18.906  26.364  1.00  0.00     0.210 HD
ENDBRANCH   2  35
TORSDOF 12
ENDMDL
MODEL 5
REMARK VINA RESULT: -5.946511253      2.088      6.555
REMARK  12 active torsions:
REMARK  status: ('A' for Active; 'I' for Inactive)
REMARK    1  A    between atoms: O1_2  and  C2_3 
REMARK    2  A    between atoms: C2_3  and  C3_4 
REMARK    3  A    between atoms: C3_4  and  C4_5 
REMARK       I    between atoms: C4_5  and  N1_7 
REMARK    4  A    between atoms: N1_7  and  C5_9 
REMARK    5  A    between atoms: C6_10  and  O3_11 
REMARK    6  A    between atoms: C9_15  and  S1_16 
REMARK    7  A    between atoms: S1_16  and  C10_17 
REMARK    8  A    between atoms: C11_19  and  C12_20 
REMARK    9  A    between atoms: C12_20  and  O5_21 
REMARK   10  A    between atoms: C13_23  and  O6_24 
REMARK   11  A    between atoms: C14_26  and  O7_27 
REMARK   12  A    between atoms: C15_29  and  O8_30 
ROOT
HETATM    1  C5  UNL     1      27.503  14.116  21.571  1.00  0.00     0.127 C 
HETATM    2  C6  UNL     1      27.306  13.536  22.951  1.00  0.00     0.142 C 
HETATM    3  C7  UNL     1      28.338  12.399  22.986  1.00  0.00     0.035 C 
HETATM    4  C8  UNL     1      29.538  13.090  22.387  1.00  0.00     0.020 C 
HETATM    5  C9  UNL     1      28.928  13.860  21.240  1.00  0.00     0.075 C 
ENDROOT
BRANCH   5   6
HETATM    6  S1  UNL     1      29.873  15.376  20.936  1.00  0.00    -0.128 SA
BRANCH   6   7
HETATM    7  C10 UNL     1      30.635  15.863  22.507  1.00  0.00     0.215 C 
HETATM    8  O4  UNL     1      31.950  16.205  22.264  1.00  0.00    -0.363 OA
HETATM    9  C11 UNL     1      32.616  16.343  23.467  1.00  0.00     0.178 C 
HETATM   10  C13 UNL     1      31.768  16.280  24.688  1.00  0.00     0.180 C 
HETATM   11  C14 UNL     1      30.501  17.090  24.587  1.00  0.00     0.181 C 
HETATM   12  C15 UNL     1      29.899  16.974  23.179  1.00  0.00     0.188 C 
BRANCH   9  13
HETATM   13  C12 UNL     1      33.462  17.602  23.406  1.00  0.00     0.198 C 
BRANCH  13  14
HETATM   14  O5  UNL     1      32.997  18.431  22.381  1.00  0.00    -0.398 OA
ATOM     15  H5  UNL     1      32.914  17.929  21.579  1.00  0.00     0.209 HD
ENDBRANCH  13  14
ENDBRANCH   9  13
BRANCH  10  16
HETATM   16  O6  UNL     1      32.495  16.832  25.758  1.00  0.00    -0.390 OA
ATOM     17  H6  UNL     1      32.189  16.432  26.563  1.00  0.00     0.210 HD
ENDBRANCH  10  16
BRANCH  11  18
HETATM   18  O7  UNL     1      29.565  16.557  25.474  1.00  0.00    -0.390 OA
ATOM     19  H7  UNL     1      28.728  16.495  25.028  1.00  0.00     0.210 HD
ENDBRANCH  11  18
BRANCH  12  20
HETATM   20  O8  UNL     1      29.924  18.180  22.516  1.00  0.00    -0.389 OA
ATOM     21  H8  UNL     1      29.158  18.728  22.644  1.00  0.00     0.210 HD
ENDBRANCH  12  20
ENDBRANCH   6   7
ENDBRANCH   5   6
BRANCH   1  22
HETATM   22  N1  UNL     1      27.091  15.473  21.428  1.00  0.00    -0.353 N 
HETATM   23  C4  UNL     1      25.853  15.853  20.884  1.00  0.00     0.223 C 
HETATM   24  O2  UNL     1      25.079  14.936  20.510  1.00  0.00    -0.273 OA
ATOM     25  H1  UNL     1      27.729  16.207  21.735  1.00  0.00     0.163 HD
BRANCH  23  26
HETATM   26  C3  UNL     1      25.470  17.247  20.754  1.00  0.00     0.171 C 
BRANCH  26  27
HETATM   27  C2  UNL     1      26.290  18.057  19.773  1.00  0.00     0.171 C 
HETATM   28  C16 UNL     1      27.304  18.926  20.429  1.00  0.00     0.069 C 
HETATM   29  C17 UNL     1      27.752  19.946  19.367  1.00  0.00     0.007 C 
HETATM   30  C18 UNL     1      28.407  19.093  18.296  1.00  0.00     0.026 C 
HETATM   31  C19 UNL     1      27.514  17.957  17.871  1.00  0.00     0.171 C 
HETATM   32  O9  UNL     1      26.937  17.234  18.863  1.00  0.00    -0.355 OA
BRANCH  27  33
HETATM   33  O1  UNL     1      25.389  18.829  19.061  1.00  0.00    -0.359 OA
HETATM   34  C1  UNL     1      24.295  19.263  19.758  1.00  0.00     0.205 C 
ENDBRANCH  27  33
ENDBRANCH  26  27
ENDBRANCH  23  26
ENDBRANCH   1  22
BRANCH   2  35
HETATM   35  O3  UNL     1      27.680  14.438  23.940  1.00  0.00    -0.393 OA
ATOM     36  H3  UNL     1      27.197  15.253  23.867  1.00  0.00     0.210 HD
ENDBRANCH   2  35
TORSDOF 12
ENDMDL
