MODEL 1
REMARK VINA RESULT: -4.361425705      0.000      0.000
REMARK  1 active torsions:
REMARK  status: ('A' for Active; 'I' for Inactive)
REMARK    1  A    between atoms: N1_2  and  C2_4 
ROOT
HETATM    1  C2  UNL     1     -38.215 -22.302  21.453  1.00  0.00     0.045 C 
HETATM    2  C3  UNL     1     -38.590 -23.786  21.419  1.00  0.00     0.040 C 
HETATM    3  C4  UNL     1     -38.682 -21.735  20.138  1.00  0.00     0.058 C 
HETATM    4  C5  UNL     1     -40.189 -21.631  20.418  1.00  0.00     0.170 C 
HETATM    5  O1  UNL     1     -40.379 -21.808  21.758  1.00  0.00    -0.389 OA
HETATM    6  C6  UNL     1     -39.134 -21.587  22.397  1.00  0.00     0.197 C 
ENDROOT
BRANCH   1   7
HETATM    7  N1  UNL     1     -36.865 -22.192  21.767  1.00  0.00    -0.415 N 
HETATM    8  C1  UNL     1     -36.053 -21.306  21.011  1.00  0.00     0.140 C 
ATOM      9  H1  UNL     1     -36.463 -22.738  22.529  1.00  0.00     0.153 HD
ENDBRANCH   1   7
TORSDOF 1
ENDMDL
MODEL 2
REMARK VINA RESULT: -4.220900848      1.526      2.182
REMARK  1 active torsions:
REMARK  status: ('A' for Active; 'I' for Inactive)
REMARK    1  A    between atoms: N1_2  and  C2_4 
ROOT
HETATM    1  C2  UNL     1     -36.930 -21.883  21.530  1.00  0.00     0.045 C 
HETATM    2  C3  UNL     1     -37.323 -20.898  22.635  1.00  0.00     0.040 C 
HETATM    3  C4  UNL     1     -38.053 -22.885  21.462  1.00  0.00     0.058 C 
HETATM    4  C5  UNL     1     -39.101 -22.052  20.709  1.00  0.00     0.170 C 
HETATM    5  O1  UNL     1     -38.477 -20.948  20.208  1.00  0.00    -0.389 OA
HETATM    6  C6  UNL     1     -37.086 -21.212  20.199  1.00  0.00     0.197 C 
ENDROOT
BRANCH   1   7
HETATM    7  N1  UNL     1     -35.649 -22.357  21.791  1.00  0.00    -0.415 N 
HETATM    8  C1  UNL     1     -34.539 -21.701  21.199  1.00  0.00     0.140 C 
ATOM      9  H1  UNL     1     -35.509 -23.164  22.399  1.00  0.00     0.153 HD
ENDBRANCH   1   7
TORSDOF 1
ENDMDL
MODEL 3
REMARK VINA RESULT: -4.220066937      3.065      3.947
REMARK  1 active torsions:
REMARK  status: ('A' for Active; 'I' for Inactive)
REMARK    1  A    between atoms: N1_2  and  C2_4 
ROOT
HETATM    1  C2  UNL     1     -35.024 -21.059  21.413  1.00  0.00     0.045 C 
HETATM    2  C3  UNL     1     -34.526 -22.477  21.116  1.00  0.00     0.040 C 
HETATM    3  C4  UNL     1     -34.459 -20.193  20.317  1.00  0.00     0.058 C 
HETATM    4  C5  UNL     1     -35.410 -20.569  19.171  1.00  0.00     0.170 C 
HETATM    5  O1  UNL     1     -36.461 -21.255  19.706  1.00  0.00    -0.389 OA
HETATM    6  C6  UNL     1     -36.486 -20.979  21.095  1.00  0.00     0.197 C 
ENDROOT
BRANCH   1   7
HETATM    7  N1  UNL     1     -34.700 -20.741  22.727  1.00  0.00    -0.415 N 
HETATM    8  C1  UNL     1     -33.427 -20.179  23.005  1.00  0.00     0.140 C 
ATOM      9  H1  UNL     1     -35.367 -20.909  23.481  1.00  0.00     0.153 HD
ENDBRANCH   1   7
TORSDOF 1
ENDMDL
MODEL 4
REMARK VINA RESULT: -4.183410606      2.453      4.062
REMARK  1 active torsions:
REMARK  status: ('A' for Active; 'I' for Inactive)
REMARK    1  A    between atoms: N1_2  and  C2_4 
ROOT
HETATM    1  C2  UNL     1     -36.149 -21.589  21.466  1.00  0.00     0.045 C 
HETATM    2  C3  UNL     1     -36.353 -20.972  20.079  1.00  0.00     0.040 C 
HETATM    3  C4  UNL     1     -34.792 -22.241  21.425  1.00  0.00     0.058 C 
HETATM    4  C5  UNL     1     -33.900 -20.997  21.558  1.00  0.00     0.170 C 
HETATM    5  O1  UNL     1     -34.693 -19.951  21.930  1.00  0.00    -0.389 OA
HETATM    6  C6  UNL     1     -35.892 -20.493  22.455  1.00  0.00     0.197 C 
ENDROOT
BRANCH   1   7
HETATM    7  N1  UNL     1     -37.248 -22.389  21.762  1.00  0.00    -0.415 N 
HETATM    8  C1  UNL     1     -38.362 -22.381  20.883  1.00  0.00     0.140 C 
ATOM      9  H1  UNL     1     -37.253 -22.973  22.599  1.00  0.00     0.153 HD
ENDBRANCH   1   7
TORSDOF 1
ENDMDL
MODEL 5
REMARK VINA RESULT: -4.155483480      2.556      3.985
REMARK  1 active torsions:
REMARK  status: ('A' for Active; 'I' for Inactive)
REMARK    1  A    between atoms: N1_2  and  C2_4 
ROOT
HETATM    1  C2  UNL     1     -36.167 -21.630  21.387  1.00  0.00     0.045 C 
HETATM    2  C3  UNL     1     -36.145 -20.458  22.372  1.00  0.00     0.040 C 
HETATM    3  C4  UNL     1     -36.341 -21.012  20.024  1.00  0.00     0.058 C 
HETATM    4  C5  UNL     1     -34.913 -20.498  19.787  1.00  0.00     0.170 C 
HETATM    5  O1  UNL     1     -34.103 -21.060  20.730  1.00  0.00    -0.389 OA
HETATM    6  C6  UNL     1     -34.782 -22.186  21.257  1.00  0.00     0.197 C 
ENDROOT
BRANCH   1   7
HETATM    7  N1  UNL     1     -37.121 -22.550  21.811  1.00  0.00    -0.415 N 
HETATM    8  C1  UNL     1     -38.436 -22.468  21.284  1.00  0.00     0.140 C 
ATOM      9  H1  UNL     1     -36.880 -23.271  22.491  1.00  0.00     0.153 HD
ENDBRANCH   1   7
TORSDOF 1
ENDMDL
