MODEL 1
REMARK VINA RESULT: -4.797086607      0.000      0.000
REMARK  1 active torsions:
REMARK  status: ('A' for Active; 'I' for Inactive)
REMARK    1  A    between atoms: C2_2  and  N1_4 
ROOT
HETATM    1  N1  UNL     1     -36.800 -21.668  20.963  1.00  0.00     0.119 N 
HETATM    2  C4  UNL     1     -37.785 -21.688  19.938  1.00  0.00     0.302 C 
HETATM    3  C5  UNL     1     -39.068 -21.891  20.701  1.00  0.00     0.264 C 
HETATM    4  N2  UNL     1     -38.749 -21.894  22.101  1.00  0.00    -0.047 N 
ATOM      5  H21 UNL     1     -38.852 -22.810  22.538  1.00  0.00     0.279 HD
ATOM      6  H22 UNL     1     -39.435 -21.403  22.674  1.00  0.00     0.279 HD
HETATM    7  C6  UNL     1     -37.415 -21.352  22.213  1.00  0.00     0.503 C 
ENDROOT
BRANCH   1   8
HETATM    8  C2  UNL     1     -35.618 -20.925  20.665  1.00  0.00     0.217 C 
HETATM    9  C1  UNL     1     -35.509 -20.743  19.162  1.00  0.00     0.042 C 
HETATM   10  C3  UNL     1     -34.406 -21.692  21.130  1.00  0.00     0.042 C 
ENDBRANCH   1   8
TORSDOF 1
ENDMDL
MODEL 2
REMARK VINA RESULT: -4.721793031      1.088      1.587
REMARK  1 active torsions:
REMARK  status: ('A' for Active; 'I' for Inactive)
REMARK    1  A    between atoms: C2_2  and  N1_4 
ROOT
HETATM    1  N1  UNL     1     -36.014 -21.676  21.126  1.00  0.00     0.119 N 
HETATM    2  C4  UNL     1     -37.271 -21.886  20.495  1.00  0.00     0.302 C 
HETATM    3  C5  UNL     1     -38.255 -21.661  21.613  1.00  0.00     0.264 C 
HETATM    4  N2  UNL     1     -37.514 -21.264  22.776  1.00  0.00    -0.047 N 
ATOM      5  H21 UNL     1     -37.504 -21.972  23.511  1.00  0.00     0.279 HD
ATOM      6  H22 UNL     1     -37.970 -20.529  23.317  1.00  0.00     0.279 HD
HETATM    7  C6  UNL     1     -36.196 -20.901  22.312  1.00  0.00     0.503 C 
ENDROOT
BRANCH   1   8
HETATM    8  C2  UNL     1     -34.962 -21.233  20.268  1.00  0.00     0.217 C 
HETATM    9  C1  UNL     1     -34.096 -20.235  21.016  1.00  0.00     0.042 C 
HETATM   10  C3  UNL     1     -35.548 -20.534  19.067  1.00  0.00     0.042 C 
ENDBRANCH   1   8
TORSDOF 1
ENDMDL
MODEL 3
REMARK VINA RESULT: -4.709679643      1.111      1.988
REMARK  1 active torsions:
REMARK  status: ('A' for Active; 'I' for Inactive)
REMARK    1  A    between atoms: C2_2  and  N1_4 
ROOT
HETATM    1  N1  UNL     1     -36.447 -21.053  20.506  1.00  0.00     0.119 N 
HETATM    2  C4  UNL     1     -36.723 -21.839  21.658  1.00  0.00     0.302 C 
HETATM    3  C5  UNL     1     -38.177 -22.196  21.487  1.00  0.00     0.264 C 
HETATM    4  N2  UNL     1     -38.612 -21.667  20.226  1.00  0.00    -0.047 N 
ATOM      5  H21 UNL     1     -39.263 -20.887  20.317  1.00  0.00     0.279 HD
ATOM      6  H22 UNL     1     -39.237 -22.293  19.717  1.00  0.00     0.279 HD
HETATM    7  C6  UNL     1     -37.414 -21.331  19.492  1.00  0.00     0.503 C 
ENDROOT
BRANCH   1   8
HETATM    8  C2  UNL     1     -35.088 -21.064  20.066  1.00  0.00     0.217 C 
HETATM    9  C1  UNL     1     -34.182 -20.739  21.239  1.00  0.00     0.042 C 
HETATM   10  C3  UNL     1     -34.888 -20.003  19.014  1.00  0.00     0.042 C 
ENDBRANCH   1   8
TORSDOF 1
ENDMDL
MODEL 4
REMARK VINA RESULT: -4.480794951      0.846      1.438
REMARK  1 active torsions:
REMARK  status: ('A' for Active; 'I' for Inactive)
REMARK    1  A    between atoms: C2_2  and  N1_4 
ROOT
HETATM    1  N1  UNL     1     -36.763 -20.880  20.781  1.00  0.00     0.119 N 
HETATM    2  C4  UNL     1     -37.043 -21.385  22.080  1.00  0.00     0.302 C 
HETATM    3  C5  UNL     1     -38.376 -22.063  21.903  1.00  0.00     0.264 C 
HETATM    4  N2  UNL     1     -38.733 -21.973  20.516  1.00  0.00    -0.047 N 
ATOM      5  H21 UNL     1     -39.517 -21.346  20.339  1.00  0.00     0.279 HD
ATOM      6  H22 UNL     1     -39.166 -22.822  20.152  1.00  0.00     0.279 HD
HETATM    7  C6  UNL     1     -37.528 -21.598  19.812  1.00  0.00     0.503 C 
ENDROOT
BRANCH   1   8
HETATM    8  C2  UNL     1     -35.379 -20.725  20.466  1.00  0.00     0.217 C 
HETATM    9  C1  UNL     1     -35.206 -20.740  18.958  1.00  0.00     0.042 C 
HETATM   10  C3  UNL     1     -34.597 -21.882  21.036  1.00  0.00     0.042 C 
ENDBRANCH   1   8
TORSDOF 1
ENDMDL
MODEL 5
REMARK VINA RESULT: -4.380409215      2.472      3.922
REMARK  1 active torsions:
REMARK  status: ('A' for Active; 'I' for Inactive)
REMARK    1  A    between atoms: C2_2  and  N1_4 
ROOT
HETATM    1  N1  UNL     1     -34.139 -20.804  21.040  1.00  0.00     0.119 N 
HETATM    2  C4  UNL     1     -34.631 -21.200  22.314  1.00  0.00     0.302 C 
HETATM    3  C5  UNL     1     -33.929 -20.258  23.258  1.00  0.00     0.264 C 
HETATM    4  N2  UNL     1     -33.153 -19.345  22.469  1.00  0.00    -0.047 N 
ATOM      5  H21 UNL     1     -32.147 -19.489  22.555  1.00  0.00     0.279 HD
ATOM      6  H22 UNL     1     -33.173 -18.387  22.819  1.00  0.00     0.279 HD
HETATM    7  C6  UNL     1     -33.635 -19.469  21.113  1.00  0.00     0.503 C 
ENDROOT
BRANCH   1   8
HETATM    8  C2  UNL     1     -35.008 -21.064  19.937  1.00  0.00     0.217 C 
HETATM    9  C1  UNL     1     -34.955 -19.892  18.974  1.00  0.00     0.042 C 
HETATM   10  C3  UNL     1     -36.427 -21.197  20.431  1.00  0.00     0.042 C 
ENDBRANCH   1   8
TORSDOF 1
ENDMDL
