MODEL 1
REMARK VINA RESULT: -6.984282995      0.000      0.000
REMARK  3 active torsions:
REMARK  status: ('A' for Active; 'I' for Inactive)
REMARK    1  A    between atoms: N3_9  and  N4_11 
REMARK    2  A    between atoms: N7_17  and  N8_18 
REMARK    3  A    between atoms: N8_18  and  O1_20 
ROOT
HETATM    1  N1  UNL     1      -9.154 -29.102 -25.891  1.00  0.00    -0.233 N 
ATOM      2  H11 UNL     1      -8.613 -29.901 -26.221  1.00  0.00     0.174 HD
ATOM      3  H12 UNL     1      -8.755 -28.548 -25.133  1.00  0.00     0.174 HD
HETATM    4  C1  UNL     1     -10.289 -28.845 -26.438  1.00  0.00     0.690 C 
HETATM    5  N2  UNL     1     -11.054 -27.714 -25.971  1.00  0.00    -0.220 N 
ATOM      6  H2  UNL     1     -10.763 -27.169 -25.159  1.00  0.00     0.178 HD
HETATM    7  C2  UNL     1     -12.256 -27.390 -26.709  1.00  0.00     0.194 C 
HETATM    8  C3  UNL     1     -12.974 -28.620 -27.060  1.00  0.00     0.042 C 
HETATM    9  N3  UNL     1     -14.191 -28.778 -26.748  1.00  0.00    -0.303 N 
ATOM     10  H3  UNL     1     -14.683 -29.636 -26.996  1.00  0.00     0.186 HD
HETATM   11  C5  UNL     1     -12.257 -29.678 -27.787  1.00  0.00     0.225 C 
HETATM   12  N7  UNL     1     -10.841 -29.610 -27.482  1.00  0.00    -0.100 N 
ENDROOT
BRANCH   9  13
HETATM   13  N4  UNL     1     -14.847 -27.757 -26.059  1.00  0.00    -0.276 N 
HETATM   14  C4  UNL     1     -16.101 -27.554 -26.205  1.00  0.00     0.215 C 
HETATM   15  N5  UNL     1     -16.875 -28.362 -27.078  1.00  0.00    -0.065 NA
HETATM   16  N6  UNL     1     -16.748 -26.519 -25.502  1.00  0.00    -0.065 NA
ATOM     17  H4  UNL     1     -14.316 -27.161 -25.425  1.00  0.00     0.189 HD
ENDBRANCH   9  13
BRANCH  12  18
HETATM   18  N8  UNL     1      -9.958 -30.359 -28.284  1.00  0.00    -0.193 N 
ATOM     19  H8  UNL     1      -9.251 -30.941 -27.834  1.00  0.00     0.216 HD
BRANCH  18  20
HETATM   20  O1  UNL     1     -10.017 -30.332 -29.526  1.00  0.00    -0.274 OA
ATOM     21  H1  UNL     1      -9.326 -30.695 -30.069  1.00  0.00     0.246 HD
ENDBRANCH  18  20
ENDBRANCH  12  18
TORSDOF 3
ENDMDL
MODEL 2
REMARK VINA RESULT: -6.946158381      1.916      2.124
REMARK  3 active torsions:
REMARK  status: ('A' for Active; 'I' for Inactive)
REMARK    1  A    between atoms: N3_9  and  N4_11 
REMARK    2  A    between atoms: N7_17  and  N8_18 
REMARK    3  A    between atoms: N8_18  and  O1_20 
ROOT
HETATM    1  N1  UNL     1      -8.969 -28.572 -25.470  1.00  0.00    -0.233 N 
ATOM      2  H11 UNL     1      -8.305 -29.203 -25.021  1.00  0.00     0.174 HD
ATOM      3  H12 UNL     1      -8.764 -27.574 -25.429  1.00  0.00     0.174 HD
HETATM    4  C1  UNL     1     -10.007 -29.062 -26.048  1.00  0.00     0.690 C 
HETATM    5  N2  UNL     1     -10.946 -28.169 -26.683  1.00  0.00    -0.220 N 
ATOM      6  H2  UNL     1     -10.856 -27.155 -26.606  1.00  0.00     0.178 HD
HETATM    7  C2  UNL     1     -12.022 -28.779 -27.434  1.00  0.00     0.194 C 
HETATM    8  C3  UNL     1     -12.547 -29.937 -26.704  1.00  0.00     0.042 C 
HETATM    9  N3  UNL     1     -13.780 -30.033 -26.431  1.00  0.00    -0.303 N 
ATOM     10  H3  UNL     1     -14.137 -30.842 -25.923  1.00  0.00     0.186 HD
HETATM   11  C5  UNL     1     -11.616 -30.996 -26.287  1.00  0.00     0.225 C 
HETATM   12  N7  UNL     1     -10.290 -30.439 -26.103  1.00  0.00    -0.100 N 
ENDROOT
BRANCH   9  13
HETATM   13  N4  UNL     1     -14.642 -29.014 -26.839  1.00  0.00    -0.276 N 
HETATM   14  C4  UNL     1     -15.909 -29.184 -26.868  1.00  0.00     0.215 C 
HETATM   15  N5  UNL     1     -16.488 -30.422 -26.486  1.00  0.00    -0.065 NA
HETATM   16  N6  UNL     1     -16.764 -28.145 -27.283  1.00  0.00    -0.065 NA
ATOM     17  H4  UNL     1     -14.253 -28.114 -27.119  1.00  0.00     0.189 HD
ENDBRANCH   9  13
BRANCH  12  18
HETATM   18  N8  UNL     1      -9.212 -31.336 -25.971  1.00  0.00    -0.193 N 
ATOM     19  H8  UNL     1      -8.717 -31.644 -26.808  1.00  0.00     0.216 HD
BRANCH  18  20
HETATM   20  O1  UNL     1      -8.847 -31.764 -24.861  1.00  0.00    -0.274 OA
ATOM     21  H1  UNL     1      -8.625 -32.677 -24.724  1.00  0.00     0.246 HD
ENDBRANCH  18  20
ENDBRANCH  12  18
TORSDOF 3
ENDMDL
MODEL 3
REMARK VINA RESULT: -6.923247530      1.313      1.416
REMARK  3 active torsions:
REMARK  status: ('A' for Active; 'I' for Inactive)
REMARK    1  A    between atoms: N3_9  and  N4_11 
REMARK    2  A    between atoms: N7_17  and  N8_18 
REMARK    3  A    between atoms: N8_18  and  O1_20 
ROOT
HETATM    1  N1  UNL     1      -9.275 -28.588 -25.373  1.00  0.00    -0.233 N 
ATOM      2  H11 UNL     1      -8.558 -29.312 -25.329  1.00  0.00     0.174 HD
ATOM      3  H12 UNL     1      -9.186 -27.803 -24.729  1.00  0.00     0.174 HD
HETATM    4  C1  UNL     1     -10.233 -28.707 -26.222  1.00  0.00     0.690 C 
HETATM    5  N2  UNL     1     -11.248 -27.683 -26.284  1.00  0.00    -0.220 N 
ATOM      6  H2  UNL     1     -11.276 -26.916 -25.612  1.00  0.00     0.178 HD
HETATM    7  C2  UNL     1     -12.225 -27.796 -27.345  1.00  0.00     0.194 C 
HETATM    8  C3  UNL     1     -12.638 -29.196 -27.498  1.00  0.00     0.042 C 
HETATM    9  N3  UNL     1     -13.859 -29.526 -27.450  1.00  0.00    -0.303 N 
ATOM     10  H3  UNL     1     -14.137 -30.501 -27.557  1.00  0.00     0.186 HD
HETATM   11  C5  UNL     1     -11.605 -30.221 -27.709  1.00  0.00     0.225 C 
HETATM   12  N7  UNL     1     -10.356 -29.791 -27.110  1.00  0.00    -0.100 N 
ENDROOT
BRANCH   9  13
HETATM   13  N4  UNL     1     -14.818 -28.533 -27.249  1.00  0.00    -0.276 N 
HETATM   14  C4  UNL     1     -16.006 -28.819 -26.874  1.00  0.00     0.215 C 
HETATM   15  N5  UNL     1     -16.395 -30.165 -26.648  1.00  0.00    -0.065 NA
HETATM   16  N6  UNL     1     -16.963 -27.805 -26.675  1.00  0.00    -0.065 NA
ATOM     17  H4  UNL     1     -14.566 -27.557 -27.404  1.00  0.00     0.189 HD
ENDBRANCH   9  13
BRANCH  12  18
HETATM   18  N8  UNL     1      -9.188 -30.506 -27.439  1.00  0.00    -0.193 N 
ATOM     19  H8  UNL     1      -8.931 -30.612 -28.420  1.00  0.00     0.216 HD
BRANCH  18  20
HETATM   20  O1  UNL     1      -8.461 -31.012 -26.565  1.00  0.00    -0.274 OA
ATOM     21  H1  UNL     1      -8.688 -30.977 -25.643  1.00  0.00     0.246 HD
ENDBRANCH  18  20
ENDBRANCH  12  18
TORSDOF 3
ENDMDL
MODEL 4
REMARK VINA RESULT: -6.585826237      1.341      1.401
REMARK  3 active torsions:
REMARK  status: ('A' for Active; 'I' for Inactive)
REMARK    1  A    between atoms: N3_9  and  N4_11 
REMARK    2  A    between atoms: N7_17  and  N8_18 
REMARK    3  A    between atoms: N8_18  and  O1_20 
ROOT
HETATM    1  N1  UNL     1     -10.289 -30.545 -26.298  1.00  0.00    -0.233 N 
ATOM      2  H11 UNL     1      -9.664 -31.048 -26.927  1.00  0.00     0.174 HD
ATOM      3  H12 UNL     1     -10.170 -30.701 -25.297  1.00  0.00     0.174 HD
HETATM    4  C1  UNL     1     -11.176 -29.757 -26.794  1.00  0.00     0.690 C 
HETATM    5  N2  UNL     1     -12.060 -29.044 -25.903  1.00  0.00    -0.220 N 
ATOM      6  H2  UNL     1     -12.061 -29.218 -24.898  1.00  0.00     0.178 HD
HETATM    7  C2  UNL     1     -12.946 -28.072 -26.505  1.00  0.00     0.194 C 
HETATM    8  C3  UNL     1     -13.498 -28.604 -27.756  1.00  0.00     0.042 C 
HETATM    9  N3  UNL     1     -14.748 -28.650 -27.951  1.00  0.00    -0.303 N 
ATOM     10  H3  UNL     1     -15.124 -29.022 -28.823  1.00  0.00     0.186 HD
HETATM   11  C5  UNL     1     -12.573 -29.088 -28.790  1.00  0.00     0.225 C 
HETATM   12  N7  UNL     1     -11.341 -29.542 -28.174  1.00  0.00    -0.100 N 
ENDROOT
BRANCH   9  13
HETATM   13  N4  UNL     1     -15.604 -28.184 -26.952  1.00  0.00    -0.276 N 
HETATM   14  C4  UNL     1     -16.404 -28.970 -26.339  1.00  0.00     0.215 C 
HETATM   15  N5  UNL     1     -16.452 -30.353 -26.654  1.00  0.00    -0.065 NA
HETATM   16  N6  UNL     1     -17.261 -28.483 -25.333  1.00  0.00    -0.065 NA
ATOM     17  H4  UNL     1     -15.590 -27.194 -26.705  1.00  0.00     0.189 HD
ENDBRANCH   9  13
BRANCH  12  18
HETATM   18  N8  UNL     1     -10.236 -29.786 -29.013  1.00  0.00    -0.193 N 
ATOM     19  H8  UNL     1      -9.294 -29.660 -28.643  1.00  0.00     0.216 HD
BRANCH  18  20
HETATM   20  O1  UNL     1     -10.378 -30.151 -30.195  1.00  0.00    -0.274 OA
ATOM     21  H1  UNL     1      -9.880 -30.873 -30.558  1.00  0.00     0.246 HD
ENDBRANCH  18  20
ENDBRANCH  12  18
TORSDOF 3
ENDMDL
MODEL 5
REMARK VINA RESULT: -6.352774070      1.560      2.407
REMARK  3 active torsions:
REMARK  status: ('A' for Active; 'I' for Inactive)
REMARK    1  A    between atoms: N3_9  and  N4_11 
REMARK    2  A    between atoms: N7_17  and  N8_18 
REMARK    3  A    between atoms: N8_18  and  O1_20 
ROOT
HETATM    1  N1  UNL     1     -10.425 -30.094 -29.423  1.00  0.00    -0.233 N 
ATOM      2  H11 UNL     1      -9.448 -29.837 -29.566  1.00  0.00     0.174 HD
ATOM      3  H12 UNL     1     -10.880 -30.629 -30.162  1.00  0.00     0.174 HD
HETATM    4  C1  UNL     1     -11.015 -29.734 -28.339  1.00  0.00     0.690 C 
HETATM    5  N2  UNL     1     -12.397 -30.099 -28.136  1.00  0.00    -0.220 N 
ATOM      6  H2  UNL     1     -12.943 -30.554 -28.868  1.00  0.00     0.178 HD
HETATM    7  C2  UNL     1     -12.971 -29.788 -26.845  1.00  0.00     0.194 C 
HETATM    8  C3  UNL     1     -12.531 -28.458 -26.409  1.00  0.00     0.042 C 
HETATM    9  N3  UNL     1     -13.368 -27.567 -26.083  1.00  0.00    -0.303 N 
ATOM     10  H3  UNL     1     -13.054 -26.645 -25.781  1.00  0.00     0.186 HD
HETATM   11  C5  UNL     1     -11.090 -28.170 -26.355  1.00  0.00     0.225 C 
HETATM   12  N7  UNL     1     -10.388 -28.995 -27.319  1.00  0.00    -0.100 N 
ENDROOT
BRANCH   9  13
HETATM   13  N4  UNL     1     -14.730 -27.867 -26.143  1.00  0.00    -0.276 N 
HETATM   14  C4  UNL     1     -15.617 -27.006 -25.817  1.00  0.00     0.215 C 
HETATM   15  N5  UNL     1     -15.249 -25.708 -25.379  1.00  0.00    -0.065 NA
HETATM   16  N6  UNL     1     -16.987 -27.326 -25.883  1.00  0.00    -0.065 NA
ATOM     17  H4  UNL     1     -15.023 -28.793 -26.454  1.00  0.00     0.189 HD
ENDBRANCH   9  13
BRANCH  12  18
HETATM   18  N8  UNL     1      -8.983 -29.062 -27.229  1.00  0.00    -0.193 N 
ATOM     19  H8  UNL     1      -8.427 -28.958 -28.078  1.00  0.00     0.216 HD
BRANCH  18  20
HETATM   20  O1  UNL     1      -8.403 -29.244 -26.144  1.00  0.00    -0.274 OA
ATOM     21  H1  UNL     1      -8.832 -29.674 -25.413  1.00  0.00     0.246 HD
ENDBRANCH  18  20
ENDBRANCH  12  18
TORSDOF 3
ENDMDL
