MODEL 1
REMARK VINA RESULT: -4.359218991      0.000      0.000
REMARK  2 active torsions:
REMARK  status: ('A' for Active; 'I' for Inactive)
REMARK    1  A    between atoms: C3_3  and  C4_4 
REMARK    2  A    between atoms: N1_9  and  O1_11 
ROOT
HETATM    1  C1  UNL     1      -2.307  -8.779  23.906  1.00  0.00     0.112 C 
HETATM    2  C2  UNL     1      -0.942  -8.563  24.422  1.00  0.00    -0.108 C 
HETATM    3  C3  UNL     1       0.178  -8.408  24.842  1.00  0.00    -0.063 C 
ENDROOT
BRANCH   3   4
HETATM    4  C4  UNL     1       1.559  -8.237  25.346  1.00  0.00     0.166 C 
HETATM    5  F1  UNL     1       1.880  -6.908  25.142  1.00  0.00    -0.229 F 
HETATM    6  C5  UNL     1       2.503  -9.154  24.562  1.00  0.00     0.063 C 
HETATM    7  C6  UNL     1       3.912  -8.842  24.947  1.00  0.00     0.058 C 
HETATM    8  C7  UNL     1       4.026  -9.016  26.426  1.00  0.00     0.010 C 
HETATM    9  N1  UNL     1       5.172  -8.809  26.999  1.00  0.00    -0.277 N 
HETATM   10  C8  UNL     1       2.829  -9.418  27.165  1.00  0.00     0.058 C 
ATOM     11  H1  UNL     1       5.260  -8.927  28.008  1.00  0.00     0.193 HD
HETATM   12  C9  UNL     1       1.613  -8.596  26.796  1.00  0.00     0.063 C 
BRANCH   9  13
HETATM   13  O1  UNL     1       6.259  -8.436  26.264  1.00  0.00    -0.290 OA
ATOM     14  H1  UNL     1       6.342  -7.548  25.938  1.00  0.00     0.244 HD
ENDBRANCH   9  13
ENDBRANCH   3   4
TORSDOF 2
ENDMDL
MODEL 2
REMARK VINA RESULT: -4.159295503      1.635      2.164
REMARK  2 active torsions:
REMARK  status: ('A' for Active; 'I' for Inactive)
REMARK    1  A    between atoms: C3_3  and  C4_4 
REMARK    2  A    between atoms: N1_9  and  O1_11 
ROOT
HETATM    1  C1  UNL     1      -3.598  -9.146  23.393  1.00  0.00     0.112 C 
HETATM    2  C2  UNL     1      -2.156  -9.074  23.694  1.00  0.00    -0.108 C 
HETATM    3  C3  UNL     1      -0.972  -9.030  23.925  1.00  0.00    -0.063 C 
ENDROOT
BRANCH   3   4
HETATM    4  C4  UNL     1       0.484  -8.981  24.186  1.00  0.00     0.166 C 
HETATM    5  F1  UNL     1       1.080  -9.707  23.172  1.00  0.00    -0.229 F 
HETATM    6  C5  UNL     1       0.776  -9.610  25.552  1.00  0.00     0.063 C 
HETATM    7  C6  UNL     1       2.255  -9.725  25.726  1.00  0.00     0.058 C 
HETATM    8  C7  UNL     1       2.836  -8.357  25.579  1.00  0.00     0.010 C 
HETATM    9  N1  UNL     1       4.118  -8.200  25.702  1.00  0.00    -0.277 N 
HETATM   10  C8  UNL     1       1.922  -7.249  25.303  1.00  0.00     0.058 C 
ATOM     11  H1  UNL     1       4.523  -7.269  25.604  1.00  0.00     0.193 HD
HETATM   12  C9  UNL     1       0.948  -7.560  24.187  1.00  0.00     0.063 C 
BRANCH   9  13
HETATM   13  O1  UNL     1       4.927  -9.267  25.960  1.00  0.00    -0.290 OA
ATOM     14  H1  UNL     1       5.214  -9.838  25.257  1.00  0.00     0.244 HD
ENDBRANCH   9  13
ENDBRANCH   3   4
TORSDOF 2
ENDMDL
MODEL 3
REMARK VINA RESULT: -4.121829014      3.850      5.321
REMARK  2 active torsions:
REMARK  status: ('A' for Active; 'I' for Inactive)
REMARK    1  A    between atoms: C3_3  and  C4_4 
REMARK    2  A    between atoms: N1_9  and  O1_11 
ROOT
HETATM    1  C1  UNL     1       5.430  -8.600  26.591  1.00  0.00     0.112 C 
HETATM    2  C2  UNL     1       4.091  -8.727  25.986  1.00  0.00    -0.108 C 
HETATM    3  C3  UNL     1       3.004  -8.842  25.474  1.00  0.00    -0.063 C 
ENDROOT
BRANCH   3   4
HETATM    4  C4  UNL     1       1.678  -9.003  24.836  1.00  0.00     0.166 C 
HETATM    5  F1  UNL     1       1.895  -9.725  23.677  1.00  0.00    -0.229 F 
HETATM    6  C5  UNL     1       1.097  -7.622  24.518  1.00  0.00     0.063 C 
HETATM    7  C6  UNL     1      -0.148  -7.794  23.712  1.00  0.00     0.058 C 
HETATM    8  C7  UNL     1      -1.083  -8.651  24.500  1.00  0.00     0.010 C 
HETATM    9  N1  UNL     1      -2.248  -8.935  24.005  1.00  0.00    -0.277 N 
HETATM   10  C8  UNL     1      -0.636  -9.133  25.807  1.00  0.00     0.058 C 
ATOM     11  H1  UNL     1      -2.894  -9.519  24.537  1.00  0.00     0.193 HD
HETATM   12  C9  UNL     1       0.757  -9.725  25.766  1.00  0.00     0.063 C 
BRANCH   9  13
HETATM   13  O1  UNL     1      -2.618  -8.460  22.781  1.00  0.00    -0.290 OA
ATOM     14  H1  UNL     1      -1.965  -8.280  22.115  1.00  0.00     0.244 HD
ENDBRANCH   9  13
ENDBRANCH   3   4
TORSDOF 2
ENDMDL
MODEL 4
REMARK VINA RESULT: -3.913007907      4.393      5.958
REMARK  2 active torsions:
REMARK  status: ('A' for Active; 'I' for Inactive)
REMARK    1  A    between atoms: C3_3  and  C4_4 
REMARK    2  A    between atoms: N1_9  and  O1_11 
ROOT
HETATM    1  C1  UNL     1       4.038  -8.259  26.025  1.00  0.00     0.112 C 
HETATM    2  C2  UNL     1       2.598  -8.245  25.703  1.00  0.00    -0.108 C 
HETATM    3  C3  UNL     1       1.423  -8.253  25.429  1.00  0.00    -0.063 C 
ENDROOT
BRANCH   3   4
HETATM    4  C4  UNL     1      -0.018  -8.286  25.093  1.00  0.00     0.166 C 
HETATM    5  F1  UNL     1      -0.644  -7.462  26.009  1.00  0.00    -0.229 F 
HETATM    6  C5  UNL     1      -0.534  -9.723  25.208  1.00  0.00     0.063 C 
HETATM    7  C6  UNL     1      -2.019  -9.719  25.050  1.00  0.00     0.058 C 
HETATM    8  C7  UNL     1      -2.331  -9.094  23.730  1.00  0.00     0.010 C 
HETATM    9  N1  UNL     1      -3.570  -8.987  23.360  1.00  0.00    -0.277 N 
HETATM   10  C8  UNL     1      -1.214  -8.628  22.909  1.00  0.00     0.058 C 
ATOM     11  H1  UNL     1      -3.793  -8.562  22.460  1.00  0.00     0.193 HD
HETATM   12  C9  UNL     1      -0.219  -7.800  23.693  1.00  0.00     0.063 C 
BRANCH   9  13
HETATM   13  O1  UNL     1      -4.577  -9.438  24.164  1.00  0.00    -0.290 OA
ATOM     14  H1  UNL     1      -4.929 -10.313  24.053  1.00  0.00     0.244 HD
ENDBRANCH   9  13
ENDBRANCH   3   4
TORSDOF 2
ENDMDL
MODEL 5
REMARK VINA RESULT: -3.872196293      4.068      5.665
REMARK  2 active torsions:
REMARK  status: ('A' for Active; 'I' for Inactive)
REMARK    1  A    between atoms: C3_3  and  C4_4 
REMARK    2  A    between atoms: N1_9  and  O1_11 
ROOT
HETATM    1  C1  UNL     1       4.679  -8.863  26.279  1.00  0.00     0.112 C 
HETATM    2  C2  UNL     1       3.355  -8.615  25.679  1.00  0.00    -0.108 C 
HETATM    3  C3  UNL     1       2.277  -8.425  25.172  1.00  0.00    -0.063 C 
ENDROOT
BRANCH   3   4
HETATM    4  C4  UNL     1       0.956  -8.212  24.539  1.00  0.00     0.166 C 
HETATM    5  F1  UNL     1       0.881  -6.863  24.251  1.00  0.00    -0.229 F 
HETATM    6  C5  UNL     1      -0.148  -8.624  25.517  1.00  0.00     0.063 C 
HETATM    7  C6  UNL     1      -1.472  -8.236  24.945  1.00  0.00     0.058 C 
HETATM    8  C7  UNL     1      -1.601  -8.896  23.612  1.00  0.00     0.010 C 
HETATM    9  N1  UNL     1      -2.683  -8.714  22.920  1.00  0.00    -0.277 N 
HETATM   10  C8  UNL     1      -0.490  -9.725  23.146  1.00  0.00     0.058 C 
ATOM     11  H1  UNL     1      -2.780  -9.161  22.009  1.00  0.00     0.193 HD
HETATM   12  C9  UNL     1       0.852  -9.043  23.300  1.00  0.00     0.063 C 
BRANCH   9  13
HETATM   13  O1  UNL     1      -3.692  -7.930  23.400  1.00  0.00    -0.290 OA
ATOM     14  H1  UNL     1      -4.561  -8.289  23.535  1.00  0.00     0.244 HD
ENDBRANCH   9  13
ENDBRANCH   3   4
TORSDOF 2
ENDMDL
