MODEL 1
REMARK VINA RESULT: -8.370939076      0.000      0.000
REMARK  11 active torsions:
REMARK  status: ('A' for Active; 'I' for Inactive)
REMARK    1  A    between atoms: C4_4  and  O1_5 
REMARK    2  A    between atoms: C6_8  and  O2_9 
REMARK    3  A    between atoms: C12_16  and  C13_17 
REMARK    4  A    between atoms: C13_17  and  C14_18 
REMARK    5  A    between atoms: C14_18  and  C15_19 
REMARK    6  A    between atoms: C15_19  and  C16_20 
REMARK    7  A    between atoms: C16_20  and  C17_21 
REMARK    8  A    between atoms: C17_21  and  C18_22 
REMARK    9  A    between atoms: C18_22  and  C20_24 
REMARK   10  A    between atoms: C24_29  and  O4_30 
REMARK   11  A    between atoms: C25_32  and  O5_33 
ROOT
HETATM    1  C1  UNL     1       7.648  -5.586  40.230  1.00  0.00     0.017 C 
HETATM    2  C2  UNL     1       8.504  -5.032  41.064  1.00  0.00    -0.052 C 
HETATM    3  C3  UNL     1       8.267  -3.785  41.828  1.00  0.00     0.068 C 
HETATM    4  C4  UNL     1       8.939  -4.137  43.163  1.00  0.00     0.132 C 
HETATM    5  C5  UNL     1      10.202  -4.858  42.734  1.00  0.00     0.088 C 
HETATM    6  C6  UNL     1       9.859  -5.511  41.420  1.00  0.00     0.090 C 
HETATM    7  C7  UNL     1      10.791  -5.164  40.300  1.00  0.00     0.048 C 
HETATM    8  C8  UNL     1      12.238  -5.207  40.743  1.00  0.00    -0.009 C 
HETATM    9  C9  UNL     1      13.076  -4.753  39.567  1.00  0.00     0.010 C 
HETATM   10  C10 UNL     1      12.519  -4.362  41.920  1.00  0.00     0.025 C 
HETATM   11  C11 UNL     1      12.876  -5.074  43.229  1.00  0.00     0.015 C 
HETATM   12  C12 UNL     1      12.210  -3.914  43.895  1.00  0.00     0.021 C 
HETATM   13  C25 UNL     1      11.301  -3.866  42.650  1.00  0.00     0.074 C 
ENDROOT
BRANCH  12  14
HETATM   14  C13 UNL     1      11.525  -4.026  45.179  1.00  0.00     0.007 C 
BRANCH  14  15
HETATM   15  C14 UNL     1      11.475  -2.775  45.978  1.00  0.00     0.000 C 
BRANCH  15  16
HETATM   16  C15 UNL     1      10.348  -1.840  45.761  1.00  0.00     0.000 C 
BRANCH  16  17
HETATM   17  C16 UNL     1       9.900  -1.317  47.151  1.00  0.00     0.001 C 
BRANCH  17  18
HETATM   18  C17 UNL     1       8.739  -0.376  46.997  1.00  0.00     0.011 C 
BRANCH  18  19
HETATM   19  C18 UNL     1       7.536  -1.076  47.641  1.00  0.00     0.042 C 
HETATM   20  C19 UNL     1       7.979  -2.217  48.511  1.00  0.00     0.017 C 
BRANCH  19  21
HETATM   21  C20 UNL     1       6.639  -1.618  46.577  1.00  0.00     0.090 A 
HETATM   22  O3  UNL     1       6.926  -2.546  45.703  1.00  0.00    -0.323 OA
HETATM   23  C21 UNL     1       5.902  -2.768  44.926  1.00  0.00     0.151 A 
HETATM   24  C22 UNL     1       4.859  -1.943  45.296  1.00  0.00    -0.004 A 
HETATM   25  C23 UNL     1       3.520  -1.883  44.669  1.00  0.00     0.053 C 
HETATM   26  C24 UNL     1       5.349  -1.201  46.369  1.00  0.00     0.103 A 
BRANCH  26  27
HETATM   27  O4  UNL     1       4.586  -0.262  47.010  1.00  0.00    -0.358 OA
ATOM     28  H4  UNL     1       3.711  -0.308  47.379  1.00  0.00     0.217 HD
ENDBRANCH  26  27
ENDBRANCH  19  21
ENDBRANCH  18  19
ENDBRANCH  17  18
ENDBRANCH  16  17
ENDBRANCH  15  16
ENDBRANCH  14  15
ENDBRANCH  12  14
BRANCH  13  29
HETATM   29  O5  UNL     1      10.971  -2.579  42.248  1.00  0.00    -0.388 OA
ATOM     30  H5  UNL     1      11.657  -2.054  41.855  1.00  0.00     0.210 HD
ENDBRANCH  13  29
BRANCH   4  31
HETATM   31  O1  UNL     1       8.055  -4.993  43.817  1.00  0.00    -0.395 OA
ATOM     32  H1  UNL     1       8.524  -5.812  43.927  1.00  0.00     0.210 HD
ENDBRANCH   4  31
BRANCH   6  33
HETATM   33  O2  UNL     1       9.772  -6.919  41.540  1.00  0.00    -0.385 OA
ATOM     34  H2  UNL     1      10.490  -7.189  42.100  1.00  0.00     0.211 HD
ENDBRANCH   6  33
TORSDOF 11
ENDMDL
MODEL 2
REMARK VINA RESULT: -8.335195473      1.845      3.676
REMARK  11 active torsions:
REMARK  status: ('A' for Active; 'I' for Inactive)
REMARK    1  A    between atoms: C4_4  and  O1_5 
REMARK    2  A    between atoms: C6_8  and  O2_9 
REMARK    3  A    between atoms: C12_16  and  C13_17 
REMARK    4  A    between atoms: C13_17  and  C14_18 
REMARK    5  A    between atoms: C14_18  and  C15_19 
REMARK    6  A    between atoms: C15_19  and  C16_20 
REMARK    7  A    between atoms: C16_20  and  C17_21 
REMARK    8  A    between atoms: C17_21  and  C18_22 
REMARK    9  A    between atoms: C18_22  and  C20_24 
REMARK   10  A    between atoms: C24_29  and  O4_30 
REMARK   11  A    between atoms: C25_32  and  O5_33 
ROOT
HETATM    1  C1  UNL     1      14.039  -5.051  40.756  1.00  0.00     0.017 C 
HETATM    2  C2  UNL     1      12.923  -4.927  41.444  1.00  0.00    -0.052 C 
HETATM    3  C3  UNL     1      12.808  -5.047  42.916  1.00  0.00     0.068 C 
HETATM    4  C4  UNL     1      11.775  -3.951  43.212  1.00  0.00     0.132 C 
HETATM    5  C5  UNL     1      10.773  -4.107  42.084  1.00  0.00     0.088 C 
HETATM    6  C6  UNL     1      11.566  -4.647  40.922  1.00  0.00     0.090 C 
HETATM    7  C7  UNL     1      11.015  -5.912  40.339  1.00  0.00     0.048 C 
HETATM    8  C8  UNL     1       9.510  -5.850  40.187  1.00  0.00    -0.009 C 
HETATM    9  C9  UNL     1       9.059  -7.203  39.681  1.00  0.00     0.010 C 
HETATM   10  C10 UNL     1       8.805  -5.518  41.441  1.00  0.00     0.025 C 
HETATM   11  C11 UNL     1       8.105  -4.158  41.516  1.00  0.00     0.015 C 
HETATM   12  C12 UNL     1       8.434  -4.211  42.973  1.00  0.00     0.021 C 
HETATM   13  C25 UNL     1       9.686  -5.004  42.547  1.00  0.00     0.074 C 
ENDROOT
BRANCH  12  14
HETATM   14  C13 UNL     1       8.681  -3.014  43.772  1.00  0.00     0.007 C 
BRANCH  14  15
HETATM   15  C14 UNL     1       8.410  -3.159  45.225  1.00  0.00     0.000 C 
BRANCH  15  16
HETATM   16  C15 UNL     1       8.648  -1.996  46.110  1.00  0.00     0.000 C 
BRANCH  16  17
HETATM   17  C16 UNL     1       7.269  -1.354  46.416  1.00  0.00     0.001 C 
BRANCH  17  18
HETATM   18  C17 UNL     1       6.182  -2.384  46.286  1.00  0.00     0.011 C 
BRANCH  18  19
HETATM   19  C18 UNL     1       5.078  -1.733  45.444  1.00  0.00     0.042 C 
HETATM   20  C19 UNL     1       3.840  -1.506  46.262  1.00  0.00     0.017 C 
BRANCH  19  21
HETATM   21  C20 UNL     1       4.727  -2.622  44.297  1.00  0.00     0.090 A 
HETATM   22  O3  UNL     1       5.169  -3.832  44.076  1.00  0.00    -0.323 OA
HETATM   23  C21 UNL     1       4.650  -4.309  42.978  1.00  0.00     0.151 A 
HETATM   24  C22 UNL     1       3.807  -3.369  42.423  1.00  0.00    -0.004 A 
HETATM   25  C23 UNL     1       3.023  -3.517  41.178  1.00  0.00     0.053 C 
HETATM   26  C24 UNL     1       3.865  -2.278  43.288  1.00  0.00     0.103 A 
BRANCH  26  27
HETATM   27  O4  UNL     1       3.147  -1.133  43.061  1.00  0.00    -0.358 OA
ATOM     28  H4  UNL     1       2.314  -0.989  42.626  1.00  0.00     0.217 HD
ENDBRANCH  26  27
ENDBRANCH  19  21
ENDBRANCH  18  19
ENDBRANCH  17  18
ENDBRANCH  16  17
ENDBRANCH  15  16
ENDBRANCH  14  15
ENDBRANCH  12  14
BRANCH  13  29
HETATM   29  O5  UNL     1      10.028  -6.023  43.424  1.00  0.00    -0.388 OA
ATOM     30  H5  UNL     1       9.766  -6.906  43.193  1.00  0.00     0.210 HD
ENDBRANCH  13  29
BRANCH   4  31
HETATM   31  O1  UNL     1      12.467  -2.745  43.120  1.00  0.00    -0.395 OA
ATOM     32  H1  UNL     1      12.020  -2.241  42.451  1.00  0.00     0.210 HD
ENDBRANCH   4  31
BRANCH   6  33
HETATM   33  O2  UNL     1      11.717  -3.683  39.897  1.00  0.00    -0.385 OA
ATOM     34  H2  UNL     1      10.978  -3.091  39.970  1.00  0.00     0.211 HD
ENDBRANCH   6  33
TORSDOF 11
ENDMDL
MODEL 3
REMARK VINA RESULT: -8.331507020      3.541      7.673
REMARK  11 active torsions:
REMARK  status: ('A' for Active; 'I' for Inactive)
REMARK    1  A    between atoms: C4_4  and  O1_5 
REMARK    2  A    between atoms: C6_8  and  O2_9 
REMARK    3  A    between atoms: C12_16  and  C13_17 
REMARK    4  A    between atoms: C13_17  and  C14_18 
REMARK    5  A    between atoms: C14_18  and  C15_19 
REMARK    6  A    between atoms: C15_19  and  C16_20 
REMARK    7  A    between atoms: C16_20  and  C17_21 
REMARK    8  A    between atoms: C17_21  and  C18_22 
REMARK    9  A    between atoms: C18_22  and  C20_24 
REMARK   10  A    between atoms: C24_29  and  O4_30 
REMARK   11  A    between atoms: C25_32  and  O5_33 
ROOT
HETATM    1  C1  UNL     1       8.315  -5.286  39.164  1.00  0.00     0.017 C 
HETATM    2  C2  UNL     1       8.926  -5.084  40.314  1.00  0.00    -0.052 C 
HETATM    3  C3  UNL     1      10.181  -5.745  40.741  1.00  0.00     0.068 C 
HETATM    4  C4  UNL     1      10.881  -4.586  41.465  1.00  0.00     0.132 C 
HETATM    5  C5  UNL     1       9.752  -3.926  42.231  1.00  0.00     0.088 C 
HETATM    6  C6  UNL     1       8.514  -4.179  41.411  1.00  0.00     0.090 C 
HETATM    7  C7  UNL     1       7.399  -4.833  42.168  1.00  0.00     0.048 C 
HETATM    8  C8  UNL     1       7.213  -4.214  43.536  1.00  0.00    -0.009 C 
HETATM    9  C9  UNL     1       6.133  -5.008  44.239  1.00  0.00     0.010 C 
HETATM   10  C10 UNL     1       8.445  -4.204  44.350  1.00  0.00     0.025 C 
HETATM   11  C11 UNL     1       9.083  -2.843  44.644  1.00  0.00     0.015 C 
HETATM   12  C12 UNL     1      10.378  -3.590  44.633  1.00  0.00     0.021 C 
HETATM   13  C25 UNL     1       9.708  -4.511  43.593  1.00  0.00     0.074 C 
ENDROOT
BRANCH  12  14
HETATM   14  C13 UNL     1      11.639  -2.979  44.223  1.00  0.00     0.007 C 
BRANCH  14  15
HETATM   15  C14 UNL     1      12.859  -3.628  44.766  1.00  0.00     0.000 C 
BRANCH  15  16
HETATM   16  C15 UNL     1      13.561  -4.630  43.931  1.00  0.00     0.000 C 
BRANCH  16  17
HETATM   17  C16 UNL     1      13.491  -5.989  44.677  1.00  0.00     0.001 C 
BRANCH  17  18
HETATM   18  C17 UNL     1      14.360  -5.948  45.902  1.00  0.00     0.011 C 
BRANCH  18  19
HETATM   19  C18 UNL     1      15.407  -7.053  45.717  1.00  0.00     0.042 C 
HETATM   20  C19 UNL     1      15.771  -7.676  47.034  1.00  0.00     0.017 C 
BRANCH  19  21
HETATM   21  C20 UNL     1      16.645  -6.480  45.110  1.00  0.00     0.090 A 
HETATM   22  O3  UNL     1      17.424  -7.048  44.229  1.00  0.00    -0.323 OA
HETATM   23  C21 UNL     1      18.414  -6.256  43.922  1.00  0.00     0.151 A 
HETATM   24  C22 UNL     1      18.298  -5.081  44.636  1.00  0.00    -0.004 A 
HETATM   25  C23 UNL     1      19.215  -3.922  44.578  1.00  0.00     0.053 C 
HETATM   26  C24 UNL     1      17.145  -5.238  45.404  1.00  0.00     0.103 A 
BRANCH  26  27
HETATM   27  O4  UNL     1      16.702  -4.260  46.255  1.00  0.00    -0.358 OA
ATOM     28  H4  UNL     1      17.166  -3.704  46.870  1.00  0.00     0.217 HD
ENDBRANCH  26  27
ENDBRANCH  19  21
ENDBRANCH  18  19
ENDBRANCH  17  18
ENDBRANCH  16  17
ENDBRANCH  15  16
ENDBRANCH  14  15
ENDBRANCH  12  14
BRANCH  13  29
HETATM   29  O5  UNL     1      10.054  -5.848  43.726  1.00  0.00    -0.388 OA
ATOM     30  H5  UNL     1       9.395  -6.495  43.505  1.00  0.00     0.210 HD
ENDBRANCH  13  29
BRANCH   4  31
HETATM   31  O1  UNL     1      11.375  -3.756  40.459  1.00  0.00    -0.395 OA
ATOM     32  H1  UNL     1      11.066  -4.130  39.642  1.00  0.00     0.210 HD
ENDBRANCH   4  31
BRANCH   6  33
HETATM   33  O2  UNL     1       8.037  -2.995  40.801  1.00  0.00    -0.385 OA
ATOM     34  H2  UNL     1       8.311  -3.028  39.892  1.00  0.00     0.211 HD
ENDBRANCH   6  33
TORSDOF 11
ENDMDL
MODEL 4
REMARK VINA RESULT: -8.300335351      1.102      1.430
REMARK  11 active torsions:
REMARK  status: ('A' for Active; 'I' for Inactive)
REMARK    1  A    between atoms: C4_4  and  O1_5 
REMARK    2  A    between atoms: C6_8  and  O2_9 
REMARK    3  A    between atoms: C12_16  and  C13_17 
REMARK    4  A    between atoms: C13_17  and  C14_18 
REMARK    5  A    between atoms: C14_18  and  C15_19 
REMARK    6  A    between atoms: C15_19  and  C16_20 
REMARK    7  A    between atoms: C16_20  and  C17_21 
REMARK    8  A    between atoms: C17_21  and  C18_22 
REMARK    9  A    between atoms: C18_22  and  C20_24 
REMARK   10  A    between atoms: C24_29  and  O4_30 
REMARK   11  A    between atoms: C25_32  and  O5_33 
ROOT
HETATM    1  C1  UNL     1       7.792  -5.913  39.718  1.00  0.00     0.017 C 
HETATM    2  C2  UNL     1       8.560  -5.290  40.588  1.00  0.00    -0.052 C 
HETATM    3  C3  UNL     1       8.222  -4.019  41.270  1.00  0.00     0.068 C 
HETATM    4  C4  UNL     1       8.798  -4.285  42.669  1.00  0.00     0.132 C 
HETATM    5  C5  UNL     1      10.114  -4.978  42.374  1.00  0.00     0.088 C 
HETATM    6  C6  UNL     1       9.898  -5.702  41.070  1.00  0.00     0.090 C 
HETATM    7  C7  UNL     1      10.903  -5.372  40.011  1.00  0.00     0.048 C 
HETATM    8  C8  UNL     1      12.312  -5.342  40.565  1.00  0.00    -0.009 C 
HETATM    9  C9  UNL     1      13.224  -4.911  39.436  1.00  0.00     0.010 C 
HETATM   10  C10 UNL     1      12.471  -4.434  41.718  1.00  0.00     0.025 C 
HETATM   11  C11 UNL     1      12.747  -5.072  43.084  1.00  0.00     0.015 C 
HETATM   12  C12 UNL     1      11.992  -3.908  43.639  1.00  0.00     0.021 C 
HETATM   13  C25 UNL     1      11.183  -3.950  42.327  1.00  0.00     0.074 C 
ENDROOT
BRANCH  12  14
HETATM   14  C13 UNL     1      11.212  -3.987  44.871  1.00  0.00     0.007 C 
BRANCH  14  15
HETATM   15  C14 UNL     1      10.992  -2.690  45.562  1.00  0.00     0.000 C 
BRANCH  15  16
HETATM   16  C15 UNL     1       9.978  -2.623  46.638  1.00  0.00     0.000 C 
BRANCH  16  17
HETATM   17  C16 UNL     1       8.898  -1.600  46.198  1.00  0.00     0.001 C 
BRANCH  17  18
HETATM   18  C17 UNL     1       7.977  -2.226  45.189  1.00  0.00     0.011 C 
BRANCH  18  19
HETATM   19  C18 UNL     1       6.560  -1.789  45.578  1.00  0.00     0.042 C 
HETATM   20  C19 UNL     1       6.286  -2.078  47.026  1.00  0.00     0.017 C 
BRANCH  19  21
HETATM   21  C20 UNL     1       5.559  -2.529  44.754  1.00  0.00     0.090 A 
HETATM   22  O3  UNL     1       5.772  -3.595  44.029  1.00  0.00    -0.323 OA
HETATM   23  C21 UNL     1       4.668  -3.971  43.443  1.00  0.00     0.151 A 
HETATM   24  C22 UNL     1       3.648  -3.111  43.792  1.00  0.00    -0.004 A 
HETATM   25  C23 UNL     1       2.240  -3.187  43.343  1.00  0.00     0.053 C 
HETATM   26  C24 UNL     1       4.238  -2.179  44.643  1.00  0.00     0.103 A 
BRANCH  26  27
HETATM   27  O4  UNL     1       3.524  -1.151  45.201  1.00  0.00    -0.358 OA
ATOM     28  H4  UNL     1       2.875  -1.140  45.895  1.00  0.00     0.217 HD
ENDBRANCH  26  27
ENDBRANCH  19  21
ENDBRANCH  18  19
ENDBRANCH  17  18
ENDBRANCH  16  17
ENDBRANCH  15  16
ENDBRANCH  14  15
ENDBRANCH  12  14
BRANCH  13  29
HETATM   29  O5  UNL     1      10.842  -2.697  41.839  1.00  0.00    -0.388 OA
ATOM     30  H5  UNL     1      11.552  -2.111  41.604  1.00  0.00     0.210 HD
ENDBRANCH  13  29
BRANCH   4  31
HETATM   31  O1  UNL     1       7.894  -5.143  43.293  1.00  0.00    -0.395 OA
ATOM     32  H1  UNL     1       7.943  -4.939  44.219  1.00  0.00     0.210 HD
ENDBRANCH   4  31
BRANCH   6  33
HETATM   33  O2  UNL     1       9.848  -7.105  41.251  1.00  0.00    -0.385 OA
ATOM     34  H2  UNL     1      10.703  -7.441  41.009  1.00  0.00     0.211 HD
ENDBRANCH   6  33
TORSDOF 11
ENDMDL
MODEL 5
REMARK VINA RESULT: -8.261077370      2.262      4.333
REMARK  11 active torsions:
REMARK  status: ('A' for Active; 'I' for Inactive)
REMARK    1  A    between atoms: C4_4  and  O1_5 
REMARK    2  A    between atoms: C6_8  and  O2_9 
REMARK    3  A    between atoms: C12_16  and  C13_17 
REMARK    4  A    between atoms: C13_17  and  C14_18 
REMARK    5  A    between atoms: C14_18  and  C15_19 
REMARK    6  A    between atoms: C15_19  and  C16_20 
REMARK    7  A    between atoms: C16_20  and  C17_21 
REMARK    8  A    between atoms: C17_21  and  C18_22 
REMARK    9  A    between atoms: C18_22  and  C20_24 
REMARK   10  A    between atoms: C24_29  and  O4_30 
REMARK   11  A    between atoms: C25_32  and  O5_33 
ROOT
HETATM    1  C1  UNL     1      13.937  -5.100  40.423  1.00  0.00     0.017 C 
HETATM    2  C2  UNL     1      12.885  -4.974  41.207  1.00  0.00    -0.052 C 
HETATM    3  C3  UNL     1      12.860  -5.270  42.658  1.00  0.00     0.068 C 
HETATM    4  C4  UNL     1      11.954  -4.139  43.165  1.00  0.00     0.132 C 
HETATM    5  C5  UNL     1      10.868  -4.069  42.109  1.00  0.00     0.088 C 
HETATM    6  C6  UNL     1      11.527  -4.520  40.831  1.00  0.00     0.090 C 
HETATM    7  C7  UNL     1      10.825  -5.651  40.144  1.00  0.00     0.048 C 
HETATM    8  C8  UNL     1       9.325  -5.447  40.120  1.00  0.00    -0.009 C 
HETATM    9  C9  UNL     1       8.720  -6.684  39.491  1.00  0.00     0.010 C 
HETATM   10  C10 UNL     1       8.740  -5.221  41.456  1.00  0.00     0.025 C 
HETATM   11  C11 UNL     1       8.174  -3.828  41.751  1.00  0.00     0.015 C 
HETATM   12  C12 UNL     1       8.595  -4.093  43.160  1.00  0.00     0.021 C 
HETATM   13  C25 UNL     1       9.738  -4.925  42.543  1.00  0.00     0.074 C 
ENDROOT
BRANCH  12  14
HETATM   14  C13 UNL     1       9.003  -3.032  44.075  1.00  0.00     0.007 C 
BRANCH  14  15
HETATM   15  C14 UNL     1       8.299  -3.023  45.384  1.00  0.00     0.000 C 
BRANCH  15  16
HETATM   16  C15 UNL     1       7.353  -1.920  45.672  1.00  0.00     0.000 C 
BRANCH  16  17
HETATM   17  C16 UNL     1       5.976  -2.559  45.994  1.00  0.00     0.001 C 
BRANCH  17  18
HETATM   18  C17 UNL     1       5.423  -3.231  44.769  1.00  0.00     0.011 C 
BRANCH  18  19
HETATM   19  C18 UNL     1       4.448  -2.230  44.139  1.00  0.00     0.042 C 
HETATM   20  C19 UNL     1       3.741  -1.429  45.194  1.00  0.00     0.017 C 
BRANCH  19  21
HETATM   21  C20 UNL     1       3.422  -2.962  43.337  1.00  0.00     0.090 A 
HETATM   22  O3  UNL     1       2.280  -3.432  43.763  1.00  0.00    -0.323 OA
HETATM   23  C21 UNL     1       1.638  -4.013  42.787  1.00  0.00     0.151 A 
HETATM   24  C22 UNL     1       2.387  -3.931  41.633  1.00  0.00    -0.004 A 
HETATM   25  C23 UNL     1       2.017  -4.464  40.303  1.00  0.00     0.053 C 
HETATM   26  C24 UNL     1       3.544  -3.246  42.001  1.00  0.00     0.103 A 
BRANCH  26  27
HETATM   27  O4  UNL     1       4.541  -2.971  41.104  1.00  0.00    -0.358 OA
ATOM     28  H4  UNL     1       4.942  -3.503  40.426  1.00  0.00     0.217 HD
ENDBRANCH  26  27
ENDBRANCH  19  21
ENDBRANCH  18  19
ENDBRANCH  17  18
ENDBRANCH  16  17
ENDBRANCH  15  16
ENDBRANCH  14  15
ENDBRANCH  12  14
BRANCH  13  29
HETATM   29  O5  UNL     1      10.044  -6.072  43.262  1.00  0.00    -0.388 OA
ATOM     30  H5  UNL     1       9.342  -6.692  43.417  1.00  0.00     0.210 HD
ENDBRANCH  13  29
BRANCH   4  31
HETATM   31  O1  UNL     1      12.745  -2.992  43.165  1.00  0.00    -0.395 OA
ATOM     32  H1  UNL     1      12.867  -2.763  42.251  1.00  0.00     0.210 HD
ENDBRANCH   4  31
BRANCH   6  33
HETATM   33  O2  UNL     1      11.695  -3.449  39.921  1.00  0.00    -0.385 OA
ATOM     34  H2  UNL     1      12.282  -3.759  39.242  1.00  0.00     0.211 HD
ENDBRANCH   6  33
TORSDOF 11
ENDMDL
