MODEL 1
REMARK VINA RESULT: -8.879694069      0.000      0.000
REMARK  11 active torsions:
REMARK  status: ('A' for Active; 'I' for Inactive)
REMARK    1  A    between atoms: C2_2  and  C3_3 
REMARK    2  A    between atoms: C2_2  and  O2_26 
REMARK    3  A    between atoms: C3_3  and  C4_4 
REMARK    4  A    between atoms: C4_4  and  C5_5 
REMARK    5  A    between atoms: C5_5  and  C6_6 
REMARK    6  A    between atoms: C6_6  and  O1_7 
REMARK    7  A    between atoms: C6_6  and  C7_9 
REMARK    8  A    between atoms: O2_26  and  C23_27 
REMARK    9  A    between atoms: C23_27  and  O3_28 
REMARK   10  A    between atoms: C23_27  and  C24_30 
REMARK   11  A    between atoms: C24_30  and  O4_32 
ROOT
HETATM    1  C7  UNL     1       9.499  -3.872  43.153  1.00  0.00     0.019 C 
HETATM    2  C8  UNL     1       9.058  -2.975  41.983  1.00  0.00     0.008 C 
HETATM    3  C9  UNL     1       7.541  -2.919  42.050  1.00  0.00     0.011 C 
HETATM    4  C10 UNL     1       7.204  -4.016  42.986  1.00  0.00    -0.028 C 
HETATM    5  C11 UNL     1       7.419  -5.348  42.308  1.00  0.00     0.016 C 
HETATM    6  C12 UNL     1       8.265  -3.877  44.047  1.00  0.00     0.005 C 
HETATM    7  C13 UNL     1       8.137  -2.644  44.856  1.00  0.00     0.033 C 
HETATM    8  C14 UNL     1       6.713  -2.272  45.025  1.00  0.00    -0.021 C 
HETATM    9  C15 UNL     1       5.663  -2.830  44.472  1.00  0.00    -0.053 C 
HETATM   10  C16 UNL     1       4.444  -2.076  44.974  1.00  0.00     0.134 C 
HETATM   11 CL1  UNL     1       4.827  -0.945  46.235  1.00  0.00    -0.116 Cl
HETATM   12  C17 UNL     1       3.867  -1.438  43.756  1.00  0.00    -0.006 C 
HETATM   13  C18 UNL     1       3.477  -2.084  42.664  1.00  0.00    -0.029 C 
HETATM   14  C19 UNL     1       3.531  -3.522  42.436  1.00  0.00     0.028 C 
HETATM   15  C20 UNL     1       4.855  -4.166  42.472  1.00  0.00     0.018 C 
HETATM   16  C21 UNL     1       5.795  -3.961  43.567  1.00  0.00    -0.011 C 
HETATM   17  C22 UNL     1       5.762  -5.202  44.494  1.00  0.00     0.021 C 
ENDROOT
BRANCH   1  18
HETATM   18  C6  UNL     1      10.708  -3.276  43.737  1.00  0.00     0.122 C 
BRANCH  18  19
HETATM   19  C5  UNL     1      11.345  -4.067  44.882  1.00  0.00     0.032 C 
BRANCH  19  20
HETATM   20  C4  UNL     1      12.650  -4.660  44.485  1.00  0.00     0.005 C 
BRANCH  20  21
HETATM   21  C3  UNL     1      13.128  -5.884  45.148  1.00  0.00     0.032 C 
BRANCH  21  22
HETATM   22  C2  UNL     1      14.578  -6.197  45.187  1.00  0.00     0.120 C 
HETATM   23  C1  UNL     1      15.021  -7.042  46.323  1.00  0.00     0.039 C 
BRANCH  22  24
HETATM   24  O2  UNL     1      15.298  -4.996  45.106  1.00  0.00    -0.354 OA
BRANCH  24  25
HETATM   25  C23 UNL     1      16.596  -5.066  45.512  1.00  0.00     0.285 C 
BRANCH  25  26
HETATM   26  O3  UNL     1      16.853  -3.818  46.159  1.00  0.00    -0.369 OA
ATOM     27  H3  UNL     1      17.359  -4.039  46.933  1.00  0.00     0.212 HD
ENDBRANCH  25  26
BRANCH  25  28
HETATM   28  C24 UNL     1      17.633  -5.166  44.443  1.00  0.00     0.169 C 
HETATM   29  C25 UNL     1      17.892  -6.539  43.917  1.00  0.00     0.044 C 
BRANCH  28  30
HETATM   30  O4  UNL     1      17.388  -4.293  43.382  1.00  0.00    -0.391 OA
ATOM     31  H4  UNL     1      17.601  -4.679  42.540  1.00  0.00     0.210 HD
ENDBRANCH  28  30
ENDBRANCH  25  28
ENDBRANCH  24  25
ENDBRANCH  22  24
ENDBRANCH  21  22
ENDBRANCH  20  21
ENDBRANCH  19  20
ENDBRANCH  18  19
BRANCH  18  32
HETATM   32  O1  UNL     1      11.686  -3.165  42.750  1.00  0.00    -0.395 OA
ATOM     33  H1  UNL     1      11.222  -3.089  41.924  1.00  0.00     0.210 HD
ENDBRANCH  18  32
ENDBRANCH   1  18
TORSDOF 11
ENDMDL
MODEL 2
REMARK VINA RESULT: -8.753292234      0.973      1.296
REMARK  11 active torsions:
REMARK  status: ('A' for Active; 'I' for Inactive)
REMARK    1  A    between atoms: C2_2  and  C3_3 
REMARK    2  A    between atoms: C2_2  and  O2_26 
REMARK    3  A    between atoms: C3_3  and  C4_4 
REMARK    4  A    between atoms: C4_4  and  C5_5 
REMARK    5  A    between atoms: C5_5  and  C6_6 
REMARK    6  A    between atoms: C6_6  and  O1_7 
REMARK    7  A    between atoms: C6_6  and  C7_9 
REMARK    8  A    between atoms: O2_26  and  C23_27 
REMARK    9  A    between atoms: C23_27  and  O3_28 
REMARK   10  A    between atoms: C23_27  and  C24_30 
REMARK   11  A    between atoms: C24_30  and  O4_32 
ROOT
HETATM    1  C7  UNL     1       9.343  -3.791  43.426  1.00  0.00     0.019 C 
HETATM    2  C8  UNL     1       8.966  -2.946  42.197  1.00  0.00     0.008 C 
HETATM    3  C9  UNL     1       7.447  -2.904  42.170  1.00  0.00     0.011 C 
HETATM    4  C10 UNL     1       7.063  -3.967  43.126  1.00  0.00    -0.028 C 
HETATM    5  C11 UNL     1       7.331  -5.322  42.517  1.00  0.00     0.016 C 
HETATM    6  C12 UNL     1       8.057  -3.774  44.243  1.00  0.00     0.005 C 
HETATM    7  C13 UNL     1       7.869  -2.511  44.993  1.00  0.00     0.033 C 
HETATM    8  C14 UNL     1       6.435  -2.149  45.061  1.00  0.00    -0.021 C 
HETATM    9  C15 UNL     1       5.425  -2.741  44.468  1.00  0.00    -0.053 C 
HETATM   10  C16 UNL     1       4.172  -1.981  44.865  1.00  0.00     0.134 C 
HETATM   11 CL1  UNL     1       4.468  -0.796  46.101  1.00  0.00    -0.116 Cl
HETATM   12  C17 UNL     1       3.664  -1.398  43.590  1.00  0.00    -0.006 C 
HETATM   13  C18 UNL     1       3.346  -2.091  42.504  1.00  0.00    -0.029 C 
HETATM   14  C19 UNL     1       3.426  -3.536  42.338  1.00  0.00     0.028 C 
HETATM   15  C20 UNL     1       4.752  -4.163  42.479  1.00  0.00     0.018 C 
HETATM   16  C21 UNL     1       5.622  -3.905  43.619  1.00  0.00    -0.011 C 
HETATM   17  C22 UNL     1       5.544  -5.108  44.592  1.00  0.00     0.021 C 
ENDROOT
BRANCH   1  18
HETATM   18  C6  UNL     1      10.509  -3.158  44.057  1.00  0.00     0.122 C 
BRANCH  18  19
HETATM   19  C5  UNL     1      11.121  -3.929  45.230  1.00  0.00     0.032 C 
BRANCH  19  20
HETATM   20  C4  UNL     1      11.487  -5.319  44.847  1.00  0.00     0.005 C 
BRANCH  20  21
HETATM   21  C3  UNL     1      12.893  -5.748  44.913  1.00  0.00     0.032 C 
BRANCH  21  22
HETATM   22  C2  UNL     1      13.284  -6.909  45.751  1.00  0.00     0.120 C 
HETATM   23  C1  UNL     1      12.296  -7.317  46.781  1.00  0.00     0.039 C 
BRANCH  22  24
HETATM   24  O2  UNL     1      14.550  -6.660  46.299  1.00  0.00    -0.354 OA
BRANCH  24  25
HETATM   25  C23 UNL     1      15.594  -6.775  45.432  1.00  0.00     0.285 C 
BRANCH  25  26
HETATM   26  O3  UNL     1      16.273  -7.971  45.821  1.00  0.00    -0.369 OA
ATOM     27  H3  UNL     1      15.843  -8.669  45.340  1.00  0.00     0.212 HD
ENDBRANCH  25  26
BRANCH  25  28
HETATM   28  C24 UNL     1      16.635  -5.706  45.483  1.00  0.00     0.169 C 
HETATM   29  C25 UNL     1      17.618  -5.704  44.360  1.00  0.00     0.044 C 
BRANCH  28  30
HETATM   30  O4  UNL     1      16.082  -4.433  45.628  1.00  0.00    -0.391 OA
ATOM     31  H4  UNL     1      16.250  -4.062  46.487  1.00  0.00     0.210 HD
ENDBRANCH  28  30
ENDBRANCH  25  28
ENDBRANCH  24  25
ENDBRANCH  22  24
ENDBRANCH  21  22
ENDBRANCH  20  21
ENDBRANCH  19  20
ENDBRANCH  18  19
BRANCH  18  32
HETATM   32  O1  UNL     1      11.523  -3.021  43.110  1.00  0.00    -0.395 OA
ATOM     33  H1  UNL     1      11.621  -2.088  42.959  1.00  0.00     0.210 HD
ENDBRANCH  18  32
ENDBRANCH   1  18
TORSDOF 11
ENDMDL
MODEL 3
REMARK VINA RESULT: -8.749356495      1.006      1.543
REMARK  11 active torsions:
REMARK  status: ('A' for Active; 'I' for Inactive)
REMARK    1  A    between atoms: C2_2  and  C3_3 
REMARK    2  A    between atoms: C2_2  and  O2_26 
REMARK    3  A    between atoms: C3_3  and  C4_4 
REMARK    4  A    between atoms: C4_4  and  C5_5 
REMARK    5  A    between atoms: C5_5  and  C6_6 
REMARK    6  A    between atoms: C6_6  and  O1_7 
REMARK    7  A    between atoms: C6_6  and  C7_9 
REMARK    8  A    between atoms: O2_26  and  C23_27 
REMARK    9  A    between atoms: C23_27  and  O3_28 
REMARK   10  A    between atoms: C23_27  and  C24_30 
REMARK   11  A    between atoms: C24_30  and  O4_32 
ROOT
HETATM    1  C7  UNL     1       9.355  -3.786  43.522  1.00  0.00     0.019 C 
HETATM    2  C8  UNL     1       9.003  -2.942  42.284  1.00  0.00     0.008 C 
HETATM    3  C9  UNL     1       7.485  -2.904  42.225  1.00  0.00     0.011 C 
HETATM    4  C10 UNL     1       7.083  -3.967  43.174  1.00  0.00    -0.028 C 
HETATM    5  C11 UNL     1       7.366  -5.322  42.572  1.00  0.00     0.016 C 
HETATM    6  C12 UNL     1       8.052  -3.771  44.312  1.00  0.00     0.005 C 
HETATM    7  C13 UNL     1       7.846  -2.508  45.056  1.00  0.00     0.033 C 
HETATM    8  C14 UNL     1       6.410  -2.149  45.094  1.00  0.00    -0.021 C 
HETATM    9  C15 UNL     1       5.414  -2.743  44.480  1.00  0.00    -0.053 C 
HETATM   10  C16 UNL     1       4.151  -1.985  44.849  1.00  0.00     0.134 C 
HETATM   11 CL1  UNL     1       4.418  -0.799  46.090  1.00  0.00    -0.116 Cl
HETATM   12  C17 UNL     1       3.670  -1.405  43.563  1.00  0.00    -0.006 C 
HETATM   13  C18 UNL     1       3.376  -2.099  42.470  1.00  0.00    -0.029 C 
HETATM   14  C19 UNL     1       3.463  -3.544  42.308  1.00  0.00     0.028 C 
HETATM   15  C20 UNL     1       4.786  -4.169  42.477  1.00  0.00     0.018 C 
HETATM   16  C21 UNL     1       5.631  -3.907  43.636  1.00  0.00    -0.011 C 
HETATM   17  C22 UNL     1       5.535  -5.110  44.608  1.00  0.00     0.021 C 
ENDROOT
BRANCH   1  18
HETATM   18  C6  UNL     1      10.507  -3.150  44.177  1.00  0.00     0.122 C 
BRANCH  18  19
HETATM   19  C5  UNL     1      11.204  -3.996  45.246  1.00  0.00     0.032 C 
BRANCH  19  20
HETATM   20  C4  UNL     1      11.362  -5.410  44.815  1.00  0.00     0.005 C 
BRANCH  20  21
HETATM   21  C3  UNL     1      12.710  -5.979  44.653  1.00  0.00     0.032 C 
BRANCH  21  22
HETATM   22  C2  UNL     1      13.619  -5.463  43.600  1.00  0.00     0.120 C 
HETATM   23  C1  UNL     1      13.246  -5.808  42.206  1.00  0.00     0.039 C 
BRANCH  22  24
HETATM   24  O2  UNL     1      14.930  -5.853  43.911  1.00  0.00    -0.354 OA
BRANCH  24  25
HETATM   25  C23 UNL     1      15.257  -5.802  45.232  1.00  0.00     0.285 C 
BRANCH  25  26
HETATM   26  O3  UNL     1      15.988  -4.584  45.389  1.00  0.00    -0.369 OA
ATOM     27  H3  UNL     1      16.499  -4.702  46.182  1.00  0.00     0.212 HD
ENDBRANCH  25  26
BRANCH  25  28
HETATM   28  C24 UNL     1      16.168  -6.868  45.744  1.00  0.00     0.169 C 
HETATM   29  C25 UNL     1      15.551  -7.855  46.678  1.00  0.00     0.044 C 
BRANCH  28  30
HETATM   30  O4  UNL     1      16.829  -7.540  44.715  1.00  0.00    -0.391 OA
ATOM     31  H4  UNL     1      16.273  -8.181  44.286  1.00  0.00     0.210 HD
ENDBRANCH  28  30
ENDBRANCH  25  28
ENDBRANCH  24  25
ENDBRANCH  22  24
ENDBRANCH  21  22
ENDBRANCH  20  21
ENDBRANCH  19  20
ENDBRANCH  18  19
BRANCH  18  32
HETATM   32  O1  UNL     1      11.475  -2.859  43.218  1.00  0.00    -0.395 OA
ATOM     33  H1  UNL     1      12.155  -3.515  43.319  1.00  0.00     0.210 HD
ENDBRANCH  18  32
ENDBRANCH   1  18
TORSDOF 11
ENDMDL
MODEL 4
REMARK VINA RESULT: -8.562537539      1.124      1.450
REMARK  11 active torsions:
REMARK  status: ('A' for Active; 'I' for Inactive)
REMARK    1  A    between atoms: C2_2  and  C3_3 
REMARK    2  A    between atoms: C2_2  and  O2_26 
REMARK    3  A    between atoms: C3_3  and  C4_4 
REMARK    4  A    between atoms: C4_4  and  C5_5 
REMARK    5  A    between atoms: C5_5  and  C6_6 
REMARK    6  A    between atoms: C6_6  and  O1_7 
REMARK    7  A    between atoms: C6_6  and  C7_9 
REMARK    8  A    between atoms: O2_26  and  C23_27 
REMARK    9  A    between atoms: C23_27  and  O3_28 
REMARK   10  A    between atoms: C23_27  and  C24_30 
REMARK   11  A    between atoms: C24_30  and  O4_32 
ROOT
HETATM    1  C7  UNL     1       8.970  -4.247  42.336  1.00  0.00     0.019 C 
HETATM    2  C8  UNL     1       8.346  -3.223  41.371  1.00  0.00     0.008 C 
HETATM    3  C9  UNL     1       6.932  -2.985  41.875  1.00  0.00     0.011 C 
HETATM    4  C10 UNL     1       6.724  -4.094  42.833  1.00  0.00    -0.028 C 
HETATM    5  C11 UNL     1       6.553  -5.392  42.082  1.00  0.00     0.016 C 
HETATM    6  C12 UNL     1       8.050  -4.161  43.547  1.00  0.00     0.005 C 
HETATM    7  C13 UNL     1       8.327  -2.980  44.396  1.00  0.00     0.033 C 
HETATM    8  C14 UNL     1       7.075  -2.448  44.981  1.00  0.00    -0.021 C 
HETATM    9  C15 UNL     1       5.844  -2.832  44.737  1.00  0.00    -0.053 C 
HETATM   10  C16 UNL     1       4.933  -1.970  45.592  1.00  0.00     0.134 C 
HETATM   11 CL1  UNL     1       5.809  -0.984  46.724  1.00  0.00    -0.116 Cl
HETATM   12  C17 UNL     1       4.130  -1.183  44.613  1.00  0.00    -0.006 C 
HETATM   13  C18 UNL     1       3.362  -1.698  43.661  1.00  0.00    -0.029 C 
HETATM   14  C19 UNL     1       3.150  -3.112  43.383  1.00  0.00     0.028 C 
HETATM   15  C20 UNL     1       4.329  -3.916  43.015  1.00  0.00     0.018 C 
HETATM   16  C21 UNL     1       5.558  -3.905  43.798  1.00  0.00    -0.011 C 
HETATM   17  C22 UNL     1       5.617  -5.193  44.657  1.00  0.00     0.021 C 
ENDROOT
BRANCH   1  18
HETATM   18  C6  UNL     1      10.365  -3.846  42.563  1.00  0.00     0.122 C 
BRANCH  18  19
HETATM   19  C5  UNL     1      11.364  -4.997  42.716  1.00  0.00     0.032 C 
BRANCH  19  20
HETATM   20  C4  UNL     1      11.461  -5.461  44.125  1.00  0.00     0.005 C 
BRANCH  20  21
HETATM   21  C3  UNL     1      12.741  -5.354  44.843  1.00  0.00     0.032 C 
BRANCH  21  22
HETATM   22  C2  UNL     1      13.330  -6.544  45.506  1.00  0.00     0.120 C 
HETATM   23  C1  UNL     1      12.471  -7.205  46.519  1.00  0.00     0.039 C 
BRANCH  22  24
HETATM   24  O2  UNL     1      14.586  -6.194  46.022  1.00  0.00    -0.354 OA
BRANCH  24  25
HETATM   25  C23 UNL     1      15.640  -6.410  45.188  1.00  0.00     0.285 C 
BRANCH  25  26
HETATM   26  O3  UNL     1      16.207  -7.650  45.614  1.00  0.00    -0.369 OA
ATOM     27  H3  UNL     1      16.580  -8.036  44.830  1.00  0.00     0.212 HD
ENDBRANCH  25  26
BRANCH  25  28
HETATM   28  C24 UNL     1      16.765  -5.430  45.253  1.00  0.00     0.169 C 
HETATM   29  C25 UNL     1      17.446  -5.137  43.958  1.00  0.00     0.044 C 
BRANCH  28  30
HETATM   30  O4  UNL     1      16.393  -4.235  45.871  1.00  0.00    -0.391 OA
ATOM     31  H4  UNL     1      16.979  -3.519  45.656  1.00  0.00     0.210 HD
ENDBRANCH  28  30
ENDBRANCH  25  28
ENDBRANCH  24  25
ENDBRANCH  22  24
ENDBRANCH  21  22
ENDBRANCH  20  21
ENDBRANCH  19  20
ENDBRANCH  18  19
BRANCH  18  32
HETATM   32  O1  UNL     1      10.807  -3.089  41.479  1.00  0.00    -0.395 OA
ATOM     33  H1  UNL     1      10.218  -2.345  41.418  1.00  0.00     0.210 HD
ENDBRANCH  18  32
ENDBRANCH   1  18
TORSDOF 11
ENDMDL
MODEL 5
REMARK VINA RESULT: -8.517077658      2.414      3.691
REMARK  11 active torsions:
REMARK  status: ('A' for Active; 'I' for Inactive)
REMARK    1  A    between atoms: C2_2  and  C3_3 
REMARK    2  A    between atoms: C2_2  and  O2_26 
REMARK    3  A    between atoms: C3_3  and  C4_4 
REMARK    4  A    between atoms: C4_4  and  C5_5 
REMARK    5  A    between atoms: C5_5  and  C6_6 
REMARK    6  A    between atoms: C6_6  and  O1_7 
REMARK    7  A    between atoms: C6_6  and  C7_9 
REMARK    8  A    between atoms: O2_26  and  C23_27 
REMARK    9  A    between atoms: C23_27  and  O3_28 
REMARK   10  A    between atoms: C23_27  and  C24_30 
REMARK   11  A    between atoms: C24_30  and  O4_32 
ROOT
HETATM    1  C7  UNL     1       9.344  -3.844  43.172  1.00  0.00     0.019 C 
HETATM    2  C8  UNL     1       8.888  -2.998  41.971  1.00  0.00     0.008 C 
HETATM    3  C9  UNL     1       7.372  -2.946  42.048  1.00  0.00     0.011 C 
HETATM    4  C10 UNL     1       7.048  -4.005  43.031  1.00  0.00    -0.028 C 
HETATM    5  C11 UNL     1       7.263  -5.363  42.407  1.00  0.00     0.016 C 
HETATM    6  C12 UNL     1       8.118  -3.818  44.076  1.00  0.00     0.005 C 
HETATM    7  C13 UNL     1       7.990  -2.553  44.835  1.00  0.00     0.033 C 
HETATM    8  C14 UNL     1       6.567  -2.181  45.002  1.00  0.00    -0.021 C 
HETATM    9  C15 UNL     1       5.514  -2.766  44.481  1.00  0.00    -0.053 C 
HETATM   10  C16 UNL     1       4.296  -1.998  44.962  1.00  0.00     0.134 C 
HETATM   11 CL1  UNL     1       4.685  -0.814  46.173  1.00  0.00    -0.116 Cl
HETATM   12  C17 UNL     1       3.706  -1.413  43.725  1.00  0.00    -0.006 C 
HETATM   13  C18 UNL     1       3.309  -2.105  42.664  1.00  0.00    -0.029 C 
HETATM   14  C19 UNL     1       3.368  -3.550  42.495  1.00  0.00     0.028 C 
HETATM   15  C20 UNL     1       4.696  -4.187  42.545  1.00  0.00     0.018 C 
HETATM   16  C21 UNL     1       5.644  -3.933  43.622  1.00  0.00    -0.011 C 
HETATM   17  C22 UNL     1       5.626  -5.134  44.600  1.00  0.00     0.021 C 
ENDROOT
BRANCH   1  18
HETATM   18  C6  UNL     1      10.555  -3.219  43.720  1.00  0.00     0.122 C 
BRANCH  18  19
HETATM   19  C5  UNL     1      11.423  -4.124  44.598  1.00  0.00     0.032 C 
BRANCH  19  20
HETATM   20  C4  UNL     1      11.689  -5.435  43.947  1.00  0.00     0.005 C 
BRANCH  20  21
HETATM   21  C3  UNL     1      13.015  -5.709  43.373  1.00  0.00     0.032 C 
BRANCH  21  22
HETATM   22  C2  UNL     1      13.176  -5.882  41.907  1.00  0.00     0.120 C 
HETATM   23  C1  UNL     1      14.568  -6.081  41.434  1.00  0.00     0.039 C 
BRANCH  22  24
HETATM   24  O2  UNL     1      12.543  -4.812  41.258  1.00  0.00    -0.354 OA
BRANCH  24  25
HETATM   25  C23 UNL     1      11.903  -5.130  40.099  1.00  0.00     0.285 C 
BRANCH  25  26
HETATM   26  O3  UNL     1      11.306  -3.910  39.655  1.00  0.00    -0.369 OA
ATOM     27  H3  UNL     1      10.965  -3.499  40.441  1.00  0.00     0.212 HD
ENDBRANCH  25  26
BRANCH  25  28
HETATM   28  C24 UNL     1      10.773  -6.100  40.194  1.00  0.00     0.169 C 
HETATM   29  C25 UNL     1       9.500  -5.680  39.538  1.00  0.00     0.044 C 
BRANCH  28  30
HETATM   30  O4  UNL     1      11.130  -7.377  39.757  1.00  0.00    -0.391 OA
ATOM     31  H4  UNL     1      10.444  -7.788  39.245  1.00  0.00     0.210 HD
ENDBRANCH  28  30
ENDBRANCH  25  28
ENDBRANCH  24  25
ENDBRANCH  22  24
ENDBRANCH  21  22
ENDBRANCH  20  21
ENDBRANCH  19  20
ENDBRANCH  18  19
BRANCH  18  32
HETATM   32  O1  UNL     1      11.369  -2.800  42.669  1.00  0.00    -0.395 OA
ATOM     33  H1  UNL     1      11.354  -3.500  42.027  1.00  0.00     0.210 HD
ENDBRANCH  18  32
ENDBRANCH   1  18
TORSDOF 11
ENDMDL
