MODEL 1
REMARK VINA RESULT: -4.144099709      0.000      0.000
REMARK  3 active torsions:
REMARK  status: ('A' for Active; 'I' for Inactive)
REMARK    1  A    between atoms: N1_1  and  C1_5 
REMARK    2  A    between atoms: C1_5  and  C2_6 
REMARK    3  A    between atoms: C2_6  and  N2_7 
ROOT
HETATM    1  C2  UNL     1       4.210  31.917 -11.537  1.00  0.00     0.147 C 
HETATM    2  C3  UNL     1       3.348  31.986 -10.296  1.00  0.00     0.040 C 
HETATM    3  C4  UNL     1       2.315  32.779 -11.105  1.00  0.00     0.005 C 
HETATM    4  C5  UNL     1       2.990  32.199 -12.345  1.00  0.00     0.040 C 
ENDROOT
BRANCH   1   5
HETATM    5  C1  UNL     1       5.267  32.976 -11.487  1.00  0.00     0.268 C 
BRANCH   5   6
HETATM    6  N1  UNL     1       5.867  33.145 -10.196  1.00  0.00    -0.077 N 
ATOM      7  H13 UNL     1       5.633  32.361  -9.588  1.00  0.00     0.274 HD
ATOM      8  H12 UNL     1       6.878  33.024 -10.253  1.00  0.00     0.274 HD
ATOM      9  H11 UNL     1       5.638  34.030  -9.743  1.00  0.00     0.274 HD
ENDBRANCH   5   6
ENDBRANCH   1   5
BRANCH   1  10
HETATM   10  N2  UNL     1       4.715  30.570 -11.748  1.00  0.00    -0.069 N 
ATOM     11  H23 UNL     1       4.552  30.276 -12.711  1.00  0.00     0.275 HD
ATOM     12  H22 UNL     1       5.735  30.568 -11.734  1.00  0.00     0.275 HD
ATOM     13  H21 UNL     1       4.349  29.875 -11.098  1.00  0.00     0.275 HD
ENDBRANCH   1  10
TORSDOF 3
ENDMDL
MODEL 2
REMARK VINA RESULT: -3.878682442      8.756      9.261
REMARK  3 active torsions:
REMARK  status: ('A' for Active; 'I' for Inactive)
REMARK    1  A    between atoms: N1_1  and  C1_5 
REMARK    2  A    between atoms: C1_5  and  C2_6 
REMARK    3  A    between atoms: C2_6  and  N2_7 
ROOT
HETATM    1  C2  UNL     1      -1.578  39.320 -10.080  1.00  0.00     0.147 C 
HETATM    2  C3  UNL     1      -1.687  37.814  -9.995  1.00  0.00     0.040 C 
HETATM    3  C4  UNL     1      -1.497  37.926  -8.477  1.00  0.00     0.005 C 
HETATM    4  C5  UNL     1      -1.925  39.383  -8.633  1.00  0.00     0.040 C 
ENDROOT
BRANCH   1   5
HETATM    5  C1  UNL     1      -0.188  39.712 -10.476  1.00  0.00     0.268 C 
BRANCH   5   6
HETATM    6  N1  UNL     1       0.134  41.084 -10.209  1.00  0.00    -0.077 N 
ATOM      7  H13 UNL     1      -0.432  41.702 -10.791  1.00  0.00     0.274 HD
ATOM      8  H12 UNL     1      -0.204  41.357  -9.287  1.00  0.00     0.274 HD
ATOM      9  H11 UNL     1       1.124  41.307 -10.308  1.00  0.00     0.274 HD
ENDBRANCH   5   6
ENDBRANCH   1   5
BRANCH   1  10
HETATM   10  N2  UNL     1      -2.623  39.872 -10.926  1.00  0.00    -0.069 N 
ATOM     11  H23 UNL     1      -2.687  40.882 -10.799  1.00  0.00     0.275 HD
ATOM     12  H22 UNL     1      -2.343  39.836 -11.907  1.00  0.00     0.275 HD
ATOM     13  H21 UNL     1      -3.539  39.441 -10.803  1.00  0.00     0.275 HD
ENDBRANCH   1  10
TORSDOF 3
ENDMDL
MODEL 3
REMARK VINA RESULT: -3.824340742      0.955      2.194
REMARK  3 active torsions:
REMARK  status: ('A' for Active; 'I' for Inactive)
REMARK    1  A    between atoms: N1_1  and  C1_5 
REMARK    2  A    between atoms: C1_5  and  C2_6 
REMARK    3  A    between atoms: C2_6  and  N2_7 
ROOT
HETATM    1  C2  UNL     1       3.870  32.335 -11.201  1.00  0.00     0.147 C 
HETATM    2  C3  UNL     1       3.049  33.489 -11.732  1.00  0.00     0.040 C 
HETATM    3  C4  UNL     1       1.820  32.876 -11.050  1.00  0.00     0.005 C 
HETATM    4  C5  UNL     1       2.811  32.110 -10.178  1.00  0.00     0.040 C 
ENDROOT
BRANCH   1   5
HETATM    5  C1  UNL     1       4.037  31.293 -12.264  1.00  0.00     0.268 C 
BRANCH   5   6
HETATM    6  N1  UNL     1       4.883  30.199 -11.886  1.00  0.00    -0.077 N 
ATOM      7  H13 UNL     1       5.842  30.367 -12.189  1.00  0.00     0.274 HD
ATOM      8  H12 UNL     1       5.022  30.188 -10.875  1.00  0.00     0.274 HD
ATOM      9  H11 UNL     1       4.559  29.289 -12.212  1.00  0.00     0.274 HD
ENDBRANCH   5   6
ENDBRANCH   1   5
BRANCH   1  10
HETATM   10  N2  UNL     1       5.115  32.805 -10.617  1.00  0.00    -0.069 N 
ATOM     11  H23 UNL     1       5.815  32.063 -10.628  1.00  0.00     0.275 HD
ATOM     12  H22 UNL     1       5.566  33.479 -11.237  1.00  0.00     0.275 HD
ATOM     13  H21 UNL     1       5.023  33.192  -9.678  1.00  0.00     0.275 HD
ENDBRANCH   1  10
TORSDOF 3
ENDMDL
MODEL 4
REMARK VINA RESULT: -3.817450433      1.129      1.129
REMARK  3 active torsions:
REMARK  status: ('A' for Active; 'I' for Inactive)
REMARK    1  A    between atoms: N1_1  and  C1_5 
REMARK    2  A    between atoms: C1_5  and  C2_6 
REMARK    3  A    between atoms: C2_6  and  N2_7 
ROOT
HETATM    1  C2  UNL     1       4.053  31.972 -11.504  1.00  0.00     0.147 C 
HETATM    2  C3  UNL     1       3.380  32.018 -10.149  1.00  0.00     0.040 C 
HETATM    3  C4  UNL     1       2.176  32.695 -10.815  1.00  0.00     0.005 C 
HETATM    4  C5  UNL     1       2.708  32.125 -12.126  1.00  0.00     0.040 C 
ENDROOT
BRANCH   1   5
HETATM    5  C1  UNL     1       5.012  33.114 -11.639  1.00  0.00     0.268 C 
BRANCH   5   6
HETATM    6  N1  UNL     1       4.764  33.958 -12.772  1.00  0.00    -0.077 N 
ATOM      7  H13 UNL     1       5.025  34.921 -12.564  1.00  0.00     0.274 HD
ATOM      8  H12 UNL     1       5.428  33.756 -13.519  1.00  0.00     0.274 HD
ATOM      9  H11 UNL     1       3.807  33.914 -13.122  1.00  0.00     0.274 HD
ENDBRANCH   5   6
ENDBRANCH   1   5
BRANCH   1  10
HETATM   10  N2  UNL     1       4.634  30.663 -11.754  1.00  0.00    -0.069 N 
ATOM     11  H23 UNL     1       4.569  30.429 -12.744  1.00  0.00     0.275 HD
ATOM     12  H22 UNL     1       5.648  30.699 -11.648  1.00  0.00     0.275 HD
ATOM     13  H21 UNL     1       4.244  29.912 -11.186  1.00  0.00     0.275 HD
ENDBRANCH   1  10
TORSDOF 3
ENDMDL
MODEL 5
REMARK VINA RESULT: -3.709180277      8.503      9.537
REMARK  3 active torsions:
REMARK  status: ('A' for Active; 'I' for Inactive)
REMARK    1  A    between atoms: N1_1  and  C1_5 
REMARK    2  A    between atoms: C1_5  and  C2_6 
REMARK    3  A    between atoms: C2_6  and  N2_7 
ROOT
HETATM    1  C2  UNL     1      -1.122  39.558 -10.070  1.00  0.00     0.147 C 
HETATM    2  C3  UNL     1      -1.528  39.239  -8.648  1.00  0.00     0.040 C 
HETATM    3  C4  UNL     1      -1.353  37.751  -8.974  1.00  0.00     0.005 C 
HETATM    4  C5  UNL     1      -0.486  38.213 -10.142  1.00  0.00     0.040 C 
ENDROOT
BRANCH   1   5
HETATM    5  C1  UNL     1      -2.338  39.795 -10.910  1.00  0.00     0.268 C 
BRANCH   5   6
HETATM    6  N1  UNL     1      -2.890  41.113 -10.785  1.00  0.00    -0.077 N 
ATOM      7  H13 UNL     1      -3.110  41.496 -11.704  1.00  0.00     0.274 HD
ATOM      8  H12 UNL     1      -3.828  41.071 -10.386  1.00  0.00     0.274 HD
ATOM      9  H11 UNL     1      -2.305  41.761 -10.258  1.00  0.00     0.274 HD
ENDBRANCH   5   6
ENDBRANCH   1   5
BRANCH   1  10
HETATM   10  N2  UNL     1      -0.146  40.635 -10.104  1.00  0.00    -0.069 N 
ATOM     11  H23 UNL     1       0.771  40.293  -9.817  1.00  0.00     0.275 HD
ATOM     12  H22 UNL     1       0.059  40.898 -11.069  1.00  0.00     0.275 HD
ATOM     13  H21 UNL     1      -0.404  41.457  -9.559  1.00  0.00     0.275 HD
ENDBRANCH   1  10
TORSDOF 3
ENDMDL
