MODEL 1
REMARK VINA RESULT: -5.592594119      0.000      0.000
REMARK  8 active torsions:
REMARK  status: ('A' for Active; 'I' for Inactive)
REMARK    1  A    between atoms: N1_1  and  C1_5 
REMARK    2  A    between atoms: C1_5  and  C2_6 
REMARK    3  A    between atoms: C1_5  and  C3_9 
REMARK    4  A    between atoms: N2_11  and  C5_12 
REMARK    5  A    between atoms: C6_13  and  O3_14 
REMARK    6  A    between atoms: C9_20  and  N4_21 
REMARK    7  A    between atoms: C10_28  and  O5_29 
REMARK    8  A    between atoms: C11_31  and  O6_32 
ROOT
HETATM    1  C5  UNL     1       0.767  75.193  18.045  1.00  0.00     0.171 C 
HETATM    2  C6  UNL     1       0.396  76.093  16.890  1.00  0.00     0.162 C 
HETATM    3  C7  UNL     1       0.913  75.469  15.625  1.00  0.00     0.176 C 
HETATM    4  N3  UNL     1       2.322  75.692  15.418  1.00  0.00    -0.097 NA
HETATM    5  O4  UNL     1       3.048  75.045  16.379  1.00  0.00    -0.264 OA
HETATM    6  C8  UNL     1       3.150  75.804  17.537  1.00  0.00     0.216 C 
HETATM    7  C9  UNL     1       3.495  77.239  17.372  1.00  0.00     0.426 C 
HETATM    8  N5  UNL     1       4.654  77.143  18.254  1.00  0.00    -0.014 N 
ATOM      9  H51 UNL     1       4.653  77.590  19.171  1.00  0.00     0.282 HD
ATOM     10  H52 UNL     1       5.521  77.633  18.037  1.00  0.00     0.282 HD
HETATM   11  C10 UNL     1       4.561  75.708  18.128  1.00  0.00     0.365 C 
HETATM   12  C11 UNL     1       2.145  75.437  18.570  1.00  0.00     0.190 C 
ENDROOT
BRANCH   1  13
HETATM   13  N2  UNL     1      -0.202  75.343  19.105  1.00  0.00    -0.277 N 
HETATM   14  C4  UNL     1      -0.759  74.351  19.798  1.00  0.00     0.141 A 
HETATM   15  C3  UNL     1      -1.625  74.914  20.710  1.00  0.00     0.085 A 
HETATM   16  N7  UNL     1      -1.555  76.237  20.530  1.00  0.00    -0.286 N 
HETATM   17  N6  UNL     1      -0.702  76.471  19.570  1.00  0.00    -0.240 N 
ATOM     18  H7  UNL     1      -2.078  76.940  21.052  1.00  0.00     0.188 HD
ATOM     19  H6  UNL     1      -0.456  77.400  19.228  1.00  0.00     0.208 HD
BRANCH  15  20
HETATM   20  C1  UNL     1      -2.457  74.205  21.685  1.00  0.00     0.335 C 
BRANCH  20  21
HETATM   21  N1  UNL     1      -2.397  72.791  21.390  1.00  0.00    -0.060 N 
ATOM     22  H13 UNL     1      -1.492  72.537  20.991  1.00  0.00     0.275 HD
ATOM     23  H12 UNL     1      -2.360  72.238  22.246  1.00  0.00     0.275 HD
ATOM     24  H11 UNL     1      -3.162  72.486  20.788  1.00  0.00     0.275 HD
ENDBRANCH  20  21
BRANCH  20  25
HETATM   25  C2  UNL     1      -2.068  74.507  23.077  1.00  0.00     0.210 C 
HETATM   26  O1  UNL     1      -2.924  74.437  23.976  1.00  0.00    -0.646 OA
HETATM   27  O2  UNL     1      -0.766  74.861  23.363  1.00  0.00    -0.646 OA
ENDBRANCH  20  25
ENDBRANCH  15  20
ENDBRANCH   1  13
BRANCH   2  28
HETATM   28  O3  UNL     1      -1.015  76.056  16.805  1.00  0.00    -0.392 OA
ATOM     29  H3  UNL     1      -1.221  76.031  15.878  1.00  0.00     0.210 HD
ENDBRANCH   2  28
BRANCH  12  30
HETATM   30  O6  UNL     1       2.187  76.379  19.588  1.00  0.00    -0.390 OA
ATOM     31  H6  UNL     1       2.117  77.273  19.275  1.00  0.00     0.210 HD
ENDBRANCH  12  30
BRANCH   7  32
HETATM   32  N4  UNL     1       3.978  77.590  16.031  1.00  0.00    -0.047 N 
ATOM     33  H43 UNL     1       3.458  77.077  15.318  1.00  0.00     0.276 HD
ATOM     34  H42 UNL     1       3.707  78.543  15.792  1.00  0.00     0.276 HD
ATOM     35  H41 UNL     1       4.981  77.461  15.901  1.00  0.00     0.276 HD
ENDBRANCH   7  32
BRANCH  11  36
HETATM   36  O5  UNL     1       5.469  75.107  17.282  1.00  0.00    -0.367 OA
ATOM     37  H5  UNL     1       5.733  75.660  16.557  1.00  0.00     0.212 HD
ENDBRANCH  11  36
TORSDOF 8
ENDMDL
MODEL 2
REMARK VINA RESULT: -5.551424910      2.731      7.110
REMARK  8 active torsions:
REMARK  status: ('A' for Active; 'I' for Inactive)
REMARK    1  A    between atoms: N1_1  and  C1_5 
REMARK    2  A    between atoms: C1_5  and  C2_6 
REMARK    3  A    between atoms: C1_5  and  C3_9 
REMARK    4  A    between atoms: N2_11  and  C5_12 
REMARK    5  A    between atoms: C6_13  and  O3_14 
REMARK    6  A    between atoms: C9_20  and  N4_21 
REMARK    7  A    between atoms: C10_28  and  O5_29 
REMARK    8  A    between atoms: C11_31  and  O6_32 
ROOT
HETATM    1  C5  UNL     1       1.645  75.316  17.181  1.00  0.00     0.171 C 
HETATM    2  C6  UNL     1       2.444  76.301  17.999  1.00  0.00     0.162 C 
HETATM    3  C7  UNL     1       3.252  75.529  19.004  1.00  0.00     0.176 C 
HETATM    4  N3  UNL     1       2.482  75.118  20.152  1.00  0.00    -0.097 NA
HETATM    5  O4  UNL     1       1.532  74.207  19.780  1.00  0.00    -0.264 OA
HETATM    6  C8  UNL     1       0.389  74.831  19.301  1.00  0.00     0.216 C 
HETATM    7  C9  UNL     1      -0.135  75.973  20.093  1.00  0.00     0.426 C 
HETATM    8  N5  UNL     1      -1.457  75.371  20.235  1.00  0.00    -0.014 N 
ATOM      9  H51 UNL     1      -2.267  75.762  19.754  1.00  0.00     0.282 HD
ATOM     10  H52 UNL     1      -1.971  75.436  21.113  1.00  0.00     0.282 HD
HETATM   11  C10 UNL     1      -0.872  74.122  19.809  1.00  0.00     0.365 C 
HETATM   12  C11 UNL     1       0.349  74.927  17.818  1.00  0.00     0.190 C 
ENDROOT
BRANCH   1  13
HETATM   13  N2  UNL     1       1.407  75.862  15.865  1.00  0.00    -0.277 N 
HETATM   14  C4  UNL     1       1.588  75.220  14.711  1.00  0.00     0.141 A 
HETATM   15  C3  UNL     1       1.250  76.087  13.695  1.00  0.00     0.085 A 
HETATM   16  N7  UNL     1       0.875  77.229  14.281  1.00  0.00    -0.286 N 
HETATM   17  N6  UNL     1       0.975  77.073  15.573  1.00  0.00    -0.240 N 
ATOM     18  H7  UNL     1       0.565  78.074  13.801  1.00  0.00     0.188 HD
ATOM     19  H6  UNL     1       0.750  77.790  16.262  1.00  0.00     0.208 HD
BRANCH  15  20
HETATM   20  C1  UNL     1       1.293  75.814  12.256  1.00  0.00     0.335 C 
BRANCH  20  21
HETATM   21  N1  UNL     1      -0.051  75.527  11.809  1.00  0.00    -0.060 N 
ATOM     22  H13 UNL     1      -0.699  76.261  12.097  1.00  0.00     0.275 HD
ATOM     23  H12 UNL     1      -0.131  75.625  10.797  1.00  0.00     0.275 HD
ATOM     24  H11 UNL     1      -0.376  74.610  12.116  1.00  0.00     0.275 HD
ENDBRANCH  20  21
BRANCH  20  25
HETATM   25  C2  UNL     1       1.916  76.915  11.496  1.00  0.00     0.210 C 
HETATM   26  O1  UNL     1       3.109  76.821  11.158  1.00  0.00    -0.646 OA
HETATM   27  O2  UNL     1       1.172  78.030  11.171  1.00  0.00    -0.646 OA
ENDBRANCH  20  25
ENDBRANCH  15  20
ENDBRANCH   1  13
BRANCH   2  28
HETATM   28  O3  UNL     1       3.374  76.886  17.107  1.00  0.00    -0.392 OA
ATOM     29  H3  UNL     1       3.426  77.803  17.347  1.00  0.00     0.210 HD
ENDBRANCH   2  28
BRANCH  12  30
HETATM   30  O6  UNL     1      -0.710  75.745  17.451  1.00  0.00    -0.390 OA
ATOM     31  H6  UNL     1      -1.359  75.301  16.917  1.00  0.00     0.210 HD
ENDBRANCH  12  30
BRANCH   7  32
HETATM   32  N4  UNL     1       0.452  76.094  21.433  1.00  0.00    -0.047 N 
ATOM     33  H43 UNL     1      -0.212  76.527  22.076  1.00  0.00     0.276 HD
ATOM     34  H42 UNL     1       0.541  75.176  21.867  1.00  0.00     0.276 HD
ATOM     35  H41 UNL     1       1.343  76.588  21.455  1.00  0.00     0.276 HD
ENDBRANCH   7  32
BRANCH  11  36
HETATM   36  O5  UNL     1      -0.618  73.195  20.798  1.00  0.00    -0.367 OA
ATOM     37  H5  UNL     1       0.244  72.800  20.732  1.00  0.00     0.212 HD
ENDBRANCH  11  36
TORSDOF 8
ENDMDL
MODEL 3
REMARK VINA RESULT: -5.461759406      2.620      6.779
REMARK  8 active torsions:
REMARK  status: ('A' for Active; 'I' for Inactive)
REMARK    1  A    between atoms: N1_1  and  C1_5 
REMARK    2  A    between atoms: C1_5  and  C2_6 
REMARK    3  A    between atoms: C1_5  and  C3_9 
REMARK    4  A    between atoms: N2_11  and  C5_12 
REMARK    5  A    between atoms: C6_13  and  O3_14 
REMARK    6  A    between atoms: C9_20  and  N4_21 
REMARK    7  A    between atoms: C10_28  and  O5_29 
REMARK    8  A    between atoms: C11_31  and  O6_32 
ROOT
HETATM    1  C5  UNL     1       1.373  75.334  16.943  1.00  0.00     0.171 C 
HETATM    2  C6  UNL     1       2.316  76.269  17.661  1.00  0.00     0.162 C 
HETATM    3  C7  UNL     1       3.189  75.448  18.568  1.00  0.00     0.176 C 
HETATM    4  N3  UNL     1       2.535  75.075  19.798  1.00  0.00    -0.097 NA
HETATM    5  O4  UNL     1       1.499  74.220  19.540  1.00  0.00    -0.264 OA
HETATM    6  C8  UNL     1       0.345  74.911  19.195  1.00  0.00     0.216 C 
HETATM    7  C9  UNL     1      -0.019  76.076  20.040  1.00  0.00     0.426 C 
HETATM    8  N5  UNL     1      -1.347  75.548  20.335  1.00  0.00    -0.014 N 
ATOM      9  H51 UNL     1      -2.184  75.987  19.950  1.00  0.00     0.282 HD
ATOM     10  H52 UNL     1      -1.752  75.638  21.267  1.00  0.00     0.282 HD
HETATM   11  C10 UNL     1      -0.887  74.271  19.847  1.00  0.00     0.365 C 
HETATM   12  C11 UNL     1       0.140  75.015  17.727  1.00  0.00     0.190 C 
ENDROOT
BRANCH   1  13
HETATM   13  N2  UNL     1       1.016  75.898  15.663  1.00  0.00    -0.277 N 
HETATM   14  C4  UNL     1       0.960  75.236  14.507  1.00  0.00     0.141 A 
HETATM   15  C3  UNL     1       0.583  76.132  13.531  1.00  0.00     0.085 A 
HETATM   16  N7  UNL     1       0.424  77.311  14.141  1.00  0.00    -0.286 N 
HETATM   17  N6  UNL     1       0.686  77.150  15.410  1.00  0.00    -0.240 N 
ATOM     18  H7  UNL     1       0.146  78.185  13.693  1.00  0.00     0.188 HD
ATOM     19  H6  UNL     1       0.642  77.890  16.109  1.00  0.00     0.208 HD
BRANCH  15  20
HETATM   20  C1  UNL     1       0.392  75.850  12.107  1.00  0.00     0.335 C 
BRANCH  20  21
HETATM   21  N1  UNL     1       1.664  75.452  11.549  1.00  0.00    -0.060 N 
ATOM     22  H13 UNL     1       1.899  74.495  11.815  1.00  0.00     0.275 HD
ATOM     23  H12 UNL     1       1.601  75.330  10.538  1.00  0.00     0.275 HD
ATOM     24  H11 UNL     1       2.416  76.096  11.795  1.00  0.00     0.275 HD
ENDBRANCH  20  21
BRANCH  20  25
HETATM   25  C2  UNL     1      -0.665  74.846  11.871  1.00  0.00     0.210 C 
HETATM   26  O1  UNL     1      -0.417  73.859  11.158  1.00  0.00    -0.646 OA
HETATM   27  O2  UNL     1      -1.909  75.015  12.443  1.00  0.00    -0.646 OA
ENDBRANCH  20  25
ENDBRANCH  15  20
ENDBRANCH   1  13
BRANCH   2  28
HETATM   28  O3  UNL     1       3.167  76.804  16.667  1.00  0.00    -0.392 OA
ATOM     29  H3  UNL     1       3.927  77.142  17.127  1.00  0.00     0.210 HD
ENDBRANCH   2  28
BRANCH  12  30
HETATM   30  O6  UNL     1      -0.907  75.893  17.483  1.00  0.00    -0.390 OA
ATOM     31  H6  UNL     1      -1.360  75.720  16.665  1.00  0.00     0.210 HD
ENDBRANCH  12  30
BRANCH   7  32
HETATM   32  N4  UNL     1       0.725  76.158  21.303  1.00  0.00    -0.047 N 
ATOM     33  H43 UNL     1       0.091  76.349  22.079  1.00  0.00     0.276 HD
ATOM     34  H42 UNL     1       1.063  75.236  21.578  1.00  0.00     0.276 HD
ATOM     35  H41 UNL     1       1.491  76.831  21.294  1.00  0.00     0.276 HD
ENDBRANCH   7  32
BRANCH  11  36
HETATM   36  O5  UNL     1      -0.573  73.326  20.801  1.00  0.00    -0.367 OA
ATOM     37  H5  UNL     1      -1.061  72.517  20.707  1.00  0.00     0.212 HD
ENDBRANCH  11  36
TORSDOF 8
ENDMDL
MODEL 4
REMARK VINA RESULT: -5.306814025      4.554      6.841
REMARK  8 active torsions:
REMARK  status: ('A' for Active; 'I' for Inactive)
REMARK    1  A    between atoms: N1_1  and  C1_5 
REMARK    2  A    between atoms: C1_5  and  C2_6 
REMARK    3  A    between atoms: C1_5  and  C3_9 
REMARK    4  A    between atoms: N2_11  and  C5_12 
REMARK    5  A    between atoms: C6_13  and  O3_14 
REMARK    6  A    between atoms: C9_20  and  N4_21 
REMARK    7  A    between atoms: C10_28  and  O5_29 
REMARK    8  A    between atoms: C11_31  and  O6_32 
ROOT
HETATM    1  C5  UNL     1       0.048  76.449  15.164  1.00  0.00     0.171 C 
HETATM    2  C6  UNL     1      -0.493  77.769  14.668  1.00  0.00     0.162 C 
HETATM    3  C7  UNL     1      -1.991  77.739  14.794  1.00  0.00     0.176 C 
HETATM    4  N3  UNL     1      -2.633  77.012  13.728  1.00  0.00    -0.097 NA
HETATM    5  O4  UNL     1      -2.309  75.686  13.798  1.00  0.00    -0.264 OA
HETATM    6  C8  UNL     1      -1.096  75.426  13.175  1.00  0.00     0.216 C 
HETATM    7  C9  UNL     1      -0.881  76.039  11.839  1.00  0.00     0.426 C 
HETATM    8  N5  UNL     1      -0.602  74.753  11.207  1.00  0.00    -0.014 N 
ATOM      9  H51 UNL     1       0.337  74.520  10.884  1.00  0.00     0.282 HD
ATOM     10  H52 UNL     1      -0.955  74.540  10.275  1.00  0.00     0.282 HD
HETATM   11  C10 UNL     1      -1.164  74.119  12.376  1.00  0.00     0.365 C 
HETATM   12  C11 UNL     1       0.051  75.379  14.120  1.00  0.00     0.190 C 
ENDROOT
BRANCH   1  13
HETATM   13  N2  UNL     1       1.381  76.639  15.685  1.00  0.00    -0.277 N 
HETATM   14  C4  UNL     1       1.842  76.160  16.840  1.00  0.00     0.141 A 
HETATM   15  C3  UNL     1       3.153  76.564  16.966  1.00  0.00     0.085 A 
HETATM   16  N7  UNL     1       3.435  77.278  15.871  1.00  0.00    -0.286 N 
HETATM   17  N6  UNL     1       2.367  77.310  15.121  1.00  0.00    -0.240 N 
ATOM     18  H7  UNL     1       4.330  77.720  15.659  1.00  0.00     0.188 HD
ATOM     19  H6  UNL     1       2.304  77.788  14.223  1.00  0.00     0.208 HD
BRANCH  15  20
HETATM   20  C1  UNL     1       4.060  76.271  18.078  1.00  0.00     0.335 C 
BRANCH  20  21
HETATM   21  N1  UNL     1       3.583  75.084  18.751  1.00  0.00    -0.060 N 
ATOM     22  H13 UNL     1       4.046  74.961  19.652  1.00  0.00     0.275 HD
ATOM     23  H12 UNL     1       2.623  75.206  19.076  1.00  0.00     0.275 HD
ATOM     24  H11 UNL     1       3.672  74.247  18.175  1.00  0.00     0.275 HD
ENDBRANCH  20  21
BRANCH  20  25
HETATM   25  C2  UNL     1       5.463  76.142  17.636  1.00  0.00     0.210 C 
HETATM   26  O1  UNL     1       5.952  75.008  17.488  1.00  0.00    -0.646 OA
HETATM   27  O2  UNL     1       6.212  77.275  17.394  1.00  0.00    -0.646 OA
ENDBRANCH  20  25
ENDBRANCH  15  20
ENDBRANCH   1  13
BRANCH   2  28
HETATM   28  O3  UNL     1      -0.037  78.746  15.583  1.00  0.00    -0.392 OA
ATOM     29  H3  UNL     1      -0.538  78.614  16.380  1.00  0.00     0.210 HD
ENDBRANCH   2  28
BRANCH  12  30
HETATM   30  O6  UNL     1       1.230  75.329  13.389  1.00  0.00    -0.390 OA
ATOM     31  H6  UNL     1       1.920  74.839  13.822  1.00  0.00     0.210 HD
ENDBRANCH  12  30
BRANCH   7  32
HETATM   32  N4  UNL     1      -2.098  76.587  11.228  1.00  0.00    -0.047 N 
ATOM     33  H43 UNL     1      -2.128  76.366  10.233  1.00  0.00     0.276 HD
ATOM     34  H42 UNL     1      -2.920  76.074  11.546  1.00  0.00     0.276 HD
ATOM     35  H41 UNL     1      -2.224  77.588  11.375  1.00  0.00     0.276 HD
ENDBRANCH   7  32
BRANCH  11  36
HETATM   36  O5  UNL     1      -2.443  73.622  12.248  1.00  0.00    -0.367 OA
ATOM     37  H5  UNL     1      -2.502  72.878  11.661  1.00  0.00     0.212 HD
ENDBRANCH  11  36
TORSDOF 8
ENDMDL
MODEL 5
REMARK VINA RESULT: -5.300816303      1.131      1.173
REMARK  8 active torsions:
REMARK  status: ('A' for Active; 'I' for Inactive)
REMARK    1  A    between atoms: N1_1  and  C1_5 
REMARK    2  A    between atoms: C1_5  and  C2_6 
REMARK    3  A    between atoms: C1_5  and  C3_9 
REMARK    4  A    between atoms: N2_11  and  C5_12 
REMARK    5  A    between atoms: C6_13  and  O3_14 
REMARK    6  A    between atoms: C9_20  and  N4_21 
REMARK    7  A    between atoms: C10_28  and  O5_29 
REMARK    8  A    between atoms: C11_31  and  O6_32 
ROOT
HETATM    1  C5  UNL     1       0.923  75.188  18.220  1.00  0.00     0.171 C 
HETATM    2  C6  UNL     1       0.476  76.055  17.068  1.00  0.00     0.162 C 
HETATM    3  C7  UNL     1       0.933  75.409  15.790  1.00  0.00     0.176 C 
HETATM    4  N3  UNL     1       2.325  75.648  15.502  1.00  0.00    -0.097 NA
HETATM    5  O4  UNL     1       3.113  75.034  16.436  1.00  0.00    -0.264 OA
HETATM    6  C8  UNL     1       3.265  75.822  17.569  1.00  0.00     0.216 C 
HETATM    7  C9  UNL     1       3.578  77.258  17.352  1.00  0.00     0.426 C 
HETATM    8  N5  UNL     1       4.784  77.199  18.172  1.00  0.00    -0.014 N 
ATOM      9  H51 UNL     1       4.826  77.668  19.077  1.00  0.00     0.282 HD
ATOM     10  H52 UNL     1       5.630  77.698  17.896  1.00  0.00     0.282 HD
HETATM   11  C10 UNL     1       4.708  75.761  18.084  1.00  0.00     0.365 C 
HETATM   12  C11 UNL     1       2.324  75.464  18.663  1.00  0.00     0.190 C 
ENDROOT
BRANCH   1  13
HETATM   13  N2  UNL     1       0.011  75.349  19.328  1.00  0.00    -0.277 N 
HETATM   14  C4  UNL     1      -0.492  74.365  20.073  1.00  0.00     0.141 A 
HETATM   15  C3  UNL     1      -1.315  74.936  21.018  1.00  0.00     0.085 A 
HETATM   16  N7  UNL     1      -1.276  76.256  20.805  1.00  0.00    -0.286 N 
HETATM   17  N6  UNL     1      -0.481  76.480  19.795  1.00  0.00    -0.240 N 
ATOM     18  H7  UNL     1      -1.781  76.964  21.339  1.00  0.00     0.188 HD
ATOM     19  H6  UNL     1      -0.268  77.404  19.419  1.00  0.00     0.208 HD
BRANCH  15  20
HETATM   20  C1  UNL     1      -2.082  74.238  22.052  1.00  0.00     0.335 C 
BRANCH  20  21
HETATM   21  N1  UNL     1      -1.553  74.618  23.342  1.00  0.00    -0.060 N 
ATOM     22  H13 UNL     1      -2.256  75.103  23.900  1.00  0.00     0.275 HD
ATOM     23  H12 UNL     1      -1.409  73.800  23.936  1.00  0.00     0.275 HD
ATOM     24  H11 UNL     1      -0.699  75.171  23.266  1.00  0.00     0.275 HD
ENDBRANCH  20  21
BRANCH  20  25
HETATM   25  C2  UNL     1      -3.532  74.493  21.941  1.00  0.00     0.210 C 
HETATM   26  O1  UNL     1      -4.329  73.553  22.110  1.00  0.00    -0.646 OA
HETATM   27  O2  UNL     1      -3.985  75.764  21.653  1.00  0.00    -0.646 OA
ENDBRANCH  20  25
ENDBRANCH  15  20
ENDBRANCH   1  13
BRANCH   2  28
HETATM   28  O3  UNL     1      -0.937  75.995  17.060  1.00  0.00    -0.392 OA
ATOM     29  H3  UNL     1      -1.193  75.949  16.147  1.00  0.00     0.210 HD
ENDBRANCH   2  28
BRANCH  12  30
HETATM   30  O6  UNL     1       2.406  76.431  19.656  1.00  0.00    -0.390 OA
ATOM     31  H6  UNL     1       3.299  76.650  19.895  1.00  0.00     0.210 HD
ENDBRANCH  12  30
BRANCH   7  32
HETATM   32  N4  UNL     1       3.981  77.584  15.979  1.00  0.00    -0.047 N 
ATOM     33  H43 UNL     1       3.295  78.200  15.542  1.00  0.00     0.276 HD
ATOM     34  H42 UNL     1       4.793  78.201  15.982  1.00  0.00     0.276 HD
ATOM     35  H41 UNL     1       4.154  76.770  15.390  1.00  0.00     0.276 HD
ENDBRANCH   7  32
BRANCH  11  36
HETATM   36  O5  UNL     1       5.578  75.154  17.203  1.00  0.00    -0.367 OA
ATOM     37  H5  UNL     1       6.415  75.597  17.134  1.00  0.00     0.212 HD
ENDBRANCH  11  36
TORSDOF 8
ENDMDL
