MODEL 1
REMARK VINA RESULT: -8.762136288      0.000      0.000
REMARK  18 active torsions:
REMARK  status: ('A' for Active; 'I' for Inactive)
REMARK    1  A    between atoms: N1_1  and  C1_4 
REMARK    2  A    between atoms: N3_9  and  C3_10 
REMARK    3  A    between atoms: C3_10  and  C4_11 
REMARK       I    between atoms: C4_11  and  N4_13 
REMARK    4  A    between atoms: N4_13  and  C5_15 
REMARK    5  A    between atoms: C5_15  and  C6_16 
REMARK    6  A    between atoms: C5_15  and  C7_19 
REMARK       I    between atoms: C7_19  and  N5_21 
REMARK    7  A    between atoms: N5_21  and  C8_23 
REMARK    8  A    between atoms: C8_23  and  C9_24 
REMARK    9  A    between atoms: C8_23  and  C12_31 
REMARK   10  A    between atoms: C9_24  and  C10_25 
REMARK   11  A    between atoms: C10_25  and  C11_26 
REMARK   12  A    between atoms: C11_26  and  N6_27 
REMARK   13  A    between atoms: C12_31  and  N7_32 
REMARK   14  A    between atoms: C12_31  and  N8_36 
REMARK       I    between atoms: N8_36  and  C13_38 
REMARK   15  A    between atoms: C13_38  and  C14_40 
REMARK   16  A    between atoms: C16_42  and  N9_43 
REMARK   17  A    between atoms: N9_43  and  C17_45 
REMARK   18  A    between atoms: C17_45  and  N10_47 
REMARK       I    between atoms: N10_47  and  C18_49 
ROOT
HETATM    1  C8  UNL     1      -0.701 -43.585 -23.846  1.00  0.00     0.134 C 
ENDROOT
BRANCH   1   2
HETATM    2  N5  UNL     1      -0.197 -44.676 -24.641  1.00  0.00    -0.350 N 
HETATM    3  C7  UNL     1      -0.045 -44.613 -26.045  1.00  0.00     0.251 C 
HETATM    4  O5  UNL     1      -0.366 -43.548 -26.626  1.00  0.00    -0.271 OA
ATOM      5  H5  UNL     1       0.065 -45.540 -24.165  1.00  0.00     0.163 HD
BRANCH   3   6
HETATM    6  C5  UNL     1       0.470 -45.728 -26.872  1.00  0.00     0.278 C 
BRANCH   6   7
HETATM    7  N4  UNL     1       1.851 -45.496 -27.205  1.00  0.00    -0.338 N 
HETATM    8  C4  UNL     1       2.862 -45.673 -26.245  1.00  0.00     0.237 C 
HETATM    9  O2  UNL     1       2.553 -46.038 -25.086  1.00  0.00    -0.272 OA
ATOM     10  H4  UNL     1       2.098 -45.198 -28.148  1.00  0.00     0.163 HD
BRANCH   8  11
HETATM   11  C3  UNL     1       4.286 -45.438 -26.571  1.00  0.00     0.245 C 
BRANCH  11  12
HETATM   12  N3  UNL     1       4.889 -46.732 -26.942  1.00  0.00    -0.258 N 
HETATM   13  C2  UNL     1       4.796 -47.368 -28.113  1.00  0.00     0.335 A 
HETATM   14  N2  UNL     1       5.404 -48.509 -28.247  1.00  0.00    -0.287 N 
HETATM   15  O1  UNL     1       4.106 -46.824 -29.061  1.00  0.00    -0.246 OA
HETATM   16  C1  UNL     1       6.091 -48.984 -27.205  1.00  0.00     0.163 A 
ATOM     17  H2  UNL     1       5.358 -49.028 -29.123  1.00  0.00     0.172 HD
HETATM   18  S3  UNL     1       5.853 -47.771 -26.028  1.00  0.00     0.029 SA
BRANCH  16  19
HETATM   19  N1  UNL     1       6.770 -50.109 -27.136  1.00  0.00    -0.378 N 
ATOM     20  H12 UNL     1       7.704 -50.292 -26.770  1.00  0.00     0.158 HD
ATOM     21  H11 UNL     1       6.475 -51.034 -27.448  1.00  0.00     0.158 HD
ENDBRANCH  16  19
ENDBRANCH  11  12
ENDBRANCH   8  11
ENDBRANCH   6   7
BRANCH   6  22
HETATM   22  C6  UNL     1      -0.338 -45.809 -28.113  1.00  0.00     0.206 C 
HETATM   23  O3  UNL     1       0.233 -46.035 -29.203  1.00  0.00    -0.646 OA
HETATM   24  O4  UNL     1      -1.692 -45.639 -28.051  1.00  0.00    -0.646 OA
ENDBRANCH   6  22
ENDBRANCH   3   6
ENDBRANCH   1   2
BRANCH   1  25
HETATM   25  C9  UNL     1       0.403 -42.673 -23.358  1.00  0.00     0.030 C 
BRANCH  25  26
HETATM   26  C10 UNL     1       0.242 -41.310 -23.950  1.00  0.00     0.029 C 
BRANCH  26  27
HETATM   27  C11 UNL     1      -1.190 -41.013 -24.339  1.00  0.00     0.230 C 
BRANCH  27  28
HETATM   28  N6  UNL     1      -1.348 -40.780 -25.739  1.00  0.00    -0.079 N 
ATOM     29  H63 UNL     1      -2.329 -40.627 -25.974  1.00  0.00     0.274 HD
ATOM     30  H62 UNL     1      -0.970 -39.870 -26.002  1.00  0.00     0.274 HD
ATOM     31  H61 UNL     1      -0.947 -41.522 -26.313  1.00  0.00     0.274 HD
ENDBRANCH  27  28
ENDBRANCH  26  27
ENDBRANCH  25  26
ENDBRANCH   1  25
BRANCH   1  32
HETATM   32  C12 UNL     1      -1.492 -44.157 -22.680  1.00  0.00     0.307 C 
BRANCH  32  33
HETATM   33  N7  UNL     1      -2.888 -44.296 -23.034  1.00  0.00    -0.056 N 
ATOM     34  H73 UNL     1      -3.173 -43.607 -23.730  1.00  0.00     0.276 HD
ATOM     35  H72 UNL     1      -3.059 -45.142 -23.578  1.00  0.00     0.276 HD
ATOM     36  H71 UNL     1      -3.475 -44.257 -22.200  1.00  0.00     0.276 HD
ENDBRANCH  32  33
BRANCH  32  37
HETATM   37  N8  UNL     1      -1.426 -43.271 -21.531  1.00  0.00    -0.326 N 
HETATM   38  C13 UNL     1      -2.075 -43.604 -20.320  1.00  0.00     0.270 C 
HETATM   39  O6  UNL     1      -2.716 -44.704 -20.271  1.00  0.00    -0.266 OA
ATOM     40  H8  UNL     1      -0.904 -42.397 -21.599  1.00  0.00     0.165 HD
BRANCH  38  41
HETATM   41  C14 UNL     1      -2.048 -42.763 -19.134  1.00  0.00     0.106 A 
HETATM   42  C15 UNL     1      -1.055 -41.791 -18.976  1.00  0.00     0.084 A 
HETATM   43  C16 UNL     1      -1.025 -40.994 -17.854  1.00  0.00     0.111 A 
HETATM   44  N12 UNL     1      -1.943 -41.121 -16.880  1.00  0.00    -0.319 N 
HETATM   45  C19 UNL     1      -2.894 -42.051 -17.030  1.00  0.00     0.178 A 
ATOM     46  H12 UNL     1      -1.916 -40.527 -16.051  1.00  0.00     0.169 HD
HETATM   47  S2  UNL     1      -4.002 -42.200 -15.847  1.00  0.00    -0.040 SA
HETATM   48  N13 UNL     1      -2.937 -42.851 -18.137  1.00  0.00    -0.328 N 
ATOM     49  H13 UNL     1      -3.680 -43.546 -18.207  1.00  0.00     0.168 HD
BRANCH  43  50
HETATM   50  N9  UNL     1      -0.112 -40.090 -17.701  1.00  0.00    -0.319 N 
ATOM     51  H9  UNL     1       0.364 -39.976 -16.806  1.00  0.00     0.169 HD
BRANCH  50  52
HETATM   52  C17 UNL     1       0.211 -39.267 -18.800  1.00  0.00     0.181 C 
HETATM   53  S1  UNL     1      -0.819 -38.158 -19.349  1.00  0.00    -0.040 SA
BRANCH  52  54
HETATM   54  N10 UNL     1       1.478 -39.429 -19.428  1.00  0.00    -0.288 N 
HETATM   55  C18 UNL     1       2.679 -39.583 -18.705  1.00  0.00     0.334 C 
HETATM   56  N11 UNL     1       3.909 -39.739 -19.377  1.00  0.00    -0.040 NA
HETATM   57  O7  UNL     1       2.652 -39.583 -17.457  1.00  0.00    -0.251 OA
ATOM     58  H10 UNL     1       1.520 -39.434 -20.447  1.00  0.00     0.172 HD
ENDBRANCH  52  54
ENDBRANCH  50  52
ENDBRANCH  43  50
ENDBRANCH  38  41
ENDBRANCH  32  37
ENDBRANCH   1  32
TORSDOF 18
ENDMDL
MODEL 2
REMARK VINA RESULT: -8.661362527      2.181      2.480
REMARK  18 active torsions:
REMARK  status: ('A' for Active; 'I' for Inactive)
REMARK    1  A    between atoms: N1_1  and  C1_4 
REMARK    2  A    between atoms: N3_9  and  C3_10 
REMARK    3  A    between atoms: C3_10  and  C4_11 
REMARK       I    between atoms: C4_11  and  N4_13 
REMARK    4  A    between atoms: N4_13  and  C5_15 
REMARK    5  A    between atoms: C5_15  and  C6_16 
REMARK    6  A    between atoms: C5_15  and  C7_19 
REMARK       I    between atoms: C7_19  and  N5_21 
REMARK    7  A    between atoms: N5_21  and  C8_23 
REMARK    8  A    between atoms: C8_23  and  C9_24 
REMARK    9  A    between atoms: C8_23  and  C12_31 
REMARK   10  A    between atoms: C9_24  and  C10_25 
REMARK   11  A    between atoms: C10_25  and  C11_26 
REMARK   12  A    between atoms: C11_26  and  N6_27 
REMARK   13  A    between atoms: C12_31  and  N7_32 
REMARK   14  A    between atoms: C12_31  and  N8_36 
REMARK       I    between atoms: N8_36  and  C13_38 
REMARK   15  A    between atoms: C13_38  and  C14_40 
REMARK   16  A    between atoms: C16_42  and  N9_43 
REMARK   17  A    between atoms: N9_43  and  C17_45 
REMARK   18  A    between atoms: C17_45  and  N10_47 
REMARK       I    between atoms: N10_47  and  C18_49 
ROOT
HETATM    1  C8  UNL     1      -0.447 -43.930 -23.863  1.00  0.00     0.134 C 
ENDROOT
BRANCH   1   2
HETATM    2  N5  UNL     1       0.054 -44.954 -24.744  1.00  0.00    -0.350 N 
HETATM    3  C7  UNL     1      -0.022 -44.876 -26.154  1.00  0.00     0.251 C 
HETATM    4  O5  UNL     1      -0.553 -43.857 -26.659  1.00  0.00    -0.271 OA
ATOM      5  H5  UNL     1       0.486 -45.780 -24.329  1.00  0.00     0.163 HD
BRANCH   3   6
HETATM    6  C5  UNL     1       0.486 -45.923 -27.069  1.00  0.00     0.278 C 
BRANCH   6   7
HETATM    7  N4  UNL     1       1.852 -45.643 -27.424  1.00  0.00    -0.338 N 
HETATM    8  C4  UNL     1       2.882 -45.766 -26.476  1.00  0.00     0.237 C 
HETATM    9  O2  UNL     1       2.602 -46.124 -25.307  1.00  0.00    -0.272 OA
ATOM     10  H4  UNL     1       2.076 -45.351 -28.375  1.00  0.00     0.163 HD
BRANCH   8  11
HETATM   11  C3  UNL     1       4.291 -45.482 -26.824  1.00  0.00     0.245 C 
BRANCH  11  12
HETATM   12  N3  UNL     1       4.977 -46.770 -27.040  1.00  0.00    -0.258 N 
HETATM   13  C2  UNL     1       4.932 -47.545 -28.126  1.00  0.00     0.335 A 
HETATM   14  N2  UNL     1       5.611 -48.653 -28.124  1.00  0.00    -0.287 N 
HETATM   15  O1  UNL     1       4.214 -47.163 -29.132  1.00  0.00    -0.246 OA
HETATM   16  C1  UNL     1       6.321 -48.956 -27.035  1.00  0.00     0.163 A 
ATOM     17  H2  UNL     1       5.603 -49.275 -28.933  1.00  0.00     0.172 HD
HETATM   18  S3  UNL     1       5.999 -47.629 -26.011  1.00  0.00     0.029 SA
BRANCH  16  19
HETATM   19  N1  UNL     1       7.069 -50.020 -26.834  1.00  0.00    -0.378 N 
ATOM     20  H12 UNL     1       7.280 -50.801 -27.454  1.00  0.00     0.158 HD
ATOM     21  H11 UNL     1       7.592 -50.263 -25.992  1.00  0.00     0.158 HD
ENDBRANCH  16  19
ENDBRANCH  11  12
ENDBRANCH   8  11
ENDBRANCH   6   7
BRANCH   6  22
HETATM   22  C6  UNL     1      -0.357 -45.934 -28.289  1.00  0.00     0.206 C 
HETATM   23  O3  UNL     1       0.191 -45.933 -29.414  1.00  0.00    -0.646 OA
HETATM   24  O4  UNL     1      -1.718 -45.948 -28.171  1.00  0.00    -0.646 OA
ENDBRANCH   6  22
ENDBRANCH   3   6
ENDBRANCH   1   2
BRANCH   1  25
HETATM   25  C9  UNL     1       0.524 -42.780 -23.711  1.00  0.00     0.030 C 
BRANCH  25  26
HETATM   26  C10 UNL     1      -0.201 -41.478 -23.832  1.00  0.00     0.029 C 
BRANCH  26  27
HETATM   27  C11 UNL     1      -1.386 -41.561 -24.770  1.00  0.00     0.230 C 
BRANCH  27  28
HETATM   28  N6  UNL     1      -1.848 -40.278 -25.196  1.00  0.00    -0.079 N 
ATOM     29  H63 UNL     1      -1.395 -39.533 -24.666  1.00  0.00     0.274 HD
ATOM     30  H62 UNL     1      -1.498 -40.055 -26.128  1.00  0.00     0.274 HD
ATOM     31  H61 UNL     1      -2.863 -40.188 -25.158  1.00  0.00     0.274 HD
ENDBRANCH  27  28
ENDBRANCH  26  27
ENDBRANCH  25  26
ENDBRANCH   1  25
BRANCH   1  32
HETATM   32  C12 UNL     1      -0.761 -44.560 -22.514  1.00  0.00     0.307 C 
BRANCH  32  33
HETATM   33  N7  UNL     1      -1.598 -45.727 -22.682  1.00  0.00    -0.056 N 
ATOM     34  H73 UNL     1      -1.666 -46.272 -21.823  1.00  0.00     0.276 HD
ATOM     35  H72 UNL     1      -2.582 -45.477 -22.782  1.00  0.00     0.276 HD
ATOM     36  H71 UNL     1      -1.270 -46.294 -23.465  1.00  0.00     0.276 HD
ENDBRANCH  32  33
BRANCH  32  37
HETATM   37  N8  UNL     1      -1.487 -43.627 -21.670  1.00  0.00    -0.326 N 
HETATM   38  C13 UNL     1      -1.546 -43.811 -20.269  1.00  0.00     0.270 C 
HETATM   39  O6  UNL     1      -0.942 -44.818 -19.775  1.00  0.00    -0.266 OA
ATOM     40  H8  UNL     1      -1.962 -42.829 -22.092  1.00  0.00     0.165 HD
BRANCH  38  41
HETATM   41  C14 UNL     1      -2.255 -42.917 -19.368  1.00  0.00     0.106 A 
HETATM   42  C15 UNL     1      -2.633 -41.638 -19.790  1.00  0.00     0.084 A 
HETATM   43  C16 UNL     1      -3.303 -40.787 -18.939  1.00  0.00     0.111 A 
HETATM   44  N12 UNL     1      -3.614 -41.154 -17.684  1.00  0.00    -0.319 N 
HETATM   45  C19 UNL     1      -3.253 -42.379 -17.279  1.00  0.00     0.178 A 
ATOM     46  H12 UNL     1      -4.111 -40.520 -17.059  1.00  0.00     0.169 HD
HETATM   47  S2  UNL     1      -3.632 -42.817 -15.757  1.00  0.00    -0.040 SA
HETATM   48  N13 UNL     1      -2.587 -43.234 -18.111  1.00  0.00    -0.328 N 
ATOM     49  H13 UNL     1      -2.331 -44.156 -17.758  1.00  0.00     0.168 HD
BRANCH  43  50
HETATM   50  N9  UNL     1      -3.659 -39.604 -19.322  1.00  0.00    -0.319 N 
ATOM     51  H9  UNL     1      -4.625 -39.295 -19.227  1.00  0.00     0.169 HD
BRANCH  50  52
HETATM   52  C17 UNL     1      -2.678 -38.752 -19.873  1.00  0.00     0.181 C 
HETATM   53  S1  UNL     1      -1.237 -38.572 -19.180  1.00  0.00    -0.040 SA
BRANCH  52  54
HETATM   54  N10 UNL     1      -2.983 -38.043 -21.070  1.00  0.00    -0.288 N 
HETATM   55  C18 UNL     1      -3.229 -38.685 -22.302  1.00  0.00     0.334 C 
HETATM   56  N11 UNL     1      -3.525 -37.934 -23.457  1.00  0.00    -0.040 NA
HETATM   57  O7  UNL     1      -3.185 -39.930 -22.367  1.00  0.00    -0.251 OA
ATOM     58  H10 UNL     1      -3.025 -37.025 -21.035  1.00  0.00     0.172 HD
ENDBRANCH  52  54
ENDBRANCH  50  52
ENDBRANCH  43  50
ENDBRANCH  38  41
ENDBRANCH  32  37
ENDBRANCH   1  32
TORSDOF 18
ENDMDL
MODEL 3
REMARK VINA RESULT: -8.480483609      1.891      3.645
REMARK  18 active torsions:
REMARK  status: ('A' for Active; 'I' for Inactive)
REMARK    1  A    between atoms: N1_1  and  C1_4 
REMARK    2  A    between atoms: N3_9  and  C3_10 
REMARK    3  A    between atoms: C3_10  and  C4_11 
REMARK       I    between atoms: C4_11  and  N4_13 
REMARK    4  A    between atoms: N4_13  and  C5_15 
REMARK    5  A    between atoms: C5_15  and  C6_16 
REMARK    6  A    between atoms: C5_15  and  C7_19 
REMARK       I    between atoms: C7_19  and  N5_21 
REMARK    7  A    between atoms: N5_21  and  C8_23 
REMARK    8  A    between atoms: C8_23  and  C9_24 
REMARK    9  A    between atoms: C8_23  and  C12_31 
REMARK   10  A    between atoms: C9_24  and  C10_25 
REMARK   11  A    between atoms: C10_25  and  C11_26 
REMARK   12  A    between atoms: C11_26  and  N6_27 
REMARK   13  A    between atoms: C12_31  and  N7_32 
REMARK   14  A    between atoms: C12_31  and  N8_36 
REMARK       I    between atoms: N8_36  and  C13_38 
REMARK   15  A    between atoms: C13_38  and  C14_40 
REMARK   16  A    between atoms: C16_42  and  N9_43 
REMARK   17  A    between atoms: N9_43  and  C17_45 
REMARK   18  A    between atoms: C17_45  and  N10_47 
REMARK       I    between atoms: N10_47  and  C18_49 
ROOT
HETATM    1  C8  UNL     1      -0.205 -42.333 -24.778  1.00  0.00     0.134 C 
ENDROOT
BRANCH   1   2
HETATM    2  N5  UNL     1       0.272 -43.366 -25.662  1.00  0.00    -0.350 N 
HETATM    3  C7  UNL     1       0.072 -44.746 -25.429  1.00  0.00     0.251 C 
HETATM    4  O5  UNL     1      -0.557 -45.084 -24.396  1.00  0.00    -0.271 OA
ATOM      5  H5  UNL     1       0.781 -43.087 -26.501  1.00  0.00     0.163 HD
BRANCH   3   6
HETATM    6  C5  UNL     1       0.559 -45.816 -26.329  1.00  0.00     0.278 C 
BRANCH   6   7
HETATM    7  N4  UNL     1       1.890 -45.509 -26.781  1.00  0.00    -0.338 N 
HETATM    8  C4  UNL     1       2.997 -45.691 -25.935  1.00  0.00     0.237 C 
HETATM    9  O2  UNL     1       2.817 -46.126 -24.772  1.00  0.00    -0.272 OA
ATOM     10  H4  UNL     1       2.032 -45.155 -27.727  1.00  0.00     0.163 HD
BRANCH   8  11
HETATM   11  C3  UNL     1       4.372 -45.381 -26.383  1.00  0.00     0.245 C 
BRANCH  11  12
HETATM   12  N3  UNL     1       5.028 -46.648 -26.757  1.00  0.00    -0.258 N 
HETATM   13  C2  UNL     1       4.956 -47.288 -27.927  1.00  0.00     0.335 A 
HETATM   14  N2  UNL     1       5.612 -48.402 -28.063  1.00  0.00    -0.287 N 
HETATM   15  O1  UNL     1       4.239 -46.775 -28.872  1.00  0.00    -0.246 OA
HETATM   16  C1  UNL     1       6.323 -48.847 -27.024  1.00  0.00     0.163 A 
ATOM     17  H2  UNL     1       5.583 -48.924 -28.939  1.00  0.00     0.172 HD
HETATM   18  S3  UNL     1       6.039 -47.644 -25.848  1.00  0.00     0.029 SA
BRANCH  16  19
HETATM   19  N1  UNL     1       7.050 -49.942 -26.959  1.00  0.00    -0.378 N 
ATOM     20  H12 UNL     1       7.903 -50.134 -26.435  1.00  0.00     0.158 HD
ATOM     21  H11 UNL     1       6.885 -50.828 -27.437  1.00  0.00     0.158 HD
ENDBRANCH  16  19
ENDBRANCH  11  12
ENDBRANCH   8  11
ENDBRANCH   6   7
BRANCH   6  22
HETATM   22  C6  UNL     1      -0.357 -45.908 -27.492  1.00  0.00     0.206 C 
HETATM   23  O3  UNL     1      -1.134 -44.958 -27.738  1.00  0.00    -0.646 OA
HETATM   24  O4  UNL     1      -0.341 -47.024 -28.280  1.00  0.00    -0.646 OA
ENDBRANCH   6  22
ENDBRANCH   3   6
ENDBRANCH   1   2
BRANCH   1  25
HETATM   25  C9  UNL     1      -1.231 -41.439 -25.440  1.00  0.00     0.030 C 
BRANCH  25  26
HETATM   26  C10 UNL     1      -2.298 -41.070 -24.461  1.00  0.00     0.029 C 
BRANCH  26  27
HETATM   27  C11 UNL     1      -2.771 -39.643 -24.632  1.00  0.00     0.230 C 
BRANCH  27  28
HETATM   28  N6  UNL     1      -4.079 -39.554 -25.196  1.00  0.00    -0.079 N 
ATOM     29  H63 UNL     1      -4.766 -40.017 -24.600  1.00  0.00     0.274 HD
ATOM     30  H62 UNL     1      -4.434 -38.599 -25.148  1.00  0.00     0.274 HD
ATOM     31  H61 UNL     1      -4.125 -39.912 -26.151  1.00  0.00     0.274 HD
ENDBRANCH  27  28
ENDBRANCH  26  27
ENDBRANCH  25  26
ENDBRANCH   1  25
BRANCH   1  32
HETATM   32  C12 UNL     1       0.986 -41.525 -24.286  1.00  0.00     0.307 C 
BRANCH  32  33
HETATM   33  N7  UNL     1       2.222 -42.224 -24.562  1.00  0.00    -0.056 N 
ATOM     34  H73 UNL     1       2.118 -42.889 -25.327  1.00  0.00     0.276 HD
ATOM     35  H72 UNL     1       2.917 -41.610 -24.987  1.00  0.00     0.276 HD
ATOM     36  H71 UNL     1       2.576 -42.671 -23.716  1.00  0.00     0.276 HD
ENDBRANCH  32  33
BRANCH  32  37
HETATM   37  N8  UNL     1       0.914 -41.328 -22.848  1.00  0.00    -0.326 N 
HETATM   38  C13 UNL     1       0.597 -40.063 -22.305  1.00  0.00     0.270 C 
HETATM   39  O6  UNL     1       0.377 -39.104 -23.115  1.00  0.00    -0.266 OA
ATOM     40  H8  UNL     1       1.094 -42.114 -22.223  1.00  0.00     0.165 HD
BRANCH  38  41
HETATM   41  C14 UNL     1       0.509 -39.798 -20.877  1.00  0.00     0.106 A 
HETATM   42  C15 UNL     1      -0.705 -39.950 -20.201  1.00  0.00     0.084 A 
HETATM   43  C16 UNL     1      -0.793 -39.700 -18.850  1.00  0.00     0.111 A 
HETATM   44  N12 UNL     1       0.278 -39.303 -18.140  1.00  0.00    -0.319 N 
HETATM   45  C19 UNL     1       1.441 -39.156 -18.787  1.00  0.00     0.178 A 
ATOM     46  H12 UNL     1       0.206 -39.119 -17.140  1.00  0.00     0.169 HD
HETATM   47  S2  UNL     1       2.734 -38.675 -17.922  1.00  0.00    -0.040 SA
HETATM   48  N13 UNL     1       1.544 -39.401 -20.127  1.00  0.00    -0.328 N 
ATOM     49  H13 UNL     1       2.451 -39.274 -20.577  1.00  0.00     0.168 HD
BRANCH  43  50
HETATM   50  N9  UNL     1      -1.912 -39.841 -18.216  1.00  0.00    -0.319 N 
ATOM     51  H9  UNL     1      -2.672 -39.175 -18.345  1.00  0.00     0.169 HD
BRANCH  50  52
HETATM   52  C17 UNL     1      -2.054 -40.939 -17.341  1.00  0.00     0.181 C 
HETATM   53  S1  UNL     1      -2.389 -40.730 -15.780  1.00  0.00    -0.040 SA
BRANCH  52  54
HETATM   54  N10 UNL     1      -1.898 -42.254 -17.862  1.00  0.00    -0.288 N 
HETATM   55  C18 UNL     1      -2.764 -42.805 -18.830  1.00  0.00     0.334 C 
HETATM   56  N11 UNL     1      -2.564 -44.114 -19.312  1.00  0.00    -0.040 NA
HETATM   57  O7  UNL     1      -3.715 -42.123 -19.265  1.00  0.00    -0.251 OA
ATOM     58  H10 UNL     1      -1.125 -42.825 -17.520  1.00  0.00     0.172 HD
ENDBRANCH  52  54
ENDBRANCH  50  52
ENDBRANCH  43  50
ENDBRANCH  38  41
ENDBRANCH  32  37
ENDBRANCH   1  32
TORSDOF 18
ENDMDL
MODEL 4
REMARK VINA RESULT: -8.454234011      2.517      4.360
REMARK  18 active torsions:
REMARK  status: ('A' for Active; 'I' for Inactive)
REMARK    1  A    between atoms: N1_1  and  C1_4 
REMARK    2  A    between atoms: N3_9  and  C3_10 
REMARK    3  A    between atoms: C3_10  and  C4_11 
REMARK       I    between atoms: C4_11  and  N4_13 
REMARK    4  A    between atoms: N4_13  and  C5_15 
REMARK    5  A    between atoms: C5_15  and  C6_16 
REMARK    6  A    between atoms: C5_15  and  C7_19 
REMARK       I    between atoms: C7_19  and  N5_21 
REMARK    7  A    between atoms: N5_21  and  C8_23 
REMARK    8  A    between atoms: C8_23  and  C9_24 
REMARK    9  A    between atoms: C8_23  and  C12_31 
REMARK   10  A    between atoms: C9_24  and  C10_25 
REMARK   11  A    between atoms: C10_25  and  C11_26 
REMARK   12  A    between atoms: C11_26  and  N6_27 
REMARK   13  A    between atoms: C12_31  and  N7_32 
REMARK   14  A    between atoms: C12_31  and  N8_36 
REMARK       I    between atoms: N8_36  and  C13_38 
REMARK   15  A    between atoms: C13_38  and  C14_40 
REMARK   16  A    between atoms: C16_42  and  N9_43 
REMARK   17  A    between atoms: N9_43  and  C17_45 
REMARK   18  A    between atoms: C17_45  and  N10_47 
REMARK       I    between atoms: N10_47  and  C18_49 
ROOT
HETATM    1  C8  UNL     1      -0.605 -44.099 -23.674  1.00  0.00     0.134 C 
ENDROOT
BRANCH   1   2
HETATM    2  N5  UNL     1      -0.112 -45.081 -24.607  1.00  0.00    -0.350 N 
HETATM    3  C7  UNL     1      -0.069 -44.876 -26.005  1.00  0.00     0.251 C 
HETATM    4  O5  UNL     1      -0.482 -43.779 -26.452  1.00  0.00    -0.271 OA
ATOM      5  H5  UNL     1       0.224 -45.971 -24.238  1.00  0.00     0.163 HD
BRANCH   3   6
HETATM    6  C5  UNL     1       0.434 -45.878 -26.972  1.00  0.00     0.278 C 
BRANCH   6   7
HETATM    7  N4  UNL     1       1.799 -45.583 -27.319  1.00  0.00    -0.338 N 
HETATM    8  C4  UNL     1       2.829 -45.729 -26.375  1.00  0.00     0.237 C 
HETATM    9  O2  UNL     1       2.551 -46.120 -25.216  1.00  0.00    -0.272 OA
ATOM     10  H4  UNL     1       2.021 -45.265 -28.262  1.00  0.00     0.163 HD
BRANCH   8  11
HETATM   11  C3  UNL     1       4.237 -45.430 -26.715  1.00  0.00     0.245 C 
BRANCH  11  12
HETATM   12  N3  UNL     1       4.923 -46.708 -26.986  1.00  0.00    -0.258 N 
HETATM   13  C2  UNL     1       4.874 -47.437 -28.104  1.00  0.00     0.335 A 
HETATM   14  N2  UNL     1       5.554 -48.544 -28.150  1.00  0.00    -0.287 N 
HETATM   15  O1  UNL     1       4.154 -47.014 -29.090  1.00  0.00    -0.246 OA
HETATM   16  C1  UNL     1       6.267 -48.892 -27.076  1.00  0.00     0.163 A 
ATOM     17  H2  UNL     1       5.543 -49.132 -28.983  1.00  0.00     0.172 HD
HETATM   18  S3  UNL     1       5.948 -47.608 -25.997  1.00  0.00     0.029 SA
BRANCH  16  19
HETATM   19  N1  UNL     1       7.016 -49.962 -26.921  1.00  0.00    -0.378 N 
ATOM     20  H12 UNL     1       7.289 -50.677 -27.596  1.00  0.00     0.158 HD
ATOM     21  H11 UNL     1       7.477 -50.283 -26.069  1.00  0.00     0.158 HD
ENDBRANCH  16  19
ENDBRANCH  11  12
ENDBRANCH   8  11
ENDBRANCH   6   7
BRANCH   6  22
HETATM   22  C6  UNL     1      -0.415 -45.829 -28.187  1.00  0.00     0.206 C 
HETATM   23  O3  UNL     1      -1.646 -45.638 -28.068  1.00  0.00    -0.646 OA
HETATM   24  O4  UNL     1       0.156 -45.990 -29.418  1.00  0.00    -0.646 OA
ENDBRANCH   6  22
ENDBRANCH   3   6
ENDBRANCH   1   2
BRANCH   1  25
HETATM   25  C9  UNL     1      -2.072 -44.295 -23.357  1.00  0.00     0.030 C 
BRANCH  25  26
HETATM   26  C10 UNL     1      -2.224 -45.033 -22.067  1.00  0.00     0.029 C 
BRANCH  26  27
HETATM   27  C11 UNL     1      -1.083 -44.765 -21.109  1.00  0.00     0.230 C 
BRANCH  27  28
HETATM   28  N6  UNL     1      -1.529 -44.363 -19.813  1.00  0.00    -0.079 N 
ATOM     29  H63 UNL     1      -1.289 -43.388 -19.632  1.00  0.00     0.274 HD
ATOM     30  H62 UNL     1      -2.546 -44.293 -19.782  1.00  0.00     0.274 HD
ATOM     31  H61 UNL     1      -1.182 -44.968 -19.068  1.00  0.00     0.274 HD
ENDBRANCH  27  28
ENDBRANCH  26  27
ENDBRANCH  25  26
ENDBRANCH   1  25
BRANCH   1  32
HETATM   32  C12 UNL     1      -0.351 -42.713 -24.246  1.00  0.00     0.307 C 
BRANCH  32  33
HETATM   33  N7  UNL     1       0.997 -42.280 -23.945  1.00  0.00    -0.056 N 
ATOM     34  H73 UNL     1       1.067 -41.264 -23.899  1.00  0.00     0.276 HD
ATOM     35  H72 UNL     1       1.258 -42.495 -22.983  1.00  0.00     0.276 HD
ATOM     36  H71 UNL     1       1.657 -42.675 -24.615  1.00  0.00     0.276 HD
ENDBRANCH  32  33
BRANCH  32  37
HETATM   37  N8  UNL     1      -1.256 -41.741 -23.658  1.00  0.00    -0.326 N 
HETATM   38  C13 UNL     1      -1.702 -40.624 -24.400  1.00  0.00     0.270 C 
HETATM   39  O6  UNL     1      -1.286 -40.500 -25.597  1.00  0.00    -0.266 OA
ATOM     40  H8  UNL     1      -1.575 -41.867 -22.696  1.00  0.00     0.165 HD
BRANCH  38  41
HETATM   41  C14 UNL     1      -2.607 -39.616 -23.872  1.00  0.00     0.106 A 
HETATM   42  C15 UNL     1      -2.524 -39.219 -22.533  1.00  0.00     0.084 A 
HETATM   43  C16 UNL     1      -3.380 -38.266 -22.029  1.00  0.00     0.111 A 
HETATM   44  N12 UNL     1      -4.318 -37.688 -22.800  1.00  0.00    -0.319 N 
HETATM   45  C19 UNL     1      -4.398 -38.067 -24.082  1.00  0.00     0.178 A 
ATOM     46  H12 UNL     1      -4.948 -36.982 -22.421  1.00  0.00     0.169 HD
HETATM   47  S2  UNL     1      -5.536 -37.364 -25.011  1.00  0.00    -0.040 SA
HETATM   48  N13 UNL     1      -3.557 -39.012 -24.597  1.00  0.00    -0.328 N 
ATOM     49  H13 UNL     1      -3.657 -39.270 -25.579  1.00  0.00     0.168 HD
BRANCH  43  50
HETATM   50  N9  UNL     1      -3.308 -37.890 -20.794  1.00  0.00    -0.319 N 
ATOM     51  H9  UNL     1      -3.619 -36.961 -20.512  1.00  0.00     0.169 HD
BRANCH  50  52
HETATM   52  C17 UNL     1      -2.790 -38.797 -19.844  1.00  0.00     0.181 C 
HETATM   53  S1  UNL     1      -1.359 -38.556 -19.147  1.00  0.00    -0.040 SA
BRANCH  52  54
HETATM   54  N10 UNL     1      -3.561 -39.944 -19.503  1.00  0.00    -0.288 N 
HETATM   55  C18 UNL     1      -3.183 -41.256 -19.854  1.00  0.00     0.334 C 
HETATM   56  N11 UNL     1      -3.984 -42.358 -19.491  1.00  0.00    -0.040 NA
HETATM   57  O7  UNL     1      -2.126 -41.443 -20.492  1.00  0.00    -0.251 OA
ATOM     58  H10 UNL     1      -4.426 -39.811 -18.980  1.00  0.00     0.172 HD
ENDBRANCH  52  54
ENDBRANCH  50  52
ENDBRANCH  43  50
ENDBRANCH  38  41
ENDBRANCH  32  37
ENDBRANCH   1  32
TORSDOF 18
ENDMDL
MODEL 5
REMARK VINA RESULT: -8.285869768      1.943      3.734
REMARK  18 active torsions:
REMARK  status: ('A' for Active; 'I' for Inactive)
REMARK    1  A    between atoms: N1_1  and  C1_4 
REMARK    2  A    between atoms: N3_9  and  C3_10 
REMARK    3  A    between atoms: C3_10  and  C4_11 
REMARK       I    between atoms: C4_11  and  N4_13 
REMARK    4  A    between atoms: N4_13  and  C5_15 
REMARK    5  A    between atoms: C5_15  and  C6_16 
REMARK    6  A    between atoms: C5_15  and  C7_19 
REMARK       I    between atoms: C7_19  and  N5_21 
REMARK    7  A    between atoms: N5_21  and  C8_23 
REMARK    8  A    between atoms: C8_23  and  C9_24 
REMARK    9  A    between atoms: C8_23  and  C12_31 
REMARK   10  A    between atoms: C9_24  and  C10_25 
REMARK   11  A    between atoms: C10_25  and  C11_26 
REMARK   12  A    between atoms: C11_26  and  N6_27 
REMARK   13  A    between atoms: C12_31  and  N7_32 
REMARK   14  A    between atoms: C12_31  and  N8_36 
REMARK       I    between atoms: N8_36  and  C13_38 
REMARK   15  A    between atoms: C13_38  and  C14_40 
REMARK   16  A    between atoms: C16_42  and  N9_43 
REMARK   17  A    between atoms: N9_43  and  C17_45 
REMARK   18  A    between atoms: C17_45  and  N10_47 
REMARK       I    between atoms: N10_47  and  C18_49 
ROOT
HETATM    1  C8  UNL     1       0.050 -42.536 -24.841  1.00  0.00     0.134 C 
ENDROOT
BRANCH   1   2
HETATM    2  N5  UNL     1       0.485 -43.542 -25.776  1.00  0.00    -0.350 N 
HETATM    3  C7  UNL     1       0.143 -44.910 -25.666  1.00  0.00     0.251 C 
HETATM    4  O5  UNL     1      -0.579 -45.260 -24.701  1.00  0.00    -0.271 OA
ATOM      5  H5  UNL     1       1.070 -43.252 -26.560  1.00  0.00     0.163 HD
BRANCH   3   6
HETATM    6  C5  UNL     1       0.586 -45.952 -26.620  1.00  0.00     0.278 C 
BRANCH   6   7
HETATM    7  N4  UNL     1       1.944 -45.704 -27.023  1.00  0.00    -0.338 N 
HETATM    8  C4  UNL     1       2.994 -45.760 -26.090  1.00  0.00     0.237 C 
HETATM    9  O2  UNL     1       2.738 -46.030 -24.892  1.00  0.00    -0.272 OA
ATOM     10  H4  UNL     1       2.148 -45.484 -27.998  1.00  0.00     0.163 HD
BRANCH   8  11
HETATM   11  C3  UNL     1       4.396 -45.507 -26.488  1.00  0.00     0.245 C 
BRANCH  11  12
HETATM   12  N3  UNL     1       4.999 -46.796 -26.881  1.00  0.00    -0.258 N 
HETATM   13  C2  UNL     1       4.910 -47.408 -28.064  1.00  0.00     0.335 A 
HETATM   14  N2  UNL     1       5.517 -48.548 -28.216  1.00  0.00    -0.287 N 
HETATM   15  O1  UNL     1       4.226 -46.846 -29.005  1.00  0.00    -0.246 OA
HETATM   16  C1  UNL     1       6.198 -49.044 -27.180  1.00  0.00     0.163 A 
ATOM     17  H2  UNL     1       5.474 -49.051 -29.103  1.00  0.00     0.172 HD
HETATM   18  S3  UNL     1       5.956 -47.853 -25.982  1.00  0.00     0.029 SA
BRANCH  16  19
HETATM   19  N1  UNL     1       6.875 -50.172 -27.130  1.00  0.00    -0.378 N 
ATOM     20  H12 UNL     1       7.116 -50.827 -27.873  1.00  0.00     0.158 HD
ATOM     21  H11 UNL     1       7.295 -50.609 -26.310  1.00  0.00     0.158 HD
ENDBRANCH  16  19
ENDBRANCH  11  12
ENDBRANCH   8  11
ENDBRANCH   6   7
BRANCH   6  22
HETATM   22  C6  UNL     1      -0.305 -45.916 -27.806  1.00  0.00     0.206 C 
HETATM   23  O3  UNL     1      -1.120 -44.975 -27.932  1.00  0.00    -0.646 OA
HETATM   24  O4  UNL     1      -0.223 -46.906 -28.743  1.00  0.00    -0.646 OA
ENDBRANCH   6  22
ENDBRANCH   3   6
ENDBRANCH   1   2
BRANCH   1  25
HETATM   25  C9  UNL     1      -1.135 -41.748 -25.355  1.00  0.00     0.030 C 
BRANCH  25  26
HETATM   26  C10 UNL     1      -2.043 -41.390 -24.224  1.00  0.00     0.029 C 
BRANCH  26  27
HETATM   27  C11 UNL     1      -2.188 -42.513 -23.220  1.00  0.00     0.230 C 
BRANCH  27  28
HETATM   28  N6  UNL     1      -3.402 -42.436 -22.472  1.00  0.00    -0.079 N 
ATOM     29  H63 UNL     1      -3.404 -43.115 -21.710  1.00  0.00     0.274 HD
ATOM     30  H62 UNL     1      -3.441 -41.575 -21.927  1.00  0.00     0.274 HD
ATOM     31  H61 UNL     1      -4.234 -42.537 -23.053  1.00  0.00     0.274 HD
ENDBRANCH  27  28
ENDBRANCH  26  27
ENDBRANCH  25  26
ENDBRANCH   1  25
BRANCH   1  32
HETATM   32  C12 UNL     1       1.223 -41.618 -24.533  1.00  0.00     0.307 C 
BRANCH  32  33
HETATM   33  N7  UNL     1       2.467 -42.229 -24.947  1.00  0.00    -0.056 N 
ATOM     34  H73 UNL     1       2.351 -42.790 -25.791  1.00  0.00     0.276 HD
ATOM     35  H72 UNL     1       3.125 -41.539 -25.311  1.00  0.00     0.276 HD
ATOM     36  H71 UNL     1       2.871 -42.772 -24.184  1.00  0.00     0.276 HD
ENDBRANCH  32  33
BRANCH  32  37
HETATM   37  N8  UNL     1       1.319 -41.371 -23.104  1.00  0.00    -0.326 N 
HETATM   38  C13 UNL     1       0.966 -40.115 -22.561  1.00  0.00     0.270 C 
HETATM   39  O6  UNL     1       0.561 -39.211 -23.362  1.00  0.00    -0.266 OA
ATOM     40  H8  UNL     1       1.646 -42.113 -22.485  1.00  0.00     0.165 HD
BRANCH  38  41
HETATM   41  C14 UNL     1       1.039 -39.801 -21.142  1.00  0.00     0.106 A 
HETATM   42  C15 UNL     1      -0.128 -39.607 -20.397  1.00  0.00     0.084 A 
HETATM   43  C16 UNL     1      -0.063 -39.309 -19.055  1.00  0.00     0.111 A 
HETATM   44  N12 UNL     1       1.116 -39.195 -18.419  1.00  0.00    -0.319 N 
HETATM   45  C19 UNL     1       2.235 -39.381 -19.132  1.00  0.00     0.178 A 
ATOM     46  H12 UNL     1       1.158 -38.974 -17.425  1.00  0.00     0.169 HD
HETATM   47  S2  UNL     1       3.659 -39.241 -18.356  1.00  0.00    -0.040 SA
HETATM   48  N13 UNL     1       2.186 -39.676 -20.465  1.00  0.00    -0.328 N 
ATOM     49  H13 UNL     1       3.065 -39.808 -20.966  1.00  0.00     0.168 HD
BRANCH  43  50
HETATM   50  N9  UNL     1      -1.138 -39.131 -18.358  1.00  0.00    -0.319 N 
ATOM     51  H9  UNL     1      -1.685 -38.276 -18.452  1.00  0.00     0.169 HD
BRANCH  50  52
HETATM   52  C17 UNL     1      -1.535 -40.147 -17.463  1.00  0.00     0.181 C 
HETATM   53  S1  UNL     1      -1.681 -39.867 -15.885  1.00  0.00    -0.040 SA
BRANCH  52  54
HETATM   54  N10 UNL     1      -1.813 -41.444 -17.981  1.00  0.00    -0.288 N 
HETATM   55  C18 UNL     1      -2.889 -41.709 -18.853  1.00  0.00     0.334 C 
HETATM   56  N11 UNL     1      -3.119 -43.013 -19.336  1.00  0.00    -0.040 NA
HETATM   57  O7  UNL     1      -3.643 -40.778 -19.201  1.00  0.00    -0.251 OA
ATOM     58  H10 UNL     1      -1.205 -42.217 -17.709  1.00  0.00     0.172 HD
ENDBRANCH  52  54
ENDBRANCH  50  52
ENDBRANCH  43  50
ENDBRANCH  38  41
ENDBRANCH  32  37
ENDBRANCH   1  32
TORSDOF 18
ENDMDL
