MODEL 1
REMARK VINA RESULT: -5.571323454      0.000      0.000
REMARK  12 active torsions:
REMARK  status: ('A' for Active; 'I' for Inactive)
REMARK    1  A    between atoms: C3_3  and  O1_4 
REMARK    2  A    between atoms: O1_4  and  C4_5 
REMARK    3  A    between atoms: C4_5  and  C5_6 
REMARK    4  A    between atoms: C5_6  and  O2_7 
REMARK    5  A    between atoms: C5_6  and  C6_9 
REMARK    6  A    between atoms: C6_9  and  N1_10 
REMARK    7  A    between atoms: N1_10  and  C8_12 
REMARK    8  A    between atoms: C8_12  and  C9_13 
REMARK    9  A    between atoms: C9_13  and  N2_14 
REMARK   10  A    between atoms: N2_14  and  C10_15 
REMARK   11  A    between atoms: N2_14  and  C14_19 
REMARK   12  A    between atoms: C10_15  and  C11_16 
ROOT
HETATM    1  C1  UNL     1      -7.036   1.273  17.067  1.00  0.00     0.014 C 
HETATM    2  C2  UNL     1      -5.946   1.068  16.602  1.00  0.00    -0.091 C 
HETATM    3  C3  UNL     1      -4.595   0.807  16.011  1.00  0.00     0.260 C 
ENDROOT
BRANCH   3   4
HETATM    4  O1  UNL     1      -4.337   1.678  15.006  1.00  0.00    -0.377 OA
BRANCH   4   5
HETATM    5  C4  UNL     1      -4.391   3.006  15.206  1.00  0.00     0.202 C 
BRANCH   5   6
HETATM    6  C5  UNL     1      -5.308   3.825  14.341  1.00  0.00     0.170 C 
BRANCH   6   7
HETATM    7  O2  UNL     1      -6.066   4.647  15.132  1.00  0.00    -0.392 OA
ATOM      8  H2  UNL     1      -6.175   5.487  14.701  1.00  0.00     0.210 HD
ENDBRANCH   6   7
BRANCH   6   9
HETATM    9  C6  UNL     1      -4.437   4.553  13.338  1.00  0.00     0.305 C 
BRANCH   9  10
HETATM   10  N1  UNL     1      -3.173   4.952  13.917  1.00  0.00     0.088 N 
HETATM   11  C7  UNL     1      -3.134   6.366  14.227  1.00  0.00     0.310 C 
BRANCH  10  12
HETATM   12  C8  UNL     1      -2.077   4.619  13.033  1.00  0.00     0.291 C 
BRANCH  12  13
HETATM   13  C9  UNL     1      -2.612   3.990  11.793  1.00  0.00     0.156 C 
BRANCH  13  14
HETATM   14  N2  UNL     1      -1.851   2.765  11.456  1.00  0.00    -0.351 N 
BRANCH  14  15
HETATM   15  C10 UNL     1      -0.471   2.972  11.199  1.00  0.00     0.129 C 
BRANCH  15  16
HETATM   16  C11 UNL     1      -0.079   3.686   9.968  1.00  0.00    -0.005 C 
HETATM   17  C12 UNL     1      -0.665   3.184   8.686  1.00  0.00     0.011 C 
HETATM   18  C13 UNL     1       1.410   3.893   9.789  1.00  0.00     0.011 C 
ENDBRANCH  15  16
ENDBRANCH  14  15
BRANCH  14  19
HETATM   19  C14 UNL     1      -2.564   1.541  11.424  1.00  0.00     0.173 C 
HETATM   20  N3  UNL     1      -3.570   1.232  12.165  1.00  0.00    -0.361 N 
HETATM   21  C15 UNL     1      -4.056  -0.081  11.876  1.00  0.00     0.142 C 
ATOM     22  H3  UNL     1      -3.972   1.849  12.871  1.00  0.00     0.162 HD
HETATM   23  C16 UNL     1      -3.421  -0.393  10.534  1.00  0.00     0.142 C 
HETATM   24  N4  UNL     1      -2.257   0.462  10.562  1.00  0.00    -0.361 N 
ATOM     25  H4  UNL     1      -1.383   0.316  10.057  1.00  0.00     0.162 HD
ENDBRANCH  14  19
ENDBRANCH  13  14
ENDBRANCH  12  13
ENDBRANCH  10  12
ENDBRANCH   9  10
ENDBRANCH   6   9
ENDBRANCH   5   6
ENDBRANCH   4   5
ENDBRANCH   3   4
TORSDOF 12
ENDMDL
MODEL 2
REMARK VINA RESULT: -5.566541808      2.208      5.064
REMARK  12 active torsions:
REMARK  status: ('A' for Active; 'I' for Inactive)
REMARK    1  A    between atoms: C3_3  and  O1_4 
REMARK    2  A    between atoms: O1_4  and  C4_5 
REMARK    3  A    between atoms: C4_5  and  C5_6 
REMARK    4  A    between atoms: C5_6  and  O2_7 
REMARK    5  A    between atoms: C5_6  and  C6_9 
REMARK    6  A    between atoms: C6_9  and  N1_10 
REMARK    7  A    between atoms: N1_10  and  C8_12 
REMARK    8  A    between atoms: C8_12  and  C9_13 
REMARK    9  A    between atoms: C9_13  and  N2_14 
REMARK   10  A    between atoms: N2_14  and  C10_15 
REMARK   11  A    between atoms: N2_14  and  C14_19 
REMARK   12  A    between atoms: C10_15  and  C11_16 
ROOT
HETATM    1  C1  UNL     1      -3.560  -1.592  11.232  1.00  0.00     0.014 C 
HETATM    2  C2  UNL     1      -3.942  -0.487  11.512  1.00  0.00    -0.091 C 
HETATM    3  C3  UNL     1      -4.428   0.884  11.871  1.00  0.00     0.260 C 
ENDROOT
BRANCH   3   4
HETATM    4  O1  UNL     1      -4.025   1.221  13.120  1.00  0.00    -0.377 OA
BRANCH   4   5
HETATM    5  C4  UNL     1      -4.452   0.540  14.196  1.00  0.00     0.202 C 
BRANCH   5   6
HETATM    6  C5  UNL     1      -4.624   1.281  15.494  1.00  0.00     0.170 C 
BRANCH   6   7
HETATM    7  O2  UNL     1      -3.740   0.791  16.418  1.00  0.00    -0.392 OA
ATOM      8  H2  UNL     1      -3.904  -0.135  16.551  1.00  0.00     0.210 HD
ENDBRANCH   6   7
BRANCH   6   9
HETATM    9  C6  UNL     1      -4.455   2.754  15.188  1.00  0.00     0.305 C 
BRANCH   9  10
HETATM   10  N1  UNL     1      -5.508   3.549  15.782  1.00  0.00     0.088 N 
HETATM   11  C7  UNL     1      -6.662   2.750  16.138  1.00  0.00     0.310 C 
BRANCH  10  12
HETATM   12  C8  UNL     1      -5.911   4.614  14.890  1.00  0.00     0.291 C 
BRANCH  12  13
HETATM   13  C9  UNL     1      -5.779   4.157  13.478  1.00  0.00     0.156 C 
BRANCH  13  14
HETATM   14  N2  UNL     1      -4.927   5.089  12.703  1.00  0.00    -0.351 N 
BRANCH  14  15
HETATM   15  C10 UNL     1      -5.229   6.463  12.883  1.00  0.00     0.129 C 
BRANCH  15  16
HETATM   16  C11 UNL     1      -6.042   7.149  11.860  1.00  0.00    -0.005 C 
HETATM   17  C12 UNL     1      -5.506   8.444  11.335  1.00  0.00     0.011 C 
HETATM   18  C13 UNL     1      -7.506   7.319  12.207  1.00  0.00     0.011 C 
ENDBRANCH  15  16
ENDBRANCH  14  15
BRANCH  14  19
HETATM   19  C14 UNL     1      -3.923   4.523  11.879  1.00  0.00     0.173 C 
HETATM   20  N3  UNL     1      -3.981   4.389  10.600  1.00  0.00    -0.361 N 
HETATM   21  C15 UNL     1      -2.798   3.779  10.078  1.00  0.00     0.142 C 
ATOM     22  H3  UNL     1      -4.774   4.683  10.029  1.00  0.00     0.162 HD
HETATM   23  C16 UNL     1      -1.809   3.919  11.221  1.00  0.00     0.142 C 
HETATM   24  N4  UNL     1      -2.696   4.007  12.357  1.00  0.00    -0.361 N 
ATOM     25  H4  UNL     1      -2.478   3.748  13.320  1.00  0.00     0.162 HD
ENDBRANCH  14  19
ENDBRANCH  13  14
ENDBRANCH  12  13
ENDBRANCH  10  12
ENDBRANCH   9  10
ENDBRANCH   6   9
ENDBRANCH   5   6
ENDBRANCH   4   5
ENDBRANCH   3   4
TORSDOF 12
ENDMDL
MODEL 3
REMARK VINA RESULT: -5.548194280      1.486      3.588
REMARK  12 active torsions:
REMARK  status: ('A' for Active; 'I' for Inactive)
REMARK    1  A    between atoms: C3_3  and  O1_4 
REMARK    2  A    between atoms: O1_4  and  C4_5 
REMARK    3  A    between atoms: C4_5  and  C5_6 
REMARK    4  A    between atoms: C5_6  and  O2_7 
REMARK    5  A    between atoms: C5_6  and  C6_9 
REMARK    6  A    between atoms: C6_9  and  N1_10 
REMARK    7  A    between atoms: N1_10  and  C8_12 
REMARK    8  A    between atoms: C8_12  and  C9_13 
REMARK    9  A    between atoms: C9_13  and  N2_14 
REMARK   10  A    between atoms: N2_14  and  C10_15 
REMARK   11  A    between atoms: N2_14  and  C14_19 
REMARK   12  A    between atoms: C10_15  and  C11_16 
ROOT
HETATM    1  C1  UNL     1      -7.030   1.274  17.072  1.00  0.00     0.014 C 
HETATM    2  C2  UNL     1      -5.899   1.501  16.733  1.00  0.00    -0.091 C 
HETATM    3  C3  UNL     1      -4.488   1.769  16.310  1.00  0.00     0.260 C 
ENDROOT
BRANCH   3   4
HETATM    4  O1  UNL     1      -4.329   1.514  14.988  1.00  0.00    -0.377 OA
BRANCH   4   5
HETATM    5  C4  UNL     1      -4.618   2.443  14.061  1.00  0.00     0.202 C 
BRANCH   5   6
HETATM    6  C5  UNL     1      -5.004   1.986  12.682  1.00  0.00     0.170 C 
BRANCH   6   7
HETATM    7  O2  UNL     1      -4.986   3.055  11.827  1.00  0.00    -0.392 OA
ATOM      8  H2  UNL     1      -4.615   2.787  10.994  1.00  0.00     0.210 HD
ENDBRANCH   6   7
BRANCH   6   9
HETATM    9  C6  UNL     1      -4.055   0.868  12.304  1.00  0.00     0.305 C 
BRANCH   9  10
HETATM   10  N1  UNL     1      -3.906   0.753  10.870  1.00  0.00     0.088 N 
HETATM   11  C7  UNL     1      -4.756  -0.278  10.311  1.00  0.00     0.310 C 
BRANCH  10  12
HETATM   12  C8  UNL     1      -2.528   0.488  10.518  1.00  0.00     0.291 C 
BRANCH  12  13
HETATM   13  C9  UNL     1      -1.629   1.310  11.376  1.00  0.00     0.156 C 
BRANCH  13  14
HETATM   14  N2  UNL     1      -1.420   2.651  10.784  1.00  0.00    -0.351 N 
BRANCH  14  15
HETATM   15  C10 UNL     1      -0.969   2.646   9.439  1.00  0.00     0.129 C 
BRANCH  15  16
HETATM   16  C11 UNL     1      -0.087   3.737   8.983  1.00  0.00    -0.005 C 
HETATM   17  C12 UNL     1      -0.086   4.032   7.516  1.00  0.00     0.011 C 
HETATM   18  C13 UNL     1       1.343   3.660   9.478  1.00  0.00     0.011 C 
ENDBRANCH  15  16
ENDBRANCH  14  15
BRANCH  14  19
HETATM   19  C14 UNL     1      -1.685   3.776  11.605  1.00  0.00     0.173 C 
HETATM   20  N3  UNL     1      -2.538   4.707  11.358  1.00  0.00    -0.361 N 
HETATM   21  C15 UNL     1      -2.556   5.695  12.392  1.00  0.00     0.142 C 
ATOM     22  H3  UNL     1      -3.129   4.738  10.527  1.00  0.00     0.162 HD
HETATM   23  C16 UNL     1      -1.841   5.003  13.537  1.00  0.00     0.142 C 
HETATM   24  N4  UNL     1      -1.029   4.042  12.829  1.00  0.00    -0.361 N 
ATOM     25  H4  UNL     1      -0.151   3.633  13.150  1.00  0.00     0.162 HD
ENDBRANCH  14  19
ENDBRANCH  13  14
ENDBRANCH  12  13
ENDBRANCH  10  12
ENDBRANCH   9  10
ENDBRANCH   6   9
ENDBRANCH   5   6
ENDBRANCH   4   5
ENDBRANCH   3   4
TORSDOF 12
ENDMDL
MODEL 4
REMARK VINA RESULT: -5.542085137      2.327      5.274
REMARK  12 active torsions:
REMARK  status: ('A' for Active; 'I' for Inactive)
REMARK    1  A    between atoms: C3_3  and  O1_4 
REMARK    2  A    between atoms: O1_4  and  C4_5 
REMARK    3  A    between atoms: C4_5  and  C5_6 
REMARK    4  A    between atoms: C5_6  and  O2_7 
REMARK    5  A    between atoms: C5_6  and  C6_9 
REMARK    6  A    between atoms: C6_9  and  N1_10 
REMARK    7  A    between atoms: N1_10  and  C8_12 
REMARK    8  A    between atoms: C8_12  and  C9_13 
REMARK    9  A    between atoms: C9_13  and  N2_14 
REMARK   10  A    between atoms: N2_14  and  C10_15 
REMARK   11  A    between atoms: N2_14  and  C14_19 
REMARK   12  A    between atoms: C10_15  and  C11_16 
ROOT
HETATM    1  C1  UNL     1      -2.819  -3.003  11.202  1.00  0.00     0.014 C 
HETATM    2  C2  UNL     1      -3.282  -1.893  11.194  1.00  0.00    -0.091 C 
HETATM    3  C3  UNL     1      -3.857  -0.510  11.199  1.00  0.00     0.260 C 
ENDROOT
BRANCH   3   4
HETATM    4  O1  UNL     1      -2.925   0.394  11.586  1.00  0.00    -0.377 OA
BRANCH   4   5
HETATM    5  C4  UNL     1      -1.942   0.777  10.754  1.00  0.00     0.202 C 
BRANCH   5   6
HETATM    6  C5  UNL     1      -1.850   2.228  10.370  1.00  0.00     0.170 C 
BRANCH   6   7
HETATM    7  O2  UNL     1      -3.111   2.755  10.279  1.00  0.00    -0.392 OA
ATOM      8  H2  UNL     1      -3.051   3.694  10.148  1.00  0.00     0.210 HD
ENDBRANCH   6   7
BRANCH   6   9
HETATM    9  C6  UNL     1      -0.964   2.902  11.396  1.00  0.00     0.305 C 
BRANCH   9  10
HETATM   10  N1  UNL     1      -1.261   4.312  11.518  1.00  0.00     0.088 N 
HETATM   11  C7  UNL     1      -0.275   5.139  10.854  1.00  0.00     0.310 C 
BRANCH  10  12
HETATM   12  C8  UNL     1      -1.360   4.697  12.908  1.00  0.00     0.291 C 
BRANCH  12  13
HETATM   13  C9  UNL     1      -2.507   5.630  13.086  1.00  0.00     0.156 C 
BRANCH  13  14
HETATM   14  N2  UNL     1      -3.794   4.904  12.982  1.00  0.00    -0.351 N 
BRANCH  14  15
HETATM   15  C10 UNL     1      -4.716   5.453  12.053  1.00  0.00     0.129 C 
BRANCH  15  16
HETATM   16  C11 UNL     1      -5.661   6.486  12.519  1.00  0.00    -0.005 C 
HETATM   17  C12 UNL     1      -6.811   6.015  13.353  1.00  0.00     0.011 C 
HETATM   18  C13 UNL     1      -6.173   7.423  11.446  1.00  0.00     0.011 C 
ENDBRANCH  15  16
ENDBRANCH  14  15
BRANCH  14  19
HETATM   19  C14 UNL     1      -3.969   3.763  13.804  1.00  0.00     0.173 C 
HETATM   20  N3  UNL     1      -4.094   3.767  15.085  1.00  0.00    -0.361 N 
HETATM   21  C15 UNL     1      -4.254   2.444  15.604  1.00  0.00     0.142 C 
ATOM     22  H3  UNL     1      -4.080   4.610  15.660  1.00  0.00     0.162 HD
HETATM   23  C16 UNL     1      -4.612   1.635  14.372  1.00  0.00     0.142 C 
HETATM   24  N4  UNL     1      -4.023   2.434  13.323  1.00  0.00    -0.361 N 
ATOM     25  H4  UNL     1      -3.707   2.104  12.411  1.00  0.00     0.162 HD
ENDBRANCH  14  19
ENDBRANCH  13  14
ENDBRANCH  12  13
ENDBRANCH  10  12
ENDBRANCH   9  10
ENDBRANCH   6   9
ENDBRANCH   5   6
ENDBRANCH   4   5
ENDBRANCH   3   4
TORSDOF 12
ENDMDL
MODEL 5
REMARK VINA RESULT: -5.499028885      1.887      3.833
REMARK  12 active torsions:
REMARK  status: ('A' for Active; 'I' for Inactive)
REMARK    1  A    between atoms: C3_3  and  O1_4 
REMARK    2  A    between atoms: O1_4  and  C4_5 
REMARK    3  A    between atoms: C4_5  and  C5_6 
REMARK    4  A    between atoms: C5_6  and  O2_7 
REMARK    5  A    between atoms: C5_6  and  C6_9 
REMARK    6  A    between atoms: C6_9  and  N1_10 
REMARK    7  A    between atoms: N1_10  and  C8_12 
REMARK    8  A    between atoms: C8_12  and  C9_13 
REMARK    9  A    between atoms: C9_13  and  N2_14 
REMARK   10  A    between atoms: N2_14  and  C10_15 
REMARK   11  A    between atoms: N2_14  and  C14_19 
REMARK   12  A    between atoms: C10_15  and  C11_16 
ROOT
HETATM    1  C1  UNL     1      -6.392   1.668  17.302  1.00  0.00     0.014 C 
HETATM    2  C2  UNL     1      -6.218   2.326  16.311  1.00  0.00    -0.091 C 
HETATM    3  C3  UNL     1      -5.987   3.149  15.081  1.00  0.00     0.260 C 
ENDROOT
BRANCH   3   4
HETATM    4  O1  UNL     1      -5.103   2.537  14.256  1.00  0.00    -0.377 OA
BRANCH   4   5
HETATM    5  C4  UNL     1      -5.072   2.814  12.942  1.00  0.00     0.202 C 
BRANCH   5   6
HETATM    6  C5  UNL     1      -5.022   1.670  11.967  1.00  0.00     0.170 C 
BRANCH   6   7
HETATM    7  O2  UNL     1      -5.385   2.115  10.724  1.00  0.00    -0.392 OA
ATOM      8  H2  UNL     1      -6.179   2.632  10.794  1.00  0.00     0.210 HD
ENDBRANCH   6   7
BRANCH   6   9
HETATM    9  C6  UNL     1      -3.626   1.088  12.039  1.00  0.00     0.305 C 
BRANCH   9  10
HETATM   10  N1  UNL     1      -3.234   0.479  10.787  1.00  0.00     0.088 N 
HETATM   11  C7  UNL     1      -3.281  -0.967  10.842  1.00  0.00     0.310 C 
BRANCH  10  12
HETATM   12  C8  UNL     1      -1.906   0.907  10.403  1.00  0.00     0.291 C 
BRANCH  12  13
HETATM   13  C9  UNL     1      -1.540   2.135  11.163  1.00  0.00     0.156 C 
BRANCH  13  14
HETATM   14  N2  UNL     1      -1.539   3.320  10.275  1.00  0.00    -0.351 N 
BRANCH  14  15
HETATM   15  C10 UNL     1      -0.428   3.407   9.396  1.00  0.00     0.129 C 
BRANCH  15  16
HETATM   16  C11 UNL     1       0.919   3.576   9.972  1.00  0.00    -0.005 C 
HETATM   17  C12 UNL     1       1.096   4.700  10.944  1.00  0.00     0.011 C 
HETATM   18  C13 UNL     1       2.052   3.602   8.968  1.00  0.00     0.011 C 
ENDBRANCH  15  16
ENDBRANCH  14  15
BRANCH  14  19
HETATM   19  C14 UNL     1      -2.622   4.227  10.395  1.00  0.00     0.173 C 
HETATM   20  N3  UNL     1      -2.736   5.156  11.279  1.00  0.00    -0.361 N 
HETATM   21  C15 UNL     1      -3.951   5.892  11.118  1.00  0.00     0.142 C 
ATOM     22  H3  UNL     1      -2.044   5.343  12.005  1.00  0.00     0.162 HD
HETATM   23  C16 UNL     1      -4.395   5.515   9.717  1.00  0.00     0.142 C 
HETATM   24  N4  UNL     1      -3.754   4.232   9.548  1.00  0.00    -0.361 N 
ATOM     25  H4  UNL     1      -4.060   3.475   8.936  1.00  0.00     0.162 HD
ENDBRANCH  14  19
ENDBRANCH  13  14
ENDBRANCH  12  13
ENDBRANCH  10  12
ENDBRANCH   9  10
ENDBRANCH   6   9
ENDBRANCH   5   6
ENDBRANCH   4   5
ENDBRANCH   3   4
TORSDOF 12
ENDMDL
