MODEL 1
REMARK VINA RESULT: -6.226468486      0.000      0.000
REMARK  13 active torsions:
REMARK  status: ('A' for Active; 'I' for Inactive)
REMARK    1  A    between atoms: C2_2  and  C3_3 
REMARK    2  A    between atoms: C3_3  and  N1_4 
REMARK    3  A    between atoms: N1_4  and  C4_5 
REMARK    4  A    between atoms: N1_4  and  C7_8 
REMARK    5  A    between atoms: C4_5  and  C5_6 
REMARK    6  A    between atoms: C7_8  and  C8_9 
REMARK    7  A    between atoms: C8_9  and  N2_10 
REMARK    8  A    between atoms: N2_10  and  C9_13 
REMARK    9  A    between atoms: C9_13  and  C10_14 
REMARK   10  A    between atoms: C10_14  and  O1_15 
REMARK   11  A    between atoms: C10_14  and  C11_17 
REMARK   12  A    between atoms: C11_17  and  N3_18 
REMARK   13  A    between atoms: N3_18  and  C12_20 
ROOT
HETATM    1  C10 UNL     1      -4.525   1.536  11.127  1.00  0.00     0.162 C 
ENDROOT
BRANCH   1   2
HETATM    2  C9  UNL     1      -3.702   2.785  10.978  1.00  0.00     0.265 C 
BRANCH   2   3
HETATM    3  N2  UNL     1      -4.265   3.743  10.078  1.00  0.00    -0.071 N 
ATOM      4  H22 UNL     1      -5.150   3.401   9.705  1.00  0.00     0.277 HD
ATOM      5  H21 UNL     1      -3.716   3.787   9.219  1.00  0.00     0.277 HD
BRANCH   3   6
HETATM    6  C8  UNL     1      -4.431   5.035  10.620  1.00  0.00     0.252 C 
BRANCH   6   7
HETATM    7  C7  UNL     1      -4.439   6.113   9.593  1.00  0.00     0.149 C 
BRANCH   7   8
HETATM    8  N1  UNL     1      -5.567   6.959   9.497  1.00  0.00    -0.388 N 
BRANCH   8   9
HETATM    9  C3  UNL     1      -5.446   8.163  10.266  1.00  0.00     0.084 C 
BRANCH   9  10
HETATM   10  C2  UNL     1      -6.405   8.400  11.324  1.00  0.00     0.007 C 
HETATM   11  C1  UNL     1      -7.286   7.627  11.885  1.00  0.00     0.012 C 
ENDBRANCH   9  10
ENDBRANCH   8   9
BRANCH   8  12
HETATM   12  C4  UNL     1      -6.194   7.113   8.240  1.00  0.00     0.122 C 
BRANCH  12  13
HETATM   13  C5  UNL     1      -7.642   6.667   8.232  1.00  0.00     0.015 C 
HETATM   14  C6  UNL     1      -8.636   7.780   8.307  1.00  0.00     0.006 C 
ENDBRANCH  12  13
ENDBRANCH   8  12
ENDBRANCH   7   8
ENDBRANCH   6   7
ENDBRANCH   3   6
ENDBRANCH   2   3
ENDBRANCH   1   2
BRANCH   1  15
HETATM   15  O1  UNL     1      -5.876   1.773  10.953  1.00  0.00    -0.392 OA
ATOM     16  H1  UNL     1      -6.210   1.386  10.151  1.00  0.00     0.210 HD
ENDBRANCH   1  15
BRANCH   1  17
HETATM   17  C11 UNL     1      -4.246   0.973  12.503  1.00  0.00     0.171 C 
BRANCH  17  18
HETATM   18  N3  UNL     1      -4.021   1.958  13.513  1.00  0.00    -0.223 N 
ATOM     19  H3  UNL     1      -3.307   2.678  13.398  1.00  0.00     0.177 HD
BRANCH  18  20
HETATM   20  C12 UNL     1      -4.761   1.905  14.591  1.00  0.00     0.679 A 
HETATM   21  N4  UNL     1      -4.653   0.882  15.469  1.00  0.00    -0.202 N 
HETATM   22  C13 UNL     1      -5.388   0.772  16.589  1.00  0.00     0.107 A 
ATOM     23  H4  UNL     1      -3.973   0.148  15.269  1.00  0.00     0.183 HD
HETATM   24  C14 UNL     1      -6.310   1.752  16.875  1.00  0.00     0.035 A 
HETATM   25  C15 UNL     1      -6.436   2.801  15.996  1.00  0.00     0.110 A 
HETATM   26  N5  UNL     1      -5.665   2.858  14.878  1.00  0.00    -0.198 N 
HETATM   27  C16 UNL     1      -5.853   3.984  14.021  1.00  0.00     0.174 C 
ENDBRANCH  18  20
ENDBRANCH  17  18
ENDBRANCH   1  17
TORSDOF 13
ENDMDL
MODEL 2
REMARK VINA RESULT: -6.008723465      0.577      1.889
REMARK  13 active torsions:
REMARK  status: ('A' for Active; 'I' for Inactive)
REMARK    1  A    between atoms: C2_2  and  C3_3 
REMARK    2  A    between atoms: C3_3  and  N1_4 
REMARK    3  A    between atoms: N1_4  and  C4_5 
REMARK    4  A    between atoms: N1_4  and  C7_8 
REMARK    5  A    between atoms: C4_5  and  C5_6 
REMARK    6  A    between atoms: C7_8  and  C8_9 
REMARK    7  A    between atoms: C8_9  and  N2_10 
REMARK    8  A    between atoms: N2_10  and  C9_13 
REMARK    9  A    between atoms: C9_13  and  C10_14 
REMARK   10  A    between atoms: C10_14  and  O1_15 
REMARK   11  A    between atoms: C10_14  and  C11_17 
REMARK   12  A    between atoms: C11_17  and  N3_18 
REMARK   13  A    between atoms: N3_18  and  C12_20 
ROOT
HETATM    1  C10 UNL     1      -4.415   1.759  11.075  1.00  0.00     0.162 C 
ENDROOT
BRANCH   1   2
HETATM    2  C9  UNL     1      -3.673   3.045  10.838  1.00  0.00     0.265 C 
BRANCH   2   3
HETATM    3  N2  UNL     1      -4.356   3.955   9.971  1.00  0.00    -0.071 N 
ATOM      4  H22 UNL     1      -5.340   3.697   9.892  1.00  0.00     0.277 HD
ATOM      5  H21 UNL     1      -4.058   3.814   9.006  1.00  0.00     0.277 HD
BRANCH   3   6
HETATM    6  C8  UNL     1      -4.234   5.314  10.329  1.00  0.00     0.252 C 
BRANCH   6   7
HETATM    7  C7  UNL     1      -4.840   6.245   9.337  1.00  0.00     0.149 C 
BRANCH   7   8
HETATM    8  N1  UNL     1      -6.053   6.894   9.659  1.00  0.00    -0.388 N 
BRANCH   8   9
HETATM    9  C3  UNL     1      -7.124   6.588   8.756  1.00  0.00     0.084 C 
BRANCH   9  10
HETATM   10  C2  UNL     1      -7.722   7.673   8.008  1.00  0.00     0.007 C 
HETATM   11  C1  UNL     1      -8.838   8.321   8.163  1.00  0.00     0.012 C 
ENDBRANCH   9  10
ENDBRANCH   8   9
BRANCH   8  12
HETATM   12  C4  UNL     1      -6.427   6.997  11.017  1.00  0.00     0.122 C 
BRANCH  12  13
HETATM   13  C5  UNL     1      -6.790   8.407  11.437  1.00  0.00     0.015 C 
HETATM   14  C6  UNL     1      -5.849   9.461  10.950  1.00  0.00     0.006 C 
ENDBRANCH  12  13
ENDBRANCH   8  12
ENDBRANCH   7   8
ENDBRANCH   6   7
ENDBRANCH   3   6
ENDBRANCH   2   3
ENDBRANCH   1   2
BRANCH   1  15
HETATM   15  O1  UNL     1      -5.786   1.925  11.015  1.00  0.00    -0.392 OA
ATOM     16  H1  UNL     1      -6.141   2.289  11.819  1.00  0.00     0.210 HD
ENDBRANCH   1  15
BRANCH   1  17
HETATM   17  C11 UNL     1      -3.989   1.234  12.427  1.00  0.00     0.171 C 
BRANCH  17  18
HETATM   18  N3  UNL     1      -3.884   2.232  13.445  1.00  0.00    -0.223 N 
ATOM     19  H3  UNL     1      -3.246   3.022  13.345  1.00  0.00     0.177 HD
BRANCH  18  20
HETATM   20  C12 UNL     1      -4.635   2.099  14.509  1.00  0.00     0.679 A 
HETATM   21  N4  UNL     1      -4.456   1.071  15.372  1.00  0.00    -0.202 N 
HETATM   22  C13 UNL     1      -5.197   0.881  16.477  1.00  0.00     0.107 A 
ATOM     23  H4  UNL     1      -3.715   0.401  15.171  1.00  0.00     0.183 HD
HETATM   24  C14 UNL     1      -6.201   1.776  16.763  1.00  0.00     0.035 A 
HETATM   25  C15 UNL     1      -6.400   2.828  15.900  1.00  0.00     0.110 A 
HETATM   26  N5  UNL     1      -5.619   2.968  14.797  1.00  0.00    -0.198 N 
HETATM   27  C16 UNL     1      -5.886   4.091  13.956  1.00  0.00     0.174 C 
ENDBRANCH  18  20
ENDBRANCH  17  18
ENDBRANCH   1  17
TORSDOF 13
ENDMDL
MODEL 3
REMARK VINA RESULT: -5.980228672      1.967      3.115
REMARK  13 active torsions:
REMARK  status: ('A' for Active; 'I' for Inactive)
REMARK    1  A    between atoms: C2_2  and  C3_3 
REMARK    2  A    between atoms: C3_3  and  N1_4 
REMARK    3  A    between atoms: N1_4  and  C4_5 
REMARK    4  A    between atoms: N1_4  and  C7_8 
REMARK    5  A    between atoms: C4_5  and  C5_6 
REMARK    6  A    between atoms: C7_8  and  C8_9 
REMARK    7  A    between atoms: C8_9  and  N2_10 
REMARK    8  A    between atoms: N2_10  and  C9_13 
REMARK    9  A    between atoms: C9_13  and  C10_14 
REMARK   10  A    between atoms: C10_14  and  O1_15 
REMARK   11  A    between atoms: C10_14  and  C11_17 
REMARK   12  A    between atoms: C11_17  and  N3_18 
REMARK   13  A    between atoms: N3_18  and  C12_20 
ROOT
HETATM    1  C10 UNL     1      -4.527   1.445  11.205  1.00  0.00     0.162 C 
ENDROOT
BRANCH   1   2
HETATM    2  C9  UNL     1      -3.658   2.654  10.994  1.00  0.00     0.265 C 
BRANCH   2   3
HETATM    3  N2  UNL     1      -4.186   3.588  10.049  1.00  0.00    -0.071 N 
ATOM      4  H22 UNL     1      -5.194   3.463   9.953  1.00  0.00     0.277 HD
ATOM      5  H21 UNL     1      -3.888   3.342   9.105  1.00  0.00     0.277 HD
BRANCH   3   6
HETATM    6  C8  UNL     1      -3.884   4.939  10.322  1.00  0.00     0.252 C 
BRANCH   6   7
HETATM    7  C7  UNL     1      -3.532   5.191  11.747  1.00  0.00     0.149 C 
BRANCH   7   8
HETATM    8  N1  UNL     1      -3.698   6.491  12.274  1.00  0.00    -0.388 N 
BRANCH   8   9
HETATM    9  C3  UNL     1      -4.748   7.236  11.641  1.00  0.00     0.084 C 
BRANCH   9  10
HETATM   10  C2  UNL     1      -6.090   7.111  12.166  1.00  0.00     0.007 C 
HETATM   11  C1  UNL     1      -7.213   7.664  11.815  1.00  0.00     0.012 C 
ENDBRANCH   9  10
ENDBRANCH   8   9
BRANCH   8  12
HETATM   12  C4  UNL     1      -3.593   6.675  13.671  1.00  0.00     0.122 C 
BRANCH  12  13
HETATM   13  C5  UNL     1      -2.171   6.907  14.142  1.00  0.00     0.015 C 
HETATM   14  C6  UNL     1      -1.965   8.186  14.887  1.00  0.00     0.006 C 
ENDBRANCH  12  13
ENDBRANCH   8  12
ENDBRANCH   7   8
ENDBRANCH   6   7
ENDBRANCH   3   6
ENDBRANCH   2   3
ENDBRANCH   1   2
BRANCH   1  15
HETATM   15  O1  UNL     1      -5.868   1.724  11.015  1.00  0.00    -0.392 OA
ATOM     16  H1  UNL     1      -6.271   1.144  10.379  1.00  0.00     0.210 HD
ENDBRANCH   1  15
BRANCH   1  17
HETATM   17  C11 UNL     1      -4.270   0.942  12.607  1.00  0.00     0.171 C 
BRANCH  17  18
HETATM   18  N3  UNL     1      -4.115   1.970  13.587  1.00  0.00    -0.223 N 
ATOM     19  H3  UNL     1      -3.469   2.746  13.441  1.00  0.00     0.177 HD
BRANCH  18  20
HETATM   20  C12 UNL     1      -4.831   1.882  14.680  1.00  0.00     0.679 A 
HETATM   21  N4  UNL     1      -4.663   0.860  15.550  1.00  0.00    -0.202 N 
HETATM   22  C13 UNL     1      -5.369   0.715  16.685  1.00  0.00     0.107 A 
ATOM     23  H4  UNL     1      -3.958   0.156  15.332  1.00  0.00     0.183 HD
HETATM   24  C14 UNL     1      -6.324   1.655  16.995  1.00  0.00     0.035 A 
HETATM   25  C15 UNL     1      -6.511   2.703  16.124  1.00  0.00     0.110 A 
HETATM   26  N5  UNL     1      -5.766   2.796  14.992  1.00  0.00    -0.198 N 
HETATM   27  C16 UNL     1      -6.017   3.918  14.145  1.00  0.00     0.174 C 
ENDBRANCH  18  20
ENDBRANCH  17  18
ENDBRANCH   1  17
TORSDOF 13
ENDMDL
MODEL 4
REMARK VINA RESULT: -5.958179930      1.997      2.616
REMARK  13 active torsions:
REMARK  status: ('A' for Active; 'I' for Inactive)
REMARK    1  A    between atoms: C2_2  and  C3_3 
REMARK    2  A    between atoms: C3_3  and  N1_4 
REMARK    3  A    between atoms: N1_4  and  C4_5 
REMARK    4  A    between atoms: N1_4  and  C7_8 
REMARK    5  A    between atoms: C4_5  and  C5_6 
REMARK    6  A    between atoms: C7_8  and  C8_9 
REMARK    7  A    between atoms: C8_9  and  N2_10 
REMARK    8  A    between atoms: N2_10  and  C9_13 
REMARK    9  A    between atoms: C9_13  and  C10_14 
REMARK   10  A    between atoms: C10_14  and  O1_15 
REMARK   11  A    between atoms: C10_14  and  C11_17 
REMARK   12  A    between atoms: C11_17  and  N3_18 
REMARK   13  A    between atoms: N3_18  and  C12_20 
ROOT
HETATM    1  C10 UNL     1      -4.500   1.454  11.242  1.00  0.00     0.162 C 
ENDROOT
BRANCH   1   2
HETATM    2  C9  UNL     1      -3.654   2.677  11.027  1.00  0.00     0.265 C 
BRANCH   2   3
HETATM    3  N2  UNL     1      -4.276   3.673  10.210  1.00  0.00    -0.071 N 
ATOM      4  H22 UNL     1      -5.286   3.665  10.350  1.00  0.00     0.277 HD
ATOM      5  H21 UNL     1      -4.232   3.402   9.227  1.00  0.00     0.277 HD
BRANCH   3   6
HETATM    6  C8  UNL     1      -3.769   4.978  10.381  1.00  0.00     0.252 C 
BRANCH   6   7
HETATM    7  C7  UNL     1      -3.258   5.240  11.756  1.00  0.00     0.149 C 
BRANCH   7   8
HETATM    8  N1  UNL     1      -3.995   6.090  12.610  1.00  0.00    -0.388 N 
BRANCH   8   9
HETATM    9  C3  UNL     1      -3.331   6.371  13.850  1.00  0.00     0.084 C 
BRANCH   9  10
HETATM   10  C2  UNL     1      -2.391   7.471  13.891  1.00  0.00     0.007 C 
HETATM   11  C1  UNL     1      -1.954   8.201  14.874  1.00  0.00     0.012 C 
ENDBRANCH   9  10
ENDBRANCH   8   9
BRANCH   8  12
HETATM   12  C4  UNL     1      -4.692   7.181  12.044  1.00  0.00     0.122 C 
BRANCH  12  13
HETATM   13  C5  UNL     1      -6.197   7.069  12.178  1.00  0.00     0.015 C 
HETATM   14  C6  UNL     1      -6.962   8.180  11.536  1.00  0.00     0.006 C 
ENDBRANCH  12  13
ENDBRANCH   8  12
ENDBRANCH   7   8
ENDBRANCH   6   7
ENDBRANCH   3   6
ENDBRANCH   2   3
ENDBRANCH   1   2
BRANCH   1  15
HETATM   15  O1  UNL     1      -5.843   1.698  11.021  1.00  0.00    -0.392 OA
ATOM     16  H1  UNL     1      -6.402   1.079  11.476  1.00  0.00     0.210 HD
ENDBRANCH   1  15
BRANCH   1  17
HETATM   17  C11 UNL     1      -4.260   0.982  12.659  1.00  0.00     0.171 C 
BRANCH  17  18
HETATM   18  N3  UNL     1      -4.172   2.030  13.626  1.00  0.00    -0.223 N 
ATOM     19  H3  UNL     1      -3.588   2.850  13.464  1.00  0.00     0.177 HD
BRANCH  18  20
HETATM   20  C12 UNL     1      -4.868   1.902  14.727  1.00  0.00     0.679 A 
HETATM   21  N4  UNL     1      -4.663   0.865  15.573  1.00  0.00    -0.202 N 
HETATM   22  C13 UNL     1      -5.347   0.680  16.715  1.00  0.00     0.107 A 
ATOM     23  H4  UNL     1      -3.945   0.182  15.329  1.00  0.00     0.183 HD
HETATM   24  C14 UNL     1      -6.319   1.589  17.060  1.00  0.00     0.035 A 
HETATM   25  C15 UNL     1      -6.544   2.651  16.215  1.00  0.00     0.110 A 
HETATM   26  N5  UNL     1      -5.820   2.786  15.073  1.00  0.00    -0.198 N 
HETATM   27  C16 UNL     1      -6.111   3.919  14.255  1.00  0.00     0.174 C 
ENDBRANCH  18  20
ENDBRANCH  17  18
ENDBRANCH   1  17
TORSDOF 13
ENDMDL
MODEL 5
REMARK VINA RESULT: -5.921688710      0.542      1.835
REMARK  13 active torsions:
REMARK  status: ('A' for Active; 'I' for Inactive)
REMARK    1  A    between atoms: C2_2  and  C3_3 
REMARK    2  A    between atoms: C3_3  and  N1_4 
REMARK    3  A    between atoms: N1_4  and  C4_5 
REMARK    4  A    between atoms: N1_4  and  C7_8 
REMARK    5  A    between atoms: C4_5  and  C5_6 
REMARK    6  A    between atoms: C7_8  and  C8_9 
REMARK    7  A    between atoms: C8_9  and  N2_10 
REMARK    8  A    between atoms: N2_10  and  C9_13 
REMARK    9  A    between atoms: C9_13  and  C10_14 
REMARK   10  A    between atoms: C10_14  and  O1_15 
REMARK   11  A    between atoms: C10_14  and  C11_17 
REMARK   12  A    between atoms: C11_17  and  N3_18 
REMARK   13  A    between atoms: N3_18  and  C12_20 
ROOT
HETATM    1  C10 UNL     1      -4.560   1.396  11.108  1.00  0.00     0.162 C 
ENDROOT
BRANCH   1   2
HETATM    2  C9  UNL     1      -3.668   2.582  10.869  1.00  0.00     0.265 C 
BRANCH   2   3
HETATM    3  N2  UNL     1      -4.213   3.540   9.957  1.00  0.00    -0.071 N 
ATOM      4  H22 UNL     1      -5.226   3.595  10.065  1.00  0.00     0.277 HD
ATOM      5  H21 UNL     1      -4.156   3.191   9.001  1.00  0.00     0.277 HD
BRANCH   3   6
HETATM    6  C8  UNL     1      -3.643   4.828  10.044  1.00  0.00     0.252 C 
BRANCH   6   7
HETATM    7  C7  UNL     1      -4.588   5.863  10.548  1.00  0.00     0.149 C 
BRANCH   7   8
HETATM    8  N1  UNL     1      -4.859   6.992   9.744  1.00  0.00    -0.388 N 
BRANCH   8   9
HETATM    9  C3  UNL     1      -5.344   6.661   8.435  1.00  0.00     0.084 C 
BRANCH   9  10
HETATM   10  C2  UNL     1      -6.686   7.066   8.078  1.00  0.00     0.007 C 
HETATM   11  C1  UNL     1      -7.787   6.390   7.936  1.00  0.00     0.012 C 
ENDBRANCH   9  10
ENDBRANCH   8   9
BRANCH   8  12
HETATM   12  C4  UNL     1      -5.469   8.118  10.340  1.00  0.00     0.122 C 
BRANCH  12  13
HETATM   13  C5  UNL     1      -6.004   7.847  11.732  1.00  0.00     0.015 C 
HETATM   14  C6  UNL     1      -7.493   7.773  11.821  1.00  0.00     0.006 C 
ENDBRANCH  12  13
ENDBRANCH   8  12
ENDBRANCH   7   8
ENDBRANCH   6   7
ENDBRANCH   3   6
ENDBRANCH   2   3
ENDBRANCH   1   2
BRANCH   1  15
HETATM   15  O1  UNL     1      -5.900   1.717  11.002  1.00  0.00    -0.392 OA
ATOM     16  H1  UNL     1      -6.209   1.687  10.103  1.00  0.00     0.210 HD
ENDBRANCH   1  15
BRANCH   1  17
HETATM   17  C11 UNL     1      -4.237   0.858  12.484  1.00  0.00     0.171 C 
BRANCH  17  18
HETATM   18  N3  UNL     1      -3.981   1.862  13.468  1.00  0.00    -0.223 N 
ATOM     19  H3  UNL     1      -3.243   2.554  13.337  1.00  0.00     0.177 HD
BRANCH  18  20
HETATM   20  C12 UNL     1      -4.726   1.864  14.544  1.00  0.00     0.679 A 
HETATM   21  N4  UNL     1      -4.657   0.860  15.449  1.00  0.00    -0.202 N 
HETATM   22  C13 UNL     1      -5.398   0.806  16.569  1.00  0.00     0.107 A 
ATOM     23  H4  UNL     1      -4.003   0.098  15.271  1.00  0.00     0.183 HD
HETATM   24  C14 UNL     1      -6.286   1.824  16.826  1.00  0.00     0.035 A 
HETATM   25  C15 UNL     1      -6.372   2.855  15.920  1.00  0.00     0.110 A 
HETATM   26  N5  UNL     1      -5.597   2.855  14.804  1.00  0.00    -0.198 N 
HETATM   27  C16 UNL     1      -5.742   3.965  13.918  1.00  0.00     0.174 C 
ENDBRANCH  18  20
ENDBRANCH  17  18
ENDBRANCH   1  17
TORSDOF 13
ENDMDL
