MODEL 1
REMARK VINA RESULT: -6.636041047      0.000      0.000
REMARK  13 active torsions:
REMARK  status: ('A' for Active; 'I' for Inactive)
REMARK    1  A    between atoms: O1_2  and  C2_3 
REMARK    2  A    between atoms: C2_3  and  C3_4 
REMARK    3  A    between atoms: C2_3  and  O4_21 
REMARK    4  A    between atoms: C3_4  and  C4_5 
REMARK    5  A    between atoms: C4_5  and  N1_6 
REMARK    6  A    between atoms: N1_6  and  C5_9 
REMARK    7  A    between atoms: C5_9  and  C6_10 
REMARK    8  A    between atoms: C6_10  and  O2_11 
REMARK    9  A    between atoms: C6_10  and  C7_13 
REMARK   10  A    between atoms: C7_13  and  O3_14 
REMARK   11  A    between atoms: O3_14  and  C8_15 
REMARK   12  A    between atoms: O4_21  and  C14_22 
REMARK   13  A    between atoms: C14_22  and  C15_23 
REMARK       I    between atoms: C15_23  and  N2_25 
ROOT
HETATM    1  N1  UNL     1      -2.659   0.972  11.887  1.00  0.00    -0.072 N 
ATOM      2  H11 UNL     1      -2.660   1.965  12.121  1.00  0.00     0.277 HD
ATOM      3  H12 UNL     1      -2.177   0.609  12.710  1.00  0.00     0.277 HD
ENDROOT
BRANCH   1   4
HETATM    4  C4  UNL     1      -1.891   0.723  10.688  1.00  0.00     0.237 C 
BRANCH   4   5
HETATM    5  C3  UNL     1      -1.036   1.887  10.330  1.00  0.00     0.088 C 
BRANCH   5   6
HETATM    6  C2  UNL     1      -1.595   3.162  10.852  1.00  0.00     0.261 C 
BRANCH   6   7
HETATM    7  O1  UNL     1      -1.339   4.271  10.080  1.00  0.00    -0.366 OA
HETATM    8  C1  UNL     1      -1.545   4.048   8.717  1.00  0.00     0.204 C 
ENDBRANCH   6   7
BRANCH   6   9
HETATM    9  O4  UNL     1      -1.047   3.344  12.143  1.00  0.00    -0.352 OA
BRANCH   9  10
HETATM   10  C14 UNL     1      -1.025   4.659  12.527  1.00  0.00     0.273 C 
BRANCH  10  11
HETATM   11  C15 UNL     1      -1.933   4.867  13.672  1.00  0.00     0.242 C 
HETATM   12  O5  UNL     1      -1.706   4.260  14.748  1.00  0.00    -0.271 OA
HETATM   13  N2  UNL     1      -3.026   5.733  13.541  1.00  0.00    -0.359 N 
HETATM   14  C16 UNL     1      -3.914   5.941  14.652  1.00  0.00     0.152 C 
HETATM   15  C17 UNL     1      -3.265   6.415  12.303  1.00  0.00     0.152 C 
ENDBRANCH  10  11
ENDBRANCH   9  10
ENDBRANCH   6   9
ENDBRANCH   5   6
ENDBRANCH   4   5
ENDBRANCH   1   4
BRANCH   1  16
HETATM   16  C5  UNL     1      -3.993   0.463  11.809  1.00  0.00     0.265 C 
BRANCH  16  17
HETATM   17  C6  UNL     1      -5.040   1.569  11.921  1.00  0.00     0.168 C 
BRANCH  17  18
HETATM   18  O2  UNL     1      -5.403   1.997  10.682  1.00  0.00    -0.392 OA
ATOM     19  H2  UNL     1      -5.979   1.363  10.273  1.00  0.00     0.210 HD
ENDBRANCH  17  18
BRANCH  17  20
HETATM   20  C7  UNL     1      -4.628   2.620  12.896  1.00  0.00     0.209 C 
BRANCH  20  21
HETATM   21  O3  UNL     1      -4.423   2.231  14.154  1.00  0.00    -0.349 OA
BRANCH  21  22
HETATM   22  C8  UNL     1      -5.129   1.923  15.246  1.00  0.00     0.068 A 
HETATM   23  C9  UNL     1      -4.941   0.815  16.044  1.00  0.00     0.037 A 
HETATM   24  C10 UNL     1      -5.739   0.605  17.171  1.00  0.00     0.003 A 
HETATM   25  C11 UNL     1      -6.718   1.519  17.472  1.00  0.00     0.000 A 
HETATM   26  C12 UNL     1      -6.910   2.626  16.676  1.00  0.00     0.003 A 
HETATM   27  C13 UNL     1      -6.148   2.852  15.580  1.00  0.00     0.037 A 
ENDBRANCH  21  22
ENDBRANCH  20  21
ENDBRANCH  17  20
ENDBRANCH  16  17
ENDBRANCH   1  16
TORSDOF 13
ENDMDL
MODEL 2
REMARK VINA RESULT: -6.612119689      1.842      3.838
REMARK  13 active torsions:
REMARK  status: ('A' for Active; 'I' for Inactive)
REMARK    1  A    between atoms: O1_2  and  C2_3 
REMARK    2  A    between atoms: C2_3  and  C3_4 
REMARK    3  A    between atoms: C2_3  and  O4_21 
REMARK    4  A    between atoms: C3_4  and  C4_5 
REMARK    5  A    between atoms: C4_5  and  N1_6 
REMARK    6  A    between atoms: N1_6  and  C5_9 
REMARK    7  A    between atoms: C5_9  and  C6_10 
REMARK    8  A    between atoms: C6_10  and  O2_11 
REMARK    9  A    between atoms: C6_10  and  C7_13 
REMARK   10  A    between atoms: C7_13  and  O3_14 
REMARK   11  A    between atoms: O3_14  and  C8_15 
REMARK   12  A    between atoms: O4_21  and  C14_22 
REMARK   13  A    between atoms: C14_22  and  C15_23 
REMARK       I    between atoms: C15_23  and  N2_25 
ROOT
HETATM    1  N1  UNL     1      -3.459   2.088  12.737  1.00  0.00    -0.072 N 
ATOM      2  H11 UNL     1      -2.558   1.742  12.404  1.00  0.00     0.277 HD
ATOM      3  H12 UNL     1      -3.350   1.901  13.734  1.00  0.00     0.277 HD
ENDROOT
BRANCH   1   4
HETATM    4  C4  UNL     1      -4.547   1.314  12.182  1.00  0.00     0.237 C 
BRANCH   4   5
HETATM    5  C3  UNL     1      -4.301   0.960  10.758  1.00  0.00     0.088 C 
BRANCH   5   6
HETATM    6  C2  UNL     1      -3.340  -0.167  10.629  1.00  0.00     0.261 C 
BRANCH   6   7
HETATM    7  O1  UNL     1      -3.594  -1.248  11.442  1.00  0.00    -0.366 OA
HETATM    8  C1  UNL     1      -2.752  -2.332  11.189  1.00  0.00     0.204 C 
ENDBRANCH   6   7
BRANCH   6   9
HETATM    9  O4  UNL     1      -2.060   0.358  10.922  1.00  0.00    -0.352 OA
BRANCH   9  10
HETATM   10  C14 UNL     1      -1.589   1.180   9.932  1.00  0.00     0.273 C 
BRANCH  10  11
HETATM   11  C15 UNL     1      -0.776   2.264  10.517  1.00  0.00     0.242 C 
HETATM   12  O5  UNL     1      -0.501   2.225  11.742  1.00  0.00    -0.271 OA
HETATM   13  N2  UNL     1      -0.326   3.310   9.702  1.00  0.00    -0.359 N 
HETATM   14  C16 UNL     1       0.466   4.368  10.265  1.00  0.00     0.152 C 
HETATM   15  C17 UNL     1      -0.652   3.332   8.306  1.00  0.00     0.152 C 
ENDBRANCH  10  11
ENDBRANCH   9  10
ENDBRANCH   6   9
ENDBRANCH   5   6
ENDBRANCH   4   5
ENDBRANCH   1   4
BRANCH   1  16
HETATM   16  C5  UNL     1      -3.592   3.491  12.489  1.00  0.00     0.265 C 
BRANCH  16  17
HETATM   17  C6  UNL     1      -2.860   4.333  13.533  1.00  0.00     0.168 C 
BRANCH  17  18
HETATM   18  O2  UNL     1      -1.531   4.045  13.516  1.00  0.00    -0.392 OA
ATOM     19  H2  UNL     1      -1.236   3.811  14.389  1.00  0.00     0.210 HD
ENDBRANCH  17  18
BRANCH  17  20
HETATM   20  C7  UNL     1      -3.538   4.276  14.860  1.00  0.00     0.209 C 
BRANCH  20  21
HETATM   21  O3  UNL     1      -4.691   3.609  14.922  1.00  0.00    -0.349 OA
BRANCH  21  22
HETATM   22  C8  UNL     1      -5.273   2.661  15.662  1.00  0.00     0.068 A 
HETATM   23  C9  UNL     1      -4.684   1.489  16.085  1.00  0.00     0.037 A 
HETATM   24  C10 UNL     1      -5.394   0.576  16.867  1.00  0.00     0.003 A 
HETATM   25  C11 UNL     1      -6.693   0.862  17.209  1.00  0.00     0.000 A 
HETATM   26  C12 UNL     1      -7.285   2.031  16.787  1.00  0.00     0.003 A 
HETATM   27  C13 UNL     1      -6.617   2.931  16.030  1.00  0.00     0.037 A 
ENDBRANCH  21  22
ENDBRANCH  20  21
ENDBRANCH  17  20
ENDBRANCH  16  17
ENDBRANCH   1  16
TORSDOF 13
ENDMDL
MODEL 3
REMARK VINA RESULT: -6.588127556      2.212      3.143
REMARK  13 active torsions:
REMARK  status: ('A' for Active; 'I' for Inactive)
REMARK    1  A    between atoms: O1_2  and  C2_3 
REMARK    2  A    between atoms: C2_3  and  C3_4 
REMARK    3  A    between atoms: C2_3  and  O4_21 
REMARK    4  A    between atoms: C3_4  and  C4_5 
REMARK    5  A    between atoms: C4_5  and  N1_6 
REMARK    6  A    between atoms: N1_6  and  C5_9 
REMARK    7  A    between atoms: C5_9  and  C6_10 
REMARK    8  A    between atoms: C6_10  and  O2_11 
REMARK    9  A    between atoms: C6_10  and  C7_13 
REMARK   10  A    between atoms: C7_13  and  O3_14 
REMARK   11  A    between atoms: O3_14  and  C8_15 
REMARK   12  A    between atoms: O4_21  and  C14_22 
REMARK   13  A    between atoms: C14_22  and  C15_23 
REMARK       I    between atoms: C15_23  and  N2_25 
ROOT
HETATM    1  N1  UNL     1      -2.717   1.074  11.886  1.00  0.00    -0.072 N 
ATOM      2  H11 UNL     1      -2.653   2.091  11.834  1.00  0.00     0.277 HD
ATOM      3  H12 UNL     1      -2.222   0.921  12.764  1.00  0.00     0.277 HD
ENDROOT
BRANCH   1   4
HETATM    4  C4  UNL     1      -2.016   0.454  10.784  1.00  0.00     0.237 C 
BRANCH   4   5
HETATM    5  C3  UNL     1      -1.252   1.451   9.987  1.00  0.00     0.088 C 
BRANCH   5   6
HETATM    6  C2  UNL     1      -1.721   2.838  10.244  1.00  0.00     0.261 C 
BRANCH   6   7
HETATM    7  O1  UNL     1      -2.803   3.238   9.494  1.00  0.00    -0.366 OA
HETATM    8  C1  UNL     1      -3.101   4.594   9.645  1.00  0.00     0.204 C 
ENDBRANCH   6   7
BRANCH   6   9
HETATM    9  O4  UNL     1      -0.622   3.690   9.986  1.00  0.00    -0.352 OA
BRANCH   9  10
HETATM   10  C14 UNL     1       0.417   3.489  10.858  1.00  0.00     0.273 C 
BRANCH  10  11
HETATM   11  C15 UNL     1       1.699   3.811  10.201  1.00  0.00     0.242 C 
HETATM   12  O5  UNL     1       2.162   3.015   9.347  1.00  0.00    -0.271 OA
HETATM   13  N2  UNL     1       2.372   4.992  10.538  1.00  0.00    -0.359 N 
HETATM   14  C16 UNL     1       3.620   5.312   9.902  1.00  0.00     0.152 C 
HETATM   15  C17 UNL     1       1.822   5.886  11.515  1.00  0.00     0.152 C 
ENDBRANCH  10  11
ENDBRANCH   9  10
ENDBRANCH   6   9
ENDBRANCH   5   6
ENDBRANCH   4   5
ENDBRANCH   1   4
BRANCH   1  16
HETATM   16  C5  UNL     1      -4.080   0.651  11.985  1.00  0.00     0.265 C 
BRANCH  16  17
HETATM   17  C6  UNL     1      -5.051   1.830  11.995  1.00  0.00     0.168 C 
BRANCH  17  18
HETATM   18  O2  UNL     1      -5.345   2.204  10.721  1.00  0.00    -0.392 OA
ATOM     19  H2  UNL     1      -4.734   2.868  10.426  1.00  0.00     0.210 HD
ENDBRANCH  17  18
BRANCH  17  20
HETATM   20  C7  UNL     1      -4.596   2.910  12.918  1.00  0.00     0.209 C 
BRANCH  20  21
HETATM   21  O3  UNL     1      -4.400   2.573  14.193  1.00  0.00    -0.349 OA
BRANCH  21  22
HETATM   22  C8  UNL     1      -5.100   2.129  15.241  1.00  0.00     0.068 A 
HETATM   23  C9  UNL     1      -4.835   0.986  15.964  1.00  0.00     0.037 A 
HETATM   24  C10 UNL     1      -5.635   0.629  17.052  1.00  0.00     0.003 A 
HETATM   25  C11 UNL     1      -6.694   1.435  17.391  1.00  0.00     0.000 A 
HETATM   26  C12 UNL     1      -6.961   2.577  16.670  1.00  0.00     0.003 A 
HETATM   27  C13 UNL     1      -6.199   2.944  15.614  1.00  0.00     0.037 A 
ENDBRANCH  21  22
ENDBRANCH  20  21
ENDBRANCH  17  20
ENDBRANCH  16  17
ENDBRANCH   1  16
TORSDOF 13
ENDMDL
MODEL 4
REMARK VINA RESULT: -6.564343984      1.381      2.200
REMARK  13 active torsions:
REMARK  status: ('A' for Active; 'I' for Inactive)
REMARK    1  A    between atoms: O1_2  and  C2_3 
REMARK    2  A    between atoms: C2_3  and  C3_4 
REMARK    3  A    between atoms: C2_3  and  O4_21 
REMARK    4  A    between atoms: C3_4  and  C4_5 
REMARK    5  A    between atoms: C4_5  and  N1_6 
REMARK    6  A    between atoms: N1_6  and  C5_9 
REMARK    7  A    between atoms: C5_9  and  C6_10 
REMARK    8  A    between atoms: C6_10  and  O2_11 
REMARK    9  A    between atoms: C6_10  and  C7_13 
REMARK   10  A    between atoms: C7_13  and  O3_14 
REMARK   11  A    between atoms: O3_14  and  C8_15 
REMARK   12  A    between atoms: O4_21  and  C14_22 
REMARK   13  A    between atoms: C14_22  and  C15_23 
REMARK       I    between atoms: C15_23  and  N2_25 
ROOT
HETATM    1  N1  UNL     1      -3.105   0.419  10.607  1.00  0.00    -0.072 N 
ATOM      2  H11 UNL     1      -3.272  -0.359   9.969  1.00  0.00     0.277 HD
ATOM      3  H12 UNL     1      -3.407   1.190  10.011  1.00  0.00     0.277 HD
ENDROOT
BRANCH   1   4
HETATM    4  C4  UNL     1      -1.700   0.534  10.927  1.00  0.00     0.237 C 
BRANCH   4   5
HETATM    5  C3  UNL     1      -1.238   1.947  10.881  1.00  0.00     0.088 C 
BRANCH   5   6
HETATM    6  C2  UNL     1      -1.439   2.549   9.536  1.00  0.00     0.261 C 
BRANCH   6   7
HETATM    7  O1  UNL     1      -0.536   3.528   9.193  1.00  0.00    -0.366 OA
HETATM    8  C1  UNL     1       0.742   3.296   9.703  1.00  0.00     0.204 C 
ENDBRANCH   6   7
BRANCH   6   9
HETATM    9  O4  UNL     1      -2.748   3.083   9.526  1.00  0.00    -0.352 OA
BRANCH   9  10
HETATM   10  C14 UNL     1      -2.761   4.446   9.376  1.00  0.00     0.273 C 
BRANCH  10  11
HETATM   11  C15 UNL     1      -3.618   5.061  10.409  1.00  0.00     0.242 C 
HETATM   12  O5  UNL     1      -4.865   4.976  10.294  1.00  0.00    -0.271 OA
HETATM   13  N2  UNL     1      -3.028   5.723  11.493  1.00  0.00    -0.359 N 
HETATM   14  C16 UNL     1      -3.856   6.324  12.502  1.00  0.00     0.152 C 
HETATM   15  C17 UNL     1      -1.601   5.806  11.603  1.00  0.00     0.152 C 
ENDBRANCH  10  11
ENDBRANCH   9  10
ENDBRANCH   6   9
ENDBRANCH   5   6
ENDBRANCH   4   5
ENDBRANCH   1   4
BRANCH   1  16
HETATM   16  C5  UNL     1      -3.932   0.316  11.769  1.00  0.00     0.265 C 
BRANCH  16  17
HETATM   17  C6  UNL     1      -4.829   1.539  11.951  1.00  0.00     0.168 C 
BRANCH  17  18
HETATM   18  O2  UNL     1      -5.207   2.025  10.738  1.00  0.00    -0.392 OA
ATOM     19  H2  UNL     1      -6.121   1.823  10.575  1.00  0.00     0.210 HD
ENDBRANCH  17  18
BRANCH  17  20
HETATM   20  C7  UNL     1      -4.237   2.518  12.907  1.00  0.00     0.209 C 
BRANCH  20  21
HETATM   21  O3  UNL     1      -4.213   2.169  14.193  1.00  0.00    -0.349 OA
BRANCH  21  22
HETATM   22  C8  UNL     1      -5.058   2.018  15.217  1.00  0.00     0.068 A 
HETATM   23  C9  UNL     1      -6.086   2.873  15.550  1.00  0.00     0.037 A 
HETATM   24  C10 UNL     1      -6.913   2.602  16.642  1.00  0.00     0.003 A 
HETATM   25  C11 UNL     1      -6.687   1.468  17.382  1.00  0.00     0.000 A 
HETATM   26  C12 UNL     1      -5.660   0.612  17.053  1.00  0.00     0.003 A 
HETATM   27  C13 UNL     1      -4.846   0.853  15.999  1.00  0.00     0.037 A 
ENDBRANCH  21  22
ENDBRANCH  20  21
ENDBRANCH  17  20
ENDBRANCH  16  17
ENDBRANCH   1  16
TORSDOF 13
ENDMDL
MODEL 5
REMARK VINA RESULT: -6.521677050      2.375      5.335
REMARK  13 active torsions:
REMARK  status: ('A' for Active; 'I' for Inactive)
REMARK    1  A    between atoms: O1_2  and  C2_3 
REMARK    2  A    between atoms: C2_3  and  C3_4 
REMARK    3  A    between atoms: C2_3  and  O4_21 
REMARK    4  A    between atoms: C3_4  and  C4_5 
REMARK    5  A    between atoms: C4_5  and  N1_6 
REMARK    6  A    between atoms: N1_6  and  C5_9 
REMARK    7  A    between atoms: C5_9  and  C6_10 
REMARK    8  A    between atoms: C6_10  and  O2_11 
REMARK    9  A    between atoms: C6_10  and  C7_13 
REMARK   10  A    between atoms: C7_13  and  O3_14 
REMARK   11  A    between atoms: O3_14  and  C8_15 
REMARK   12  A    between atoms: O4_21  and  C14_22 
REMARK   13  A    between atoms: C14_22  and  C15_23 
REMARK       I    between atoms: C15_23  and  N2_25 
ROOT
HETATM    1  N1  UNL     1      -2.277   3.298  12.270  1.00  0.00    -0.072 N 
ATOM      2  H11 UNL     1      -1.425   2.765  12.094  1.00  0.00     0.277 HD
ATOM      3  H12 UNL     1      -2.565   2.865  13.148  1.00  0.00     0.277 HD
ENDROOT
BRANCH   1   4
HETATM    4  C4  UNL     1      -3.257   3.063  11.233  1.00  0.00     0.237 C 
BRANCH   4   5
HETATM    5  C3  UNL     1      -4.415   2.277  11.738  1.00  0.00     0.088 C 
BRANCH   5   6
HETATM    6  C2  UNL     1      -3.994   0.949  12.259  1.00  0.00     0.261 C 
BRANCH   6   7
HETATM    7  O1  UNL     1      -4.273  -0.117  11.436  1.00  0.00    -0.366 OA
HETATM    8  C1  UNL     1      -3.158  -0.567  10.726  1.00  0.00     0.204 C 
ENDBRANCH   6   7
BRANCH   6   9
HETATM    9  O4  UNL     1      -4.649   0.777  13.500  1.00  0.00    -0.352 OA
BRANCH   9  10
HETATM   10  C14 UNL     1      -4.291   1.727  14.422  1.00  0.00     0.273 C 
BRANCH  10  11
HETATM   11  C15 UNL     1      -4.623   1.262  15.783  1.00  0.00     0.242 C 
HETATM   12  O5  UNL     1      -3.921   0.363  16.307  1.00  0.00    -0.271 OA
HETATM   13  N2  UNL     1      -5.708   1.829  16.463  1.00  0.00    -0.359 N 
HETATM   14  C16 UNL     1      -6.037   1.383  17.788  1.00  0.00     0.152 C 
HETATM   15  C17 UNL     1      -6.495   2.856  15.843  1.00  0.00     0.152 C 
ENDBRANCH  10  11
ENDBRANCH   9  10
ENDBRANCH   6   9
ENDBRANCH   5   6
ENDBRANCH   4   5
ENDBRANCH   1   4
BRANCH   1  16
HETATM   16  C5  UNL     1      -1.985   4.686  12.454  1.00  0.00     0.265 C 
BRANCH  16  17
HETATM   17  C6  UNL     1      -1.947   5.077  13.930  1.00  0.00     0.168 C 
BRANCH  17  18
HETATM   18  O2  UNL     1      -1.384   4.079  14.663  1.00  0.00    -0.392 OA
ATOM     19  H2  UNL     1      -2.036   3.680  15.226  1.00  0.00     0.210 HD
ENDBRANCH  17  18
BRANCH  17  20
HETATM   20  C7  UNL     1      -3.268   5.585  14.399  1.00  0.00     0.209 C 
BRANCH  20  21
HETATM   21  O3  UNL     1      -4.305   5.421  13.578  1.00  0.00    -0.349 OA
BRANCH  21  22
HETATM   22  C8  UNL     1      -5.277   6.148  13.017  1.00  0.00     0.068 A 
HETATM   23  C9  UNL     1      -6.614   6.100  13.345  1.00  0.00     0.037 A 
HETATM   24  C10 UNL     1      -7.538   6.919  12.693  1.00  0.00     0.003 A 
HETATM   25  C11 UNL     1      -7.094   7.774  11.715  1.00  0.00     0.000 A 
HETATM   26  C12 UNL     1      -5.758   7.824  11.383  1.00  0.00     0.003 A 
HETATM   27  C13 UNL     1      -4.845   7.041  12.003  1.00  0.00     0.037 A 
ENDBRANCH  21  22
ENDBRANCH  20  21
ENDBRANCH  17  20
ENDBRANCH  16  17
ENDBRANCH   1  16
TORSDOF 13
ENDMDL
