MODEL 1
REMARK VINA RESULT: -5.926827843      0.000      0.000
REMARK  9 active torsions:
REMARK  status: ('A' for Active; 'I' for Inactive)
REMARK    1  A    between atoms: C2_2  and  N1_3 
REMARK    2  A    between atoms: N1_3  and  C3_4 
REMARK    3  A    between atoms: N1_3  and  C5_6 
REMARK    4  A    between atoms: C5_6  and  C6_7 
REMARK    5  A    between atoms: C6_7  and  N2_8 
REMARK    6  A    between atoms: N2_8  and  C7_10 
REMARK    7  A    between atoms: C7_10  and  C8_11 
REMARK    8  A    between atoms: C7_10  and  C11_15 
REMARK    9  A    between atoms: C8_11  and  C9_12 
ROOT
HETATM    1  C9  UNL     1      -5.648   2.116  16.273  1.00  0.00     0.126 C 
HETATM    2  C10 UNL     1      -5.680   0.798  16.846  1.00  0.00     0.059 C 
HETATM    3  N3  UNL     1      -5.742  -0.258  17.330  1.00  0.00    -0.197 NA
ENDROOT
BRANCH   1   4
HETATM    4  C8  UNL     1      -4.387   2.392  15.527  1.00  0.00     0.039 C 
BRANCH   4   5
HETATM    5  C7  UNL     1      -4.485   2.631  14.077  1.00  0.00     0.082 C 
BRANCH   5   6
HETATM    6  N2  UNL     1      -4.119   1.625  13.163  1.00  0.00    -0.412 N 
ATOM      7  H2  UNL     1      -3.390   0.947  13.382  1.00  0.00     0.153 HD
BRANCH   6   8
HETATM    8  C6  UNL     1      -4.823   1.596  11.899  1.00  0.00     0.159 C 
BRANCH   8   9
HETATM    9  C5  UNL     1      -3.775   1.707  10.820  1.00  0.00     0.087 C 
BRANCH   9  10
HETATM   10  N1  UNL     1      -2.822   0.677  10.793  1.00  0.00    -0.353 N 
BRANCH  10  11
HETATM   11  C2  UNL     1      -1.463   0.985  10.667  1.00  0.00     0.064 C 
HETATM   12  C1  UNL     1      -1.245   2.439  11.063  1.00  0.00     0.055 C 
ENDBRANCH  10  11
BRANCH  10  13
HETATM   13  C3  UNL     1      -3.303  -0.562  10.353  1.00  0.00     0.064 C 
HETATM   14  C4  UNL     1      -3.198  -1.713  11.287  1.00  0.00     0.055 C 
ENDBRANCH  10  13
ENDBRANCH   9  10
ENDBRANCH   8   9
ENDBRANCH   6   8
ENDBRANCH   5   6
BRANCH   5  15
HETATM   15  C11 UNL     1      -3.881   3.960  13.648  1.00  0.00     0.012 A 
HETATM   16  C12 UNL     1      -3.742   5.081  14.596  1.00  0.00     0.011 A 
HETATM   17  C13 UNL     1      -4.787   5.168  13.486  1.00  0.00    -0.012 A 
HETATM   18  C14 UNL     1      -6.208   5.089  14.009  1.00  0.00     0.010 C 
ENDBRANCH   5  15
ENDBRANCH   4   5
ENDBRANCH   1   4
TORSDOF 9
ENDMDL
MODEL 2
REMARK VINA RESULT: -5.892587219      0.459      1.755
REMARK  9 active torsions:
REMARK  status: ('A' for Active; 'I' for Inactive)
REMARK    1  A    between atoms: C2_2  and  N1_3 
REMARK    2  A    between atoms: N1_3  and  C3_4 
REMARK    3  A    between atoms: N1_3  and  C5_6 
REMARK    4  A    between atoms: C5_6  and  C6_7 
REMARK    5  A    between atoms: C6_7  and  N2_8 
REMARK    6  A    between atoms: N2_8  and  C7_10 
REMARK    7  A    between atoms: C7_10  and  C8_11 
REMARK    8  A    between atoms: C7_10  and  C11_15 
REMARK    9  A    between atoms: C8_11  and  C9_12 
ROOT
HETATM    1  C9  UNL     1      -5.784   2.146  16.264  1.00  0.00     0.126 C 
HETATM    2  C10 UNL     1      -5.757   0.825  16.831  1.00  0.00     0.059 C 
HETATM    3  N3  UNL     1      -5.772  -0.236  17.308  1.00  0.00    -0.197 NA
ENDROOT
BRANCH   1   4
HETATM    4  C8  UNL     1      -4.507   2.512  15.588  1.00  0.00     0.039 C 
BRANCH   4   5
HETATM    5  C7  UNL     1      -4.545   2.768  14.138  1.00  0.00     0.082 C 
BRANCH   5   6
HETATM    6  N2  UNL     1      -4.105   1.789  13.229  1.00  0.00    -0.412 N 
ATOM      7  H2  UNL     1      -3.260   1.244  13.401  1.00  0.00     0.153 HD
BRANCH   6   8
HETATM    8  C6  UNL     1      -4.903   1.587  12.039  1.00  0.00     0.159 C 
BRANCH   8   9
HETATM    9  C5  UNL     1      -3.936   1.455  10.889  1.00  0.00     0.087 C 
BRANCH   9  10
HETATM   10  N1  UNL     1      -3.295   0.211  10.778  1.00  0.00    -0.353 N 
BRANCH  10  11
HETATM   11  C2  UNL     1      -3.949  -0.953  11.199  1.00  0.00     0.064 C 
HETATM   12  C1  UNL     1      -2.937  -2.088  11.283  1.00  0.00     0.055 C 
ENDBRANCH  10  11
BRANCH  10  13
HETATM   13  C3  UNL     1      -1.896   0.264  10.771  1.00  0.00     0.064 C 
HETATM   14  C4  UNL     1      -1.258   1.607  10.785  1.00  0.00     0.055 C 
ENDBRANCH  10  13
ENDBRANCH   9  10
ENDBRANCH   8   9
ENDBRANCH   6   8
ENDBRANCH   5   6
BRANCH   5  15
HETATM   15  C11 UNL     1      -3.967   4.122  13.755  1.00  0.00     0.012 A 
HETATM   16  C12 UNL     1      -3.952   5.247  14.708  1.00  0.00     0.011 A 
HETATM   17  C13 UNL     1      -4.908   5.290  13.518  1.00  0.00    -0.012 A 
HETATM   18  C14 UNL     1      -6.361   5.150  13.926  1.00  0.00     0.010 C 
ENDBRANCH   5  15
ENDBRANCH   4   5
ENDBRANCH   1   4
TORSDOF 9
ENDMDL
MODEL 3
REMARK VINA RESULT: -5.767802948      0.847      1.041
REMARK  9 active torsions:
REMARK  status: ('A' for Active; 'I' for Inactive)
REMARK    1  A    between atoms: C2_2  and  N1_3 
REMARK    2  A    between atoms: N1_3  and  C3_4 
REMARK    3  A    between atoms: N1_3  and  C5_6 
REMARK    4  A    between atoms: C5_6  and  C6_7 
REMARK    5  A    between atoms: C6_7  and  N2_8 
REMARK    6  A    between atoms: N2_8  and  C7_10 
REMARK    7  A    between atoms: C7_10  and  C8_11 
REMARK    8  A    between atoms: C7_10  and  C11_15 
REMARK    9  A    between atoms: C8_11  and  C9_12 
ROOT
HETATM    1  C9  UNL     1      -5.790   2.352  16.603  1.00  0.00     0.126 C 
HETATM    2  C10 UNL     1      -5.887   0.935  16.828  1.00  0.00     0.059 C 
HETATM    3  N3  UNL     1      -5.951  -0.205  17.050  1.00  0.00    -0.197 NA
ENDROOT
BRANCH   1   4
HETATM    4  C8  UNL     1      -6.045   2.731  15.183  1.00  0.00     0.039 C 
BRANCH   4   5
HETATM    5  C7  UNL     1      -4.879   2.981  14.319  1.00  0.00     0.082 C 
BRANCH   5   6
HETATM    6  N2  UNL     1      -3.954   1.954  14.054  1.00  0.00    -0.412 N 
ATOM      7  H2  UNL     1      -3.059   1.905  14.541  1.00  0.00     0.153 HD
BRANCH   6   8
HETATM    8  C6  UNL     1      -4.328   0.971  13.061  1.00  0.00     0.159 C 
BRANCH   8   9
HETATM    9  C5  UNL     1      -3.678   1.397  11.768  1.00  0.00     0.087 C 
BRANCH   9  10
HETATM   10  N1  UNL     1      -2.781   0.474  11.209  1.00  0.00    -0.353 N 
BRANCH  10  11
HETATM   11  C2  UNL     1      -1.523   0.901  10.768  1.00  0.00     0.064 C 
HETATM   12  C1  UNL     1      -1.333   2.363  11.150  1.00  0.00     0.055 C 
ENDBRANCH  10  11
BRANCH  10  13
HETATM   13  C3  UNL     1      -3.374  -0.659  10.640  1.00  0.00     0.064 C 
HETATM   14  C4  UNL     1      -2.998  -1.986  11.193  1.00  0.00     0.055 C 
ENDBRANCH  10  13
ENDBRANCH   9  10
ENDBRANCH   8   9
ENDBRANCH   6   8
ENDBRANCH   5   6
BRANCH   5  15
HETATM   15  C11 UNL     1      -4.138   4.262  14.672  1.00  0.00     0.012 A 
HETATM   16  C12 UNL     1      -4.809   5.574  14.626  1.00  0.00     0.011 A 
HETATM   17  C13 UNL     1      -3.766   5.233  13.565  1.00  0.00    -0.012 A 
HETATM   18  C14 UNL     1      -4.371   5.035  12.189  1.00  0.00     0.010 C 
ENDBRANCH   5  15
ENDBRANCH   4   5
ENDBRANCH   1   4
TORSDOF 9
ENDMDL
MODEL 4
REMARK VINA RESULT: -5.713516595      1.701      3.760
REMARK  9 active torsions:
REMARK  status: ('A' for Active; 'I' for Inactive)
REMARK    1  A    between atoms: C2_2  and  N1_3 
REMARK    2  A    between atoms: N1_3  and  C3_4 
REMARK    3  A    between atoms: N1_3  and  C5_6 
REMARK    4  A    between atoms: C5_6  and  C6_7 
REMARK    5  A    between atoms: C6_7  and  N2_8 
REMARK    6  A    between atoms: N2_8  and  C7_10 
REMARK    7  A    between atoms: C7_10  and  C8_11 
REMARK    8  A    between atoms: C7_10  and  C11_15 
REMARK    9  A    between atoms: C8_11  and  C9_12 
ROOT
HETATM    1  C9  UNL     1      -6.059   4.796  15.218  1.00  0.00     0.126 C 
HETATM    2  C10 UNL     1      -6.291   5.471  13.970  1.00  0.00     0.059 C 
HETATM    3  N3  UNL     1      -6.474   6.055  12.981  1.00  0.00    -0.197 NA
ENDROOT
BRANCH   1   4
HETATM    4  C8  UNL     1      -6.312   3.328  15.136  1.00  0.00     0.039 C 
BRANCH   4   5
HETATM    5  C7  UNL     1      -5.274   2.423  15.659  1.00  0.00     0.082 C 
BRANCH   5   6
HETATM    6  N2  UNL     1      -4.132   2.129  14.890  1.00  0.00    -0.412 N 
ATOM      7  H2  UNL     1      -3.267   1.809  15.324  1.00  0.00     0.153 HD
BRANCH   6   8
HETATM    8  C6  UNL     1      -4.239   2.303  13.458  1.00  0.00     0.159 C 
BRANCH   8   9
HETATM    9  C5  UNL     1      -4.257   0.920  12.857  1.00  0.00     0.087 C 
BRANCH   9  10
HETATM   10  N1  UNL     1      -3.457   0.745  11.716  1.00  0.00    -0.353 N 
BRANCH  10  11
HETATM   11  C2  UNL     1      -2.747   1.829  11.188  1.00  0.00     0.064 C 
HETATM   12  C1  UNL     1      -1.391   1.341  10.696  1.00  0.00     0.055 C 
ENDBRANCH  10  11
BRANCH  10  13
HETATM   13  C3  UNL     1      -3.835  -0.316  10.885  1.00  0.00     0.064 C 
HETATM   14  C4  UNL     1      -3.712  -1.694  11.428  1.00  0.00     0.055 C 
ENDBRANCH  10  13
ENDBRANCH   9  10
ENDBRANCH   8   9
ENDBRANCH   6   8
ENDBRANCH   5   6
BRANCH   5  15
HETATM   15  C11 UNL     1      -5.842   1.139  16.247  1.00  0.00     0.012 A 
HETATM   16  C12 UNL     1      -7.236   1.064  16.721  1.00  0.00     0.011 A 
HETATM   17  C13 UNL     1      -6.099   1.059  17.741  1.00  0.00    -0.012 A 
HETATM   18  C14 UNL     1      -6.039   2.333  18.561  1.00  0.00     0.010 C 
ENDBRANCH   5  15
ENDBRANCH   4   5
ENDBRANCH   1   4
TORSDOF 9
ENDMDL
MODEL 5
REMARK VINA RESULT: -5.603132957      1.236      1.582
REMARK  9 active torsions:
REMARK  status: ('A' for Active; 'I' for Inactive)
REMARK    1  A    between atoms: C2_2  and  N1_3 
REMARK    2  A    between atoms: N1_3  and  C3_4 
REMARK    3  A    between atoms: N1_3  and  C5_6 
REMARK    4  A    between atoms: C5_6  and  C6_7 
REMARK    5  A    between atoms: C6_7  and  N2_8 
REMARK    6  A    between atoms: N2_8  and  C7_10 
REMARK    7  A    between atoms: C7_10  and  C8_11 
REMARK    8  A    between atoms: C7_10  and  C11_15 
REMARK    9  A    between atoms: C8_11  and  C9_12 
ROOT
HETATM    1  C9  UNL     1      -4.556   1.818  16.243  1.00  0.00     0.126 C 
HETATM    2  C10 UNL     1      -4.606   0.525  15.616  1.00  0.00     0.059 C 
HETATM    3  N3  UNL     1      -4.649  -0.538  15.147  1.00  0.00    -0.197 NA
ENDROOT
BRANCH   1   4
HETATM    4  C8  UNL     1      -4.229   2.913  15.285  1.00  0.00     0.039 C 
BRANCH   4   5
HETATM    5  C7  UNL     1      -5.252   3.285  14.292  1.00  0.00     0.082 C 
BRANCH   5   6
HETATM    6  N2  UNL     1      -4.924   3.359  12.925  1.00  0.00    -0.412 N 
ATOM      7  H2  UNL     1      -4.740   4.253  12.470  1.00  0.00     0.153 HD
BRANCH   6   8
HETATM    8  C6  UNL     1      -4.862   2.112  12.195  1.00  0.00     0.159 C 
BRANCH   8   9
HETATM    9  C5  UNL     1      -3.470   2.019  11.620  1.00  0.00     0.087 C 
BRANCH   9  10
HETATM   10  N1  UNL     1      -2.974   0.718  11.442  1.00  0.00    -0.353 N 
BRANCH  10  11
HETATM   11  C2  UNL     1      -1.715   0.523  10.863  1.00  0.00     0.064 C 
HETATM   12  C1  UNL     1      -1.252   1.829  10.231  1.00  0.00     0.055 C 
ENDBRANCH  10  11
BRANCH  10  13
HETATM   13  C3  UNL     1      -3.951  -0.280  11.346  1.00  0.00     0.064 C 
HETATM   14  C4  UNL     1      -3.499  -1.694  11.413  1.00  0.00     0.055 C 
ENDBRANCH  10  13
ENDBRANCH   9  10
ENDBRANCH   8   9
ENDBRANCH   6   8
ENDBRANCH   5   6
BRANCH   5  15
HETATM   15  C11 UNL     1      -6.058   4.511  14.695  1.00  0.00     0.012 A 
HETATM   16  C12 UNL     1      -6.313   5.608  13.743  1.00  0.00     0.011 A 
HETATM   17  C13 UNL     1      -5.343   5.834  14.900  1.00  0.00    -0.012 A 
HETATM   18  C14 UNL     1      -3.903   5.963  14.444  1.00  0.00     0.010 C 
ENDBRANCH   5  15
ENDBRANCH   4   5
ENDBRANCH   1   4
TORSDOF 9
ENDMDL
