MODEL 1
REMARK VINA RESULT: -9.837776842      0.000      0.000
REMARK  11 active torsions:
REMARK  status: ('A' for Active; 'I' for Inactive)
REMARK    1  A    between atoms: C6_10  and  S2_11 
REMARK    2  A    between atoms: S2_11  and  S3_12 
REMARK    3  A    between atoms: S3_12  and  C7_13 
REMARK    4  A    between atoms: C8_14  and  C9_15 
REMARK    5  A    between atoms: C9_15  and  C10_16 
REMARK    6  A    between atoms: C10_16  and  O1_17 
REMARK    7  A    between atoms: C10_16  and  N2_19 
REMARK    8  A    between atoms: N2_19  and  C11_21 
REMARK    9  A    between atoms: C12_26  and  S4_27 
REMARK   10  A    between atoms: S4_27  and  C13_28 
REMARK   11  A    between atoms: N10_45  and  N11_46 
ROOT
HETATM    1  C7  UNL     1     -30.885  13.384  -9.222  1.00  0.00     0.098 A 
HETATM    2  C8  UNL     1     -29.531  13.207  -8.906  1.00  0.00     0.049 A 
HETATM    3  C15 UNL     1     -29.043  13.445  -7.632  1.00  0.00     0.258 A 
HETATM    4  O2  UNL     1     -27.823  13.284  -7.354  1.00  0.00    -0.267 OA
HETATM    5  N8  UNL     1     -29.905  13.855  -6.684  1.00  0.00    -0.275 N 
ATOM      6  H8  UNL     1     -29.582  14.040  -5.735  1.00  0.00     0.173 HD
HETATM    7  C16 UNL     1     -31.183  14.015  -7.007  1.00  0.00     0.329 A 
HETATM    8  O3  UNL     1     -32.006  14.397  -6.139  1.00  0.00    -0.246 OA
HETATM    9  N9  UNL     1     -31.692  13.786  -8.260  1.00  0.00    -0.297 N 
HETATM   10  C17 UNL     1     -33.118  13.968  -8.477  1.00  0.00     0.162 C 
ENDROOT
BRANCH   2  11
HETATM   11  C9  UNL     1     -28.542  12.687  -9.901  1.00  0.00     0.101 C 
BRANCH  11  12
HETATM   12  C10 UNL     1     -28.498  11.199  -9.934  1.00  0.00     0.224 C 
BRANCH  12  13
HETATM   13  O1  UNL     1     -27.254  10.634  -9.861  1.00  0.00    -0.377 OA
ATOM     14  H1  UNL     1     -27.002  10.288  -9.013  1.00  0.00     0.212 HD
ENDBRANCH  12  13
BRANCH  12  15
HETATM   15  N2  UNL     1     -29.249  10.715  -8.781  1.00  0.00    -0.343 N 
ATOM     16  H2  UNL     1     -29.699  11.371  -8.143  1.00  0.00     0.164 HD
BRANCH  15  17
HETATM   17  C11 UNL     1     -29.335   9.419  -8.577  1.00  0.00     0.163 A 
HETATM   18  N3  UNL     1     -29.290   8.451  -9.498  1.00  0.00    -0.278 N 
HETATM   19  N4  UNL     1     -29.394   7.246  -9.114  1.00  0.00    -0.286 N 
ATOM     20  H3  UNL     1     -29.176   8.675 -10.487  1.00  0.00     0.189 HD
HETATM   21  C12 UNL     1     -29.540   6.963  -7.829  1.00  0.00     0.137 A 
ATOM     22  H4  UNL     1     -29.364   6.490  -9.799  1.00  0.00     0.188 HD
HETATM   23  S5  UNL     1     -29.530   8.524  -7.134  1.00  0.00    -0.026 SA
BRANCH  21  24
HETATM   24  S4  UNL     1     -29.728   5.339  -7.047  1.00  0.00    -0.026 SA
BRANCH  24  25
HETATM   25  C13 UNL     1     -29.203   4.146  -8.282  1.00  0.00     0.166 A 
HETATM   26  N5  UNL     1     -28.575   2.989  -8.030  1.00  0.00    -0.331 N 
HETATM   27  C14 UNL     1     -28.348   2.383  -9.213  1.00  0.00     0.199 A 
ATOM     28  H5  UNL     1     -28.317   2.632  -7.110  1.00  0.00     0.168 HD
HETATM   29  N6  UNL     1     -28.831   3.155 -10.201  1.00  0.00    -0.294 N 
HETATM   30  N7  UNL     1     -29.359   4.244  -9.627  1.00  0.00    -0.279 N 
ATOM     31  H6  UNL     1     -28.801   2.950 -11.200  1.00  0.00     0.187 HD
ATOM     32  H7  UNL     1     -29.804   5.019 -10.119  1.00  0.00     0.189 HD
ENDBRANCH  24  25
ENDBRANCH  21  24
ENDBRANCH  15  17
ENDBRANCH  12  15
ENDBRANCH  11  12
ENDBRANCH   2  11
BRANCH   1  33
HETATM   33  S3  UNL     1     -31.305  13.083 -10.923  1.00  0.00    -0.030 SA
BRANCH  33  34
HETATM   34  S2  UNL     1     -32.058  11.125 -11.101  1.00  0.00    -0.013 SA
BRANCH  34  35
HETATM   35  C6  UNL     1     -31.808  10.484 -12.727  1.00  0.00     0.178 A 
HETATM   36  N1  UNL     1     -31.326   9.214 -12.903  1.00  0.00    -0.332 N 
HETATM   37  C5  UNL     1     -31.304   8.904 -14.237  1.00  0.00     0.078 A 
ATOM     38  H1  UNL     1     -31.027   8.592 -12.152  1.00  0.00     0.168 HD
HETATM   39  C2  UNL     1     -30.950   7.851 -15.017  1.00  0.00    -0.004 A 
HETATM   40  C4  UNL     1     -31.784  10.011 -14.865  1.00  0.00     0.128 A 
HETATM   41  C1  UNL     1     -30.393   6.532 -14.491  1.00  0.00     0.053 C 
HETATM   42  C3  UNL     1     -31.108   7.996 -16.369  1.00  0.00     0.085 A 
HETATM   43 CL1  UNL     1     -30.744   6.820 -17.643  1.00  0.00    -0.076 Cl
HETATM   44  S1  UNL     1     -31.737   9.575 -16.509  1.00  0.00    -0.055 SA
HETATM   45  N10 UNL     1     -32.090  10.971 -13.940  1.00  0.00    -0.231 N 
BRANCH  45  46
HETATM   46  N11 UNL     1     -32.659  12.192 -14.268  1.00  0.00    -0.336 N 
ATOM     47 2H11 UNL     1     -32.443  12.800 -15.057  1.00  0.00     0.177 HD
ATOM     48 1H11 UNL     1     -33.359  12.657 -13.690  1.00  0.00     0.177 HD
ENDBRANCH  45  46
ENDBRANCH  34  35
ENDBRANCH  33  34
ENDBRANCH   1  33
TORSDOF 11
ENDMDL
MODEL 2
REMARK VINA RESULT: -9.415687961      1.611      1.772
REMARK  11 active torsions:
REMARK  status: ('A' for Active; 'I' for Inactive)
REMARK    1  A    between atoms: C6_10  and  S2_11 
REMARK    2  A    between atoms: S2_11  and  S3_12 
REMARK    3  A    between atoms: S3_12  and  C7_13 
REMARK    4  A    between atoms: C8_14  and  C9_15 
REMARK    5  A    between atoms: C9_15  and  C10_16 
REMARK    6  A    between atoms: C10_16  and  O1_17 
REMARK    7  A    between atoms: C10_16  and  N2_19 
REMARK    8  A    between atoms: N2_19  and  C11_21 
REMARK    9  A    between atoms: C12_26  and  S4_27 
REMARK   10  A    between atoms: S4_27  and  C13_28 
REMARK   11  A    between atoms: N10_45  and  N11_46 
ROOT
HETATM    1  C7  UNL     1     -32.011  13.633  -9.965  1.00  0.00     0.098 A 
HETATM    2  C8  UNL     1     -31.142  12.784  -9.267  1.00  0.00     0.049 A 
HETATM    3  C15 UNL     1     -30.266  13.265  -8.308  1.00  0.00     0.258 A 
HETATM    4  O2  UNL     1     -29.485  12.495  -7.684  1.00  0.00    -0.267 OA
HETATM    5  N8  UNL     1     -30.263  14.585  -8.051  1.00  0.00    -0.275 N 
ATOM      6  H8  UNL     1     -29.633  14.976  -7.351  1.00  0.00     0.173 HD
HETATM    7  C16 UNL     1     -31.097  15.371  -8.724  1.00  0.00     0.329 A 
HETATM    8  O3  UNL     1     -31.113  16.606  -8.500  1.00  0.00    -0.246 OA
HETATM    9  N9  UNL     1     -31.974  14.919  -9.677  1.00  0.00    -0.297 N 
HETATM   10  C17 UNL     1     -32.857  15.878 -10.321  1.00  0.00     0.162 C 
ENDROOT
BRANCH   2  11
HETATM   11  C9  UNL     1     -31.149  11.301  -9.462  1.00  0.00     0.101 C 
BRANCH  11  12
HETATM   12  C10 UNL     1     -30.099  10.848 -10.416  1.00  0.00     0.224 C 
BRANCH  12  13
HETATM   13  O1  UNL     1     -29.543  11.821 -11.202  1.00  0.00    -0.377 OA
ATOM     14  H1  UNL     1     -28.772  11.568 -11.696  1.00  0.00     0.212 HD
ENDBRANCH  12  13
BRANCH  12  15
HETATM   15  N2  UNL     1     -29.014  10.271  -9.630  1.00  0.00    -0.343 N 
ATOM     16  H2  UNL     1     -28.115  10.747  -9.560  1.00  0.00     0.164 HD
BRANCH  15  17
HETATM   17  C11 UNL     1     -29.215   9.128  -9.012  1.00  0.00     0.163 A 
HETATM   18  N3  UNL     1     -29.210   7.905  -9.552  1.00  0.00    -0.278 N 
HETATM   19  N4  UNL     1     -29.428   6.910  -8.795  1.00  0.00    -0.286 N 
ATOM     20  H3  UNL     1     -29.036   7.775 -10.548  1.00  0.00     0.189 HD
HETATM   21  C12 UNL     1     -29.652   7.088  -7.502  1.00  0.00     0.137 A 
ATOM     22  H4  UNL     1     -29.431   5.967  -9.185  1.00  0.00     0.188 HD
HETATM   23  S5  UNL     1     -29.545   8.788  -7.369  1.00  0.00    -0.026 SA
BRANCH  21  24
HETATM   24  S4  UNL     1     -30.006   5.839  -6.238  1.00  0.00    -0.026 SA
BRANCH  24  25
HETATM   25  C13 UNL     1     -29.280   4.315  -6.850  1.00  0.00     0.166 A 
HETATM   26  N5  UNL     1     -28.602   3.424  -6.114  1.00  0.00    -0.331 N 
HETATM   27  C14 UNL     1     -28.217   2.425  -6.935  1.00  0.00     0.199 A 
ATOM     28  H5  UNL     1     -28.411   3.491  -5.115  1.00  0.00     0.168 HD
HETATM   29  N6  UNL     1     -28.653   2.687  -8.178  1.00  0.00    -0.294 N 
HETATM   30  N7  UNL     1     -29.310   3.854  -8.127  1.00  0.00    -0.279 N 
ATOM     31  H6  UNL     1     -28.512   2.107  -9.005  1.00  0.00     0.187 HD
ATOM     32  H7  UNL     1     -29.758   4.320  -8.917  1.00  0.00     0.189 HD
ENDBRANCH  24  25
ENDBRANCH  21  24
ENDBRANCH  15  17
ENDBRANCH  12  15
ENDBRANCH  11  12
ENDBRANCH   2  11
BRANCH   1  33
HETATM   33  S3  UNL     1     -33.015  12.834 -11.194  1.00  0.00    -0.030 SA
BRANCH  33  34
HETATM   34  S2  UNL     1     -32.263  13.309 -13.101  1.00  0.00    -0.013 SA
BRANCH  34  35
HETATM   35  C6  UNL     1     -31.870  11.854 -14.020  1.00  0.00     0.178 A 
HETATM   36  N1  UNL     1     -31.507  10.703 -13.371  1.00  0.00    -0.332 N 
HETATM   37  C5  UNL     1     -31.342   9.688 -14.276  1.00  0.00     0.078 A 
ATOM     38  H1  UNL     1     -31.377  10.615 -12.363  1.00  0.00     0.168 HD
HETATM   39  C2  UNL     1     -31.002   8.374 -14.261  1.00  0.00    -0.004 A 
HETATM   40  C4  UNL     1     -31.614  10.247 -15.487  1.00  0.00     0.128 A 
HETATM   41  C1  UNL     1     -30.663   7.583 -13.002  1.00  0.00     0.053 C 
HETATM   42  C3  UNL     1     -30.964   7.727 -15.466  1.00  0.00     0.085 A 
HETATM   43 CL1  UNL     1     -30.562   6.030 -15.781  1.00  0.00    -0.076 Cl
HETATM   44  S1  UNL     1     -31.397   8.953 -16.569  1.00  0.00    -0.055 SA
HETATM   45  N10 UNL     1     -31.936  11.567 -15.324  1.00  0.00    -0.231 N 
BRANCH  45  46
HETATM   46  N11 UNL     1     -32.324  12.391 -16.369  1.00  0.00    -0.336 N 
ATOM     47 2H11 UNL     1     -32.617  12.127 -17.310  1.00  0.00     0.177 HD
ATOM     48 1H11 UNL     1     -32.305  13.409 -16.317  1.00  0.00     0.177 HD
ENDBRANCH  45  46
ENDBRANCH  34  35
ENDBRANCH  33  34
ENDBRANCH   1  33
TORSDOF 11
ENDMDL
MODEL 3
REMARK VINA RESULT: -9.119170317      1.105      1.130
REMARK  11 active torsions:
REMARK  status: ('A' for Active; 'I' for Inactive)
REMARK    1  A    between atoms: C6_10  and  S2_11 
REMARK    2  A    between atoms: S2_11  and  S3_12 
REMARK    3  A    between atoms: S3_12  and  C7_13 
REMARK    4  A    between atoms: C8_14  and  C9_15 
REMARK    5  A    between atoms: C9_15  and  C10_16 
REMARK    6  A    between atoms: C10_16  and  O1_17 
REMARK    7  A    between atoms: C10_16  and  N2_19 
REMARK    8  A    between atoms: N2_19  and  C11_21 
REMARK    9  A    between atoms: C12_26  and  S4_27 
REMARK   10  A    between atoms: S4_27  and  C13_28 
REMARK   11  A    between atoms: N10_45  and  N11_46 
ROOT
HETATM    1  C7  UNL     1     -31.275  13.832  -9.356  1.00  0.00     0.098 A 
HETATM    2  C8  UNL     1     -30.268  13.461  -8.456  1.00  0.00     0.049 A 
HETATM    3  C15 UNL     1     -30.266  13.899  -7.142  1.00  0.00     0.258 A 
HETATM    4  O2  UNL     1     -29.355  13.562  -6.337  1.00  0.00    -0.267 OA
HETATM    5  N8  UNL     1     -31.267  14.700  -6.735  1.00  0.00    -0.275 N 
ATOM      6  H8  UNL     1     -31.300  15.042  -5.775  1.00  0.00     0.173 HD
HETATM    7  C16 UNL     1     -32.212  15.037  -7.605  1.00  0.00     0.329 A 
HETATM    8  O3  UNL     1     -33.156  15.784  -7.248  1.00  0.00    -0.246 OA
HETATM    9  N9  UNL     1     -32.237  14.617  -8.911  1.00  0.00    -0.297 N 
HETATM   10  C17 UNL     1     -33.345  15.033  -9.755  1.00  0.00     0.162 C 
ENDROOT
BRANCH   2  11
HETATM   11  C9  UNL     1     -29.169  12.519  -8.834  1.00  0.00     0.101 C 
BRANCH  11  12
HETATM   12  C10 UNL     1     -29.357  11.163  -8.248  1.00  0.00     0.224 C 
BRANCH  12  13
HETATM   13  O1  UNL     1     -30.546  10.947  -7.606  1.00  0.00    -0.377 OA
ATOM     14  H1  UNL     1     -30.724  11.505  -6.858  1.00  0.00     0.212 HD
ENDBRANCH  12  13
BRANCH  12  15
HETATM   15  N2  UNL     1     -29.288  10.201  -9.342  1.00  0.00    -0.343 N 
ATOM     16  H2  UNL     1     -29.217  10.519 -10.308  1.00  0.00     0.164 HD
BRANCH  15  17
HETATM   17  C11 UNL     1     -29.318   8.917  -9.062  1.00  0.00     0.163 A 
HETATM   18  N3  UNL     1     -29.346   7.900  -9.929  1.00  0.00    -0.278 N 
HETATM   19  N4  UNL     1     -29.376   6.716  -9.472  1.00  0.00    -0.286 N 
ATOM     20  H3  UNL     1     -29.344   8.071 -10.935  1.00  0.00     0.189 HD
HETATM   21  C12 UNL     1     -29.378   6.502  -8.166  1.00  0.00     0.137 A 
ATOM     22  H4  UNL     1     -29.400   5.925 -10.116  1.00  0.00     0.188 HD
HETATM   23  S5  UNL     1     -29.335   8.100  -7.560  1.00  0.00    -0.026 SA
BRANCH  21  24
HETATM   24  S4  UNL     1     -29.438   4.921  -7.282  1.00  0.00    -0.026 SA
BRANCH  24  25
HETATM   25  C13 UNL     1     -28.851   3.693  -8.454  1.00  0.00     0.166 A 
HETATM   26  N5  UNL     1     -28.578   2.413  -8.168  1.00  0.00    -0.331 N 
HETATM   27  C14 UNL     1     -28.161   1.821  -9.307  1.00  0.00     0.199 A 
ATOM     28  H5  UNL     1     -28.668   1.967  -7.256  1.00  0.00     0.168 HD
HETATM   29  N6  UNL     1     -28.174   2.725 -10.300  1.00  0.00    -0.294 N 
HETATM   30  N7  UNL     1     -28.600   3.882  -9.775  1.00  0.00    -0.279 N 
ATOM     31  H6  UNL     1     -27.910   2.562 -11.272  1.00  0.00     0.187 HD
ATOM     32  H7  UNL     1     -28.717   4.759 -10.282  1.00  0.00     0.189 HD
ENDBRANCH  24  25
ENDBRANCH  21  24
ENDBRANCH  15  17
ENDBRANCH  12  15
ENDBRANCH  11  12
ENDBRANCH   2  11
BRANCH   1  33
HETATM   33  S3  UNL     1     -31.069  13.216 -11.010  1.00  0.00    -0.030 SA
BRANCH  33  34
HETATM   34  S2  UNL     1     -31.993  11.330 -11.153  1.00  0.00    -0.013 SA
BRANCH  34  35
HETATM   35  C6  UNL     1     -31.747  10.611 -12.746  1.00  0.00     0.178 A 
HETATM   36  N1  UNL     1     -31.289   9.325 -12.862  1.00  0.00    -0.332 N 
HETATM   37  C5  UNL     1     -31.267   8.953 -14.180  1.00  0.00     0.078 A 
ATOM     38  H1  UNL     1     -31.007   8.732 -12.081  1.00  0.00     0.168 HD
HETATM   39  C2  UNL     1     -30.930   7.859 -14.909  1.00  0.00    -0.004 A 
HETATM   40  C4  UNL     1     -31.721  10.040 -14.861  1.00  0.00     0.128 A 
HETATM   41  C1  UNL     1     -30.402   6.555 -14.320  1.00  0.00     0.053 C 
HETATM   42  C3  UNL     1     -31.078   7.946 -16.267  1.00  0.00     0.085 A 
HETATM   43 CL1  UNL     1     -30.730   6.706 -17.484  1.00  0.00    -0.076 Cl
HETATM   44  S1  UNL     1     -31.674   9.529 -16.482  1.00  0.00    -0.055 SA
HETATM   45  N10 UNL     1     -32.013  11.046 -13.981  1.00  0.00    -0.231 N 
BRANCH  45  46
HETATM   46  N11 UNL     1     -32.557  12.262 -14.368  1.00  0.00    -0.336 N 
ATOM     47 2H11 UNL     1     -32.999  12.973 -13.786  1.00  0.00     0.177 HD
ATOM     48 1H11 UNL     1     -32.617  12.564 -15.341  1.00  0.00     0.177 HD
ENDBRANCH  45  46
ENDBRANCH  34  35
ENDBRANCH  33  34
ENDBRANCH   1  33
TORSDOF 11
ENDMDL
MODEL 4
REMARK VINA RESULT: -9.015874041      2.922      6.837
REMARK  11 active torsions:
REMARK  status: ('A' for Active; 'I' for Inactive)
REMARK    1  A    between atoms: C6_10  and  S2_11 
REMARK    2  A    between atoms: S2_11  and  S3_12 
REMARK    3  A    between atoms: S3_12  and  C7_13 
REMARK    4  A    between atoms: C8_14  and  C9_15 
REMARK    5  A    between atoms: C9_15  and  C10_16 
REMARK    6  A    between atoms: C10_16  and  O1_17 
REMARK    7  A    between atoms: C10_16  and  N2_19 
REMARK    8  A    between atoms: N2_19  and  C11_21 
REMARK    9  A    between atoms: C12_26  and  S4_27 
REMARK   10  A    between atoms: S4_27  and  C13_28 
REMARK   11  A    between atoms: N10_45  and  N11_46 
ROOT
HETATM    1  C7  UNL     1     -28.915  11.783  -9.639  1.00  0.00     0.098 A 
HETATM    2  C8  UNL     1     -30.008  12.624  -9.393  1.00  0.00     0.049 A 
HETATM    3  C15 UNL     1     -29.866  14.000  -9.317  1.00  0.00     0.258 A 
HETATM    4  O2  UNL     1     -30.854  14.752  -9.094  1.00  0.00    -0.267 OA
HETATM    5  N8  UNL     1     -28.640  14.526  -9.489  1.00  0.00    -0.275 N 
ATOM      6  H8  UNL     1     -28.497  15.534  -9.441  1.00  0.00     0.173 HD
HETATM    7  C16 UNL     1     -27.620  13.708  -9.723  1.00  0.00     0.329 A 
HETATM    8  O3  UNL     1     -26.466  14.176  -9.887  1.00  0.00    -0.246 OA
HETATM    9  N9  UNL     1     -27.733  12.343  -9.803  1.00  0.00    -0.297 N 
HETATM   10  C17 UNL     1     -26.543  11.561 -10.096  1.00  0.00     0.162 C 
ENDROOT
BRANCH   2  11
HETATM   11  C9  UNL     1     -31.403  12.101  -9.262  1.00  0.00     0.101 C 
BRANCH  11  12
HETATM   12  C10 UNL     1     -32.190  12.263 -10.516  1.00  0.00     0.224 C 
BRANCH  12  13
HETATM   13  O1  UNL     1     -31.555  12.905 -11.545  1.00  0.00    -0.377 OA
ATOM     14  H1  UNL     1     -32.111  13.214 -12.250  1.00  0.00     0.212 HD
ENDBRANCH  12  13
BRANCH  12  15
HETATM   15  N2  UNL     1     -32.525  10.927 -10.997  1.00  0.00    -0.343 N 
ATOM     16  H2  UNL     1     -32.856  10.211 -10.349  1.00  0.00     0.164 HD
BRANCH  15  17
HETATM   17  C11 UNL     1     -32.395  10.661 -12.277  1.00  0.00     0.163 A 
HETATM   18  N3  UNL     1     -33.001  11.277 -13.297  1.00  0.00    -0.278 N 
HETATM   19  N4  UNL     1     -32.754  10.879 -14.477  1.00  0.00    -0.286 N 
ATOM     20  H3  UNL     1     -33.647  12.049 -13.132  1.00  0.00     0.189 HD
HETATM   21  C12 UNL     1     -31.913   9.877 -14.683  1.00  0.00     0.137 A 
ATOM     22  H4  UNL     1     -33.206  11.333 -15.271  1.00  0.00     0.188 HD
HETATM   23  S5  UNL     1     -31.453   9.485 -13.085  1.00  0.00    -0.026 SA
BRANCH  21  24
HETATM   24  S4  UNL     1     -31.422   9.124 -16.256  1.00  0.00    -0.026 SA
BRANCH  24  25
HETATM   25  C13 UNL     1     -30.775   7.503 -15.833  1.00  0.00     0.166 A 
HETATM   26  N5  UNL     1     -30.536   6.509 -16.698  1.00  0.00    -0.331 N 
HETATM   27  C14 UNL     1     -30.062   5.460 -15.995  1.00  0.00     0.199 A 
ATOM     28  H5  UNL     1     -30.686   6.540 -17.706  1.00  0.00     0.168 HD
HETATM   29  N6  UNL     1     -30.003   5.795 -14.695  1.00  0.00    -0.294 N 
HETATM   30  N7  UNL     1     -30.443   7.057 -14.594  1.00  0.00    -0.279 N 
ATOM     31  H6  UNL     1     -29.683   5.202 -13.930  1.00  0.00     0.187 HD
ATOM     32  H7  UNL     1     -30.517   7.593 -13.729  1.00  0.00     0.189 HD
ENDBRANCH  24  25
ENDBRANCH  21  24
ENDBRANCH  15  17
ENDBRANCH  12  15
ENDBRANCH  11  12
ENDBRANCH   2  11
BRANCH   1  33
HETATM   33  S3  UNL     1     -29.291  10.045  -9.642  1.00  0.00    -0.030 SA
BRANCH  33  34
HETATM   34  S2  UNL     1     -29.713   9.437  -7.672  1.00  0.00    -0.013 SA
BRANCH  34  35
HETATM   35  C6  UNL     1     -29.559   7.688  -7.490  1.00  0.00     0.178 A 
HETATM   36  N1  UNL     1     -29.084   6.925  -8.524  1.00  0.00    -0.332 N 
HETATM   37  C5  UNL     1     -28.964   5.620  -8.124  1.00  0.00     0.078 A 
ATOM     38  H1  UNL     1     -28.855   7.276  -9.454  1.00  0.00     0.168 HD
HETATM   39  C2  UNL     1     -28.569   4.437  -8.661  1.00  0.00    -0.004 A 
HETATM   40  C4  UNL     1     -29.374   5.609  -6.827  1.00  0.00     0.128 A 
HETATM   41  C1  UNL     1     -28.081   4.258 -10.095  1.00  0.00     0.053 C 
HETATM   42  C3  UNL     1     -28.619   3.337  -7.848  1.00  0.00     0.085 A 
HETATM   43 CL1  UNL     1     -28.176   1.668  -8.244  1.00  0.00    -0.076 Cl
HETATM   44  S1  UNL     1     -29.206   3.977  -6.381  1.00  0.00    -0.055 SA
HETATM   45  N10 UNL     1     -29.735   6.873  -6.446  1.00  0.00    -0.231 N 
BRANCH  45  46
HETATM   46  N11 UNL     1     -30.138   7.195  -5.159  1.00  0.00    -0.336 N 
ATOM     47 2H11 UNL     1     -30.957   6.862  -4.650  1.00  0.00     0.177 HD
ATOM     48 1H11 UNL     1     -29.656   7.877  -4.575  1.00  0.00     0.177 HD
ENDBRANCH  45  46
ENDBRANCH  34  35
ENDBRANCH  33  34
ENDBRANCH   1  33
TORSDOF 11
ENDMDL
MODEL 5
REMARK VINA RESULT: -8.954840401      3.194      6.948
REMARK  11 active torsions:
REMARK  status: ('A' for Active; 'I' for Inactive)
REMARK    1  A    between atoms: C6_10  and  S2_11 
REMARK    2  A    between atoms: S2_11  and  S3_12 
REMARK    3  A    between atoms: S3_12  and  C7_13 
REMARK    4  A    between atoms: C8_14  and  C9_15 
REMARK    5  A    between atoms: C9_15  and  C10_16 
REMARK    6  A    between atoms: C10_16  and  O1_17 
REMARK    7  A    between atoms: C10_16  and  N2_19 
REMARK    8  A    between atoms: N2_19  and  C11_21 
REMARK    9  A    between atoms: C12_26  and  S4_27 
REMARK   10  A    between atoms: S4_27  and  C13_28 
REMARK   11  A    between atoms: N10_45  and  N11_46 
ROOT
HETATM    1  C7  UNL     1     -30.178  12.078 -10.377  1.00  0.00     0.098 A 
HETATM    2  C8  UNL     1     -31.484  12.572 -10.502  1.00  0.00     0.049 A 
HETATM    3  C15 UNL     1     -31.741  13.925 -10.645  1.00  0.00     0.258 A 
HETATM    4  O2  UNL     1     -32.919  14.363 -10.757  1.00  0.00    -0.267 OA
HETATM    5  N8  UNL     1     -30.698  14.775 -10.664  1.00  0.00    -0.275 N 
ATOM      6  H8  UNL     1     -30.849  15.778 -10.768  1.00  0.00     0.173 HD
HETATM    7  C16 UNL     1     -29.470  14.284 -10.545  1.00  0.00     0.329 A 
HETATM    8  O3  UNL     1     -28.482  15.058 -10.560  1.00  0.00    -0.246 OA
HETATM    9  N9  UNL     1     -29.188  12.949 -10.403  1.00  0.00    -0.297 N 
HETATM   10  C17 UNL     1     -27.797  12.537 -10.313  1.00  0.00     0.162 C 
ENDROOT
BRANCH   2  11
HETATM   11  C9  UNL     1     -32.675  11.669 -10.557  1.00  0.00     0.101 C 
BRANCH  11  12
HETATM   12  C10 UNL     1     -33.160  11.452 -11.947  1.00  0.00     0.224 C 
BRANCH  12  13
HETATM   13  O1  UNL     1     -34.091  12.346 -12.405  1.00  0.00    -0.377 OA
ATOM     14  H1  UNL     1     -34.795  11.983 -12.929  1.00  0.00     0.212 HD
ENDBRANCH  12  13
BRANCH  12  15
HETATM   15  N2  UNL     1     -32.006  11.556 -12.833  1.00  0.00    -0.343 N 
ATOM     16  H2  UNL     1     -31.219  12.159 -12.591  1.00  0.00     0.164 HD
BRANCH  15  17
HETATM   17  C11 UNL     1     -31.996  10.860 -13.949  1.00  0.00     0.163 A 
HETATM   18  N3  UNL     1     -32.688  11.111 -15.065  1.00  0.00    -0.278 N 
HETATM   19  N4  UNL     1     -32.554  10.321 -16.049  1.00  0.00    -0.286 N 
ATOM     20  H3  UNL     1     -33.311  11.916 -15.123  1.00  0.00     0.189 HD
HETATM   21  C12 UNL     1     -31.743   9.278 -15.966  1.00  0.00     0.137 A 
ATOM     22  H4  UNL     1     -33.073  10.491 -16.910  1.00  0.00     0.188 HD
HETATM   23  S5  UNL     1     -31.140   9.443 -14.375  1.00  0.00    -0.026 SA
BRANCH  21  24
HETATM   24  S4  UNL     1     -31.404   8.011 -17.216  1.00  0.00    -0.026 SA
BRANCH  24  25
HETATM   25  C13 UNL     1     -30.513   6.711 -16.354  1.00  0.00     0.166 A 
HETATM   26  N5  UNL     1     -30.496   6.526 -15.027  1.00  0.00    -0.331 N 
HETATM   27  C14 UNL     1     -29.715   5.456 -14.775  1.00  0.00     0.199 A 
ATOM     28  H5  UNL     1     -30.986   7.092 -14.335  1.00  0.00     0.168 HD
HETATM   29  N6  UNL     1     -29.245   4.972 -15.936  1.00  0.00    -0.294 N 
HETATM   30  N7  UNL     1     -29.737   5.747 -16.913  1.00  0.00    -0.279 N 
ATOM     31  H6  UNL     1     -28.630   4.167 -16.054  1.00  0.00     0.187 HD
ATOM     32  H7  UNL     1     -29.559   5.632 -17.910  1.00  0.00     0.189 HD
ENDBRANCH  24  25
ENDBRANCH  21  24
ENDBRANCH  15  17
ENDBRANCH  12  15
ENDBRANCH  11  12
ENDBRANCH   2  11
BRANCH   1  33
HETATM   33  S3  UNL     1     -30.059  10.320 -10.145  1.00  0.00    -0.030 SA
BRANCH  33  34
HETATM   34  S2  UNL     1     -29.714   9.924  -8.107  1.00  0.00    -0.013 SA
BRANCH  34  35
HETATM   35  C6  UNL     1     -29.599   8.190  -7.798  1.00  0.00     0.178 A 
HETATM   36  N1  UNL     1     -29.304   7.324  -8.817  1.00  0.00    -0.332 N 
HETATM   37  C5  UNL     1     -29.175   6.052  -8.326  1.00  0.00     0.078 A 
ATOM     38  H1  UNL     1     -29.196   7.588  -9.796  1.00  0.00     0.168 HD
HETATM   39  C2  UNL     1     -28.905   4.812  -8.808  1.00  0.00    -0.004 A 
HETATM   40  C4  UNL     1     -29.398   6.165  -6.989  1.00  0.00     0.128 A 
HETATM   41  C1  UNL     1     -28.632   4.494 -10.275  1.00  0.00     0.053 C 
HETATM   42  C3  UNL     1     -28.878   3.784  -7.905  1.00  0.00     0.085 A 
HETATM   43 CL1  UNL     1     -28.558   2.069  -8.212  1.00  0.00    -0.076 Cl
HETATM   44  S1  UNL     1     -29.228   4.567  -6.431  1.00  0.00    -0.055 SA
HETATM   45  N10 UNL     1     -29.655   7.471  -6.672  1.00  0.00    -0.231 N 
BRANCH  45  46
HETATM   46  N11 UNL     1     -29.860   7.915  -5.375  1.00  0.00    -0.336 N 
ATOM     47 2H11 UNL     1     -30.333   7.436  -4.609  1.00  0.00     0.177 HD
ATOM     48 1H11 UNL     1     -29.586   8.842  -5.050  1.00  0.00     0.177 HD
ENDBRANCH  45  46
ENDBRANCH  34  35
ENDBRANCH  33  34
ENDBRANCH   1  33
TORSDOF 11
ENDMDL
