MODEL 1
REMARK VINA RESULT: -6.932216360      0.000      0.000
REMARK  3 active torsions:
REMARK  status: ('A' for Active; 'I' for Inactive)
REMARK       I    between atoms: C1_2  and  N1_3 
REMARK    1  A    between atoms: C1_2  and  C8_12 
REMARK    2  A    between atoms: N1_3  and  C2_5 
REMARK    3  A    between atoms: C2_5  and  C3_6 
ROOT
HETATM    1  O1  UNL     1      -5.828   2.136  11.704  1.00  0.00    -0.273 OA
HETATM    2  C1  UNL     1      -4.892   2.797  12.181  1.00  0.00     0.221 C 
HETATM    3  N1  UNL     1      -4.930   3.416  13.422  1.00  0.00    -0.360 N 
ATOM      4  H1  UNL     1      -4.076   3.909  13.684  1.00  0.00     0.162 HD
ENDROOT
BRANCH   2   5
HETATM    5  C8  UNL     1      -3.663   2.896  11.299  1.00  0.00     0.079 C 
HETATM    6  C9  UNL     1      -3.073   4.245  11.474  1.00  0.00     0.029 C 
HETATM    7  C10 UNL     1      -1.542   4.235  11.572  1.00  0.00     0.141 C 
HETATM    8  S1  UNL     1      -1.018   3.138  10.248  1.00  0.00     0.144 S 
HETATM    9  O3  UNL     1      -1.739   3.547   9.017  1.00  0.00    -0.228 OA
HETATM   10  O4  UNL     1       0.463   3.129  10.110  1.00  0.00    -0.228 OA
HETATM   11  C11 UNL     1      -1.637   1.522  10.738  1.00  0.00     0.141 C 
HETATM   12  C12 UNL     1      -2.751   1.773  11.729  1.00  0.00     0.029 C 
ENDBRANCH   2   5
BRANCH   3  13
HETATM   13  C2  UNL     1      -5.966   3.467  14.378  1.00  0.00     0.127 C 
BRANCH  13  14
HETATM   14  C3  UNL     1      -5.710   3.099  15.782  1.00  0.00     0.007 C 
HETATM   15  C4  UNL     1      -4.338   2.380  15.793  1.00  0.00     0.032 C 
HETATM   16  C5  UNL     1      -4.520   0.912  16.031  1.00  0.00     0.168 C 
HETATM   17  O2  UNL     1      -4.947   0.713  17.349  1.00  0.00    -0.391 OA
HETATM   18  C6  UNL     1      -5.865   1.686  17.736  1.00  0.00     0.168 C 
HETATM   19  C7  UNL     1      -6.642   2.190  16.490  1.00  0.00     0.032 C 
ENDBRANCH  13  14
ENDBRANCH   3  13
TORSDOF 3
ENDMDL
MODEL 2
REMARK VINA RESULT: -6.828013701      2.027      2.557
REMARK  3 active torsions:
REMARK  status: ('A' for Active; 'I' for Inactive)
REMARK       I    between atoms: C1_2  and  N1_3 
REMARK    1  A    between atoms: C1_2  and  C8_12 
REMARK    2  A    between atoms: N1_3  and  C2_5 
REMARK    3  A    between atoms: C2_5  and  C3_6 
ROOT
HETATM    1  O1  UNL     1      -4.489   5.504  14.925  1.00  0.00    -0.273 OA
HETATM    2  C1  UNL     1      -5.236   4.725  14.311  1.00  0.00     0.221 C 
HETATM    3  N1  UNL     1      -6.226   3.961  14.913  1.00  0.00    -0.360 N 
ATOM      4  H1  UNL     1      -6.771   3.382  14.274  1.00  0.00     0.162 HD
ENDROOT
BRANCH   2   5
HETATM    5  C8  UNL     1      -4.999   4.654  12.816  1.00  0.00     0.079 C 
HETATM    6  C9  UNL     1      -4.150   5.804  12.424  1.00  0.00     0.029 C 
HETATM    7  C10 UNL     1      -3.054   5.441  11.415  1.00  0.00     0.141 C 
HETATM    8  S1  UNL     1      -3.893   4.425  10.192  1.00  0.00     0.144 S 
HETATM    9  O3  UNL     1      -5.137   5.134   9.802  1.00  0.00    -0.228 OA
HETATM   10  O4  UNL     1      -2.995   4.102   9.051  1.00  0.00    -0.228 OA
HETATM   11  C11 UNL     1      -4.363   2.942  11.093  1.00  0.00     0.141 C 
HETATM   12  C12 UNL     1      -4.360   3.311  12.558  1.00  0.00     0.029 C 
ENDBRANCH   2   5
BRANCH   3  13
HETATM   13  C2  UNL     1      -6.594   3.862  16.271  1.00  0.00     0.127 C 
BRANCH  13  14
HETATM   14  C3  UNL     1      -6.314   2.634  17.036  1.00  0.00     0.007 C 
HETATM   15  C4  UNL     1      -4.869   2.217  16.665  1.00  0.00     0.032 C 
HETATM   16  C5  UNL     1      -4.885   0.998  15.793  1.00  0.00     0.168 C 
HETATM   17  O2  UNL     1      -5.303  -0.100  16.555  1.00  0.00    -0.391 OA
HETATM   18  C6  UNL     1      -6.330   0.249  17.427  1.00  0.00     0.168 C 
HETATM   19  C7  UNL     1      -7.144   1.425  16.823  1.00  0.00     0.032 C 
ENDBRANCH  13  14
ENDBRANCH   3  13
TORSDOF 3
ENDMDL
MODEL 3
REMARK VINA RESULT: -6.816511086      1.259      1.894
REMARK  3 active torsions:
REMARK  status: ('A' for Active; 'I' for Inactive)
REMARK       I    between atoms: C1_2  and  N1_3 
REMARK    1  A    between atoms: C1_2  and  C8_12 
REMARK    2  A    between atoms: N1_3  and  C2_5 
REMARK    3  A    between atoms: C2_5  and  C3_6 
ROOT
HETATM    1  O1  UNL     1      -6.072   2.979  12.884  1.00  0.00    -0.273 OA
HETATM    2  C1  UNL     1      -5.030   3.326  13.460  1.00  0.00     0.221 C 
HETATM    3  N1  UNL     1      -4.978   3.772  14.773  1.00  0.00    -0.360 N 
ATOM      4  H1  UNL     1      -4.045   4.004  15.114  1.00  0.00     0.162 HD
ENDROOT
BRANCH   2   5
HETATM    5  C8  UNL     1      -3.771   3.233  12.620  1.00  0.00     0.079 C 
HETATM    6  C9  UNL     1      -3.443   1.800  12.433  1.00  0.00     0.029 C 
HETATM    7  C10 UNL     1      -2.993   1.456  11.008  1.00  0.00     0.141 C 
HETATM    8  S1  UNL     1      -1.827   2.757  10.583  1.00  0.00     0.144 S 
HETATM    9  O3  UNL     1      -0.874   2.889  11.713  1.00  0.00    -0.228 OA
HETATM   10  O4  UNL     1      -1.179   2.493   9.270  1.00  0.00    -0.228 OA
HETATM   11  C11 UNL     1      -2.827   4.250  10.528  1.00  0.00     0.141 C 
HETATM   12  C12 UNL     1      -4.073   3.961  11.334  1.00  0.00     0.029 C 
ENDBRANCH   2   5
BRANCH   3  13
HETATM   13  C2  UNL     1      -6.018   3.952  15.711  1.00  0.00     0.127 C 
BRANCH  13  14
HETATM   14  C3  UNL     1      -6.327   2.902  16.697  1.00  0.00     0.007 C 
HETATM   15  C4  UNL     1      -5.023   2.087  16.881  1.00  0.00     0.032 C 
HETATM   16  C5  UNL     1      -5.156   0.739  16.241  1.00  0.00     0.168 C 
HETATM   17  O2  UNL     1      -6.067  -0.028  16.979  1.00  0.00    -0.391 OA
HETATM   18  C6  UNL     1      -7.144   0.742  17.408  1.00  0.00     0.168 C 
HETATM   19  C7  UNL     1      -7.383   1.903  16.406  1.00  0.00     0.032 C 
ENDBRANCH  13  14
ENDBRANCH   3  13
TORSDOF 3
ENDMDL
MODEL 4
REMARK VINA RESULT: -6.764989167      2.649      6.605
REMARK  3 active torsions:
REMARK  status: ('A' for Active; 'I' for Inactive)
REMARK       I    between atoms: C1_2  and  N1_3 
REMARK    1  A    between atoms: C1_2  and  C8_12 
REMARK    2  A    between atoms: N1_3  and  C2_5 
REMARK    3  A    between atoms: C2_5  and  C3_6 
ROOT
HETATM    1  O1  UNL     1      -3.847   5.361  14.785  1.00  0.00    -0.273 OA
HETATM    2  C1  UNL     1      -3.363   4.221  14.713  1.00  0.00     0.221 C 
HETATM    3  N1  UNL     1      -2.258   3.893  13.941  1.00  0.00    -0.360 N 
ATOM      4  H1  UNL     1      -1.966   2.917  13.999  1.00  0.00     0.162 HD
ENDROOT
BRANCH   2   5
HETATM    5  C8  UNL     1      -4.071   3.170  15.545  1.00  0.00     0.079 C 
HETATM    6  C9  UNL     1      -5.410   3.691  15.910  1.00  0.00     0.029 C 
HETATM    7  C10 UNL     1      -6.526   2.645  15.797  1.00  0.00     0.141 C 
HETATM    8  S1  UNL     1      -5.839   1.175  16.571  1.00  0.00     0.144 S 
HETATM    9  O3  UNL     1      -5.257   1.587  17.873  1.00  0.00    -0.228 OA
HETATM   10  O4  UNL     1      -6.856   0.095  16.675  1.00  0.00    -0.228 OA
HETATM   11  C11 UNL     1      -4.485   0.694  15.490  1.00  0.00     0.141 C 
HETATM   12  C12 UNL     1      -4.114   1.924  14.694  1.00  0.00     0.029 C 
ENDBRANCH   2   5
BRANCH   3  13
HETATM   13  C2  UNL     1      -1.475   4.700  13.089  1.00  0.00     0.127 C 
BRANCH  13  14
HETATM   14  C3  UNL     1      -1.283   4.332  11.675  1.00  0.00     0.007 C 
HETATM   15  C4  UNL     1      -2.656   3.817  11.176  1.00  0.00     0.032 C 
HETATM   16  C5  UNL     1      -2.617   2.331  10.984  1.00  0.00     0.168 C 
HETATM   17  O2  UNL     1      -1.796   2.035   9.889  1.00  0.00    -0.391 OA
HETATM   18  C6  UNL     1      -0.671   2.854   9.864  1.00  0.00     0.168 C 
HETATM   19  C7  UNL     1      -0.307   3.278  11.313  1.00  0.00     0.032 C 
ENDBRANCH  13  14
ENDBRANCH   3  13
TORSDOF 3
ENDMDL
MODEL 5
REMARK VINA RESULT: -6.690416795      2.631      3.058
REMARK  3 active torsions:
REMARK  status: ('A' for Active; 'I' for Inactive)
REMARK       I    between atoms: C1_2  and  N1_3 
REMARK    1  A    between atoms: C1_2  and  C8_12 
REMARK    2  A    between atoms: N1_3  and  C2_5 
REMARK    3  A    between atoms: C2_5  and  C3_6 
ROOT
HETATM    1  O1  UNL     1      -6.637   4.511  13.358  1.00  0.00    -0.273 OA
HETATM    2  C1  UNL     1      -5.733   4.847  14.139  1.00  0.00     0.221 C 
HETATM    3  N1  UNL     1      -5.724   4.548  15.494  1.00  0.00    -0.360 N 
ATOM      4  H1  UNL     1      -4.903   4.877  16.003  1.00  0.00     0.162 HD
ENDROOT
BRANCH   2   5
HETATM    5  C8  UNL     1      -4.598   5.631  13.508  1.00  0.00     0.079 C 
HETATM    6  C9  UNL     1      -3.600   5.933  14.562  1.00  0.00     0.029 C 
HETATM    7  C10 UNL     1      -2.149   5.751  14.101  1.00  0.00     0.141 C 
HETATM    8  S1  UNL     1      -2.092   6.544  12.488  1.00  0.00     0.144 S 
HETATM    9  O3  UNL     1      -2.727   7.878  12.624  1.00  0.00    -0.228 OA
HETATM   10  O4  UNL     1      -0.703   6.584  11.956  1.00  0.00    -0.228 OA
HETATM   11  C11 UNL     1      -3.156   5.528  11.455  1.00  0.00     0.141 C 
HETATM   12  C12 UNL     1      -4.063   4.765  12.394  1.00  0.00     0.029 C 
ENDBRANCH   2   5
BRANCH   3  13
HETATM   13  C2  UNL     1      -6.675   3.859  16.276  1.00  0.00     0.127 C 
BRANCH  13  14
HETATM   14  C3  UNL     1      -6.294   2.646  17.021  1.00  0.00     0.007 C 
HETATM   15  C4  UNL     1      -4.882   2.258  16.518  1.00  0.00     0.032 C 
HETATM   16  C5  UNL     1      -4.952   1.030  15.662  1.00  0.00     0.168 C 
HETATM   17  O2  UNL     1      -5.269  -0.070  16.469  1.00  0.00    -0.391 OA
HETATM   18  C6  UNL     1      -6.217   0.266  17.432  1.00  0.00     0.168 C 
HETATM   19  C7  UNL     1      -7.113   1.416  16.898  1.00  0.00     0.032 C 
ENDBRANCH  13  14
ENDBRANCH   3  13
TORSDOF 3
ENDMDL
