MODEL 1
REMARK VINA RESULT: -5.744125694      0.000      0.000
REMARK  9 active torsions:
REMARK  status: ('A' for Active; 'I' for Inactive)
REMARK    1  A    between atoms: C2_2  and  C3_3 
REMARK    2  A    between atoms: C3_3  and  O1_4 
REMARK    3  A    between atoms: O1_4  and  C4_5 
REMARK    4  A    between atoms: C6_7  and  O2_8 
REMARK    5  A    between atoms: C8_10  and  O3_11 
REMARK    6  A    between atoms: O3_11  and  C9_12 
REMARK    7  A    between atoms: C16_19  and  C17_20 
REMARK    8  A    between atoms: C20_26  and  N2_27 
REMARK    9  A    between atoms: C21_32  and  N4_33 
ROOT
HETATM    1  C4  UNL     1      12.294   1.816   2.188  1.00  0.00     0.082 A 
HETATM    2  C5  UNL     1      11.837   0.564   1.849  1.00  0.00     0.077 A 
HETATM    3  C6  UNL     1      12.373  -0.133   0.753  1.00  0.00     0.104 A 
HETATM    4  C8  UNL     1      13.364   0.410  -0.010  1.00  0.00     0.103 A 
HETATM    5  C15 UNL     1      13.819   1.695   0.353  1.00  0.00     0.055 A 
HETATM    6  C16 UNL     1      13.319   2.396   1.411  1.00  0.00     0.015 A 
ENDROOT
BRANCH   6   7
HETATM    7  C17 UNL     1      13.798   3.728   1.791  1.00  0.00     0.036 C 
HETATM    8  C18 UNL     1      14.976   3.806   2.504  1.00  0.00     0.107 C 
HETATM    9  N1  UNL     1      15.491   4.865   3.161  1.00  0.00    -0.330 N 
HETATM   10  C19 UNL     1      15.173   6.184   3.016  1.00  0.00     0.289 C 
ATOM     11  H1  UNL     1      16.209   4.653   3.854  1.00  0.00     0.168 HD
HETATM   12  O4  UNL     1      15.850   7.004   3.700  1.00  0.00    -0.264 OA
HETATM   13  C20 UNL     1      14.212   6.781   2.226  1.00  0.00     0.170 C 
HETATM   14  N3  UNL     1      13.358   6.143   1.398  1.00  0.00    -0.324 N 
HETATM   15  C21 UNL     1      13.025   4.830   1.394  1.00  0.00     0.113 C 
ATOM     16  H3  UNL     1      12.907   6.721   0.687  1.00  0.00     0.169 HD
BRANCH  13  17
HETATM   17  N2  UNL     1      14.105   8.066   2.270  1.00  0.00    -0.381 N 
ATOM     18  H22 UNL     1      14.705   8.542   2.945  1.00  0.00     0.157 HD
ATOM     19  H21 UNL     1      13.440   8.512   1.639  1.00  0.00     0.157 HD
ENDBRANCH  13  17
BRANCH  15  20
HETATM   20  N4  UNL     1      11.842   4.547   0.976  1.00  0.00    -0.385 N 
ATOM     21  H42 UNL     1      11.404   3.726   1.393  1.00  0.00     0.157 HD
ATOM     22  H41 UNL     1      11.471   5.178   0.265  1.00  0.00     0.157 HD
ENDBRANCH  15  20
ENDBRANCH   6   7
BRANCH   1  23
HETATM   23  O1  UNL     1      11.809   2.528   3.239  1.00  0.00    -0.350 OA
BRANCH  23  24
HETATM   24  C3  UNL     1      12.005   2.289   4.572  1.00  0.00     0.175 C 
BRANCH  24  25
HETATM   25  C2  UNL     1      12.523   3.405   5.417  1.00  0.00     0.022 C 
HETATM   26  C1  UNL     1      11.879   4.691   4.873  1.00  0.00     0.007 C 
ENDBRANCH  24  25
ENDBRANCH  23  24
ENDBRANCH   1  23
BRANCH   4  27
HETATM   27  O3  UNL     1      13.909  -0.197  -1.055  1.00  0.00    -0.343 OA
BRANCH  27  28
HETATM   28  C9  UNL     1      15.032  -0.853  -1.416  1.00  0.00     0.129 C 
HETATM   29  C10 UNL     1      15.395  -1.839  -0.310  1.00  0.00     0.032 C 
HETATM   30  C11 UNL     1      15.903  -3.151  -0.825  1.00  0.00     0.002 C 
HETATM   31  C12 UNL     1      14.894  -3.875  -1.692  1.00  0.00     0.000 C 
HETATM   32  C13 UNL     1      13.954  -2.905  -2.373  1.00  0.00     0.002 C 
HETATM   33  C14 UNL     1      14.694  -1.637  -2.703  1.00  0.00     0.032 C 
ENDBRANCH  27  28
ENDBRANCH   4  27
BRANCH   3  34
HETATM   34  O2  UNL     1      11.903  -1.386   0.427  1.00  0.00    -0.353 OA
HETATM   35  C7  UNL     1      10.530  -1.558   0.126  1.00  0.00     0.210 C 
ENDBRANCH   3  34
TORSDOF 9
ENDMDL
MODEL 2
REMARK VINA RESULT: -5.723100864      3.106      5.113
REMARK  9 active torsions:
REMARK  status: ('A' for Active; 'I' for Inactive)
REMARK    1  A    between atoms: C2_2  and  C3_3 
REMARK    2  A    between atoms: C3_3  and  O1_4 
REMARK    3  A    between atoms: O1_4  and  C4_5 
REMARK    4  A    between atoms: C6_7  and  O2_8 
REMARK    5  A    between atoms: C8_10  and  O3_11 
REMARK    6  A    between atoms: O3_11  and  C9_12 
REMARK    7  A    between atoms: C16_19  and  C17_20 
REMARK    8  A    between atoms: C20_26  and  N2_27 
REMARK    9  A    between atoms: C21_32  and  N4_33 
ROOT
HETATM    1  C4  UNL     1      13.968   2.337   1.904  1.00  0.00     0.082 A 
HETATM    2  C5  UNL     1      13.502   1.241   1.219  1.00  0.00     0.077 A 
HETATM    3  C6  UNL     1      12.273   1.277   0.538  1.00  0.00     0.104 A 
HETATM    4  C8  UNL     1      11.504   2.403   0.534  1.00  0.00     0.103 A 
HETATM    5  C15 UNL     1      11.999   3.517   1.243  1.00  0.00     0.055 A 
HETATM    6  C16 UNL     1      13.187   3.512   1.913  1.00  0.00     0.015 A 
ENDROOT
BRANCH   6   7
HETATM    7  C17 UNL     1      13.702   4.675   2.643  1.00  0.00     0.036 C 
HETATM    8  C18 UNL     1      13.101   4.996   3.842  1.00  0.00     0.107 C 
HETATM    9  N1  UNL     1      13.227   6.125   4.568  1.00  0.00    -0.330 N 
HETATM   10  C19 UNL     1      14.207   7.072   4.492  1.00  0.00     0.289 C 
ATOM     11  H1  UNL     1      12.498   6.292   5.261  1.00  0.00     0.168 HD
HETATM   12  O4  UNL     1      14.145   8.013   5.333  1.00  0.00    -0.264 OA
HETATM   13  C20 UNL     1      15.277   7.171   3.627  1.00  0.00     0.170 C 
HETATM   14  N3  UNL     1      15.581   6.303   2.638  1.00  0.00    -0.324 N 
HETATM   15  C21 UNL     1      14.776   5.373   2.070  1.00  0.00     0.113 C 
ATOM     16  H3  UNL     1      16.532   6.354   2.273  1.00  0.00     0.169 HD
BRANCH  13  17
HETATM   17  N2  UNL     1      16.071   8.179   3.759  1.00  0.00    -0.381 N 
ATOM     18  H22 UNL     1      16.882   8.035   4.360  1.00  0.00     0.157 HD
ATOM     19  H21 UNL     1      15.839   9.038   3.261  1.00  0.00     0.157 HD
ENDBRANCH  13  17
BRANCH  15  20
HETATM   20  N4  UNL     1      15.021   5.088   0.840  1.00  0.00    -0.385 N 
ATOM     21  H42 UNL     1      15.158   5.882   0.214  1.00  0.00     0.157 HD
ATOM     22  H41 UNL     1      15.050   4.091   0.622  1.00  0.00     0.157 HD
ENDBRANCH  15  20
ENDBRANCH   6   7
BRANCH   1  23
HETATM   23  O1  UNL     1      15.150   2.352   2.575  1.00  0.00    -0.350 OA
BRANCH  23  24
HETATM   24  C3  UNL     1      16.288   1.652   2.280  1.00  0.00     0.175 C 
BRANCH  24  25
HETATM   25  C2  UNL     1      16.834   0.731   3.320  1.00  0.00     0.022 C 
HETATM   26  C1  UNL     1      18.365   0.857   3.246  1.00  0.00     0.007 C 
ENDBRANCH  24  25
ENDBRANCH  23  24
ENDBRANCH   1  23
BRANCH   4  27
HETATM   27  O3  UNL     1      10.337   2.498  -0.089  1.00  0.00    -0.343 OA
BRANCH  27  28
HETATM   28  C9  UNL     1       9.048   2.821   0.147  1.00  0.00     0.129 C 
HETATM   29  C10 UNL     1       8.962   4.323   0.397  1.00  0.00     0.032 C 
HETATM   30  C11 UNL     1       7.754   4.961  -0.220  1.00  0.00     0.002 C 
HETATM   31  C12 UNL     1       7.706   4.801  -1.724  1.00  0.00     0.000 C 
HETATM   32  C13 UNL     1       8.433   3.551  -2.171  1.00  0.00     0.002 C 
HETATM   33  C14 UNL     1       8.261   2.474  -1.135  1.00  0.00     0.032 C 
ENDBRANCH  27  28
ENDBRANCH   4  27
BRANCH   3  34
HETATM   34  O2  UNL     1      11.821   0.168  -0.143  1.00  0.00    -0.353 OA
HETATM   35  C7  UNL     1      11.808  -1.091   0.507  1.00  0.00     0.210 C 
ENDBRANCH   3  34
TORSDOF 9
ENDMDL
MODEL 3
REMARK VINA RESULT: -5.722096656      5.003      7.726
REMARK  9 active torsions:
REMARK  status: ('A' for Active; 'I' for Inactive)
REMARK    1  A    between atoms: C2_2  and  C3_3 
REMARK    2  A    between atoms: C3_3  and  O1_4 
REMARK    3  A    between atoms: O1_4  and  C4_5 
REMARK    4  A    between atoms: C6_7  and  O2_8 
REMARK    5  A    between atoms: C8_10  and  O3_11 
REMARK    6  A    between atoms: O3_11  and  C9_12 
REMARK    7  A    between atoms: C16_19  and  C17_20 
REMARK    8  A    between atoms: C20_26  and  N2_27 
REMARK    9  A    between atoms: C21_32  and  N4_33 
ROOT
HETATM    1  C4  UNL     1       9.469   3.266   2.113  1.00  0.00     0.082 A 
HETATM    2  C5  UNL     1      10.373   3.115   3.137  1.00  0.00     0.077 A 
HETATM    3  C6  UNL     1      11.678   3.629   3.037  1.00  0.00     0.104 A 
HETATM    4  C8  UNL     1      12.088   4.295   1.921  1.00  0.00     0.103 A 
HETATM    5  C15 UNL     1      11.147   4.440   0.881  1.00  0.00     0.055 A 
HETATM    6  C16 UNL     1       9.875   3.953   0.948  1.00  0.00     0.015 A 
ENDROOT
BRANCH   6   7
HETATM    7  C17 UNL     1       8.896   4.111  -0.132  1.00  0.00     0.036 C 
HETATM    8  C18 UNL     1       9.038   3.312  -1.247  1.00  0.00     0.107 C 
HETATM    9  N1  UNL     1       8.429   3.426  -2.445  1.00  0.00    -0.330 N 
HETATM   10  C19 UNL     1       7.298   4.126  -2.753  1.00  0.00     0.289 C 
ATOM     11  H1  UNL     1       8.869   2.926  -3.217  1.00  0.00     0.168 HD
HETATM   12  O4  UNL     1       6.880   4.022  -3.941  1.00  0.00    -0.264 OA
HETATM   13  C20 UNL     1       6.521   4.946  -1.961  1.00  0.00     0.170 C 
HETATM   14  N3  UNL     1       6.738   5.228  -0.658  1.00  0.00    -0.324 N 
HETATM   15  C21 UNL     1       7.880   5.061   0.051  1.00  0.00     0.113 C 
ATOM     16  H3  UNL     1       5.945   5.613  -0.145  1.00  0.00     0.169 HD
BRANCH  13  17
HETATM   17  N2  UNL     1       5.490   5.505  -2.497  1.00  0.00    -0.381 N 
ATOM     18  H22 UNL     1       5.006   4.960  -3.211  1.00  0.00     0.157 HD
ATOM     19  H21 UNL     1       5.230   6.437  -2.176  1.00  0.00     0.157 HD
ENDBRANCH  13  17
BRANCH  15  20
HETATM   20  N4  UNL     1       8.067   5.883   1.024  1.00  0.00    -0.385 N 
ATOM     21  H42 UNL     1       8.659   5.549   1.784  1.00  0.00     0.157 HD
ATOM     22  H41 UNL     1       7.597   6.783   0.927  1.00  0.00     0.157 HD
ENDBRANCH  15  20
ENDBRANCH   6   7
BRANCH   1  23
HETATM   23  O1  UNL     1       8.197   2.790   2.162  1.00  0.00    -0.350 OA
BRANCH  23  24
HETATM   24  C3  UNL     1       7.796   1.484   2.226  1.00  0.00     0.175 C 
BRANCH  24  25
HETATM   25  C2  UNL     1       7.293   0.844   0.974  1.00  0.00     0.022 C 
HETATM   26  C1  UNL     1       6.127   1.716   0.482  1.00  0.00     0.007 C 
ENDBRANCH  24  25
ENDBRANCH  23  24
ENDBRANCH   1  23
BRANCH   4  27
HETATM   27  O3  UNL     1      13.305   4.801   1.768  1.00  0.00    -0.343 OA
BRANCH  27  28
HETATM   28  C9  UNL     1      13.926   5.917   1.332  1.00  0.00     0.129 C 
HETATM   29  C10 UNL     1      13.019   7.114   1.597  1.00  0.00     0.032 C 
HETATM   30  C11 UNL     1      13.760   8.331   2.060  1.00  0.00     0.002 C 
HETATM   31  C12 UNL     1      14.517   8.106   3.352  1.00  0.00     0.000 C 
HETATM   32  C13 UNL     1      14.910   6.654   3.516  1.00  0.00     0.002 C 
HETATM   33  C14 UNL     1      15.216   6.062   2.167  1.00  0.00     0.032 C 
ENDBRANCH  27  28
ENDBRANCH   4  27
BRANCH   3  34
HETATM   34  O2  UNL     1      12.571   3.467   4.074  1.00  0.00    -0.353 OA
HETATM   35  C7  UNL     1      12.481   4.308   5.210  1.00  0.00     0.210 C 
ENDBRANCH   3  34
TORSDOF 9
ENDMDL
MODEL 4
REMARK VINA RESULT: -5.691645161      5.577      8.146
REMARK  9 active torsions:
REMARK  status: ('A' for Active; 'I' for Inactive)
REMARK    1  A    between atoms: C2_2  and  C3_3 
REMARK    2  A    between atoms: C3_3  and  O1_4 
REMARK    3  A    between atoms: O1_4  and  C4_5 
REMARK    4  A    between atoms: C6_7  and  O2_8 
REMARK    5  A    between atoms: C8_10  and  O3_11 
REMARK    6  A    between atoms: O3_11  and  C9_12 
REMARK    7  A    between atoms: C16_19  and  C17_20 
REMARK    8  A    between atoms: C20_26  and  N2_27 
REMARK    9  A    between atoms: C21_32  and  N4_33 
ROOT
HETATM    1  C4  UNL     1       8.822   3.312   2.318  1.00  0.00     0.082 A 
HETATM    2  C5  UNL     1       9.489   3.230   3.517  1.00  0.00     0.077 A 
HETATM    3  C6  UNL     1      10.562   4.088   3.812  1.00  0.00     0.104 A 
HETATM    4  C8  UNL     1      10.976   5.031   2.919  1.00  0.00     0.103 A 
HETATM    5  C15 UNL     1      10.280   5.100   1.694  1.00  0.00     0.055 A 
HETATM    6  C16 UNL     1       9.236   4.282   1.379  1.00  0.00     0.015 A 
ENDROOT
BRANCH   6   7
HETATM    7  C17 UNL     1       8.509   4.360   0.108  1.00  0.00     0.036 C 
HETATM    8  C18 UNL     1       8.903   3.513  -0.908  1.00  0.00     0.107 C 
HETATM    9  N1  UNL     1       8.564   3.553  -2.213  1.00  0.00    -0.330 N 
HETATM   10  C19 UNL     1       7.513   4.205  -2.792  1.00  0.00     0.289 C 
ATOM     11  H1  UNL     1       9.169   3.031  -2.846  1.00  0.00     0.168 HD
HETATM   12  O4  UNL     1       7.362   4.032  -4.035  1.00  0.00    -0.264 OA
HETATM   13  C20 UNL     1       6.569   5.038  -2.229  1.00  0.00     0.170 C 
HETATM   14  N3  UNL     1       6.495   5.387  -0.926  1.00  0.00    -0.324 N 
HETATM   15  C21 UNL     1       7.460   5.288   0.019  1.00  0.00     0.113 C 
ATOM     16  H3  UNL     1       5.603   5.773  -0.616  1.00  0.00     0.169 HD
BRANCH  13  17
HETATM   17  N2  UNL     1       5.667   5.541  -3.002  1.00  0.00    -0.381 N 
ATOM     18  H22 UNL     1       5.109   4.872  -3.532  1.00  0.00     0.157 HD
ATOM     19  H21 UNL     1       5.573   6.556  -3.030  1.00  0.00     0.157 HD
ENDBRANCH  13  17
BRANCH  15  20
HETATM   20  N4  UNL     1       7.419   6.159   0.964  1.00  0.00    -0.385 N 
ATOM     21  H42 UNL     1       7.501   7.135   0.678  1.00  0.00     0.157 HD
ATOM     22  H41 UNL     1       7.309   5.776   1.903  1.00  0.00     0.157 HD
ENDBRANCH  15  20
ENDBRANCH   6   7
BRANCH   1  23
HETATM   23  O1  UNL     1       7.778   2.508   1.986  1.00  0.00    -0.350 OA
BRANCH  23  24
HETATM   24  C3  UNL     1       6.532   2.480   2.551  1.00  0.00     0.175 C 
BRANCH  24  25
HETATM   25  C2  UNL     1       5.355   2.712   1.663  1.00  0.00     0.022 C 
HETATM   26  C1  UNL     1       5.659   1.982   0.344  1.00  0.00     0.007 C 
ENDBRANCH  24  25
ENDBRANCH  23  24
ENDBRANCH   1  23
BRANCH   4  27
HETATM   27  O3  UNL     1      11.981   5.867   3.140  1.00  0.00    -0.343 OA
BRANCH  27  28
HETATM   28  C9  UNL     1      13.295   6.019   2.870  1.00  0.00     0.129 C 
HETATM   29  C10 UNL     1      13.507   7.397   2.250  1.00  0.00     0.032 C 
HETATM   30  C11 UNL     1      14.756   8.076   2.722  1.00  0.00     0.002 C 
HETATM   31  C12 UNL     1      14.775   8.303   4.219  1.00  0.00     0.000 C 
HETATM   32  C13 UNL     1      13.942   7.269   4.945  1.00  0.00     0.002 C 
HETATM   33  C14 UNL     1      14.036   5.953   4.223  1.00  0.00     0.032 C 
ENDBRANCH  27  28
ENDBRANCH   4  27
BRANCH   3  34
HETATM   34  O2  UNL     1      11.219   3.991   5.020  1.00  0.00    -0.353 OA
HETATM   35  C7  UNL     1      12.078   2.890   5.258  1.00  0.00     0.210 C 
ENDBRANCH   3  34
TORSDOF 9
ENDMDL
MODEL 5
REMARK VINA RESULT: -5.681707660      5.031      7.619
REMARK  9 active torsions:
REMARK  status: ('A' for Active; 'I' for Inactive)
REMARK    1  A    between atoms: C2_2  and  C3_3 
REMARK    2  A    between atoms: C3_3  and  O1_4 
REMARK    3  A    between atoms: O1_4  and  C4_5 
REMARK    4  A    between atoms: C6_7  and  O2_8 
REMARK    5  A    between atoms: C8_10  and  O3_11 
REMARK    6  A    between atoms: O3_11  and  C9_12 
REMARK    7  A    between atoms: C16_19  and  C17_20 
REMARK    8  A    between atoms: C20_26  and  N2_27 
REMARK    9  A    between atoms: C21_32  and  N4_33 
ROOT
HETATM    1  C4  UNL     1       9.489   3.260   2.110  1.00  0.00     0.082 A 
HETATM    2  C5  UNL     1      10.398   3.111   3.130  1.00  0.00     0.077 A 
HETATM    3  C6  UNL     1      11.699   3.631   3.026  1.00  0.00     0.104 A 
HETATM    4  C8  UNL     1      12.102   4.301   1.910  1.00  0.00     0.103 A 
HETATM    5  C15 UNL     1      11.156   4.445   0.874  1.00  0.00     0.055 A 
HETATM    6  C16 UNL     1       9.886   3.951   0.945  1.00  0.00     0.015 A 
ENDROOT
BRANCH   6   7
HETATM    7  C17 UNL     1       8.902   4.107  -0.130  1.00  0.00     0.036 C 
HETATM    8  C18 UNL     1       9.027   3.292  -1.236  1.00  0.00     0.107 C 
HETATM    9  N1  UNL     1       8.412   3.398  -2.431  1.00  0.00    -0.330 N 
HETATM   10  C19 UNL     1       7.288   4.108  -2.741  1.00  0.00     0.289 C 
ATOM     11  H1  UNL     1       8.840   2.883  -3.200  1.00  0.00     0.168 HD
HETATM   12  O4  UNL     1       6.860   3.993  -3.925  1.00  0.00    -0.264 OA
HETATM   13  C20 UNL     1       6.526   4.948  -1.955  1.00  0.00     0.170 C 
HETATM   14  N3  UNL     1       6.755   5.244  -0.657  1.00  0.00    -0.324 N 
HETATM   15  C21 UNL     1       7.900   5.072   0.047  1.00  0.00     0.113 C 
ATOM     16  H3  UNL     1       5.970   5.646  -0.144  1.00  0.00     0.169 HD
BRANCH  13  17
HETATM   17  N2  UNL     1       5.499   5.512  -2.492  1.00  0.00    -0.381 N 
ATOM     18  H22 UNL     1       5.538   5.646  -3.503  1.00  0.00     0.157 HD
ATOM     19  H21 UNL     1       4.728   5.782  -1.881  1.00  0.00     0.157 HD
ENDBRANCH  13  17
BRANCH  15  20
HETATM   20  N4  UNL     1       8.103   5.904   1.007  1.00  0.00    -0.385 N 
ATOM     21  H42 UNL     1       9.023   5.865   1.446  1.00  0.00     0.157 HD
ATOM     22  H41 UNL     1       7.316   6.515   1.226  1.00  0.00     0.157 HD
ENDBRANCH  15  20
ENDBRANCH   6   7
BRANCH   1  23
HETATM   23  O1  UNL     1       8.219   2.778   2.164  1.00  0.00    -0.350 OA
BRANCH  23  24
HETATM   24  C3  UNL     1       7.384   2.743   3.246  1.00  0.00     0.175 C 
BRANCH  24  25
HETATM   25  C2  UNL     1       6.341   3.805   3.362  1.00  0.00     0.022 C 
HETATM   26  C1  UNL     1       6.910   4.865   4.319  1.00  0.00     0.007 C 
ENDBRANCH  24  25
ENDBRANCH  23  24
ENDBRANCH   1  23
BRANCH   4  27
HETATM   27  O3  UNL     1      13.316   4.814   1.753  1.00  0.00    -0.343 OA
BRANCH  27  28
HETATM   28  C9  UNL     1      13.930   5.938   1.330  1.00  0.00     0.129 C 
HETATM   29  C10 UNL     1      13.015   7.126   1.610  1.00  0.00     0.032 C 
HETATM   30  C11 UNL     1      13.748   8.343   2.087  1.00  0.00     0.002 C 
HETATM   31  C12 UNL     1      14.506   8.108   3.376  1.00  0.00     0.000 C 
HETATM   32  C13 UNL     1      14.909   6.656   3.523  1.00  0.00     0.002 C 
HETATM   33  C14 UNL     1      15.218   6.083   2.167  1.00  0.00     0.032 C 
ENDBRANCH  27  28
ENDBRANCH   4  27
BRANCH   3  34
HETATM   34  O2  UNL     1      12.597   3.470   4.059  1.00  0.00    -0.353 OA
HETATM   35  C7  UNL     1      12.474   4.271   5.221  1.00  0.00     0.210 C 
ENDBRANCH   3  34
TORSDOF 9
ENDMDL
