MODEL 1
REMARK VINA RESULT: -6.743512037      0.000      0.000
REMARK  8 active torsions:
REMARK  status: ('A' for Active; 'I' for Inactive)
REMARK    1  A    between atoms: C2_2  and  N1_5 
REMARK    2  A    between atoms: N1_5  and  C5_8 
REMARK    3  A    between atoms: C5_8  and  C6_9 
REMARK    4  A    between atoms: C7_10  and  N2_11 
REMARK       I    between atoms: N2_11  and  C8_13 
REMARK    5  A    between atoms: C8_13  and  C9_15 
REMARK    6  A    between atoms: C9_15  and  C10_16 
REMARK    7  A    between atoms: C10_16  and  N3_17 
REMARK    8  A    between atoms: N3_17  and  C11_19 
ROOT
HETATM    1  C6  UNL     1      13.488   0.133   0.321  1.00  0.00     0.011 A 
HETATM    2  C7  UNL     1      14.113   1.301   0.852  1.00  0.00     0.059 A 
HETATM    3  C18 UNL     1      15.323   1.638   0.349  1.00  0.00     0.119 A 
HETATM    4  N4  UNL     1      15.926   0.894  -0.628  1.00  0.00    -0.348 N 
ATOM      5  H4  UNL     1      16.839   1.178  -0.983  1.00  0.00     0.167 HD
HETATM    6  C19 UNL     1      15.339  -0.199  -1.127  1.00  0.00     0.132 A 
HETATM    7  N5  UNL     1      15.717  -1.067  -2.080  1.00  0.00    -0.285 N 
ATOM      8  H5  UNL     1      16.592  -1.019  -2.602  1.00  0.00     0.188 HD
HETATM    9  N6  UNL     1      14.809  -1.972  -2.235  1.00  0.00    -0.309 N 
ATOM     10  H6  UNL     1      14.852  -2.747  -2.897  1.00  0.00     0.186 HD
HETATM   11  C20 UNL     1      13.781  -1.720  -1.369  1.00  0.00     0.123 A 
HETATM   12  C21 UNL     1      14.108  -0.597  -0.660  1.00  0.00     0.036 A 
ENDROOT
BRANCH   2  13
HETATM   13  N2  UNL     1      13.444   2.032   1.822  1.00  0.00    -0.325 N 
HETATM   14  C8  UNL     1      13.790   2.124   3.169  1.00  0.00     0.226 C 
HETATM   15  O1  UNL     1      14.748   1.552   3.674  1.00  0.00    -0.273 OA
ATOM     16  H2  UNL     1      12.619   2.553   1.521  1.00  0.00     0.169 HD
BRANCH  14  17
HETATM   17  C9  UNL     1      12.950   2.976   4.100  1.00  0.00     0.147 C 
BRANCH  17  18
HETATM   18  C10 UNL     1      13.300   4.409   3.901  1.00  0.00     0.066 C 
BRANCH  18  19
HETATM   19  N3  UNL     1      14.645   4.668   3.707  1.00  0.00    -0.386 N 
ATOM     20  H3  UNL     1      15.308   4.097   4.232  1.00  0.00     0.159 HD
BRANCH  19  21
HETATM   21  C11 UNL     1      15.175   5.632   2.864  1.00  0.00     0.086 C 
HETATM   22  C12 UNL     1      16.105   5.146   1.804  1.00  0.00     0.047 C 
HETATM   23  C13 UNL     1      14.113   6.529   2.224  1.00  0.00     0.038 C 
HETATM   24  C14 UNL     1      14.433   7.992   2.423  1.00  0.00     0.003 C 
HETATM   25  C15 UNL     1      14.358   8.379   3.889  1.00  0.00     0.007 C 
HETATM   26  C16 UNL     1      15.163   7.374   4.717  1.00  0.00     0.081 C 
HETATM   27  C17 UNL     1      15.974   6.593   3.739  1.00  0.00     0.154 C 
HETATM   28  O2  UNL     1      17.177   6.692   3.627  1.00  0.00    -0.295 OA
ENDBRANCH  19  21
ENDBRANCH  18  19
ENDBRANCH  17  18
ENDBRANCH  14  17
ENDBRANCH   2  13
BRANCH   1  29
HETATM   29  C5  UNL     1      12.181  -0.201   0.896  1.00  0.00     0.275 C 
BRANCH  29  30
HETATM   30  N1  UNL     1      11.058  -0.138   0.041  1.00  0.00    -0.063 N 
ATOM     31  H12 UNL     1      10.676  -1.064  -0.154  1.00  0.00     0.278 HD
ATOM     32  H11 UNL     1      11.319   0.121  -0.911  1.00  0.00     0.278 HD
BRANCH  30  33
HETATM   33  C2  UNL     1      10.032   0.777   0.601  1.00  0.00     0.115 C 
HETATM   34  C1  UNL     1      10.134   0.745   2.104  1.00  0.00     0.045 C 
HETATM   35  C3  UNL     1      10.323   2.150   0.092  1.00  0.00     0.045 C 
HETATM   36  C4  UNL     1       8.695   0.266   0.163  1.00  0.00     0.045 C 
ENDBRANCH  30  33
ENDBRANCH  29  30
ENDBRANCH   1  29
TORSDOF 8
ENDMDL
MODEL 2
REMARK VINA RESULT: -6.569969829      4.225      6.032
REMARK  8 active torsions:
REMARK  status: ('A' for Active; 'I' for Inactive)
REMARK    1  A    between atoms: C2_2  and  N1_5 
REMARK    2  A    between atoms: N1_5  and  C5_8 
REMARK    3  A    between atoms: C5_8  and  C6_9 
REMARK    4  A    between atoms: C7_10  and  N2_11 
REMARK       I    between atoms: N2_11  and  C8_13 
REMARK    5  A    between atoms: C8_13  and  C9_15 
REMARK    6  A    between atoms: C9_15  and  C10_16 
REMARK    7  A    between atoms: C10_16  and  N3_17 
REMARK    8  A    between atoms: N3_17  and  C11_19 
ROOT
HETATM    1  C6  UNL     1       7.695   4.276  -0.577  1.00  0.00     0.011 A 
HETATM    2  C7  UNL     1       8.731   3.355  -0.234  1.00  0.00     0.059 A 
HETATM    3  C18 UNL     1       9.242   2.598  -1.232  1.00  0.00     0.119 A 
HETATM    4  N4  UNL     1       8.787   2.705  -2.518  1.00  0.00    -0.348 N 
ATOM      5  H4  UNL     1       9.195   2.117  -3.244  1.00  0.00     0.167 HD
HETATM    6  C19 UNL     1       7.817   3.568  -2.839  1.00  0.00     0.132 A 
HETATM    7  N5  UNL     1       7.224   3.859  -4.009  1.00  0.00    -0.285 N 
ATOM      8  H5  UNL     1       7.442   3.417  -4.902  1.00  0.00     0.188 HD
HETATM    9  N6  UNL     1       6.338   4.782  -3.835  1.00  0.00    -0.309 N 
ATOM     10  H6  UNL     1       5.748   5.183  -4.563  1.00  0.00     0.186 HD
HETATM   11  C20 UNL     1       6.321   5.134  -2.513  1.00  0.00     0.123 A 
HETATM   12  C21 UNL     1       7.256   4.369  -1.872  1.00  0.00     0.036 A 
ENDROOT
BRANCH   2  13
HETATM   13  N2  UNL     1       9.173   3.309   1.081  1.00  0.00    -0.325 N 
HETATM   14  C8  UNL     1      10.416   3.733   1.546  1.00  0.00     0.226 C 
HETATM   15  O1  UNL     1      11.294   4.205   0.834  1.00  0.00    -0.273 OA
ATOM     16  H2  UNL     1       8.526   2.929   1.772  1.00  0.00     0.169 HD
BRANCH  14  17
HETATM   17  C9  UNL     1      10.740   3.617   3.023  1.00  0.00     0.147 C 
BRANCH  17  18
HETATM   18  C10 UNL     1      12.201   3.820   3.221  1.00  0.00     0.066 C 
BRANCH  18  19
HETATM   19  N3  UNL     1      12.631   5.133   3.149  1.00  0.00    -0.386 N 
ATOM     20  H3  UNL     1      11.944   5.858   3.353  1.00  0.00     0.159 HD
BRANCH  19  21
HETATM   21  C11 UNL     1      13.912   5.553   2.827  1.00  0.00     0.086 C 
HETATM   22  C12 UNL     1      14.716   4.630   1.975  1.00  0.00     0.047 C 
HETATM   23  C13 UNL     1      13.956   6.958   2.223  1.00  0.00     0.038 C 
HETATM   24  C14 UNL     1      14.951   7.838   2.942  1.00  0.00     0.003 C 
HETATM   25  C15 UNL     1      14.520   8.103   4.374  1.00  0.00     0.007 C 
HETATM   26  C16 UNL     1      14.155   6.777   5.044  1.00  0.00     0.081 C 
HETATM   27  C17 UNL     1      14.671   5.706   4.142  1.00  0.00     0.154 C 
HETATM   28  O2  UNL     1      15.617   4.996   4.408  1.00  0.00    -0.295 OA
ENDBRANCH  19  21
ENDBRANCH  18  19
ENDBRANCH  17  18
ENDBRANCH  14  17
ENDBRANCH   2  13
BRANCH   1  29
HETATM   29  C5  UNL     1       7.166   5.074   0.533  1.00  0.00     0.275 C 
BRANCH  29  30
HETATM   30  N1  UNL     1       7.729   6.353   0.742  1.00  0.00    -0.063 N 
ATOM     31  H12 UNL     1       7.516   6.991  -0.025  1.00  0.00     0.278 HD
ATOM     32  H11 UNL     1       8.745   6.340   0.650  1.00  0.00     0.278 HD
BRANCH  30  33
HETATM   33  C2  UNL     1       7.299   6.900   2.052  1.00  0.00     0.115 C 
HETATM   34  C1  UNL     1       5.823   6.639   2.218  1.00  0.00     0.045 C 
HETATM   35  C3  UNL     1       8.071   6.190   3.115  1.00  0.00     0.045 C 
HETATM   36  C4  UNL     1       7.563   8.373   2.028  1.00  0.00     0.045 C 
ENDBRANCH  30  33
ENDBRANCH  29  30
ENDBRANCH   1  29
TORSDOF 8
ENDMDL
MODEL 3
REMARK VINA RESULT: -6.225786961      4.553      6.214
REMARK  8 active torsions:
REMARK  status: ('A' for Active; 'I' for Inactive)
REMARK    1  A    between atoms: C2_2  and  N1_5 
REMARK    2  A    between atoms: N1_5  and  C5_8 
REMARK    3  A    between atoms: C5_8  and  C6_9 
REMARK    4  A    between atoms: C7_10  and  N2_11 
REMARK       I    between atoms: N2_11  and  C8_13 
REMARK    5  A    between atoms: C8_13  and  C9_15 
REMARK    6  A    between atoms: C9_15  and  C10_16 
REMARK    7  A    between atoms: C10_16  and  N3_17 
REMARK    8  A    between atoms: N3_17  and  C11_19 
ROOT
HETATM    1  C6  UNL     1       7.590   4.509  -0.187  1.00  0.00     0.011 A 
HETATM    2  C7  UNL     1       8.799   3.829   0.150  1.00  0.00     0.059 A 
HETATM    3  C18 UNL     1       9.495   3.266  -0.864  1.00  0.00     0.119 A 
HETATM    4  N4  UNL     1       9.063   3.342  -2.160  1.00  0.00    -0.348 N 
ATOM      5  H4  UNL     1       9.614   2.905  -2.898  1.00  0.00     0.167 HD
HETATM    6  C19 UNL     1       7.931   3.981  -2.476  1.00  0.00     0.132 A 
HETATM    7  N5  UNL     1       7.320   4.198  -3.652  1.00  0.00    -0.285 N 
ATOM      8  H5  UNL     1       7.656   3.870  -4.557  1.00  0.00     0.188 HD
HETATM    9  N6  UNL     1       6.242   4.885  -3.466  1.00  0.00    -0.309 N 
ATOM     10  H6  UNL     1       5.596   5.184  -4.197  1.00  0.00     0.186 HD
HETATM   11  C20 UNL     1       6.109   5.146  -2.130  1.00  0.00     0.123 A 
HETATM   12  C21 UNL     1       7.176   4.576  -1.492  1.00  0.00     0.036 A 
ENDROOT
BRANCH   2  13
HETATM   13  N2  UNL     1       9.203   3.806   1.477  1.00  0.00    -0.325 N 
HETATM   14  C8  UNL     1       9.880   4.823   2.147  1.00  0.00     0.226 C 
HETATM   15  O1  UNL     1      10.214   5.884   1.634  1.00  0.00    -0.273 OA
ATOM     16  H2  UNL     1       8.983   2.966   2.013  1.00  0.00     0.169 HD
BRANCH  14  17
HETATM   17  C9  UNL     1      10.246   4.641   3.608  1.00  0.00     0.147 C 
BRANCH  17  18
HETATM   18  C10 UNL     1      11.727   4.587   3.738  1.00  0.00     0.066 C 
BRANCH  18  19
HETATM   19  N3  UNL     1      12.396   5.742   3.375  1.00  0.00    -0.386 N 
ATOM     20  H3  UNL     1      11.858   6.609   3.375  1.00  0.00     0.159 HD
BRANCH  19  21
HETATM   21  C11 UNL     1      13.730   5.830   3.010  1.00  0.00     0.086 C 
HETATM   22  C12 UNL     1      14.246   4.749   2.122  1.00  0.00     0.047 C 
HETATM   23  C13 UNL     1      14.109   7.189   2.417  1.00  0.00     0.038 C 
HETATM   24  C14 UNL     1      15.318   7.776   3.107  1.00  0.00     0.003 C 
HETATM   25  C15 UNL     1      15.014   8.117   4.556  1.00  0.00     0.007 C 
HETATM   26  C16 UNL     1      14.347   6.914   5.227  1.00  0.00     0.081 C 
HETATM   27  C17 UNL     1      14.545   5.764   4.298  1.00  0.00     0.154 C 
HETATM   28  O2  UNL     1      15.288   4.833   4.524  1.00  0.00    -0.295 OA
ENDBRANCH  19  21
ENDBRANCH  18  19
ENDBRANCH  17  18
ENDBRANCH  14  17
ENDBRANCH   2  13
BRANCH   1  29
HETATM   29  C5  UNL     1       6.862   5.100   0.940  1.00  0.00     0.275 C 
BRANCH  29  30
HETATM   30  N1  UNL     1       7.031   6.484   1.170  1.00  0.00    -0.063 N 
ATOM     31  H12 UNL     1       6.691   7.043   0.387  1.00  0.00     0.278 HD
ATOM     32  H11 UNL     1       8.013   6.758   1.136  1.00  0.00     0.278 HD
BRANCH  30  33
HETATM   33  C2  UNL     1       6.391   6.878   2.450  1.00  0.00     0.115 C 
HETATM   34  C1  UNL     1       6.618   5.778   3.455  1.00  0.00     0.045 C 
HETATM   35  C3  UNL     1       7.041   8.141   2.911  1.00  0.00     0.045 C 
HETATM   36  C4  UNL     1       4.928   7.041   2.184  1.00  0.00     0.045 C 
ENDBRANCH  30  33
ENDBRANCH  29  30
ENDBRANCH   1  29
TORSDOF 8
ENDMDL
MODEL 4
REMARK VINA RESULT: -6.151325148      5.145      7.594
REMARK  8 active torsions:
REMARK  status: ('A' for Active; 'I' for Inactive)
REMARK    1  A    between atoms: C2_2  and  N1_5 
REMARK    2  A    between atoms: N1_5  and  C5_8 
REMARK    3  A    between atoms: C5_8  and  C6_9 
REMARK    4  A    between atoms: C7_10  and  N2_11 
REMARK       I    between atoms: N2_11  and  C8_13 
REMARK    5  A    between atoms: C8_13  and  C9_15 
REMARK    6  A    between atoms: C9_15  and  C10_16 
REMARK    7  A    between atoms: C10_16  and  N3_17 
REMARK    8  A    between atoms: N3_17  and  C11_19 
ROOT
HETATM    1  C6  UNL     1       7.813   6.049   3.725  1.00  0.00     0.011 A 
HETATM    2  C7  UNL     1       8.881   5.924   2.786  1.00  0.00     0.059 A 
HETATM    3  C18 UNL     1       8.824   6.699   1.678  1.00  0.00     0.119 A 
HETATM    4  N4  UNL     1       7.788   7.567   1.463  1.00  0.00    -0.348 N 
ATOM      5  H4  UNL     1       7.779   8.135   0.616  1.00  0.00     0.167 HD
HETATM    6  C19 UNL     1       6.789   7.685   2.344  1.00  0.00     0.132 A 
HETATM    7  N5  UNL     1       5.693   8.461   2.361  1.00  0.00    -0.285 N 
ATOM      8  H5  UNL     1       5.435   9.128   1.634  1.00  0.00     0.188 HD
HETATM    9  N6  UNL     1       5.013   8.237   3.436  1.00  0.00    -0.309 N 
ATOM     10  H6  UNL     1       4.139   8.696   3.692  1.00  0.00     0.186 HD
HETATM   11  C20 UNL     1       5.659   7.285   4.176  1.00  0.00     0.123 A 
HETATM   12  C21 UNL     1       6.787   6.926   3.492  1.00  0.00     0.036 A 
ENDROOT
BRANCH   2  13
HETATM   13  N2  UNL     1       9.918   5.048   3.069  1.00  0.00    -0.325 N 
HETATM   14  C8  UNL     1      10.626   4.284   2.142  1.00  0.00     0.226 C 
HETATM   15  O1  UNL     1      10.410   4.289   0.936  1.00  0.00    -0.273 OA
ATOM     16  H2  UNL     1      10.189   4.954   4.048  1.00  0.00     0.169 HD
BRANCH  14  17
HETATM   17  C9  UNL     1      11.742   3.376   2.620  1.00  0.00     0.147 C 
BRANCH  17  18
HETATM   18  C10 UNL     1      13.014   3.775   1.959  1.00  0.00     0.066 C 
BRANCH  18  19
HETATM   19  N3  UNL     1      13.309   5.126   2.010  1.00  0.00    -0.386 N 
ATOM     20  H3  UNL     1      12.550   5.774   1.803  1.00  0.00     0.159 HD
BRANCH  19  21
HETATM   21  C11 UNL     1      14.542   5.679   2.317  1.00  0.00     0.086 C 
HETATM   22  C12 UNL     1      15.728   5.057   1.660  1.00  0.00     0.047 C 
HETATM   23  C13 UNL     1      14.595   7.194   2.115  1.00  0.00     0.038 C 
HETATM   24  C14 UNL     1      15.119   7.898   3.346  1.00  0.00     0.003 C 
HETATM   25  C15 UNL     1      14.162   7.750   4.515  1.00  0.00     0.007 C 
HETATM   26  C16 UNL     1      13.778   6.276   4.669  1.00  0.00     0.081 C 
HETATM   27  C17 UNL     1      14.739   5.512   3.821  1.00  0.00     0.154 C 
HETATM   28  O2  UNL     1      15.616   4.804   4.265  1.00  0.00    -0.295 OA
ENDBRANCH  19  21
ENDBRANCH  18  19
ENDBRANCH  17  18
ENDBRANCH  14  17
ENDBRANCH   2  13
BRANCH   1  29
HETATM   29  C5  UNL     1       7.909   5.188   4.909  1.00  0.00     0.275 C 
BRANCH  29  30
HETATM   30  N1  UNL     1       8.443   5.758   6.086  1.00  0.00    -0.063 N 
ATOM     31  H12 UNL     1       7.713   6.142   6.687  1.00  0.00     0.278 HD
ATOM     32  H11 UNL     1       8.950   6.622   5.894  1.00  0.00     0.278 HD
BRANCH  30  33
HETATM   33  C2  UNL     1       9.286   4.770   6.803  1.00  0.00     0.115 C 
HETATM   34  C1  UNL     1       9.038   3.408   6.206  1.00  0.00     0.045 C 
HETATM   35  C3  UNL     1      10.713   5.167   6.610  1.00  0.00     0.045 C 
HETATM   36  C4  UNL     1       8.868   4.787   8.240  1.00  0.00     0.045 C 
ENDBRANCH  30  33
ENDBRANCH  29  30
ENDBRANCH   1  29
TORSDOF 8
ENDMDL
MODEL 5
REMARK VINA RESULT: -6.136704520      5.052      7.445
REMARK  8 active torsions:
REMARK  status: ('A' for Active; 'I' for Inactive)
REMARK    1  A    between atoms: C2_2  and  N1_5 
REMARK    2  A    between atoms: N1_5  and  C5_8 
REMARK    3  A    between atoms: C5_8  and  C6_9 
REMARK    4  A    between atoms: C7_10  and  N2_11 
REMARK       I    between atoms: N2_11  and  C8_13 
REMARK    5  A    between atoms: C8_13  and  C9_15 
REMARK    6  A    between atoms: C9_15  and  C10_16 
REMARK    7  A    between atoms: C10_16  and  N3_17 
REMARK    8  A    between atoms: N3_17  and  C11_19 
ROOT
HETATM    1  C6  UNL     1       7.834   6.314   2.983  1.00  0.00     0.011 A 
HETATM    2  C7  UNL     1       8.396   5.441   3.962  1.00  0.00     0.059 A 
HETATM    3  C18 UNL     1       7.849   5.468   5.200  1.00  0.00     0.119 A 
HETATM    4  N4  UNL     1       6.803   6.295   5.504  1.00  0.00    -0.348 N 
ATOM      5  H4  UNL     1       6.418   6.288   6.448  1.00  0.00     0.167 HD
HETATM    6  C19 UNL     1       6.277   7.112   4.586  1.00  0.00     0.132 A 
HETATM    7  N5  UNL     1       5.260   7.988   4.639  1.00  0.00    -0.285 N 
ATOM      8  H5  UNL     1       4.696   8.182   5.467  1.00  0.00     0.188 HD
HETATM    9  N6  UNL     1       5.103   8.549   3.487  1.00  0.00    -0.309 N 
ATOM     10  H6  UNL     1       4.399   9.252   3.260  1.00  0.00     0.186 HD
HETATM   11  C20 UNL     1       6.034   8.046   2.620  1.00  0.00     0.123 A 
HETATM   12  C21 UNL     1       6.785   7.134   3.308  1.00  0.00     0.036 A 
ENDROOT
BRANCH   2  13
HETATM   13  N2  UNL     1       9.437   4.604   3.590  1.00  0.00    -0.325 N 
HETATM   14  C8  UNL     1      10.725   4.607   4.123  1.00  0.00     0.226 C 
HETATM   15  O1  UNL     1      11.105   5.370   5.003  1.00  0.00    -0.273 OA
ATOM     16  H2  UNL     1       9.242   3.922   2.857  1.00  0.00     0.169 HD
BRANCH  14  17
HETATM   17  C9  UNL     1      11.750   3.616   3.606  1.00  0.00     0.147 C 
BRANCH  17  18
HETATM   18  C10 UNL     1      12.439   4.198   2.422  1.00  0.00     0.066 C 
BRANCH  18  19
HETATM   19  N3  UNL     1      12.941   5.475   2.599  1.00  0.00    -0.386 N 
ATOM     20  H3  UNL     1      12.264   6.224   2.743  1.00  0.00     0.159 HD
BRANCH  19  21
HETATM   21  C11 UNL     1      14.281   5.829   2.598  1.00  0.00     0.086 C 
HETATM   22  C12 UNL     1      15.190   4.980   1.776  1.00  0.00     0.047 C 
HETATM   23  C13 UNL     1      14.520   7.300   2.251  1.00  0.00     0.038 C 
HETATM   24  C14 UNL     1      15.396   7.976   3.280  1.00  0.00     0.003 C 
HETATM   25  C15 UNL     1      14.700   8.060   4.627  1.00  0.00     0.007 C 
HETATM   26  C16 UNL     1      14.139   6.683   4.990  1.00  0.00     0.081 C 
HETATM   27  C17 UNL     1      14.768   5.720   4.041  1.00  0.00     0.154 C 
HETATM   28  O2  UNL     1      15.602   4.901   4.362  1.00  0.00    -0.295 OA
ENDBRANCH  19  21
ENDBRANCH  18  19
ENDBRANCH  17  18
ENDBRANCH  14  17
ENDBRANCH   2  13
BRANCH   1  29
HETATM   29  C5  UNL     1       8.457   6.259   1.656  1.00  0.00     0.275 C 
BRANCH  29  30
HETATM   30  N1  UNL     1       7.603   6.108   0.542  1.00  0.00    -0.063 N 
ATOM     31  H12 UNL     1       7.748   6.845  -0.150  1.00  0.00     0.278 HD
ATOM     32  H11 UNL     1       6.632   6.311   0.777  1.00  0.00     0.278 HD
BRANCH  30  33
HETATM   33  C2  UNL     1       7.758   4.756  -0.050  1.00  0.00     0.115 C 
HETATM   34  C1  UNL     1       9.147   4.258   0.255  1.00  0.00     0.045 C 
HETATM   35  C3  UNL     1       6.739   3.866   0.584  1.00  0.00     0.045 C 
HETATM   36  C4  UNL     1       7.572   4.892  -1.528  1.00  0.00     0.045 C 
ENDBRANCH  30  33
ENDBRANCH  29  30
ENDBRANCH   1  29
TORSDOF 8
ENDMDL
