MODEL 1
REMARK VINA RESULT: -4.746209153      0.000      0.000
REMARK  2 active torsions:
REMARK  status: ('A' for Active; 'I' for Inactive)
REMARK    1  A    between atoms: O1_2  and  C2_3 
REMARK    2  A    between atoms: C9_10  and  N1_11 
ROOT
HETATM    1  C2  UNL     1      16.546  10.535  -0.567  1.00  0.00     0.151 C 
HETATM    2  C3  UNL     1      16.115   9.800   0.674  1.00  0.00     0.034 C 
HETATM    3  C4  UNL     1      15.005  10.563   1.353  1.00  0.00     0.002 C 
HETATM    4  C5  UNL     1      13.686   9.881   1.262  1.00  0.00     0.000 C 
HETATM    5  C6  UNL     1      13.167   9.779  -0.163  1.00  0.00     0.000 C 
HETATM    6  C7  UNL     1      13.291  11.036  -0.936  1.00  0.00     0.002 C 
HETATM    7  C8  UNL     1      14.504  11.271  -1.714  1.00  0.00     0.035 C 
HETATM    8  C9  UNL     1      15.570  10.244  -1.705  1.00  0.00     0.212 C 
ENDROOT
BRANCH   8   9
HETATM    9  N1  UNL     1      16.379  10.379  -2.932  1.00  0.00    -0.073 N 
ATOM     10  H13 UNL     1      17.205  10.967  -2.822  1.00  0.00     0.274 HD
ATOM     11  H12 UNL     1      16.877   9.530  -3.196  1.00  0.00     0.274 HD
ATOM     12  H11 UNL     1      15.722  10.713  -3.637  1.00  0.00     0.274 HD
ENDBRANCH   8   9
BRANCH   1  13
HETATM   13  O1  UNL     1      16.677  11.877  -0.313  1.00  0.00    -0.389 OA
HETATM   14  C1  UNL     1      17.973  12.218   0.058  1.00  0.00     0.202 C 
ENDBRANCH   1  13
TORSDOF 2
ENDMDL
MODEL 2
REMARK VINA RESULT: -4.700042366      2.244      3.296
REMARK  2 active torsions:
REMARK  status: ('A' for Active; 'I' for Inactive)
REMARK    1  A    between atoms: O1_2  and  C2_3 
REMARK    2  A    between atoms: C9_10  and  N1_11 
ROOT
HETATM    1  C2  UNL     1      15.413   9.772   1.002  1.00  0.00     0.151 C 
HETATM    2  C3  UNL     1      16.006  10.246   2.302  1.00  0.00     0.034 C 
HETATM    3  C4  UNL     1      14.981  11.051   3.061  1.00  0.00     0.002 C 
HETATM    4  C5  UNL     1      14.478  10.359   4.278  1.00  0.00     0.000 C 
HETATM    5  C6  UNL     1      13.706   9.088   3.963  1.00  0.00     0.000 C 
HETATM    6  C7  UNL     1      12.724   9.241   2.865  1.00  0.00     0.002 C 
HETATM    7  C8  UNL     1      13.148   8.965   1.495  1.00  0.00     0.035 C 
HETATM    8  C9  UNL     1      14.544   8.541   1.249  1.00  0.00     0.212 C 
ENDROOT
BRANCH   8   9
HETATM    9  N1  UNL     1      14.602   7.785  -0.017  1.00  0.00    -0.073 N 
ATOM     10  H13 UNL     1      13.937   8.104  -0.721  1.00  0.00     0.274 HD
ATOM     11  H12 UNL     1      15.443   7.959  -0.566  1.00  0.00     0.274 HD
ATOM     12  H11 UNL     1      14.479   6.811   0.260  1.00  0.00     0.274 HD
ENDBRANCH   8   9
BRANCH   1  13
HETATM   13  O1  UNL     1      14.729  10.787   0.384  1.00  0.00    -0.389 OA
HETATM   14  C1  UNL     1      15.265  11.103  -0.860  1.00  0.00     0.202 C 
ENDBRANCH   1  13
TORSDOF 2
ENDMDL
MODEL 3
REMARK VINA RESULT: -4.674187614      6.904      8.363
REMARK  2 active torsions:
REMARK  status: ('A' for Active; 'I' for Inactive)
REMARK    1  A    between atoms: O1_2  and  C2_3 
REMARK    2  A    between atoms: C9_10  and  N1_11 
ROOT
HETATM    1  C2  UNL     1      14.750   9.725   6.138  1.00  0.00     0.151 C 
HETATM    2  C3  UNL     1      14.136  10.759   7.044  1.00  0.00     0.034 C 
HETATM    3  C4  UNL     1      13.166  10.092   7.988  1.00  0.00     0.002 C 
HETATM    4  C5  UNL     1      13.645  10.067   9.397  1.00  0.00     0.000 C 
HETATM    5  C6  UNL     1      14.894   9.222   9.585  1.00  0.00     0.000 C 
HETATM    6  C7  UNL     1      14.834   7.907   8.907  1.00  0.00     0.002 C 
HETATM    7  C8  UNL     1      15.329   7.793   7.538  1.00  0.00     0.035 C 
HETATM    8  C9  UNL     1      15.873   8.998   6.872  1.00  0.00     0.212 C 
ENDROOT
BRANCH   8   9
HETATM    9  N1  UNL     1      16.803   8.578   5.806  1.00  0.00    -0.073 N 
ATOM     10  H13 UNL     1      17.099   9.337   5.191  1.00  0.00     0.274 HD
ATOM     11  H12 UNL     1      17.734   8.331   6.140  1.00  0.00     0.274 HD
ATOM     12  H11 UNL     1      16.319   7.819   5.326  1.00  0.00     0.274 HD
ENDBRANCH   8   9
BRANCH   1  13
HETATM   13  O1  UNL     1      13.789   8.870   5.661  1.00  0.00    -0.389 OA
HETATM   14  C1  UNL     1      13.585   9.019   4.293  1.00  0.00     0.202 C 
ENDBRANCH   1  13
TORSDOF 2
ENDMDL
MODEL 4
REMARK VINA RESULT: -4.619123797      7.004      8.207
REMARK  2 active torsions:
REMARK  status: ('A' for Active; 'I' for Inactive)
REMARK    1  A    between atoms: O1_2  and  C2_3 
REMARK    2  A    between atoms: C9_10  and  N1_11 
ROOT
HETATM    1  C2  UNL     1      14.912   8.514   6.460  1.00  0.00     0.151 C 
HETATM    2  C3  UNL     1      14.634   7.568   7.598  1.00  0.00     0.034 C 
HETATM    3  C4  UNL     1      15.060   8.202   8.899  1.00  0.00     0.002 C 
HETATM    4  C5  UNL     1      13.914   8.577   9.770  1.00  0.00     0.000 C 
HETATM    5  C6  UNL     1      13.039   9.663   9.167  1.00  0.00     0.000 C 
HETATM    6  C7  UNL     1      13.802  10.796   8.592  1.00  0.00     0.002 C 
HETATM    7  C8  UNL     1      14.189  10.745   7.185  1.00  0.00     0.035 C 
HETATM    8  C9  UNL     1      13.807   9.564   6.379  1.00  0.00     0.212 C 
ENDROOT
BRANCH   8   9
HETATM    9  N1  UNL     1      13.763   9.947   4.955  1.00  0.00    -0.073 N 
ATOM     10  H13 UNL     1      13.814  10.954   4.794  1.00  0.00     0.274 HD
ATOM     11  H12 UNL     1      14.605   9.705   4.433  1.00  0.00     0.274 HD
ATOM     12  H11 UNL     1      12.913   9.512   4.598  1.00  0.00     0.274 HD
ENDBRANCH   8   9
BRANCH   1  13
HETATM   13  O1  UNL     1      16.161   9.068   6.588  1.00  0.00    -0.389 OA
HETATM   14  C1  UNL     1      16.939   8.879   5.452  1.00  0.00     0.202 C 
ENDBRANCH   1  13
TORSDOF 2
ENDMDL
MODEL 5
REMARK VINA RESULT: -4.616746400      2.131      3.809
REMARK  2 active torsions:
REMARK  status: ('A' for Active; 'I' for Inactive)
REMARK    1  A    between atoms: O1_2  and  C2_3 
REMARK    2  A    between atoms: C9_10  and  N1_11 
ROOT
HETATM    1  C2  UNL     1      13.788   9.666   0.684  1.00  0.00     0.151 C 
HETATM    2  C3  UNL     1      13.264   9.731  -0.726  1.00  0.00     0.034 C 
HETATM    3  C4  UNL     1      13.669  11.040  -1.356  1.00  0.00     0.002 C 
HETATM    4  C5  UNL     1      14.694  10.883  -2.423  1.00  0.00     0.000 C 
HETATM    5  C6  UNL     1      16.023  10.365  -1.899  1.00  0.00     0.000 C 
HETATM    6  C7  UNL     1      16.484  11.043  -0.665  1.00  0.00     0.002 C 
HETATM    7  C8  UNL     1      16.100  10.490   0.631  1.00  0.00     0.035 C 
HETATM    8  C9  UNL     1      15.262   9.270   0.669  1.00  0.00     0.212 C 
ENDROOT
BRANCH   8   9
HETATM    9  N1  UNL     1      15.475   8.580   1.955  1.00  0.00    -0.073 N 
ATOM     10  H13 UNL     1      15.921   7.667   1.868  1.00  0.00     0.274 HD
ATOM     11  H12 UNL     1      16.195   9.004   2.540  1.00  0.00     0.274 HD
ATOM     12  H11 UNL     1      14.552   8.552   2.388  1.00  0.00     0.274 HD
ENDBRANCH   8   9
BRANCH   1  13
HETATM   13  O1  UNL     1      13.566  10.851   1.337  1.00  0.00    -0.389 OA
HETATM   14  C1  UNL     1      12.624  10.724   2.352  1.00  0.00     0.202 C 
ENDBRANCH   1  13
TORSDOF 2
ENDMDL
