MODEL 1
REMARK VINA RESULT: -7.630974799      0.000      0.000
REMARK  4 active torsions:
REMARK  status: ('A' for Active; 'I' for Inactive)
REMARK    1  A    between atoms: C2_2  and  O1_3 
REMARK    2  A    between atoms: C2_2  and  C3_5 
REMARK    3  A    between atoms: C4_6  and  N1_7 
REMARK    4  A    between atoms: C5_12  and  C6_13 
ROOT
HETATM    1  C3  UNL     1      15.211  10.193   1.067  1.00  0.00     0.050 C 
HETATM    2  C4  UNL     1      16.058  10.479   0.067  1.00  0.00     0.181 C 
HETATM    3  N2  UNL     1      15.565  10.293  -1.298  1.00  0.00    -0.356 N 
ATOM      4  H2  UNL     1      16.096   9.766  -1.991  1.00  0.00     0.162 HD
HETATM    5  C5  UNL     1      14.289  10.891  -1.617  1.00  0.00     0.187 C 
HETATM    6  C7  UNL     1      13.330  10.769  -0.438  1.00  0.00     0.074 C 
HETATM    7  C8  UNL     1      13.910   9.699   0.523  1.00  0.00     0.084 C 
HETATM    8  C9  UNL     1      12.915   9.161   1.431  1.00  0.00     0.059 C 
HETATM    9  C10 UNL     1      13.215   7.695   1.776  1.00  0.00     0.143 C 
HETATM   10  N3  UNL     1      14.426   7.223   1.154  1.00  0.00    -0.322 N 
ATOM     11  H3  UNL     1      15.032   6.593   1.678  1.00  0.00     0.181 HD
HETATM   12  N4  UNL     1      14.753   7.549   0.024  1.00  0.00    -0.251 N 
ATOM     13  H4  UNL     1      15.412   6.995  -0.524  1.00  0.00     0.207 HD
HETATM   14  N5  UNL     1      14.241   8.595  -0.428  1.00  0.00    -0.307 N 
ATOM     15  H5  UNL     1      14.053   8.694  -1.425  1.00  0.00     0.183 HD
ENDROOT
BRANCH   1  16
HETATM   16  C2  UNL     1      15.550  10.335   2.446  1.00  0.00     0.052 C 
HETATM   17  C1  UNL     1      15.350  11.410   3.403  1.00  0.00     0.076 C 
BRANCH  16  18
HETATM   18  O1  UNL     1      16.159   9.307   2.973  1.00  0.00    -0.365 OA
ATOM     19  H1  UNL     1      17.092   9.453   3.074  1.00  0.00     0.217 HD
ENDBRANCH  16  18
ENDBRANCH   1  16
BRANCH   2  20
HETATM   20  N1  UNL     1      17.350  10.940   0.278  1.00  0.00    -0.098 N 
HETATM   21  O2  UNL     1      17.682  12.198  -0.099  1.00  0.00    -0.531 OA
HETATM   22  O3  UNL     1      18.276  10.194   0.896  1.00  0.00    -0.531 OA
ENDBRANCH   2  20
BRANCH   5  23
HETATM   23  C6  UNL     1      13.706  10.226  -2.834  1.00  0.00     0.196 C 
HETATM   24  O4  UNL     1      14.331  10.154  -3.922  1.00  0.00    -0.646 OA
HETATM   25  O5  UNL     1      12.441   9.660  -2.794  1.00  0.00    -0.646 OA
ENDBRANCH   5  23
TORSDOF 4
ENDMDL
MODEL 2
REMARK VINA RESULT: -7.306952868      3.650      6.102
REMARK  4 active torsions:
REMARK  status: ('A' for Active; 'I' for Inactive)
REMARK    1  A    between atoms: C2_2  and  O1_3 
REMARK    2  A    between atoms: C2_2  and  C3_5 
REMARK    3  A    between atoms: C4_6  and  N1_7 
REMARK    4  A    between atoms: C5_12  and  C6_13 
ROOT
HETATM    1  C3  UNL     1      17.785  10.521   1.645  1.00  0.00     0.050 C 
HETATM    2  C4  UNL     1      18.747  11.360   1.232  1.00  0.00     0.181 C 
HETATM    3  N2  UNL     1      20.015  11.332   1.963  1.00  0.00    -0.356 N 
ATOM      4  H2  UNL     1      20.451  12.187   2.309  1.00  0.00     0.162 HD
HETATM    5  C5  UNL     1      20.620  10.036   2.170  1.00  0.00     0.187 C 
HETATM    6  C7  UNL     1      19.551   8.987   2.458  1.00  0.00     0.074 C 
HETATM    7  C8  UNL     1      18.249   9.741   2.832  1.00  0.00     0.084 C 
HETATM    8  C9  UNL     1      17.304   8.907   3.552  1.00  0.00     0.059 C 
HETATM    9  C10 UNL     1      16.477   9.737   4.545  1.00  0.00     0.143 C 
HETATM   10  N3  UNL     1      16.806  11.139   4.493  1.00  0.00    -0.322 N 
ATOM     11  H3  UNL     1      16.056  11.822   4.593  1.00  0.00     0.181 HD
HETATM   12  N4  UNL     1      17.948  11.540   4.334  1.00  0.00    -0.251 N 
ATOM     13  H4  UNL     1      18.227  12.484   4.605  1.00  0.00     0.207 HD
HETATM   14  N5  UNL     1      18.757  10.738   3.822  1.00  0.00    -0.307 N 
ATOM     15  H5  UNL     1      19.745  10.763   4.075  1.00  0.00     0.183 HD
ENDROOT
BRANCH   1  16
HETATM   16  C2  UNL     1      16.503  10.432   1.025  1.00  0.00     0.052 C 
HETATM   17  C1  UNL     1      16.027   9.729  -0.155  1.00  0.00     0.076 C 
BRANCH  16  18
HETATM   18  O1  UNL     1      15.554  11.105   1.619  1.00  0.00    -0.365 OA
ATOM     19  H1  UNL     1      14.714  10.666   1.567  1.00  0.00     0.217 HD
ENDBRANCH  16  18
ENDBRANCH   1  16
BRANCH   2  20
HETATM   20  N1  UNL     1      18.587  12.224   0.158  1.00  0.00    -0.098 N 
HETATM   21  O2  UNL     1      18.349  13.538   0.387  1.00  0.00    -0.531 OA
HETATM   22  O3  UNL     1      18.711  11.809  -1.110  1.00  0.00    -0.531 OA
ENDBRANCH   2  20
BRANCH   5  23
HETATM   23  C6  UNL     1      21.600  10.110   3.308  1.00  0.00     0.196 C 
HETATM   24  O4  UNL     1      21.300   9.749   4.474  1.00  0.00    -0.646 OA
HETATM   25  O5  UNL     1      22.887  10.584   3.104  1.00  0.00    -0.646 OA
ENDBRANCH   5  23
TORSDOF 4
ENDMDL
MODEL 3
REMARK VINA RESULT: -7.160362271      2.280      3.057
REMARK  4 active torsions:
REMARK  status: ('A' for Active; 'I' for Inactive)
REMARK    1  A    between atoms: C2_2  and  O1_3 
REMARK    2  A    between atoms: C2_2  and  C3_5 
REMARK    3  A    between atoms: C4_6  and  N1_7 
REMARK    4  A    between atoms: C5_12  and  C6_13 
ROOT
HETATM    1  C3  UNL     1      16.580  11.023   2.475  1.00  0.00     0.050 C 
HETATM    2  C4  UNL     1      17.076  10.793   1.250  1.00  0.00     0.181 C 
HETATM    3  N2  UNL     1      16.448   9.730   0.464  1.00  0.00    -0.356 N 
ATOM      4  H2  UNL     1      17.001   9.000   0.014  1.00  0.00     0.162 HD
HETATM    5  C5  UNL     1      15.008   9.765   0.355  1.00  0.00     0.187 C 
HETATM    6  C7  UNL     1      14.382  10.209   1.673  1.00  0.00     0.074 C 
HETATM    7  C8  UNL     1      15.467  10.071   2.772  1.00  0.00     0.084 C 
HETATM    8  C9  UNL     1      14.908  10.022   4.110  1.00  0.00     0.059 C 
HETATM    9  C10 UNL     1      15.768   9.152   5.039  1.00  0.00     0.143 C 
HETATM   10  N3  UNL     1      16.936   8.633   4.374  1.00  0.00    -0.322 N 
ATOM     11  H3  UNL     1      17.811   8.575   4.896  1.00  0.00     0.181 HD
HETATM   12  N4  UNL     1      16.920   8.260   3.212  1.00  0.00    -0.251 N 
ATOM     13  H4  UNL     1      17.625   7.621   2.844  1.00  0.00     0.207 HD
HETATM   14  N5  UNL     1      15.996   8.701   2.496  1.00  0.00    -0.307 N 
ATOM     15  H5  UNL     1      15.611   8.138   1.738  1.00  0.00     0.183 HD
ENDROOT
BRANCH   1  16
HETATM   16  C2  UNL     1      17.084  12.030   3.349  1.00  0.00     0.052 C 
HETATM   17  C1  UNL     1      16.770  13.440   3.513  1.00  0.00     0.076 C 
BRANCH  16  18
HETATM   18  O1  UNL     1      18.013  11.630   4.176  1.00  0.00    -0.365 OA
ATOM     19  H1  UNL     1      18.630  11.037   3.765  1.00  0.00     0.217 HD
ENDBRANCH  16  18
ENDBRANCH   1  16
BRANCH   2  20
HETATM   20  N1  UNL     1      18.133  11.516   0.715  1.00  0.00    -0.098 N 
HETATM   21  O2  UNL     1      19.399  11.056   0.858  1.00  0.00    -0.531 OA
HETATM   22  O3  UNL     1      17.939  12.639   0.010  1.00  0.00    -0.531 OA
ENDBRANCH   2  20
BRANCH   5  23
HETATM   23  C6  UNL     1      14.495   8.405  -0.034  1.00  0.00     0.196 C 
HETATM   24  O4  UNL     1      14.627   7.948  -1.196  1.00  0.00    -0.646 OA
HETATM   25  O5  UNL     1      13.852   7.600   0.894  1.00  0.00    -0.646 OA
ENDBRANCH   5  23
TORSDOF 4
ENDMDL
MODEL 4
REMARK VINA RESULT: -7.024974806      2.451      4.694
REMARK  4 active torsions:
REMARK  status: ('A' for Active; 'I' for Inactive)
REMARK    1  A    between atoms: C2_2  and  O1_3 
REMARK    2  A    between atoms: C2_2  and  C3_5 
REMARK    3  A    between atoms: C4_6  and  N1_7 
REMARK    4  A    between atoms: C5_12  and  C6_13 
ROOT
HETATM    1  C3  UNL     1      15.163   9.291   1.764  1.00  0.00     0.050 C 
HETATM    2  C4  UNL     1      15.341  10.044   0.668  1.00  0.00     0.181 C 
HETATM    3  N2  UNL     1      16.372  11.080   0.730  1.00  0.00    -0.356 N 
ATOM      4  H2  UNL     1      16.179  12.043   0.455  1.00  0.00     0.162 HD
HETATM    5  C5  UNL     1      17.677  10.674   1.200  1.00  0.00     0.187 C 
HETATM    6  C7  UNL     1      17.546   9.660   2.332  1.00  0.00     0.074 C 
HETATM    7  C8  UNL     1      16.087   9.731   2.852  1.00  0.00     0.084 C 
HETATM    8  C9  UNL     1      15.938   9.174   4.184  1.00  0.00     0.059 C 
HETATM    9  C10 UNL     1      14.831   9.895   4.966  1.00  0.00     0.143 C 
HETATM   10  N3  UNL     1      14.183  10.915   4.182  1.00  0.00    -0.322 N 
ATOM     11  H3  UNL     1      13.176  11.045   4.283  1.00  0.00     0.181 HD
HETATM   12  N4  UNL     1      14.792  11.630   3.402  1.00  0.00    -0.251 N 
ATOM     13  H4  UNL     1      14.418  12.528   3.094  1.00  0.00     0.207 HD
HETATM   14  N5  UNL     1      15.896  11.206   2.999  1.00  0.00    -0.307 N 
ATOM     15  H5  UNL     1      16.652  11.853   2.776  1.00  0.00     0.183 HD
ENDROOT
BRANCH   1  16
HETATM   16  C2  UNL     1      14.203   8.240   1.846  1.00  0.00     0.052 C 
HETATM   17  C1  UNL     1      12.831   8.194   2.324  1.00  0.00     0.076 C 
BRANCH  16  18
HETATM   18  O1  UNL     1      14.615   7.079   1.410  1.00  0.00    -0.365 OA
ATOM     19  H1  UNL     1      15.364   6.757   1.897  1.00  0.00     0.217 HD
ENDBRANCH  16  18
ENDBRANCH   1  16
BRANCH   2  20
HETATM   20  N1  UNL     1      14.602   9.872  -0.495  1.00  0.00    -0.098 N 
HETATM   21  O2  UNL     1      14.879   8.831  -1.316  1.00  0.00    -0.531 OA
HETATM   22  O3  UNL     1      13.581  10.680  -0.811  1.00  0.00    -0.531 OA
ENDBRANCH   2  20
BRANCH   5  23
HETATM   23  C6  UNL     1      18.447  11.879   1.666  1.00  0.00     0.196 C 
HETATM   24  O4  UNL     1      17.884  12.970   1.935  1.00  0.00    -0.646 OA
HETATM   25  O5  UNL     1      19.824  11.823   1.816  1.00  0.00    -0.646 OA
ENDBRANCH   5  23
TORSDOF 4
ENDMDL
MODEL 5
REMARK VINA RESULT: -6.982827344      2.635      5.689
REMARK  4 active torsions:
REMARK  status: ('A' for Active; 'I' for Inactive)
REMARK    1  A    between atoms: C2_2  and  O1_3 
REMARK    2  A    between atoms: C2_2  and  C3_5 
REMARK    3  A    between atoms: C4_6  and  N1_7 
REMARK    4  A    between atoms: C5_12  and  C6_13 
ROOT
HETATM    1  C3  UNL     1      15.349   9.858   1.676  1.00  0.00     0.050 C 
HETATM    2  C4  UNL     1      14.542   9.016   2.339  1.00  0.00     0.181 C 
HETATM    3  N2  UNL     1      14.614   9.034   3.800  1.00  0.00    -0.356 N 
ATOM      4  H2  UNL     1      14.724   8.176   4.341  1.00  0.00     0.162 HD
HETATM    5  C5  UNL     1      14.523  10.326   4.441  1.00  0.00     0.187 C 
HETATM    6  C7  UNL     1      15.267  11.380   3.628  1.00  0.00     0.074 C 
HETATM    7  C8  UNL     1      16.193  10.632   2.635  1.00  0.00     0.084 C 
HETATM    8  C9  UNL     1      17.265  11.469   2.127  1.00  0.00     0.059 C 
HETATM    9  C10 UNL     1      18.525  10.640   1.839  1.00  0.00     0.143 C 
HETATM   10  N3  UNL     1      18.329   9.237   2.099  1.00  0.00    -0.322 N 
ATOM     11  H3  UNL     1      18.760   8.558   1.472  1.00  0.00     0.181 HD
HETATM   12  N4  UNL     1      17.667   8.830   3.041  1.00  0.00    -0.251 N 
ATOM     13  H4  UNL     1      17.780   7.885   3.407  1.00  0.00     0.207 HD
HETATM   14  N5  UNL     1      16.843   9.630   3.532  1.00  0.00    -0.307 N 
ATOM     15  H5  UNL     1      16.618   9.599   4.527  1.00  0.00     0.183 HD
ENDROOT
BRANCH   1  16
HETATM   16  C2  UNL     1      15.381   9.956   0.253  1.00  0.00     0.052 C 
HETATM   17  C1  UNL     1      14.551  10.669  -0.703  1.00  0.00     0.076 C 
BRANCH  16  18
HETATM   18  O1  UNL     1      16.337   9.281  -0.325  1.00  0.00    -0.365 OA
ATOM     19  H1  UNL     1      17.199   9.552  -0.032  1.00  0.00     0.217 HD
ENDBRANCH  16  18
ENDBRANCH   1  16
BRANCH   2  20
HETATM   20  N1  UNL     1      13.659   8.155   1.702  1.00  0.00    -0.098 N 
HETATM   21  O2  UNL     1      12.380   8.546   1.486  1.00  0.00    -0.531 OA
HETATM   22  O3  UNL     1      14.046   6.958   1.241  1.00  0.00    -0.531 OA
ENDBRANCH   2  20
BRANCH   5  23
HETATM   23  C6  UNL     1      15.090  10.244   5.832  1.00  0.00     0.196 C 
HETATM   24  O4  UNL     1      14.515  10.765   6.821  1.00  0.00    -0.646 OA
HETATM   25  O5  UNL     1      16.283   9.580   6.072  1.00  0.00    -0.646 OA
ENDBRANCH   5  23
TORSDOF 4
ENDMDL
