MODEL 1
REMARK VINA RESULT: -7.280491564      0.000      0.000
REMARK  6 active torsions:
REMARK  status: ('A' for Active; 'I' for Inactive)
REMARK    1  A    between atoms: C2_2  and  C3_3 
REMARK    2  A    between atoms: C3_3  and  C4_4 
REMARK    3  A    between atoms: C4_4  and  N1_5 
REMARK    4  A    between atoms: C11_14  and  O1_15 
REMARK    5  A    between atoms: O1_15  and  C12_16 
REMARK    6  A    between atoms: C12_16  and  C13_17 
ROOT
HETATM    1  N1  UNL     1       6.341  48.565  48.435  1.00  0.00    -0.392 N 
ATOM      2  H1  UNL     1       5.794  47.748  48.162  1.00  0.00     0.159 HD
HETATM    3  C5  UNL     1       5.896  49.270  49.443  1.00  0.00     0.016 C 
HETATM    4  C6  UNL     1       6.730  50.419  49.773  1.00  0.00     0.057 C 
HETATM    5  C7  UNL     1       6.228  51.380  50.775  1.00  0.00     0.006 C 
HETATM    6  C8  UNL     1       5.485  50.824  51.937  1.00  0.00     0.006 C 
HETATM    7  C9  UNL     1       4.010  50.775  51.511  1.00  0.00     0.047 C 
HETATM    8  C10 UNL     1       3.872  49.419  50.890  1.00  0.00    -0.003 A 
HETATM    9  S1  UNL     1       2.562  48.357  51.222  1.00  0.00    -0.069 SA
HETATM   10  C11 UNL     1       3.026  47.055  50.227  1.00  0.00     0.111 A 
HETATM   11  C14 UNL     1       4.194  47.486  49.662  1.00  0.00     0.058 A 
HETATM   12  C15 UNL     1       4.636  48.706  50.000  1.00  0.00     0.002 A 
ENDROOT
BRANCH   1  13
HETATM   13  C4  UNL     1       7.517  48.835  47.686  1.00  0.00     0.123 C 
BRANCH  13  14
HETATM   14  C3  UNL     1       7.361  48.271  46.270  1.00  0.00     0.046 C 
BRANCH  14  15
HETATM   15  C2  UNL     1       7.042  46.824  46.329  1.00  0.00    -0.035 C 
HETATM   16  C1  UNL     1       5.838  46.406  46.003  1.00  0.00     0.007 C 
ENDBRANCH  14  15
ENDBRANCH  13  14
ENDBRANCH   1  13
BRANCH  10  17
HETATM   17  O1  UNL     1       2.342  45.855  50.062  1.00  0.00    -0.334 OA
BRANCH  17  18
HETATM   18  C12 UNL     1       1.189  45.759  49.231  1.00  0.00     0.289 C 
BRANCH  18  19
HETATM   19  C13 UNL     1       1.537  45.443  47.841  1.00  0.00     0.198 C 
HETATM   20  O2  UNL     1       0.668  45.406  46.951  1.00  0.00    -0.646 OA
HETATM   21  O3  UNL     1       2.850  45.179  47.505  1.00  0.00    -0.646 OA
ENDBRANCH  18  19
ENDBRANCH  17  18
ENDBRANCH  10  17
TORSDOF 6
ENDMDL
MODEL 2
REMARK VINA RESULT: -7.191878718      2.589      5.246
REMARK  6 active torsions:
REMARK  status: ('A' for Active; 'I' for Inactive)
REMARK    1  A    between atoms: C2_2  and  C3_3 
REMARK    2  A    between atoms: C3_3  and  C4_4 
REMARK    3  A    between atoms: C4_4  and  N1_5 
REMARK    4  A    between atoms: C11_14  and  O1_15 
REMARK    5  A    between atoms: O1_15  and  C12_16 
REMARK    6  A    between atoms: C12_16  and  C13_17 
ROOT
HETATM    1  N1  UNL     1       3.876  48.982  50.236  1.00  0.00    -0.392 N 
ATOM      2  H1  UNL     1       4.530  49.037  49.455  1.00  0.00     0.159 HD
HETATM    3  C5  UNL     1       2.991  48.019  50.204  1.00  0.00     0.016 C 
HETATM    4  C6  UNL     1       2.093  48.005  51.353  1.00  0.00     0.057 C 
HETATM    5  C7  UNL     1       0.948  47.075  51.332  1.00  0.00     0.006 C 
HETATM    6  C8  UNL     1       1.173  45.734  50.730  1.00  0.00     0.006 C 
HETATM    7  C9  UNL     1       0.848  45.881  49.236  1.00  0.00     0.047 C 
HETATM    8  C10 UNL     1       2.162  46.273  48.632  1.00  0.00    -0.003 A 
HETATM    9  S1  UNL     1       2.787  45.570  47.193  1.00  0.00    -0.069 SA
HETATM   10  C11 UNL     1       4.247  46.439  47.093  1.00  0.00     0.111 A 
HETATM   11  C14 UNL     1       4.208  47.256  48.189  1.00  0.00     0.058 A 
HETATM   12  C15 UNL     1       3.133  47.175  48.987  1.00  0.00     0.002 A 
ENDROOT
BRANCH   1  13
HETATM   13  C4  UNL     1       4.008  49.957  51.260  1.00  0.00     0.123 C 
BRANCH  13  14
HETATM   14  C3  UNL     1       5.488  50.315  51.435  1.00  0.00     0.046 C 
BRANCH  14  15
HETATM   15  C2  UNL     1       6.325  49.476  50.544  1.00  0.00    -0.035 C 
HETATM   16  C1  UNL     1       7.148  50.047  49.690  1.00  0.00     0.007 C 
ENDBRANCH  14  15
ENDBRANCH  13  14
ENDBRANCH   1  13
BRANCH  10  17
HETATM   17  O1  UNL     1       5.221  46.311  46.107  1.00  0.00    -0.334 OA
BRANCH  17  18
HETATM   18  C12 UNL     1       6.574  46.689  46.338  1.00  0.00     0.289 C 
BRANCH  18  19
HETATM   19  C13 UNL     1       6.856  48.048  45.861  1.00  0.00     0.198 C 
HETATM   20  O2  UNL     1       7.859  48.673  46.251  1.00  0.00    -0.646 OA
HETATM   21  O3  UNL     1       5.999  48.652  44.963  1.00  0.00    -0.646 OA
ENDBRANCH  18  19
ENDBRANCH  17  18
ENDBRANCH  10  17
TORSDOF 6
ENDMDL
MODEL 3
REMARK VINA RESULT: -7.176139341      1.630      4.342
REMARK  6 active torsions:
REMARK  status: ('A' for Active; 'I' for Inactive)
REMARK    1  A    between atoms: C2_2  and  C3_3 
REMARK    2  A    between atoms: C3_3  and  C4_4 
REMARK    3  A    between atoms: C4_4  and  N1_5 
REMARK    4  A    between atoms: C11_14  and  O1_15 
REMARK    5  A    between atoms: O1_15  and  C12_16 
REMARK    6  A    between atoms: C12_16  and  C13_17 
ROOT
HETATM    1  N1  UNL     1       6.041  49.485  49.567  1.00  0.00    -0.392 N 
ATOM      2  H1  UNL     1       5.260  49.293  50.194  1.00  0.00     0.159 HD
HETATM    3  C5  UNL     1       6.075  48.826  48.437  1.00  0.00     0.016 C 
HETATM    4  C6  UNL     1       7.219  49.156  47.596  1.00  0.00     0.057 C 
HETATM    5  C7  UNL     1       7.450  48.345  46.385  1.00  0.00     0.006 C 
HETATM    6  C8  UNL     1       6.251  47.904  45.623  1.00  0.00     0.006 C 
HETATM    7  C9  UNL     1       5.838  46.554  46.228  1.00  0.00     0.047 C 
HETATM    8  C10 UNL     1       4.890  46.939  47.322  1.00  0.00    -0.003 A 
HETATM    9  S1  UNL     1       3.385  46.153  47.586  1.00  0.00    -0.069 SA
HETATM   10  C11 UNL     1       2.849  47.062  48.923  1.00  0.00     0.111 A 
HETATM   11  C14 UNL     1       3.862  47.957  49.126  1.00  0.00     0.058 A 
HETATM   12  C15 UNL     1       4.919  47.898  48.303  1.00  0.00     0.002 A 
ENDROOT
BRANCH   1  13
HETATM   13  C4  UNL     1       6.994  50.446  49.998  1.00  0.00     0.123 C 
BRANCH  13  14
HETATM   14  C3  UNL     1       6.283  51.558  50.776  1.00  0.00     0.046 C 
BRANCH  14  15
HETATM   15  C2  UNL     1       5.399  50.970  51.812  1.00  0.00    -0.035 C 
HETATM   16  C1  UNL     1       5.064  51.681  52.867  1.00  0.00     0.007 C 
ENDBRANCH  14  15
ENDBRANCH  13  14
ENDBRANCH   1  13
BRANCH  10  17
HETATM   17  O1  UNL     1       1.652  46.893  49.612  1.00  0.00    -0.334 OA
BRANCH  17  18
HETATM   18  C12 UNL     1       1.284  45.639  50.176  1.00  0.00     0.289 C 
BRANCH  18  19
HETATM   19  C13 UNL     1       0.142  45.035  49.478  1.00  0.00     0.198 C 
HETATM   20  O2  UNL     1      -0.775  44.476  50.107  1.00  0.00    -0.646 OA
HETATM   21  O3  UNL     1       0.077  45.082  48.100  1.00  0.00    -0.646 OA
ENDBRANCH  18  19
ENDBRANCH  17  18
ENDBRANCH  10  17
TORSDOF 6
ENDMDL
MODEL 4
REMARK VINA RESULT: -7.170159072      1.789      4.147
REMARK  6 active torsions:
REMARK  status: ('A' for Active; 'I' for Inactive)
REMARK    1  A    between atoms: C2_2  and  C3_3 
REMARK    2  A    between atoms: C3_3  and  C4_4 
REMARK    3  A    between atoms: C4_4  and  N1_5 
REMARK    4  A    between atoms: C11_14  and  O1_15 
REMARK    5  A    between atoms: O1_15  and  C12_16 
REMARK    6  A    between atoms: C12_16  and  C13_17 
ROOT
HETATM    1  N1  UNL     1       6.184  49.294  49.556  1.00  0.00    -0.392 N 
ATOM      2  H1  UNL     1       5.427  49.110  50.215  1.00  0.00     0.159 HD
HETATM    3  C5  UNL     1       6.141  48.668  48.408  1.00  0.00     0.016 C 
HETATM    4  C6  UNL     1       7.254  48.984  47.522  1.00  0.00     0.057 C 
HETATM    5  C7  UNL     1       7.399  48.202  46.279  1.00  0.00     0.006 C 
HETATM    6  C8  UNL     1       6.150  47.826  45.564  1.00  0.00     0.006 C 
HETATM    7  C9  UNL     1       5.719  46.473  46.150  1.00  0.00     0.047 C 
HETATM    8  C10 UNL     1       4.838  46.857  47.298  1.00  0.00    -0.003 A 
HETATM    9  S1  UNL     1       3.320  46.115  47.613  1.00  0.00    -0.069 SA
HETATM   10  C11 UNL     1       2.881  47.002  49.000  1.00  0.00     0.111 A 
HETATM   11  C14 UNL     1       3.934  47.855  49.179  1.00  0.00     0.058 A 
HETATM   12  C15 UNL     1       4.947  47.785  48.304  1.00  0.00     0.002 A 
ENDROOT
BRANCH   1  13
HETATM   13  C4  UNL     1       7.190  50.208  49.968  1.00  0.00     0.123 C 
BRANCH  13  14
HETATM   14  C3  UNL     1       6.536  51.522  50.411  1.00  0.00     0.046 C 
BRANCH  14  15
HETATM   15  C2  UNL     1       6.094  52.296  49.227  1.00  0.00    -0.035 C 
HETATM   16  C1  UNL     1       4.877  52.796  49.189  1.00  0.00     0.007 C 
ENDBRANCH  14  15
ENDBRANCH  13  14
ENDBRANCH   1  13
BRANCH  10  17
HETATM   17  O1  UNL     1       1.713  46.853  49.741  1.00  0.00    -0.334 OA
BRANCH  17  18
HETATM   18  C12 UNL     1       1.321  45.593  50.276  1.00  0.00     0.289 C 
BRANCH  18  19
HETATM   19  C13 UNL     1       0.134  45.053  49.602  1.00  0.00     0.198 C 
HETATM   20  O2  UNL     1      -0.829  44.608  50.252  1.00  0.00    -0.646 OA
HETATM   21  O3  UNL     1       0.077  45.034  48.223  1.00  0.00    -0.646 OA
ENDBRANCH  18  19
ENDBRANCH  17  18
ENDBRANCH  10  17
TORSDOF 6
ENDMDL
MODEL 5
REMARK VINA RESULT: -7.169002795      0.931      1.170
REMARK  6 active torsions:
REMARK  status: ('A' for Active; 'I' for Inactive)
REMARK    1  A    between atoms: C2_2  and  C3_3 
REMARK    2  A    between atoms: C3_3  and  C4_4 
REMARK    3  A    between atoms: C4_4  and  N1_5 
REMARK    4  A    between atoms: C11_14  and  O1_15 
REMARK    5  A    between atoms: O1_15  and  C12_16 
REMARK    6  A    between atoms: C12_16  and  C13_17 
ROOT
HETATM    1  N1  UNL     1       5.845  49.163  47.525  1.00  0.00    -0.392 N 
ATOM      2  H1  UNL     1       5.087  48.599  47.138  1.00  0.00     0.159 HD
HETATM    3  C5  UNL     1       5.661  49.669  48.717  1.00  0.00     0.016 C 
HETATM    4  C6  UNL     1       6.786  50.460  49.202  1.00  0.00     0.057 C 
HETATM    5  C7  UNL     1       6.614  51.221  50.454  1.00  0.00     0.006 C 
HETATM    6  C8  UNL     1       5.821  50.580  51.536  1.00  0.00     0.006 C 
HETATM    7  C9  UNL     1       4.363  50.999  51.295  1.00  0.00     0.047 C 
HETATM    8  C10 UNL     1       3.837  49.922  50.396  1.00  0.00    -0.003 A 
HETATM    9  S1  UNL     1       2.315  49.157  50.628  1.00  0.00    -0.069 SA
HETATM   10  C11 UNL     1       2.361  48.083  49.307  1.00  0.00     0.111 A 
HETATM   11  C14 UNL     1       3.566  48.352  48.720  1.00  0.00     0.058 A 
HETATM   12  C15 UNL     1       4.333  49.300  49.277  1.00  0.00     0.002 A 
ENDROOT
BRANCH   1  13
HETATM   13  C4  UNL     1       7.005  49.326  46.722  1.00  0.00     0.123 C 
BRANCH  13  14
HETATM   14  C3  UNL     1       7.254  48.045  45.918  1.00  0.00     0.046 C 
BRANCH  14  15
HETATM   15  C2  UNL     1       6.591  46.893  46.576  1.00  0.00    -0.035 C 
HETATM   16  C1  UNL     1       5.720  46.168  45.906  1.00  0.00     0.007 C 
ENDBRANCH  14  15
ENDBRANCH  13  14
ENDBRANCH   1  13
BRANCH  10  17
HETATM   17  O1  UNL     1       1.376  47.167  48.952  1.00  0.00    -0.334 OA
BRANCH  17  18
HETATM   18  C12 UNL     1       1.664  45.780  48.802  1.00  0.00     0.289 C 
BRANCH  18  19
HETATM   19  C13 UNL     1       1.732  45.381  47.391  1.00  0.00     0.198 C 
HETATM   20  O2  UNL     1       2.782  44.929  46.899  1.00  0.00    -0.646 OA
HETATM   21  O3  UNL     1       0.616  45.505  46.588  1.00  0.00    -0.646 OA
ENDBRANCH  18  19
ENDBRANCH  17  18
ENDBRANCH  10  17
TORSDOF 6
ENDMDL
