MODEL 1
REMARK VINA RESULT: -6.393074178      0.000      0.000
REMARK  4 active torsions:
REMARK  status: ('A' for Active; 'I' for Inactive)
REMARK    1  A    between atoms: C2_2  and  C3_3 
REMARK    2  A    between atoms: C3_3  and  O1_4 
REMARK    3  A    between atoms: C3_3  and  C4_6 
REMARK    4  A    between atoms: C6_13  and  N3_14 
ROOT
HETATM    1  C4  UNL     1       1.853  16.586  17.771  1.00  0.00     0.112 A 
HETATM    2  N1  UNL     1       1.659  17.118  18.978  1.00  0.00    -0.294 N 
ATOM      3  H1  UNL     1       1.931  18.061  19.258  1.00  0.00     0.187 HD
HETATM    4  N2  UNL     1       1.050  16.219  19.766  1.00  0.00    -0.277 N 
ATOM      5  H2  UNL     1       0.786  16.374  20.739  1.00  0.00     0.189 HD
HETATM    6  C5  UNL     1       0.840  15.091  19.084  1.00  0.00     0.195 A 
HETATM    7  O2  UNL     1       0.357  13.856  19.100  1.00  0.00    -0.258 OA
HETATM    8  C6  UNL     1       0.513  13.271  17.943  1.00  0.00     0.224 A 
HETATM    9  N4  UNL     1       1.122  14.149  17.130  1.00  0.00    -0.317 N 
ATOM     10  H4  UNL     1       1.383  13.988  16.157  1.00  0.00     0.169 HD
HETATM   11  C7  UNL     1       1.327  15.280  17.834  1.00  0.00     0.119 A 
ENDROOT
BRANCH   1  12
HETATM   12  C3  UNL     1       2.457  17.116  16.563  1.00  0.00     0.095 C 
BRANCH  12  13
HETATM   13  C2  UNL     1       3.179  18.320  16.391  1.00  0.00     0.028 C 
HETATM   14  C1  UNL     1       3.431  19.027  15.350  1.00  0.00     0.014 C 
ENDBRANCH  12  13
BRANCH  12  15
HETATM   15  O1  UNL     1       2.311  16.374  15.496  1.00  0.00    -0.358 OA
ATOM     16  H1  UNL     1       1.839  15.558  15.616  1.00  0.00     0.217 HD
ENDBRANCH  12  15
ENDBRANCH   1  12
BRANCH   8  17
HETATM   17  N3  UNL     1       0.162  12.064  17.595  1.00  0.00    -0.365 N 
ATOM     18  H32 UNL     1      -0.721  11.828  17.142  1.00  0.00     0.159 HD
ATOM     19  H31 UNL     1       0.685  11.196  17.712  1.00  0.00     0.159 HD
ENDBRANCH   8  17
TORSDOF 4
ENDMDL
MODEL 2
REMARK VINA RESULT: -6.317380226      2.303      4.518
REMARK  4 active torsions:
REMARK  status: ('A' for Active; 'I' for Inactive)
REMARK    1  A    between atoms: C2_2  and  C3_3 
REMARK    2  A    between atoms: C3_3  and  O1_4 
REMARK    3  A    between atoms: C3_3  and  C4_6 
REMARK    4  A    between atoms: C6_13  and  N3_14 
ROOT
HETATM    1  C4  UNL     1       1.018  15.109  17.318  1.00  0.00     0.112 A 
HETATM    2  N1  UNL     1       0.977  15.615  18.550  1.00  0.00    -0.294 N 
ATOM      3  H1  UNL     1       0.485  15.201  19.342  1.00  0.00     0.187 HD
HETATM    4  N2  UNL     1       1.684  16.755  18.585  1.00  0.00    -0.277 N 
ATOM      5  H2  UNL     1       1.813  17.341  19.411  1.00  0.00     0.189 HD
HETATM    6  C5  UNL     1       2.194  17.007  17.378  1.00  0.00     0.195 A 
HETATM    7  O2  UNL     1       2.925  17.820  16.628  1.00  0.00    -0.258 OA
HETATM    8  C6  UNL     1       3.010  17.384  15.400  1.00  0.00     0.224 A 
HETATM    9  N4  UNL     1       2.310  16.240  15.332  1.00  0.00    -0.317 N 
ATOM     10  H4  UNL     1       2.185  15.657  14.504  1.00  0.00     0.169 HD
HETATM   11  C7  UNL     1       1.802  16.002  16.559  1.00  0.00     0.119 A 
ENDROOT
BRANCH   1  12
HETATM   12  C3  UNL     1       0.436  13.913  16.740  1.00  0.00     0.095 C 
BRANCH  12  13
HETATM   13  C2  UNL     1      -0.901  13.457  16.812  1.00  0.00     0.028 C 
HETATM   14  C1  UNL     1      -2.023  14.077  16.743  1.00  0.00     0.014 C 
ENDBRANCH  12  13
BRANCH  12  15
HETATM   15  O1  UNL     1       1.265  13.161  16.063  1.00  0.00    -0.358 OA
ATOM     16  H1  UNL     1       0.961  12.865  15.213  1.00  0.00     0.217 HD
ENDBRANCH  12  15
ENDBRANCH   1  12
BRANCH   8  17
HETATM   17  N3  UNL     1       3.642  17.922  14.394  1.00  0.00    -0.365 N 
ATOM     18  H32 UNL     1       3.440  18.848  14.015  1.00  0.00     0.159 HD
ATOM     19  H31 UNL     1       4.406  17.529  13.844  1.00  0.00     0.159 HD
ENDBRANCH   8  17
TORSDOF 4
ENDMDL
MODEL 3
REMARK VINA RESULT: -6.206471606      2.051      4.705
REMARK  4 active torsions:
REMARK  status: ('A' for Active; 'I' for Inactive)
REMARK    1  A    between atoms: C2_2  and  C3_3 
REMARK    2  A    between atoms: C3_3  and  O1_4 
REMARK    3  A    between atoms: C3_3  and  C4_6 
REMARK    4  A    between atoms: C6_13  and  N3_14 
ROOT
HETATM    1  C4  UNL     1       1.130  14.634  16.601  1.00  0.00     0.112 A 
HETATM    2  N1  UNL     1       1.551  14.898  15.365  1.00  0.00    -0.294 N 
ATOM      3  H1  UNL     1       1.390  14.309  14.547  1.00  0.00     0.187 HD
HETATM    4  N2  UNL     1       2.221  16.061  15.363  1.00  0.00    -0.277 N 
ATOM      5  H2  UNL     1       2.647  16.493  14.543  1.00  0.00     0.189 HD
HETATM    6  C5  UNL     1       2.245  16.568  16.597  1.00  0.00     0.195 A 
HETATM    7  O2  UNL     1       2.643  17.558  17.385  1.00  0.00    -0.258 OA
HETATM    8  C6  UNL     1       2.263  17.365  18.619  1.00  0.00     0.224 A 
HETATM    9  N4  UNL     1       1.588  16.205  18.653  1.00  0.00    -0.317 N 
ATOM     10  H4  UNL     1       1.163  15.778  19.476  1.00  0.00     0.169 HD
HETATM   11  C7  UNL     1       1.574  15.707  17.399  1.00  0.00     0.119 A 
ENDROOT
BRANCH   1  12
HETATM   12  C3  UNL     1       0.371  13.526  17.151  1.00  0.00     0.095 C 
BRANCH  12  13
HETATM   13  C2  UNL     1      -0.397  13.485  18.338  1.00  0.00     0.028 C 
HETATM   14  C1  UNL     1      -1.479  14.085  18.681  1.00  0.00     0.014 C 
ENDBRANCH  12  13
BRANCH  12  15
HETATM   15  O1  UNL     1       0.406  12.424  16.449  1.00  0.00    -0.358 OA
ATOM     16  H1  UNL     1       1.066  12.383  15.767  1.00  0.00     0.217 HD
ENDBRANCH  12  15
ENDBRANCH   1  12
BRANCH   8  17
HETATM   17  N3  UNL     1       2.475  18.125  19.657  1.00  0.00    -0.365 N 
ATOM     18  H32 UNL     1       3.363  18.185  20.156  1.00  0.00     0.159 HD
ATOM     19  H31 UNL     1       1.822  18.756  20.123  1.00  0.00     0.159 HD
ENDBRANCH   8  17
TORSDOF 4
ENDMDL
MODEL 4
REMARK VINA RESULT: -6.135556445      2.159      4.542
REMARK  4 active torsions:
REMARK  status: ('A' for Active; 'I' for Inactive)
REMARK    1  A    between atoms: C2_2  and  C3_3 
REMARK    2  A    between atoms: C3_3  and  O1_4 
REMARK    3  A    between atoms: C3_3  and  C4_6 
REMARK    4  A    between atoms: C6_13  and  N3_14 
ROOT
HETATM    1  C4  UNL     1       1.495  15.880  17.991  1.00  0.00     0.112 A 
HETATM    2  N1  UNL     1       1.565  16.691  19.046  1.00  0.00    -0.294 N 
ATOM      3  H1  UNL     1       1.207  16.481  19.977  1.00  0.00     0.187 HD
HETATM    4  N2  UNL     1       2.181  17.830  18.689  1.00  0.00    -0.277 N 
ATOM      5  H2  UNL     1       2.363  18.618  19.310  1.00  0.00     0.189 HD
HETATM    6  C5  UNL     1       2.518  17.775  17.399  1.00  0.00     0.195 A 
HETATM    7  O2  UNL     1       3.087  18.391  16.372  1.00  0.00    -0.258 OA
HETATM    8  C6  UNL     1       3.055  17.649  15.297  1.00  0.00     0.224 A 
HETATM    9  N4  UNL     1       2.443  16.499  15.623  1.00  0.00    -0.317 N 
ATOM     10  H4  UNL     1       2.264  15.714  14.998  1.00  0.00     0.169 HD
HETATM   11  C7  UNL     1       2.109  16.573  16.928  1.00  0.00     0.119 A 
ENDROOT
BRANCH   1  12
HETATM   12  C3  UNL     1       0.942  14.549  17.826  1.00  0.00     0.095 C 
BRANCH  12  13
HETATM   13  C2  UNL     1      -0.126  13.943  18.527  1.00  0.00     0.028 C 
HETATM   14  C1  UNL     1      -1.374  14.233  18.607  1.00  0.00     0.014 C 
ENDBRANCH  12  13
BRANCH  12  15
HETATM   15  O1  UNL     1       1.512  13.820  16.902  1.00  0.00    -0.358 OA
ATOM     16  H1  UNL     1       2.052  14.287  16.274  1.00  0.00     0.217 HD
ENDBRANCH  12  15
ENDBRANCH   1  12
BRANCH   8  17
HETATM   17  N3  UNL     1       3.515  17.929  14.110  1.00  0.00    -0.365 N 
ATOM     18  H32 UNL     1       3.317  18.793  13.603  1.00  0.00     0.159 HD
ATOM     19  H31 UNL     1       4.120  17.361  13.517  1.00  0.00     0.159 HD
ENDBRANCH   8  17
TORSDOF 4
ENDMDL
MODEL 5
REMARK VINA RESULT: -6.066617052      2.204      3.333
REMARK  4 active torsions:
REMARK  status: ('A' for Active; 'I' for Inactive)
REMARK    1  A    between atoms: C2_2  and  C3_3 
REMARK    2  A    between atoms: C3_3  and  O1_4 
REMARK    3  A    between atoms: C3_3  and  C4_6 
REMARK    4  A    between atoms: C6_13  and  N3_14 
ROOT
HETATM    1  C4  UNL     1       3.096  17.903  16.164  1.00  0.00     0.112 A 
HETATM    2  N1  UNL     1       2.922  17.085  15.127  1.00  0.00    -0.294 N 
ATOM      3  H1  UNL     1       3.307  17.225  14.193  1.00  0.00     0.187 HD
HETATM    4  N2  UNL     1       2.160  16.046  15.505  1.00  0.00    -0.277 N 
ATOM      5  H2  UNL     1       1.878  15.274  14.900  1.00  0.00     0.189 HD
HETATM    6  C5  UNL     1       1.829  16.175  16.791  1.00  0.00     0.195 A 
HETATM    7  O2  UNL     1       1.182  15.662  17.829  1.00  0.00    -0.258 OA
HETATM    8  C6  UNL     1       1.310  16.416  18.887  1.00  0.00     0.224 A 
HETATM    9  N4  UNL     1       2.070  17.467  18.540  1.00  0.00    -0.317 N 
ATOM     10  H4  UNL     1       2.350  18.236  19.149  1.00  0.00     0.169 HD
HETATM   11  C7  UNL     1       2.395  17.321  17.239  1.00  0.00     0.119 A 
ENDROOT
BRANCH   1  12
HETATM   12  C3  UNL     1       3.824  19.150  16.304  1.00  0.00     0.095 C 
BRANCH  12  13
HETATM   13  C2  UNL     1       4.013  20.175  15.348  1.00  0.00     0.028 C 
HETATM   14  C1  UNL     1       4.420  21.387  15.458  1.00  0.00     0.014 C 
ENDBRANCH  12  13
BRANCH  12  15
HETATM   15  O1  UNL     1       4.373  19.346  17.475  1.00  0.00    -0.358 OA
ATOM     16  H1  UNL     1       3.944  19.982  18.037  1.00  0.00     0.217 HD
ENDBRANCH  12  15
ENDBRANCH   1  12
BRANCH   8  17
HETATM   17  N3  UNL     1       0.812  16.227  20.078  1.00  0.00    -0.365 N 
ATOM     18  H32 UNL     1       1.296  16.452  20.948  1.00  0.00     0.159 HD
ATOM     19  H31 UNL     1      -0.098  15.841  20.328  1.00  0.00     0.159 HD
ENDBRANCH   8  17
TORSDOF 4
ENDMDL
