MODEL 1
REMARK VINA RESULT: -5.691217934      0.000      0.000
REMARK  6 active torsions:
REMARK  status: ('A' for Active; 'I' for Inactive)
REMARK    1  A    between atoms: C2_2  and  C3_3 
REMARK    2  A    between atoms: C3_3  and  N1_4 
REMARK    3  A    between atoms: N1_4  and  C4_6 
REMARK    4  A    between atoms: C4_6  and  N2_8 
REMARK    5  A    between atoms: N2_8  and  O1_10 
REMARK    6  A    between atoms: O1_10  and  C5_11 
ROOT
HETATM    1  C4  UNL     1       1.818  16.043  16.873  1.00  0.00     0.192 C 
HETATM    2  S1  UNL     1       1.598  16.543  18.406  1.00  0.00    -0.039 SA
ENDROOT
BRANCH   1   3
HETATM    3  N1  UNL     1       2.635  16.839  16.026  1.00  0.00    -0.366 N 
ATOM      4  H1  UNL     1       2.921  16.469  15.119  1.00  0.00     0.161 HD
BRANCH   3   5
HETATM    5  C3  UNL     1       3.069  18.159  16.415  1.00  0.00     0.121 C 
BRANCH   5   6
HETATM    6  C2  UNL     1       3.396  18.954  15.161  1.00  0.00     0.015 C 
HETATM    7  C1  UNL     1       4.116  20.224  15.497  1.00  0.00     0.006 C 
ENDBRANCH   5   6
ENDBRANCH   3   5
ENDBRANCH   1   3
BRANCH   1   8
HETATM    8  N2  UNL     1       1.206  14.847  16.421  1.00  0.00    -0.231 N 
ATOM      9  H2  UNL     1       1.585  14.340  15.620  1.00  0.00     0.197 HD
BRANCH   8  10
HETATM   10  O1  UNL     1       0.094  14.382  17.081  1.00  0.00    -0.181 OA
BRANCH  10  11
HETATM   11  C5  UNL     1      -0.447  13.146  16.759  1.00  0.00     0.394 C 
HETATM   12  N3  UNL     1       0.283  11.930  16.874  1.00  0.00    -0.031 NA
HETATM   13  O2  UNL     1      -1.649  13.160  16.350  1.00  0.00    -0.240 OA
ENDBRANCH  10  11
ENDBRANCH   8  10
ENDBRANCH   1   8
TORSDOF 6
ENDMDL
MODEL 2
REMARK VINA RESULT: -5.683820624      1.487      1.569
REMARK  6 active torsions:
REMARK  status: ('A' for Active; 'I' for Inactive)
REMARK    1  A    between atoms: C2_2  and  C3_3 
REMARK    2  A    between atoms: C3_3  and  N1_4 
REMARK    3  A    between atoms: N1_4  and  C4_6 
REMARK    4  A    between atoms: C4_6  and  N2_8 
REMARK    5  A    between atoms: N2_8  and  O1_10 
REMARK    6  A    between atoms: O1_10  and  C5_11 
ROOT
HETATM    1  C4  UNL     1       1.233  15.783  18.295  1.00  0.00     0.192 C 
HETATM    2  S1  UNL     1       1.691  16.419  19.722  1.00  0.00    -0.039 SA
ENDROOT
BRANCH   1   3
HETATM    3  N1  UNL     1       1.862  16.272  17.119  1.00  0.00    -0.366 N 
ATOM      4  H1  UNL     1       1.875  15.688  16.282  1.00  0.00     0.161 HD
BRANCH   3   5
HETATM    5  C3  UNL     1       2.483  17.574  17.077  1.00  0.00     0.121 C 
BRANCH   5   6
HETATM    6  C2  UNL     1       3.010  17.818  15.673  1.00  0.00     0.015 C 
HETATM    7  C1  UNL     1       3.607  19.186  15.547  1.00  0.00     0.006 C 
ENDBRANCH   5   6
ENDBRANCH   3   5
ENDBRANCH   1   3
BRANCH   1   8
HETATM    8  N2  UNL     1       0.238  14.775  18.253  1.00  0.00    -0.231 N 
ATOM      9  H2  UNL     1      -0.753  15.022  18.258  1.00  0.00     0.197 HD
BRANCH   8  10
HETATM   10  O1  UNL     1       0.630  13.459  18.205  1.00  0.00    -0.181 OA
BRANCH  10  11
HETATM   11  C5  UNL     1       0.610  12.765  17.004  1.00  0.00     0.394 C 
HETATM   12  N3  UNL     1       1.343  13.183  15.858  1.00  0.00    -0.031 NA
HETATM   13  O2  UNL     1      -0.108  11.719  16.983  1.00  0.00    -0.240 OA
ENDBRANCH  10  11
ENDBRANCH   8  10
ENDBRANCH   1   8
TORSDOF 6
ENDMDL
MODEL 3
REMARK VINA RESULT: -5.665730731      1.530      1.579
REMARK  6 active torsions:
REMARK  status: ('A' for Active; 'I' for Inactive)
REMARK    1  A    between atoms: C2_2  and  C3_3 
REMARK    2  A    between atoms: C3_3  and  N1_4 
REMARK    3  A    between atoms: N1_4  and  C4_6 
REMARK    4  A    between atoms: C4_6  and  N2_8 
REMARK    5  A    between atoms: N2_8  and  O1_10 
REMARK    6  A    between atoms: O1_10  and  C5_11 
ROOT
HETATM    1  C4  UNL     1       1.584  16.172  18.175  1.00  0.00     0.192 C 
HETATM    2  S1  UNL     1       1.038  16.000  19.698  1.00  0.00    -0.039 SA
ENDROOT
BRANCH   1   3
HETATM    3  N1  UNL     1       2.128  17.431  17.804  1.00  0.00    -0.366 N 
ATOM      4  H1  UNL     1       2.118  18.196  18.479  1.00  0.00     0.161 HD
BRANCH   3   5
HETATM    5  C3  UNL     1       2.693  17.656  16.496  1.00  0.00     0.121 C 
BRANCH   5   6
HETATM    6  C2  UNL     1       3.717  18.776  16.592  1.00  0.00     0.015 C 
HETATM    7  C1  UNL     1       3.828  19.523  15.298  1.00  0.00     0.006 C 
ENDBRANCH   5   6
ENDBRANCH   3   5
ENDBRANCH   1   3
BRANCH   1   8
HETATM    8  N2  UNL     1       1.511  15.087  17.266  1.00  0.00    -0.231 N 
ATOM      9  H2  UNL     1       1.668  15.233  16.269  1.00  0.00     0.197 HD
BRANCH   8  10
HETATM   10  O1  UNL     1       1.224  13.835  17.753  1.00  0.00    -0.181 OA
BRANCH  10  11
HETATM   11  C5  UNL     1       0.556  12.911  16.962  1.00  0.00     0.394 C 
HETATM   12  N3  UNL     1      -0.831  13.011  16.661  1.00  0.00    -0.031 NA
HETATM   13  O2  UNL     1       1.263  11.956  16.514  1.00  0.00    -0.240 OA
ENDBRANCH  10  11
ENDBRANCH   8  10
ENDBRANCH   1   8
TORSDOF 6
ENDMDL
MODEL 4
REMARK VINA RESULT: -5.651204651      1.207      1.207
REMARK  6 active torsions:
REMARK  status: ('A' for Active; 'I' for Inactive)
REMARK    1  A    between atoms: C2_2  and  C3_3 
REMARK    2  A    between atoms: C3_3  and  N1_4 
REMARK    3  A    between atoms: N1_4  and  C4_6 
REMARK    4  A    between atoms: C4_6  and  N2_8 
REMARK    5  A    between atoms: N2_8  and  O1_10 
REMARK    6  A    between atoms: O1_10  and  C5_11 
ROOT
HETATM    1  C4  UNL     1       2.009  16.294  16.721  1.00  0.00     0.192 C 
HETATM    2  S1  UNL     1       1.725  16.778  18.249  1.00  0.00    -0.039 SA
ENDROOT
BRANCH   1   3
HETATM    3  N1  UNL     1       2.790  17.143  15.891  1.00  0.00    -0.366 N 
ATOM      4  H1  UNL     1       2.979  16.861  14.929  1.00  0.00     0.161 HD
BRANCH   3   5
HETATM    5  C3  UNL     1       3.322  18.394  16.374  1.00  0.00     0.121 C 
BRANCH   5   6
HETATM    6  C2  UNL     1       3.741  19.239  15.182  1.00  0.00     0.015 C 
HETATM    7  C1  UNL     1       4.200  20.598  15.614  1.00  0.00     0.006 C 
ENDBRANCH   5   6
ENDBRANCH   3   5
ENDBRANCH   1   3
BRANCH   1   8
HETATM    8  N2  UNL     1       1.485  15.062  16.256  1.00  0.00    -0.231 N 
ATOM      9  H2  UNL     1       1.232  14.942  15.275  1.00  0.00     0.197 HD
BRANCH   8  10
HETATM   10  O1  UNL     1       1.323  14.032  17.151  1.00  0.00    -0.181 OA
BRANCH  10  11
HETATM   11  C5  UNL     1       0.548  12.931  16.820  1.00  0.00     0.394 C 
HETATM   12  N3  UNL     1      -0.863  13.003  16.644  1.00  0.00    -0.031 NA
HETATM   13  O2  UNL     1       1.176  11.837  16.679  1.00  0.00    -0.240 OA
ENDBRANCH  10  11
ENDBRANCH   8  10
ENDBRANCH   1   8
TORSDOF 6
ENDMDL
MODEL 5
REMARK VINA RESULT: -5.600441669      1.129      1.204
REMARK  6 active torsions:
REMARK  status: ('A' for Active; 'I' for Inactive)
REMARK    1  A    between atoms: C2_2  and  C3_3 
REMARK    2  A    between atoms: C3_3  and  N1_4 
REMARK    3  A    between atoms: N1_4  and  C4_6 
REMARK    4  A    between atoms: C4_6  and  N2_8 
REMARK    5  A    between atoms: N2_8  and  O1_10 
REMARK    6  A    between atoms: O1_10  and  C5_11 
ROOT
HETATM    1  C4  UNL     1       1.561  16.132  18.370  1.00  0.00     0.192 C 
HETATM    2  S1  UNL     1       1.170  16.023  19.946  1.00  0.00    -0.039 SA
ENDROOT
BRANCH   1   3
HETATM    3  N1  UNL     1       2.136  17.347  17.912  1.00  0.00    -0.366 N 
ATOM      4  H1  UNL     1       2.233  18.128  18.561  1.00  0.00     0.161 HD
BRANCH   3   5
HETATM    5  C3  UNL     1       2.589  17.505  16.551  1.00  0.00     0.121 C 
BRANCH   5   6
HETATM    6  C2  UNL     1       3.583  18.654  16.497  1.00  0.00     0.015 C 
HETATM    7  C1  UNL     1       3.619  19.277  15.136  1.00  0.00     0.006 C 
ENDBRANCH   5   6
ENDBRANCH   3   5
ENDBRANCH   1   3
BRANCH   1   8
HETATM    8  N2  UNL     1       1.326  15.036  17.503  1.00  0.00    -0.231 N 
ATOM      9  H2  UNL     1       1.961  14.842  16.727  1.00  0.00     0.197 HD
BRANCH   8  10
HETATM   10  O1  UNL     1       0.230  14.238  17.725  1.00  0.00    -0.181 OA
BRANCH  10  11
HETATM   11  C5  UNL     1       0.018  13.107  16.951  1.00  0.00     0.394 C 
HETATM   12  N3  UNL     1       1.033  12.142  16.699  1.00  0.00    -0.031 NA
HETATM   13  O2  UNL     1      -1.151  12.977  16.474  1.00  0.00    -0.240 OA
ENDBRANCH  10  11
ENDBRANCH   8  10
ENDBRANCH   1   8
TORSDOF 6
ENDMDL
