MODEL 1
REMARK VINA RESULT: -4.642001338      0.000      0.000
REMARK  2 active torsions:
REMARK  status: ('A' for Active; 'I' for Inactive)
REMARK    1  A    between atoms: C1_2  and  N1_3 
REMARK    2  A    between atoms: N1_3  and  C2_5 
ROOT
HETATM    1  C2  UNL     1      22.638  19.496  18.616  1.00  0.00     0.287 C 
HETATM    2  C3  UNL     1      23.857  20.380  18.317  1.00  0.00     0.082 C 
HETATM    3  C4  UNL     1      23.577  19.908  16.891  1.00  0.00     0.238 C 
HETATM    4  N2  UNL     1      23.124  18.649  17.512  1.00  0.00    -0.054 N 
ATOM      5  H21 UNL     1      22.510  17.998  17.022  1.00  0.00     0.279 HD
ATOM      6  H22 UNL     1      23.760  17.869  17.671  1.00  0.00     0.279 HD
ENDROOT
BRANCH   1   7
HETATM    7  N1  UNL     1      22.660  18.861  19.892  1.00  0.00    -0.341 N 
ATOM      8  H1  UNL     1      22.119  19.249  20.665  1.00  0.00     0.163 HD
BRANCH   7   9
HETATM    9  C1  UNL     1      23.434  17.691  20.086  1.00  0.00     0.350 C 
HETATM   10  O1  UNL     1      23.110  16.645  19.483  1.00  0.00    -0.284 OA
ENDBRANCH   7   9
ENDBRANCH   1   7
TORSDOF 2
ENDMDL
MODEL 2
REMARK VINA RESULT: -4.615757579      1.386      1.386
REMARK  2 active torsions:
REMARK  status: ('A' for Active; 'I' for Inactive)
REMARK    1  A    between atoms: C1_2  and  N1_3 
REMARK    2  A    between atoms: N1_3  and  C2_5 
ROOT
HETATM    1  C2  UNL     1      23.289  19.649  18.953  1.00  0.00     0.287 C 
HETATM    2  C3  UNL     1      23.906  20.151  17.639  1.00  0.00     0.082 C 
HETATM    3  C4  UNL     1      22.576  20.897  17.552  1.00  0.00     0.238 C 
HETATM    4  N2  UNL     1      21.999  19.730  18.244  1.00  0.00    -0.054 N 
ATOM      5  H21 UNL     1      21.112  19.786  18.745  1.00  0.00     0.279 HD
ATOM      6  H22 UNL     1      21.614  18.936  17.732  1.00  0.00     0.279 HD
ENDROOT
BRANCH   1   7
HETATM    7  N1  UNL     1      23.669  18.326  19.324  1.00  0.00    -0.341 N 
ATOM      8  H1  UNL     1      24.490  18.176  19.911  1.00  0.00     0.163 HD
BRANCH   7   9
HETATM    9  C1  UNL     1      22.906  17.220  18.877  1.00  0.00     0.350 C 
HETATM   10  O1  UNL     1      22.947  16.907  17.668  1.00  0.00    -0.284 OA
ENDBRANCH   7   9
ENDBRANCH   1   7
TORSDOF 2
ENDMDL
MODEL 3
REMARK VINA RESULT: -4.233567482      2.349      3.402
REMARK  2 active torsions:
REMARK  status: ('A' for Active; 'I' for Inactive)
REMARK    1  A    between atoms: C1_2  and  N1_3 
REMARK    2  A    between atoms: N1_3  and  C2_5 
ROOT
HETATM    1  C2  UNL     1      23.399  18.496  18.733  1.00  0.00     0.287 C 
HETATM    2  C3  UNL     1      23.236  18.569  20.258  1.00  0.00     0.082 C 
HETATM    3  C4  UNL     1      23.393  17.055  20.129  1.00  0.00     0.238 C 
HETATM    4  N2  UNL     1      22.702  17.201  18.835  1.00  0.00    -0.054 N 
ATOM      5  H21 UNL     1      22.773  16.493  18.104  1.00  0.00     0.279 HD
ATOM      6  H22 UNL     1      21.688  17.127  18.754  1.00  0.00     0.279 HD
ENDROOT
BRANCH   1   7
HETATM    7  N1  UNL     1      22.681  19.491  18.007  1.00  0.00    -0.341 N 
ATOM      8  H1  UNL     1      21.662  19.455  17.963  1.00  0.00     0.163 HD
BRANCH   7   9
HETATM    9  C1  UNL     1      23.383  20.528  17.347  1.00  0.00     0.350 C 
HETATM   10  O1  UNL     1      22.947  21.698  17.425  1.00  0.00    -0.284 OA
ENDBRANCH   7   9
ENDBRANCH   1   7
TORSDOF 2
ENDMDL
MODEL 4
REMARK VINA RESULT: -4.188447144      2.204      3.140
REMARK  2 active torsions:
REMARK  status: ('A' for Active; 'I' for Inactive)
REMARK    1  A    between atoms: C1_2  and  N1_3 
REMARK    2  A    between atoms: N1_3  and  C2_5 
ROOT
HETATM    1  C2  UNL     1      23.651  18.988  18.689  1.00  0.00     0.287 C 
HETATM    2  C3  UNL     1      23.407  18.270  20.023  1.00  0.00     0.082 C 
HETATM    3  C4  UNL     1      22.929  17.160  19.090  1.00  0.00     0.238 C 
HETATM    4  N2  UNL     1      22.472  18.247  18.206  1.00  0.00    -0.054 N 
ATOM      5  H21 UNL     1      22.300  18.096  17.211  1.00  0.00     0.279 HD
ATOM      6  H22 UNL     1      21.530  18.633  18.269  1.00  0.00     0.279 HD
ENDROOT
BRANCH   1   7
HETATM    7  N1  UNL     1      23.475  20.402  18.731  1.00  0.00    -0.341 N 
ATOM      8  H1  UNL     1      23.611  20.908  19.606  1.00  0.00     0.163 HD
BRANCH   7   9
HETATM    9  C1  UNL     1      23.111  21.104  17.556  1.00  0.00     0.350 C 
HETATM   10  O1  UNL     1      23.037  20.478  16.476  1.00  0.00    -0.284 OA
ENDBRANCH   7   9
ENDBRANCH   1   7
TORSDOF 2
ENDMDL
MODEL 5
REMARK VINA RESULT: -4.160469282      1.336      1.504
REMARK  2 active torsions:
REMARK  status: ('A' for Active; 'I' for Inactive)
REMARK    1  A    between atoms: C1_2  and  N1_3 
REMARK    2  A    between atoms: N1_3  and  C2_5 
ROOT
HETATM    1  C2  UNL     1      22.775  19.339  17.768  1.00  0.00     0.287 C 
HETATM    2  C3  UNL     1      23.793  20.230  18.493  1.00  0.00     0.082 C 
HETATM    3  C4  UNL     1      23.236  21.277  17.529  1.00  0.00     0.238 C 
HETATM    4  N2  UNL     1      23.072  20.160  16.580  1.00  0.00    -0.054 N 
ATOM      5  H21 UNL     1      22.431  20.216  15.789  1.00  0.00     0.279 HD
ATOM      6  H22 UNL     1      23.805  19.905  15.918  1.00  0.00     0.279 HD
ENDROOT
BRANCH   1   7
HETATM    7  N1  UNL     1      23.160  17.972  17.643  1.00  0.00    -0.341 N 
ATOM      8  H1  UNL     1      23.752  17.676  16.867  1.00  0.00     0.163 HD
BRANCH   7   9
HETATM    9  C1  UNL     1      22.721  17.024  18.600  1.00  0.00     0.350 C 
HETATM   10  O1  UNL     1      23.271  16.998  19.722  1.00  0.00    -0.284 OA
ENDBRANCH   7   9
ENDBRANCH   1   7
TORSDOF 2
ENDMDL
