MODEL 1
REMARK VINA RESULT: -8.623342114      0.000      0.000
REMARK  14 active torsions:
REMARK  status: ('A' for Active; 'I' for Inactive)
REMARK    1  A    between atoms: N1_5  and  C5_6 
REMARK    2  A    between atoms: C5_6  and  C6_7 
REMARK       I    between atoms: C6_7  and  N2_9 
REMARK    3  A    between atoms: N2_9  and  C7_11 
REMARK       I    between atoms: N5_26  and  C16_27 
REMARK    4  A    between atoms: C16_27  and  C17_29 
REMARK    5  A    between atoms: C17_29  and  C18_30 
REMARK    6  A    between atoms: C18_30  and  C19_31 
REMARK    7  A    between atoms: C19_31  and  C20_32 
REMARK    8  A    between atoms: C20_32  and  C21_33 
REMARK    9  A    between atoms: C21_33  and  C22_34 
REMARK   10  A    between atoms: C22_34  and  C23_35 
REMARK   11  A    between atoms: C23_35  and  C24_36 
REMARK   12  A    between atoms: C24_36  and  C25_37 
REMARK   13  A    between atoms: C25_37  and  C26_38 
REMARK   14  A    between atoms: C26_38  and  C27_39 
ROOT
HETATM    1  C1  UNL     1      36.768  12.961  -1.672  1.00  0.00     0.033 C 
HETATM    2  C2  UNL     1      37.645  13.644  -2.722  1.00  0.00     0.089 C 
HETATM    3  C3  UNL     1      38.725  14.476  -2.254  1.00  0.00     0.040 C 
HETATM    4  C4  UNL     1      39.442  15.696  -2.002  1.00  0.00     0.097 C 
HETATM    5  N1  UNL     1      38.723  16.838  -2.627  1.00  0.00    -0.283 NA
HETATM    6  C14 UNL     1      37.290  16.707  -2.529  1.00  0.00     0.140 C 
HETATM    7  C15 UNL     1      36.528  15.864  -3.443  1.00  0.00     0.082 C 
HETATM    8  N5  UNL     1      36.752  14.455  -3.545  1.00  0.00    -0.326 N 
HETATM    9  C16 UNL     1      36.043  13.805  -4.553  1.00  0.00     0.227 C 
HETATM   10  O2  UNL     1      35.280  14.501  -5.280  1.00  0.00    -0.273 OA
ENDROOT
BRANCH   5  11
HETATM   11  C5  UNL     1      39.087  17.106  -3.959  1.00  0.00     0.135 C 
BRANCH  11  12
HETATM   12  C6  UNL     1      39.799  18.331  -4.271  1.00  0.00     0.269 C 
HETATM   13  O1  UNL     1      39.418  19.450  -3.754  1.00  0.00    -0.267 OA
HETATM   14  N2  UNL     1      40.924  18.446  -5.121  1.00  0.00    -0.155 N 
ATOM     15  H2  UNL     1      40.797  18.932  -6.009  1.00  0.00     0.187 HD
BRANCH  14  16
HETATM   16  C7  UNL     1      42.091  17.984  -4.860  1.00  0.00     0.686 A 
HETATM   17  N3  UNL     1      43.108  18.723  -4.403  1.00  0.00    -0.189 N 
HETATM   18  C8  UNL     1      44.173  17.949  -4.238  1.00  0.00     0.078 A 
ATOM     19  H3  UNL     1      43.072  19.725  -4.213  1.00  0.00     0.184 HD
HETATM   20  C9  UNL     1      45.473  18.218  -3.788  1.00  0.00     0.058 A 
HETATM   21  C13 UNL     1      43.808  16.672  -4.609  1.00  0.00     0.078 A 
HETATM   22  C10 UNL     1      46.385  17.189  -3.718  1.00  0.00     0.058 A 
HETATM   23 CL1  UNL     1      48.026  17.480  -3.156  1.00  0.00    -0.082 Cl
HETATM   24  C11 UNL     1      46.036  15.910  -4.084  1.00  0.00     0.058 A 
HETATM   25 CL2  UNL     1      47.190  14.626  -3.993  1.00  0.00    -0.082 Cl
HETATM   26  C12 UNL     1      44.734  15.652  -4.533  1.00  0.00     0.058 A 
HETATM   27  N4  UNL     1      42.526  16.736  -4.983  1.00  0.00    -0.189 N 
ATOM     28  H4  UNL     1      41.969  15.948  -5.313  1.00  0.00     0.184 HD
ENDBRANCH  14  16
ENDBRANCH  11  12
ENDBRANCH   5  11
BRANCH   9  29
HETATM   29  C17 UNL     1      36.117  12.359  -4.834  1.00  0.00     0.130 C 
BRANCH  29  30
HETATM   30  C18 UNL     1      37.201  11.916  -5.733  1.00  0.00    -0.022 C 
BRANCH  30  31
HETATM   31  C19 UNL     1      38.510  12.544  -5.773  1.00  0.00    -0.030 C 
BRANCH  31  32
HETATM   32  C20 UNL     1      38.816  13.782  -6.494  1.00  0.00     0.027 C 
BRANCH  32  33
HETATM   33  C21 UNL     1      40.133  14.388  -6.248  1.00  0.00     0.004 C 
BRANCH  33  34
HETATM   34  C22 UNL     1      40.667  15.271  -7.366  1.00  0.00     0.000 C 
BRANCH  34  35
HETATM   35  C23 UNL     1      39.770  16.446  -7.610  1.00  0.00     0.000 C 
BRANCH  35  36
HETATM   36  C24 UNL     1      40.517  17.515  -8.325  1.00  0.00     0.000 C 
BRANCH  36  37
HETATM   37  C25 UNL     1      39.774  18.564  -9.011  1.00  0.00     0.001 C 
BRANCH  37  38
HETATM   38  C26 UNL     1      39.553  18.584 -10.461  1.00  0.00     0.015 C 
BRANCH  38  39
HETATM   39  C27 UNL     1      38.190  18.544 -11.029  1.00  0.00     0.114 C 
HETATM   40 CL3  UNL     1      37.221  17.385 -10.012  1.00  0.00    -0.130 Cl
ENDBRANCH  38  39
ENDBRANCH  37  38
ENDBRANCH  36  37
ENDBRANCH  35  36
ENDBRANCH  34  35
ENDBRANCH  33  34
ENDBRANCH  32  33
ENDBRANCH  31  32
ENDBRANCH  30  31
ENDBRANCH  29  30
ENDBRANCH   9  29
TORSDOF 14
ENDMDL
MODEL 2
REMARK VINA RESULT: -8.554871706      0.787      1.467
REMARK  14 active torsions:
REMARK  status: ('A' for Active; 'I' for Inactive)
REMARK    1  A    between atoms: N1_5  and  C5_6 
REMARK    2  A    between atoms: C5_6  and  C6_7 
REMARK       I    between atoms: C6_7  and  N2_9 
REMARK    3  A    between atoms: N2_9  and  C7_11 
REMARK       I    between atoms: N5_26  and  C16_27 
REMARK    4  A    between atoms: C16_27  and  C17_29 
REMARK    5  A    between atoms: C17_29  and  C18_30 
REMARK    6  A    between atoms: C18_30  and  C19_31 
REMARK    7  A    between atoms: C19_31  and  C20_32 
REMARK    8  A    between atoms: C20_32  and  C21_33 
REMARK    9  A    between atoms: C21_33  and  C22_34 
REMARK   10  A    between atoms: C22_34  and  C23_35 
REMARK   11  A    between atoms: C23_35  and  C24_36 
REMARK   12  A    between atoms: C24_36  and  C25_37 
REMARK   13  A    between atoms: C25_37  and  C26_38 
REMARK   14  A    between atoms: C26_38  and  C27_39 
ROOT
HETATM    1  C1  UNL     1      36.823  13.052  -1.552  1.00  0.00     0.033 C 
HETATM    2  C2  UNL     1      37.663  13.724  -2.639  1.00  0.00     0.089 C 
HETATM    3  C3  UNL     1      38.714  14.617  -2.218  1.00  0.00     0.040 C 
HETATM    4  C4  UNL     1      39.383  15.874  -2.026  1.00  0.00     0.097 C 
HETATM    5  N1  UNL     1      38.614  16.959  -2.690  1.00  0.00    -0.283 NA
HETATM    6  C14 UNL     1      37.188  16.776  -2.571  1.00  0.00     0.140 C 
HETATM    7  C15 UNL     1      36.453  15.866  -3.441  1.00  0.00     0.082 C 
HETATM    8  N5  UNL     1      36.731  14.464  -3.486  1.00  0.00    -0.326 N 
HETATM    9  C16 UNL     1      36.039  13.744  -4.458  1.00  0.00     0.227 C 
HETATM   10  O2  UNL     1      35.243  14.378  -5.205  1.00  0.00    -0.273 OA
ENDROOT
BRANCH   5  11
HETATM   11  C5  UNL     1      38.955  17.185  -4.036  1.00  0.00     0.135 C 
BRANCH  11  12
HETATM   12  C6  UNL     1      39.631  18.415  -4.404  1.00  0.00     0.269 C 
HETATM   13  O1  UNL     1      39.207  19.546  -3.953  1.00  0.00    -0.267 OA
HETATM   14  N2  UNL     1      40.765  18.520  -5.244  1.00  0.00    -0.155 N 
ATOM     15  H2  UNL     1      40.636  18.955  -6.158  1.00  0.00     0.187 HD
BRANCH  14  16
HETATM   16  C7  UNL     1      41.942  18.112  -4.943  1.00  0.00     0.686 A 
HETATM   17  N3  UNL     1      42.373  16.858  -5.122  1.00  0.00    -0.189 N 
HETATM   18  C8  UNL     1      43.630  16.764  -4.710  1.00  0.00     0.078 A 
ATOM     19  H3  UNL     1      41.821  16.094  -5.513  1.00  0.00     0.184 HD
HETATM   20  C9  UNL     1      44.534  15.693  -4.679  1.00  0.00     0.058 A 
HETATM   21  C13 UNL     1      44.002  18.010  -4.251  1.00  0.00     0.078 A 
HETATM   22  C10 UNL     1      45.803  15.899  -4.186  1.00  0.00     0.058 A 
HETATM   23 CL1  UNL     1      46.970  14.584  -4.133  1.00  0.00    -0.082 Cl
HETATM   24  C11 UNL     1      46.189  17.136  -3.726  1.00  0.00     0.058 A 
HETATM   25 CL2  UNL     1      47.784  17.384  -3.108  1.00  0.00    -0.082 Cl
HETATM   26  C12 UNL     1      45.277  18.200  -3.760  1.00  0.00     0.058 A 
HETATM   27  N4  UNL     1      42.940  18.806  -4.411  1.00  0.00    -0.189 N 
ATOM     28  H4  UNL     1      42.903  19.795  -4.163  1.00  0.00     0.184 HD
ENDBRANCH  14  16
ENDBRANCH  11  12
ENDBRANCH   5  11
BRANCH   9  29
HETATM   29  C17 UNL     1      36.168  12.292  -4.678  1.00  0.00     0.130 C 
BRANCH  29  30
HETATM   30  C18 UNL     1      37.277  11.852  -5.548  1.00  0.00    -0.022 C 
BRANCH  30  31
HETATM   31  C19 UNL     1      38.262  12.763  -6.105  1.00  0.00    -0.030 C 
BRANCH  31  32
HETATM   32  C20 UNL     1      39.394  13.320  -5.361  1.00  0.00     0.027 C 
BRANCH  32  33
HETATM   33  C21 UNL     1      40.386  14.084  -6.130  1.00  0.00     0.004 C 
BRANCH  33  34
HETATM   34  C22 UNL     1      39.930  14.554  -7.504  1.00  0.00     0.000 C 
BRANCH  34  35
HETATM   35  C23 UNL     1      39.877  16.050  -7.580  1.00  0.00     0.000 C 
BRANCH  35  36
HETATM   36  C24 UNL     1      38.463  16.504  -7.665  1.00  0.00     0.000 C 
BRANCH  36  37
HETATM   37  C25 UNL     1      38.136  17.654  -8.497  1.00  0.00     0.001 C 
BRANCH  37  38
HETATM   38  C26 UNL     1      37.655  17.544  -9.879  1.00  0.00     0.015 C 
BRANCH  38  39
HETATM   39  C27 UNL     1      38.079  18.504 -10.917  1.00  0.00     0.114 C 
HETATM   40 CL3  UNL     1      39.866  18.776 -10.695  1.00  0.00    -0.130 Cl
ENDBRANCH  38  39
ENDBRANCH  37  38
ENDBRANCH  36  37
ENDBRANCH  35  36
ENDBRANCH  34  35
ENDBRANCH  33  34
ENDBRANCH  32  33
ENDBRANCH  31  32
ENDBRANCH  30  31
ENDBRANCH  29  30
ENDBRANCH   9  29
TORSDOF 14
ENDMDL
MODEL 3
REMARK VINA RESULT: -8.448826919      1.873      4.140
REMARK  14 active torsions:
REMARK  status: ('A' for Active; 'I' for Inactive)
REMARK    1  A    between atoms: N1_5  and  C5_6 
REMARK    2  A    between atoms: C5_6  and  C6_7 
REMARK       I    between atoms: C6_7  and  N2_9 
REMARK    3  A    between atoms: N2_9  and  C7_11 
REMARK       I    between atoms: N5_26  and  C16_27 
REMARK    4  A    between atoms: C16_27  and  C17_29 
REMARK    5  A    between atoms: C17_29  and  C18_30 
REMARK    6  A    between atoms: C18_30  and  C19_31 
REMARK    7  A    between atoms: C19_31  and  C20_32 
REMARK    8  A    between atoms: C20_32  and  C21_33 
REMARK    9  A    between atoms: C21_33  and  C22_34 
REMARK   10  A    between atoms: C22_34  and  C23_35 
REMARK   11  A    between atoms: C23_35  and  C24_36 
REMARK   12  A    between atoms: C24_36  and  C25_37 
REMARK   13  A    between atoms: C25_37  and  C26_38 
REMARK   14  A    between atoms: C26_38  and  C27_39 
ROOT
HETATM    1  C1  UNL     1      35.233  15.894  -2.487  1.00  0.00     0.033 C 
HETATM    2  C2  UNL     1      36.192  15.410  -3.575  1.00  0.00     0.089 C 
HETATM    3  C3  UNL     1      35.851  14.199  -4.279  1.00  0.00     0.040 C 
HETATM    4  C4  UNL     1      35.960  12.820  -4.670  1.00  0.00     0.097 C 
HETATM    5  N1  UNL     1      37.181  12.223  -4.067  1.00  0.00    -0.283 NA
HETATM    6  C14 UNL     1      37.429  12.707  -2.731  1.00  0.00     0.140 C 
HETATM    7  C15 UNL     1      38.064  13.995  -2.483  1.00  0.00     0.082 C 
HETATM    8  N5  UNL     1      37.491  15.226  -2.930  1.00  0.00    -0.326 N 
HETATM    9  C16 UNL     1      38.275  16.361  -2.737  1.00  0.00     0.227 C 
HETATM   10  O2  UNL     1      39.406  16.211  -2.196  1.00  0.00    -0.273 OA
ENDROOT
BRANCH   5  11
HETATM   11  C5  UNL     1      38.346  12.352  -4.845  1.00  0.00     0.135 C 
BRANCH  11  12
HETATM   12  C6  UNL     1      38.421  13.394  -5.851  1.00  0.00     0.269 C 
HETATM   13  O1  UNL     1      37.372  14.087  -6.144  1.00  0.00    -0.267 OA
HETATM   14  N2  UNL     1      39.573  13.759  -6.586  1.00  0.00    -0.155 N 
ATOM     15  H2  UNL     1      39.583  13.546  -7.584  1.00  0.00     0.187 HD
BRANCH  14  16
HETATM   16  C7  UNL     1      40.605  14.336  -6.093  1.00  0.00     0.686 A 
HETATM   17  N3  UNL     1      41.809  13.762  -5.984  1.00  0.00    -0.189 N 
HETATM   18  C8  UNL     1      42.656  14.623  -5.434  1.00  0.00     0.078 A 
ATOM     19  H3  UNL     1      42.040  12.813  -6.277  1.00  0.00     0.184 HD
HETATM   20  C9  UNL     1      44.016  14.528  -5.107  1.00  0.00     0.058 A 
HETATM   21  C13 UNL     1      41.954  15.783  -5.186  1.00  0.00     0.078 A 
HETATM   22  C10 UNL     1      44.646  15.610  -4.535  1.00  0.00     0.058 A 
HETATM   23 CL1  UNL     1      46.352  15.536  -4.111  1.00  0.00    -0.082 Cl
HETATM   24  C11 UNL     1      43.959  16.774  -4.282  1.00  0.00     0.058 A 
HETATM   25 CL2  UNL     1      44.759  18.126  -3.561  1.00  0.00    -0.082 Cl
HETATM   26  C12 UNL     1      42.600  16.858  -4.612  1.00  0.00     0.058 A 
HETATM   27  N4  UNL     1      40.703  15.566  -5.604  1.00  0.00    -0.189 N 
ATOM     28  H4  UNL     1      39.940  16.242  -5.554  1.00  0.00     0.184 HD
ENDBRANCH  14  16
ENDBRANCH  11  12
ENDBRANCH   5  11
BRANCH   9  29
HETATM   29  C17 UNL     1      37.881  17.730  -3.118  1.00  0.00     0.130 C 
BRANCH  29  30
HETATM   30  C18 UNL     1      38.577  18.319  -4.278  1.00  0.00    -0.022 C 
BRANCH  30  31
HETATM   31  C19 UNL     1      39.608  19.336  -4.158  1.00  0.00    -0.030 C 
BRANCH  31  32
HETATM   32  C20 UNL     1      40.438  19.813  -5.266  1.00  0.00     0.027 C 
BRANCH  32  33
HETATM   33  C21 UNL     1      39.960  19.530  -6.627  1.00  0.00     0.004 C 
BRANCH  33  34
HETATM   34  C22 UNL     1      40.937  18.781  -7.522  1.00  0.00     0.000 C 
BRANCH  34  35
HETATM   35  C23 UNL     1      40.331  17.518  -8.055  1.00  0.00     0.000 C 
BRANCH  35  36
HETATM   36  C24 UNL     1      38.857  17.538  -7.856  1.00  0.00     0.000 C 
BRANCH  36  37
HETATM   37  C25 UNL     1      37.985  17.196  -8.971  1.00  0.00     0.001 C 
BRANCH  37  38
HETATM   38  C26 UNL     1      37.478  18.181  -9.935  1.00  0.00     0.015 C 
BRANCH  38  39
HETATM   39  C27 UNL     1      38.109  18.353 -11.259  1.00  0.00     0.114 C 
HETATM   40 CL3  UNL     1      39.758  19.074 -10.975  1.00  0.00    -0.130 Cl
ENDBRANCH  38  39
ENDBRANCH  37  38
ENDBRANCH  36  37
ENDBRANCH  35  36
ENDBRANCH  34  35
ENDBRANCH  33  34
ENDBRANCH  32  33
ENDBRANCH  31  32
ENDBRANCH  30  31
ENDBRANCH  29  30
ENDBRANCH   9  29
TORSDOF 14
ENDMDL
MODEL 4
REMARK VINA RESULT: -8.312531217      1.824      4.038
REMARK  14 active torsions:
REMARK  status: ('A' for Active; 'I' for Inactive)
REMARK    1  A    between atoms: N1_5  and  C5_6 
REMARK    2  A    between atoms: C5_6  and  C6_7 
REMARK       I    between atoms: C6_7  and  N2_9 
REMARK    3  A    between atoms: N2_9  and  C7_11 
REMARK       I    between atoms: N5_26  and  C16_27 
REMARK    4  A    between atoms: C16_27  and  C17_29 
REMARK    5  A    between atoms: C17_29  and  C18_30 
REMARK    6  A    between atoms: C18_30  and  C19_31 
REMARK    7  A    between atoms: C19_31  and  C20_32 
REMARK    8  A    between atoms: C20_32  and  C21_33 
REMARK    9  A    between atoms: C21_33  and  C22_34 
REMARK   10  A    between atoms: C22_34  and  C23_35 
REMARK   11  A    between atoms: C23_35  and  C24_36 
REMARK   12  A    between atoms: C24_36  and  C25_37 
REMARK   13  A    between atoms: C25_37  and  C26_38 
REMARK   14  A    between atoms: C26_38  and  C27_39 
ROOT
HETATM    1  C1  UNL     1      35.376  15.896  -2.354  1.00  0.00     0.033 C 
HETATM    2  C2  UNL     1      36.226  15.391  -3.521  1.00  0.00     0.089 C 
HETATM    3  C3  UNL     1      35.805  14.181  -4.182  1.00  0.00     0.040 C 
HETATM    4  C4  UNL     1      35.860  12.798  -4.571  1.00  0.00     0.097 C 
HETATM    5  N1  UNL     1      37.121  12.187  -4.077  1.00  0.00    -0.283 NA
HETATM    6  C14 UNL     1      37.496  12.675  -2.772  1.00  0.00     0.140 C 
HETATM    7  C15 UNL     1      38.169  13.955  -2.592  1.00  0.00     0.082 C 
HETATM    8  N5  UNL     1      37.575  15.192  -2.995  1.00  0.00    -0.326 N 
HETATM    9  C16 UNL     1      38.390  16.316  -2.882  1.00  0.00     0.227 C 
HETATM   10  O2  UNL     1      39.563  16.153  -2.444  1.00  0.00    -0.273 OA
ENDROOT
BRANCH   5  11
HETATM   11  C5  UNL     1      38.213  12.294  -4.957  1.00  0.00     0.135 C 
BRANCH  11  12
HETATM   12  C6  UNL     1      38.274  13.407  -5.886  1.00  0.00     0.269 C 
HETATM   13  O1  UNL     1      37.235  14.147  -6.078  1.00  0.00    -0.267 OA
HETATM   14  N2  UNL     1      39.404  13.795  -6.645  1.00  0.00    -0.155 N 
ATOM     15  H2  UNL     1      39.363  13.658  -7.655  1.00  0.00     0.187 HD
BRANCH  14  16
HETATM   16  C7  UNL     1      40.474  14.306  -6.159  1.00  0.00     0.686 A 
HETATM   17  N3  UNL     1      40.567  15.557  -5.694  1.00  0.00    -0.189 N 
HETATM   18  C8  UNL     1      41.803  15.774  -5.265  1.00  0.00     0.078 A 
ATOM     19  H3  UNL     1      39.807  16.237  -5.672  1.00  0.00     0.184 HD
HETATM   20  C9  UNL     1      42.419  16.896  -4.693  1.00  0.00     0.058 A 
HETATM   21  C13 UNL     1      42.516  14.612  -5.473  1.00  0.00     0.078 A 
HETATM   22  C10 UNL     1      43.748  16.825  -4.337  1.00  0.00     0.058 A 
HETATM   23 CL1  UNL     1      44.559  18.207  -3.614  1.00  0.00    -0.082 Cl
HETATM   24  C11 UNL     1      44.470  15.673  -4.538  1.00  0.00     0.058 A 
HETATM   25 CL2  UNL     1      46.138  15.594  -4.090  1.00  0.00    -0.082 Cl
HETATM   26  C12 UNL     1      43.846  14.557  -5.111  1.00  0.00     0.058 A 
HETATM   27  N4  UNL     1      41.665  13.739  -6.022  1.00  0.00    -0.189 N 
ATOM     28  H4  UNL     1      41.897  12.783  -6.293  1.00  0.00     0.184 HD
ENDBRANCH  14  16
ENDBRANCH  11  12
ENDBRANCH   5  11
BRANCH   9  29
HETATM   29  C17 UNL     1      37.982  17.689  -3.235  1.00  0.00     0.130 C 
BRANCH  29  30
HETATM   30  C18 UNL     1      39.012  18.545  -3.855  1.00  0.00    -0.022 C 
BRANCH  30  31
HETATM   31  C19 UNL     1      38.948  18.999  -5.233  1.00  0.00    -0.030 C 
BRANCH  31  32
HETATM   32  C20 UNL     1      40.019  19.726  -5.919  1.00  0.00     0.027 C 
BRANCH  32  33
HETATM   33  C21 UNL     1      40.182  19.469  -7.357  1.00  0.00     0.004 C 
BRANCH  33  34
HETATM   34  C22 UNL     1      41.154  18.355  -7.718  1.00  0.00     0.000 C 
BRANCH  34  35
HETATM   35  C23 UNL     1      41.291  18.209  -9.204  1.00  0.00     0.000 C 
BRANCH  35  36
HETATM   36  C24 UNL     1      40.313  19.092  -9.893  1.00  0.00     0.000 C 
BRANCH  36  37
HETATM   37  C25 UNL     1      39.258  18.491 -10.698  1.00  0.00     0.001 C 
BRANCH  37  38
HETATM   38  C26 UNL     1      37.849  18.456 -10.290  1.00  0.00     0.015 C 
BRANCH  38  39
HETATM   39  C27 UNL     1      37.221  17.211  -9.805  1.00  0.00     0.114 C 
HETATM   40 CL3  UNL     1      38.128  16.704  -8.308  1.00  0.00    -0.130 Cl
ENDBRANCH  38  39
ENDBRANCH  37  38
ENDBRANCH  36  37
ENDBRANCH  35  36
ENDBRANCH  34  35
ENDBRANCH  33  34
ENDBRANCH  32  33
ENDBRANCH  31  32
ENDBRANCH  30  31
ENDBRANCH  29  30
ENDBRANCH   9  29
TORSDOF 14
ENDMDL
MODEL 5
REMARK VINA RESULT: -8.131814786      1.912      6.164
REMARK  14 active torsions:
REMARK  status: ('A' for Active; 'I' for Inactive)
REMARK    1  A    between atoms: N1_5  and  C5_6 
REMARK    2  A    between atoms: C5_6  and  C6_7 
REMARK       I    between atoms: C6_7  and  N2_9 
REMARK    3  A    between atoms: N2_9  and  C7_11 
REMARK       I    between atoms: N5_26  and  C16_27 
REMARK    4  A    between atoms: C16_27  and  C17_29 
REMARK    5  A    between atoms: C17_29  and  C18_30 
REMARK    6  A    between atoms: C18_30  and  C19_31 
REMARK    7  A    between atoms: C19_31  and  C20_32 
REMARK    8  A    between atoms: C20_32  and  C21_33 
REMARK    9  A    between atoms: C21_33  and  C22_34 
REMARK   10  A    between atoms: C22_34  and  C23_35 
REMARK   11  A    between atoms: C23_35  and  C24_36 
REMARK   12  A    between atoms: C24_36  and  C25_37 
REMARK   13  A    between atoms: C25_37  and  C26_38 
REMARK   14  A    between atoms: C26_38  and  C27_39 
ROOT
HETATM    1  C1  UNL     1      37.982  11.628  -5.140  1.00  0.00     0.033 C 
HETATM    2  C2  UNL     1      38.305  12.962  -4.465  1.00  0.00     0.089 C 
HETATM    3  C3  UNL     1      37.715  13.221  -3.176  1.00  0.00     0.040 C 
HETATM    4  C4  UNL     1      36.842  13.849  -2.223  1.00  0.00     0.097 C 
HETATM    5  N1  UNL     1      36.104  14.962  -2.876  1.00  0.00    -0.283 NA
HETATM    6  C14 UNL     1      35.730  14.653  -4.234  1.00  0.00     0.140 C 
HETATM    7  C15 UNL     1      36.673  14.770  -5.339  1.00  0.00     0.082 C 
HETATM    8  N5  UNL     1      37.882  14.009  -5.393  1.00  0.00    -0.326 N 
HETATM    9  C16 UNL     1      38.746  14.324  -6.440  1.00  0.00     0.227 C 
HETATM   10  O2  UNL     1      38.397  15.239  -7.237  1.00  0.00    -0.273 OA
ENDROOT
BRANCH   5  11
HETATM   11  C5  UNL     1      36.756  16.208  -2.833  1.00  0.00     0.135 C 
BRANCH  11  12
HETATM   12  C6  UNL     1      38.196  16.254  -2.666  1.00  0.00     0.269 C 
HETATM   13  O1  UNL     1      38.806  15.304  -2.040  1.00  0.00    -0.267 OA
HETATM   14  N2  UNL     1      39.055  17.274  -3.138  1.00  0.00    -0.155 N 
ATOM     15  H2  UNL     1      39.499  17.875  -2.443  1.00  0.00     0.187 HD
BRANCH  14  16
HETATM   16  C7  UNL     1      39.318  17.500  -4.371  1.00  0.00     0.686 A 
HETATM   17  N3  UNL     1      40.548  17.469  -4.897  1.00  0.00    -0.189 N 
HETATM   18  C8  UNL     1      40.478  17.748  -6.192  1.00  0.00     0.078 A 
ATOM     19  H3  UNL     1      41.405  17.263  -4.384  1.00  0.00     0.184 HD
HETATM   20  C9  UNL     1      41.457  17.841  -7.191  1.00  0.00     0.058 A 
HETATM   21  C13 UNL     1      39.149  17.966  -6.490  1.00  0.00     0.078 A 
HETATM   22  C10 UNL     1      41.077  18.152  -8.477  1.00  0.00     0.058 A 
HETATM   23 CL1  UNL     1      42.273  18.276  -9.762  1.00  0.00    -0.082 Cl
HETATM   24  C11 UNL     1      39.756  18.371  -8.789  1.00  0.00     0.058 A 
HETATM   25 CL2  UNL     1      39.290  18.762 -10.407  1.00  0.00    -0.082 Cl
HETATM   26  C12 UNL     1      38.785  18.276  -7.784  1.00  0.00     0.058 A 
HETATM   27  N4  UNL     1      38.473  17.805  -5.348  1.00  0.00    -0.189 N 
ATOM     28  H4  UNL     1      37.463  17.901  -5.243  1.00  0.00     0.184 HD
ENDBRANCH  14  16
ENDBRANCH  11  12
ENDBRANCH   5  11
BRANCH   9  29
HETATM   29  C17 UNL     1      40.041  13.664  -6.687  1.00  0.00     0.130 C 
BRANCH  29  30
HETATM   30  C18 UNL     1      41.210  14.215  -5.973  1.00  0.00    -0.022 C 
BRANCH  30  31
HETATM   31  C19 UNL     1      42.576  14.059  -6.440  1.00  0.00    -0.030 C 
BRANCH  31  32
HETATM   32  C20 UNL     1      43.763  14.494  -5.701  1.00  0.00     0.027 C 
BRANCH  32  33
HETATM   33  C21 UNL     1      43.549  15.436  -4.593  1.00  0.00     0.004 C 
BRANCH  33  34
HETATM   34  C22 UNL     1      44.812  16.008  -3.965  1.00  0.00     0.000 C 
BRANCH  34  35
HETATM   35  C23 UNL     1      44.841  17.503  -4.063  1.00  0.00     0.000 C 
BRANCH  35  36
HETATM   36  C24 UNL     1      46.213  18.003  -3.780  1.00  0.00     0.000 C 
BRANCH  36  37
HETATM   37  C25 UNL     1      47.358  17.185  -4.154  1.00  0.00     0.001 C 
BRANCH  37  38
HETATM   38  C26 UNL     1      48.462  16.870  -3.239  1.00  0.00     0.015 C 
BRANCH  38  39
HETATM   39  C27 UNL     1      48.630  15.515  -2.677  1.00  0.00     0.114 C 
HETATM   40 CL3  UNL     1      48.151  14.334  -3.980  1.00  0.00    -0.130 Cl
ENDBRANCH  38  39
ENDBRANCH  37  38
ENDBRANCH  36  37
ENDBRANCH  35  36
ENDBRANCH  34  35
ENDBRANCH  33  34
ENDBRANCH  32  33
ENDBRANCH  31  32
ENDBRANCH  30  31
ENDBRANCH  29  30
ENDBRANCH   9  29
TORSDOF 14
ENDMDL
