MODEL 1
REMARK VINA RESULT: -6.893847057      0.000      0.000
REMARK  6 active torsions:
REMARK  status: ('A' for Active; 'I' for Inactive)
REMARK    1  A    between atoms: N1_1  and  N2_4 
REMARK    2  A    between atoms: C5_9  and  N3_10 
REMARK    3  A    between atoms: N3_10  and  C6_12 
REMARK    4  A    between atoms: C6_12  and  C7_13 
REMARK    5  A    between atoms: C7_13  and  C8_14 
REMARK    6  A    between atoms: C8_14  and  O1_15 
ROOT
HETATM    1  N2  UNL     1      16.535  10.526  -1.202  1.00  0.00    -0.250 N 
HETATM    2  C1  UNL     1      17.220  11.004  -0.123  1.00  0.00     0.042 A 
HETATM    3  C2  UNL     1      16.678  11.030   1.132  1.00  0.00    -0.026 A 
HETATM    4  C3  UNL     1      15.397  10.550   1.281  1.00  0.00    -0.040 A 
HETATM    5  C4  UNL     1      14.721  10.075   0.203  1.00  0.00    -0.006 A 
HETATM    6  C5  UNL     1      15.297  10.054  -1.101  1.00  0.00     0.129 A 
HETATM    7  C9  UNL     1      13.365   9.627   0.677  1.00  0.00     0.043 C 
HETATM    8  C10 UNL     1      13.159  10.522   1.880  1.00  0.00     0.009 C 
HETATM    9  C11 UNL     1      14.556  10.452   2.511  1.00  0.00     0.040 C 
HETATM   10  C12 UNL     1      17.404  11.546   2.323  1.00  0.00     0.041 C 
HETATM   11  C13 UNL     1      18.887  11.435   2.215  1.00  0.00     0.005 C 
HETATM   12  C14 UNL     1      19.395  10.963   0.898  1.00  0.00     0.006 C 
HETATM   13  C15 UNL     1      18.601  11.524  -0.273  1.00  0.00     0.060 C 
ENDROOT
BRANCH   6  14
HETATM   14  N3  UNL     1      14.579   9.596  -2.002  1.00  0.00    -0.374 N 
ATOM     15  H3  UNL     1      14.726   8.596  -2.141  1.00  0.00     0.161 HD
BRANCH  14  16
HETATM   16  C6  UNL     1      13.628  10.109  -2.865  1.00  0.00     0.123 C 
BRANCH  16  17
HETATM   17  C7  UNL     1      13.593   9.374  -4.217  1.00  0.00     0.045 C 
BRANCH  17  18
HETATM   18  C8  UNL     1      14.461  10.160  -5.155  1.00  0.00     0.165 C 
BRANCH  18  19
HETATM   19  O1  UNL     1      15.807   9.917  -4.908  1.00  0.00    -0.401 OA
ATOM     20  H1  UNL     1      16.352  10.575  -5.322  1.00  0.00     0.209 HD
ENDBRANCH  18  19
ENDBRANCH  17  18
ENDBRANCH  16  17
ENDBRANCH  14  16
ENDBRANCH   6  14
BRANCH   1  21
HETATM   21  N1  UNL     1      17.169  10.538  -2.456  1.00  0.00    -0.337 N 
ATOM     22  H12 UNL     1      17.849  11.270  -2.667  1.00  0.00     0.177 HD
ATOM     23  H11 UNL     1      16.930   9.809  -3.128  1.00  0.00     0.177 HD
ENDBRANCH   1  21
TORSDOF 6
ENDMDL
MODEL 2
REMARK VINA RESULT: -6.852637253      2.056      5.028
REMARK  6 active torsions:
REMARK  status: ('A' for Active; 'I' for Inactive)
REMARK    1  A    between atoms: N1_1  and  N2_4 
REMARK    2  A    between atoms: C5_9  and  N3_10 
REMARK    3  A    between atoms: N3_10  and  C6_12 
REMARK    4  A    between atoms: C6_12  and  C7_13 
REMARK    5  A    between atoms: C7_13  and  C8_14 
REMARK    6  A    between atoms: C8_14  and  O1_15 
ROOT
HETATM    1  N2  UNL     1      16.728  10.608  -0.525  1.00  0.00    -0.250 N 
HETATM    2  C1  UNL     1      15.549  10.250  -1.112  1.00  0.00     0.042 A 
HETATM    3  C2  UNL     1      14.383  10.150  -0.405  1.00  0.00    -0.026 A 
HETATM    4  C3  UNL     1      14.431  10.426   0.942  1.00  0.00    -0.040 A 
HETATM    5  C4  UNL     1      15.607  10.782   1.520  1.00  0.00    -0.006 A 
HETATM    6  C5  UNL     1      16.816  10.883   0.773  1.00  0.00     0.129 A 
HETATM    7  C9  UNL     1      15.342  11.018   2.983  1.00  0.00     0.043 C 
HETATM    8  C10 UNL     1      14.155  10.111   3.221  1.00  0.00     0.009 C 
HETATM    9  C11 UNL     1      13.335  10.402   1.957  1.00  0.00     0.040 C 
HETATM   10  C12 UNL     1      13.086   9.763  -1.023  1.00  0.00     0.041 C 
HETATM   11  C13 UNL     1      12.987  10.102  -2.471  1.00  0.00     0.005 C 
HETATM   12  C14 UNL     1      14.233  10.637  -3.085  1.00  0.00     0.006 C 
HETATM   13  C15 UNL     1      15.487   9.950  -2.563  1.00  0.00     0.060 C 
ENDROOT
BRANCH   6  14
HETATM   14  N3  UNL     1      17.823  11.216   1.415  1.00  0.00    -0.374 N 
ATOM     15  H3  UNL     1      17.994  12.221   1.370  1.00  0.00     0.161 HD
BRANCH  14  16
HETATM   16  C6  UNL     1      18.771  10.559   2.177  1.00  0.00     0.123 C 
BRANCH  16  17
HETATM   17  C7  UNL     1      20.142  11.260   2.155  1.00  0.00     0.045 C 
BRANCH  17  18
HETATM   18  C8  UNL     1      20.769  10.936   0.832  1.00  0.00     0.165 C 
BRANCH  18  19
HETATM   19  O1  UNL     1      20.354  11.832  -0.147  1.00  0.00    -0.401 OA
ATOM     20  H1  UNL     1      19.660  11.458  -0.677  1.00  0.00     0.209 HD
ENDBRANCH  18  19
ENDBRANCH  17  18
ENDBRANCH  16  17
ENDBRANCH  14  16
ENDBRANCH   6  14
BRANCH   1  21
HETATM   21  N1  UNL     1      17.879  10.684  -1.327  1.00  0.00    -0.337 N 
ATOM     22  H12 UNL     1      17.947  10.103  -2.163  1.00  0.00     0.177 HD
ATOM     23  H11 UNL     1      18.623  11.324  -1.049  1.00  0.00     0.177 HD
ENDBRANCH   1  21
TORSDOF 6
ENDMDL
MODEL 3
REMARK VINA RESULT: -6.845400014      2.664      5.313
REMARK  6 active torsions:
REMARK  status: ('A' for Active; 'I' for Inactive)
REMARK    1  A    between atoms: N1_1  and  N2_4 
REMARK    2  A    between atoms: C5_9  and  N3_10 
REMARK    3  A    between atoms: N3_10  and  C6_12 
REMARK    4  A    between atoms: C6_12  and  C7_13 
REMARK    5  A    between atoms: C7_13  and  C8_14 
REMARK    6  A    between atoms: C8_14  and  O1_15 
ROOT
HETATM    1  N2  UNL     1      16.368  11.421   1.614  1.00  0.00    -0.250 N 
HETATM    2  C1  UNL     1      15.176  10.829   1.914  1.00  0.00     0.042 A 
HETATM    3  C2  UNL     1      14.466  10.110   0.992  1.00  0.00    -0.026 A 
HETATM    4  C3  UNL     1      14.998   9.998  -0.272  1.00  0.00    -0.040 A 
HETATM    5  C4  UNL     1      16.186  10.588  -0.563  1.00  0.00    -0.006 A 
HETATM    6  C5  UNL     1      16.916  11.335   0.406  1.00  0.00     0.129 A 
HETATM    7  C9  UNL     1      16.501  10.290  -2.005  1.00  0.00     0.043 C 
HETATM    8  C10 UNL     1      15.114  10.115  -2.583  1.00  0.00     0.009 C 
HETATM    9  C11 UNL     1      14.460   9.286  -1.470  1.00  0.00     0.040 C 
HETATM   10  C12 UNL     1      13.165   9.456   1.295  1.00  0.00     0.041 C 
HETATM   11  C13 UNL     1      12.998   9.090   2.730  1.00  0.00     0.005 C 
HETATM   12  C14 UNL     1      14.084   9.557   3.636  1.00  0.00     0.006 C 
HETATM   13  C15 UNL     1      14.594  10.945   3.273  1.00  0.00     0.060 C 
ENDROOT
BRANCH   6  14
HETATM   14  N3  UNL     1      17.986  11.826   0.017  1.00  0.00    -0.374 N 
ATOM     15  H3  UNL     1      17.880  12.797  -0.279  1.00  0.00     0.161 HD
BRANCH  14  16
HETATM   16  C6  UNL     1      19.289  11.380  -0.113  1.00  0.00     0.123 C 
BRANCH  16  17
HETATM   17  C7  UNL     1      19.608  10.197   0.819  1.00  0.00     0.045 C 
BRANCH  17  18
HETATM   18  C8  UNL     1      20.378  10.758   1.977  1.00  0.00     0.165 C 
BRANCH  18  19
HETATM   19  O1  UNL     1      19.997  12.070   2.238  1.00  0.00    -0.401 OA
ATOM     20  H1  UNL     1      20.756  12.637   2.305  1.00  0.00     0.209 HD
ENDBRANCH  18  19
ENDBRANCH  17  18
ENDBRANCH  16  17
ENDBRANCH  14  16
ENDBRANCH   6  14
BRANCH   1  21
HETATM   21  N1  UNL     1      17.030  12.142   2.623  1.00  0.00    -0.337 N 
ATOM     22  H12 UNL     1      17.174  11.709   3.535  1.00  0.00     0.177 HD
ATOM     23  H11 UNL     1      17.351  13.087   2.413  1.00  0.00     0.177 HD
ENDBRANCH   1  21
TORSDOF 6
ENDMDL
MODEL 4
REMARK VINA RESULT: -6.738876986      2.450      4.421
REMARK  6 active torsions:
REMARK  status: ('A' for Active; 'I' for Inactive)
REMARK    1  A    between atoms: N1_1  and  N2_4 
REMARK    2  A    between atoms: C5_9  and  N3_10 
REMARK    3  A    between atoms: N3_10  and  C6_12 
REMARK    4  A    between atoms: C6_12  and  C7_13 
REMARK    5  A    between atoms: C7_13  and  C8_14 
REMARK    6  A    between atoms: C8_14  and  O1_15 
ROOT
HETATM    1  N2  UNL     1      16.964  11.568   1.462  1.00  0.00    -0.250 N 
HETATM    2  C1  UNL     1      16.027  11.301   2.418  1.00  0.00     0.042 A 
HETATM    3  C2  UNL     1      14.913  10.553   2.158  1.00  0.00    -0.026 A 
HETATM    4  C3  UNL     1      14.759  10.065   0.880  1.00  0.00    -0.040 A 
HETATM    5  C4  UNL     1      15.696  10.334  -0.066  1.00  0.00    -0.006 A 
HETATM    6  C5  UNL     1      16.853  11.116   0.218  1.00  0.00     0.129 A 
HETATM    7  C9  UNL     1      15.255   9.673  -1.343  1.00  0.00     0.043 C 
HETATM    8  C10 UNL     1      13.752   9.651  -1.165  1.00  0.00     0.009 C 
HETATM    9  C11 UNL     1      13.662   9.230   0.307  1.00  0.00     0.040 C 
HETATM   10  C12 UNL     1      13.878  10.249   3.182  1.00  0.00     0.041 C 
HETATM   11  C13 UNL     1      14.401  10.245   4.578  1.00  0.00     0.005 C 
HETATM   12  C14 UNL     1      15.817  10.676   4.728  1.00  0.00     0.006 C 
HETATM   13  C15 UNL     1      16.184  11.823   3.797  1.00  0.00     0.060 C 
ENDROOT
BRANCH   6  14
HETATM   14  N3  UNL     1      17.634  11.291  -0.730  1.00  0.00    -0.374 N 
ATOM     15  H3  UNL     1      17.492  12.193  -1.185  1.00  0.00     0.161 HD
BRANCH  14  16
HETATM   16  C6  UNL     1      18.650  10.562  -1.321  1.00  0.00     0.123 C 
BRANCH  16  17
HETATM   17  C7  UNL     1      19.398   9.664  -0.319  1.00  0.00     0.045 C 
BRANCH  17  18
HETATM   18  C8  UNL     1      20.529  10.483   0.228  1.00  0.00     0.165 C 
BRANCH  18  19
HETATM   19  O1  UNL     1      20.403  11.817  -0.142  1.00  0.00    -0.401 OA
ATOM     20  H1  UNL     1      20.436  11.911  -1.087  1.00  0.00     0.209 HD
ENDBRANCH  18  19
ENDBRANCH  17  18
ENDBRANCH  16  17
ENDBRANCH  14  16
ENDBRANCH   6  14
BRANCH   1  21
HETATM   21  N1  UNL     1      18.079  12.348   1.817  1.00  0.00    -0.337 N 
ATOM     22  H12 UNL     1      18.124  12.763   2.748  1.00  0.00     0.177 HD
ATOM     23  H11 UNL     1      18.819  12.479   1.127  1.00  0.00     0.177 HD
ENDBRANCH   1  21
TORSDOF 6
ENDMDL
MODEL 5
REMARK VINA RESULT: -6.681427133      1.829      3.481
REMARK  6 active torsions:
REMARK  status: ('A' for Active; 'I' for Inactive)
REMARK    1  A    between atoms: N1_1  and  N2_4 
REMARK    2  A    between atoms: C5_9  and  N3_10 
REMARK    3  A    between atoms: N3_10  and  C6_12 
REMARK    4  A    between atoms: C6_12  and  C7_13 
REMARK    5  A    between atoms: C7_13  and  C8_14 
REMARK    6  A    between atoms: C8_14  and  O1_15 
ROOT
HETATM    1  N2  UNL     1      14.101   9.790   0.866  1.00  0.00    -0.250 N 
HETATM    2  C1  UNL     1      14.943  10.205   1.856  1.00  0.00     0.042 A 
HETATM    3  C2  UNL     1      16.205  10.662   1.597  1.00  0.00    -0.026 A 
HETATM    4  C3  UNL     1      16.612  10.692   0.283  1.00  0.00    -0.040 A 
HETATM    5  C4  UNL     1      15.770  10.278  -0.698  1.00  0.00    -0.006 A 
HETATM    6  C5  UNL     1      14.456   9.804  -0.415  1.00  0.00     0.129 A 
HETATM    7  C9  UNL     1      16.491  10.429  -2.010  1.00  0.00     0.043 C 
HETATM    8  C10 UNL     1      17.933  10.287  -1.577  1.00  0.00     0.009 C 
HETATM    9  C11 UNL     1      17.915  11.135  -0.298  1.00  0.00     0.040 C 
HETATM   10  C12 UNL     1      17.141  11.120   2.659  1.00  0.00     0.041 C 
HETATM   11  C13 UNL     1      16.455  11.642   3.876  1.00  0.00     0.005 C 
HETATM   12  C14 UNL     1      14.974  11.492   3.885  1.00  0.00     0.006 C 
HETATM   13  C15 UNL     1      14.513  10.175   3.275  1.00  0.00     0.060 C 
ENDROOT
BRANCH   6  14
HETATM   14  N3  UNL     1      13.784   9.454  -1.396  1.00  0.00    -0.374 N 
ATOM     15  H3  UNL     1      13.946   8.478  -1.647  1.00  0.00     0.161 HD
BRANCH  14  16
HETATM   16  C6  UNL     1      12.869  10.063  -2.235  1.00  0.00     0.123 C 
BRANCH  16  17
HETATM   17  C7  UNL     1      13.091   9.707  -3.716  1.00  0.00     0.045 C 
BRANCH  17  18
HETATM   18  C8  UNL     1      11.747   9.346  -4.277  1.00  0.00     0.165 C 
BRANCH  18  19
HETATM   19  O1  UNL     1      11.764   9.373  -5.667  1.00  0.00    -0.401 OA
ATOM     20  H1  UNL     1      11.238   8.669  -6.027  1.00  0.00     0.209 HD
ENDBRANCH  18  19
ENDBRANCH  17  18
ENDBRANCH  16  17
ENDBRANCH  14  16
ENDBRANCH   6  14
BRANCH   1  21
HETATM   21  N1  UNL     1      12.821   9.334   1.222  1.00  0.00    -0.337 N 
ATOM     22  H12 UNL     1      12.729   8.489   1.788  1.00  0.00     0.177 HD
ATOM     23  H11 UNL     1      12.010   9.864   0.903  1.00  0.00     0.177 HD
ENDBRANCH   1  21
TORSDOF 6
ENDMDL
