MODEL 1
REMARK VINA RESULT: -5.092275252      0.000      0.000
REMARK  4 active torsions:
REMARK  status: ('A' for Active; 'I' for Inactive)
REMARK    1  A    between atoms: C2_2  and  O1_3 
REMARK    2  A    between atoms: O1_3  and  C3_4 
REMARK    3  A    between atoms: C3_4  and  C4_6 
REMARK    4  A    between atoms: N1_8  and  C6_9 
ROOT
HETATM    1  C4  UNL     1     -60.213 -67.907  20.037  1.00  0.00     0.133 C 
HETATM    2  C5  UNL     1     -60.796 -68.845  21.056  1.00  0.00     0.289 C 
HETATM    3  N1  UNL     1     -59.743 -69.739  21.494  1.00  0.00     0.095 N 
HETATM    4  C10 UNL     1     -58.492 -69.060  21.147  1.00  0.00     0.293 C 
HETATM    5  C11 UNL     1     -58.821 -68.435  19.794  1.00  0.00     0.136 C 
HETATM    6  C12 UNL     1     -57.872 -67.341  19.493  1.00  0.00     0.066 C 
HETATM    7  N2  UNL     1     -57.117 -66.491  19.240  1.00  0.00    -0.197 NA
ENDROOT
BRANCH   1   8
HETATM    8  C3  UNL     1     -61.048 -67.875  18.835  1.00  0.00     0.266 C 
HETATM    9  O2  UNL     1     -61.826 -68.816  18.583  1.00  0.00    -0.265 OA
BRANCH   8  10
HETATM   10  O1  UNL     1     -60.984 -66.805  17.968  1.00  0.00    -0.321 OA
BRANCH  10  11
HETATM   11  C2  UNL     1     -60.925 -65.460  18.403  1.00  0.00     0.174 C 
HETATM   12  C1  UNL     1     -59.834 -64.670  17.740  1.00  0.00     0.034 C 
ENDBRANCH  10  11
ENDBRANCH   8  10
ENDBRANCH   1   8
BRANCH   3  13
HETATM   13  C6  UNL     1     -59.730 -69.919  22.922  1.00  0.00     0.223 C 
HETATM   14  C7  UNL     1     -58.320 -70.183  23.408  1.00  0.00     0.036 C 
HETATM   15  C8  UNL     1     -58.706 -71.649  23.484  1.00  0.00     0.004 C 
HETATM   16  C9  UNL     1     -60.179 -71.238  23.455  1.00  0.00     0.036 C 
ENDBRANCH   3  13
TORSDOF 4
ENDMDL
MODEL 2
REMARK VINA RESULT: -5.077198008      2.186      5.479
REMARK  4 active torsions:
REMARK  status: ('A' for Active; 'I' for Inactive)
REMARK    1  A    between atoms: C2_2  and  O1_3 
REMARK    2  A    between atoms: O1_3  and  C3_4 
REMARK    3  A    between atoms: C3_4  and  C4_6 
REMARK    4  A    between atoms: N1_8  and  C6_9 
ROOT
HETATM    1  C4  UNL     1     -60.629 -69.433  20.715  1.00  0.00     0.133 C 
HETATM    2  C5  UNL     1     -61.144 -68.441  19.711  1.00  0.00     0.289 C 
HETATM    3  N1  UNL     1     -60.144 -67.405  19.553  1.00  0.00     0.095 N 
HETATM    4  C10 UNL     1     -58.895 -67.997  20.041  1.00  0.00     0.293 C 
HETATM    5  C11 UNL     1     -59.363 -68.807  21.246  1.00  0.00     0.136 C 
HETATM    6  C12 UNL     1     -58.356 -69.833  21.594  1.00  0.00     0.066 C 
HETATM    7  N2  UNL     1     -57.559 -70.630  21.886  1.00  0.00    -0.197 NA
ENDROOT
BRANCH   1   8
HETATM    8  C3  UNL     1     -61.636 -69.688  21.746  1.00  0.00     0.266 C 
HETATM    9  O2  UNL     1     -62.048 -68.758  22.468  1.00  0.00    -0.265 OA
BRANCH   8  10
HETATM   10  O1  UNL     1     -62.141 -70.956  21.931  1.00  0.00    -0.321 OA
BRANCH  10  11
HETATM   11  C2  UNL     1     -61.344 -72.124  21.859  1.00  0.00     0.174 C 
HETATM   12  C1  UNL     1     -60.634 -72.438  23.143  1.00  0.00     0.034 C 
ENDBRANCH  10  11
ENDBRANCH   8  10
ENDBRANCH   1   8
BRANCH   3  13
HETATM   13  C6  UNL     1     -59.923 -67.056  18.175  1.00  0.00     0.223 C 
HETATM   14  C7  UNL     1     -58.978 -65.875  18.073  1.00  0.00     0.036 C 
HETATM   15  C8  UNL     1     -60.205 -65.017  17.828  1.00  0.00     0.004 C 
HETATM   16  C9  UNL     1     -60.992 -66.282  17.479  1.00  0.00     0.036 C 
ENDBRANCH   3  13
TORSDOF 4
ENDMDL
MODEL 3
REMARK VINA RESULT: -5.001171590      9.797     12.015
REMARK  4 active torsions:
REMARK  status: ('A' for Active; 'I' for Inactive)
REMARK    1  A    between atoms: C2_2  and  O1_3 
REMARK    2  A    between atoms: O1_3  and  C3_4 
REMARK    3  A    between atoms: C3_4  and  C4_6 
REMARK    4  A    between atoms: N1_8  and  C6_9 
ROOT
HETATM    1  C4  UNL     1     -50.427 -66.837  14.613  1.00  0.00     0.133 C 
HETATM    2  C5  UNL     1     -51.354 -65.854  15.272  1.00  0.00     0.289 C 
HETATM    3  N1  UNL     1     -51.383 -64.655  14.460  1.00  0.00     0.095 N 
HETATM    4  C10 UNL     1     -50.910 -65.073  13.137  1.00  0.00     0.293 C 
HETATM    5  C11 UNL     1     -49.800 -66.061  13.482  1.00  0.00     0.136 C 
HETATM    6  C12 UNL     1     -49.513 -66.932  12.321  1.00  0.00     0.066 C 
HETATM    7  N2  UNL     1     -49.269 -67.609  11.406  1.00  0.00    -0.197 NA
ENDROOT
BRANCH   1   8
HETATM    8  C3  UNL     1     -49.458 -67.354  15.580  1.00  0.00     0.266 C 
HETATM    9  O2  UNL     1     -48.621 -66.591  16.103  1.00  0.00    -0.265 OA
BRANCH   8  10
HETATM   10  O1  UNL     1     -49.458 -68.688  15.925  1.00  0.00    -0.321 OA
BRANCH  10  11
HETATM   11  C2  UNL     1     -49.930 -69.165  17.171  1.00  0.00     0.174 C 
HETATM   12  C1  UNL     1     -50.578 -70.515  17.082  1.00  0.00     0.034 C 
ENDBRANCH  10  11
ENDBRANCH   8  10
ENDBRANCH   1   8
BRANCH   3  13
HETATM   13  C6  UNL     1     -52.716 -64.145  14.277  1.00  0.00     0.223 C 
HETATM   14  C7  UNL     1     -52.686 -62.640  14.099  1.00  0.00     0.036 C 
HETATM   15  C8  UNL     1     -53.121 -62.539  15.549  1.00  0.00     0.004 C 
HETATM   16  C9  UNL     1     -53.572 -64.000  15.491  1.00  0.00     0.036 C 
ENDBRANCH   3  13
TORSDOF 4
ENDMDL
MODEL 4
REMARK VINA RESULT: -4.858832769      9.817     11.241
REMARK  4 active torsions:
REMARK  status: ('A' for Active; 'I' for Inactive)
REMARK    1  A    between atoms: C2_2  and  O1_3 
REMARK    2  A    between atoms: O1_3  and  C3_4 
REMARK    3  A    between atoms: C3_4  and  C4_6 
REMARK    4  A    between atoms: N1_8  and  C6_9 
ROOT
HETATM    1  C4  UNL     1     -49.873 -66.636  13.920  1.00  0.00     0.133 C 
HETATM    2  C5  UNL     1     -49.995 -67.234  15.293  1.00  0.00     0.289 C 
HETATM    3  N1  UNL     1     -50.406 -68.616  15.144  1.00  0.00     0.095 N 
HETATM    4  C10 UNL     1     -50.058 -68.974  13.766  1.00  0.00     0.293 C 
HETATM    5  C11 UNL     1     -50.407 -67.703  12.997  1.00  0.00     0.136 C 
HETATM    6  C12 UNL     1     -49.710 -67.689  11.692  1.00  0.00     0.066 C 
HETATM    7  N2  UNL     1     -49.181 -67.679  10.655  1.00  0.00    -0.197 NA
ENDROOT
BRANCH   1   8
HETATM    8  C3  UNL     1     -50.607 -65.372  13.845  1.00  0.00     0.266 C 
HETATM    9  O2  UNL     1     -50.443 -64.606  12.875  1.00  0.00    -0.265 OA
BRANCH   8  10
HETATM   10  O1  UNL     1     -51.485 -65.013  14.844  1.00  0.00    -0.321 OA
BRANCH  10  11
HETATM   11  C2  UNL     1     -52.688 -64.308  14.600  1.00  0.00     0.174 C 
HETATM   12  C1  UNL     1     -52.697 -62.929  15.190  1.00  0.00     0.034 C 
ENDBRANCH  10  11
ENDBRANCH   8  10
ENDBRANCH   1   8
BRANCH   3  13
HETATM   13  C6  UNL     1     -49.667 -69.506  15.999  1.00  0.00     0.223 C 
HETATM   14  C7  UNL     1     -50.134 -70.935  15.804  1.00  0.00     0.036 C 
HETATM   15  C8  UNL     1     -50.924 -70.768  17.089  1.00  0.00     0.004 C 
HETATM   16  C9  UNL     1     -50.054 -69.559  17.439  1.00  0.00     0.036 C 
ENDBRANCH   3  13
TORSDOF 4
ENDMDL
MODEL 5
REMARK VINA RESULT: -4.754175607      2.068      2.876
REMARK  4 active torsions:
REMARK  status: ('A' for Active; 'I' for Inactive)
REMARK    1  A    between atoms: C2_2  and  O1_3 
REMARK    2  A    between atoms: O1_3  and  C3_4 
REMARK    3  A    between atoms: C3_4  and  C4_6 
REMARK    4  A    between atoms: N1_8  and  C6_9 
ROOT
HETATM    1  C4  UNL     1     -58.724 -67.934  18.976  1.00  0.00     0.133 C 
HETATM    2  C5  UNL     1     -58.223 -68.682  20.178  1.00  0.00     0.289 C 
HETATM    3  N1  UNL     1     -59.327 -68.830  21.105  1.00  0.00     0.095 N 
HETATM    4  C10 UNL     1     -60.535 -68.638  20.298  1.00  0.00     0.293 C 
HETATM    5  C11 UNL     1     -60.123 -67.514  19.351  1.00  0.00     0.136 C 
HETATM    6  C12 UNL     1     -61.016 -67.487  18.172  1.00  0.00     0.066 C 
HETATM    7  N2  UNL     1     -61.726 -67.447  17.251  1.00  0.00    -0.197 NA
ENDROOT
BRANCH   1   8
HETATM    8  C3  UNL     1     -57.837 -66.813  18.664  1.00  0.00     0.266 C 
HETATM    9  O2  UNL     1     -57.042 -66.381  19.523  1.00  0.00    -0.265 OA
BRANCH   8  10
HETATM   10  O1  UNL     1     -57.869 -66.221  17.420  1.00  0.00    -0.321 OA
BRANCH  10  11
HETATM   11  C2  UNL     1     -57.971 -64.822  17.232  1.00  0.00     0.174 C 
HETATM   12  C1  UNL     1     -59.329 -64.277  17.563  1.00  0.00     0.034 C 
ENDBRANCH  10  11
ENDBRANCH   8  10
ENDBRANCH   1   8
BRANCH   3  13
HETATM   13  C6  UNL     1     -59.409 -70.156  21.658  1.00  0.00     0.223 C 
HETATM   14  C7  UNL     1     -59.852 -70.097  23.106  1.00  0.00     0.036 C 
HETATM   15  C8  UNL     1     -58.396 -70.310  23.477  1.00  0.00     0.004 C 
HETATM   16  C9  UNL     1     -58.132 -70.817  22.058  1.00  0.00     0.036 C 
ENDBRANCH   3  13
TORSDOF 4
ENDMDL
