MODEL 1
REMARK VINA RESULT: -7.847141337      0.000      0.000
REMARK  6 active torsions:
REMARK  status: ('A' for Active; 'I' for Inactive)
REMARK    1  A    between atoms: C2_2  and  N1_3 
REMARK    2  A    between atoms: N1_3  and  C3_5 
REMARK    3  A    between atoms: C3_5  and  N2_7 
REMARK    4  A    between atoms: N2_7  and  C4_9 
REMARK    5  A    between atoms: C4_9  and  C5_10 
REMARK    6  A    between atoms: C5_10  and  C6_11 
ROOT
HETATM    1  C6  UNL     1      14.449   9.762   2.713  1.00  0.00     0.160 C 
HETATM    2  O1  UNL     1      15.659   9.533   3.357  1.00  0.00    -0.347 OA
HETATM    3  C7  UNL     1      16.558  10.463   2.835  1.00  0.00     0.167 C 
HETATM    4  C8  UNL     1      17.842   9.810   2.379  1.00  0.00     0.068 C 
HETATM    5  C9  UNL     1      18.555   9.533   3.674  1.00  0.00     0.006 C 
HETATM    6  C10 UNL     1      18.179  10.659   4.597  1.00  0.00     0.006 C 
HETATM    7  C11 UNL     1      16.986  11.361   3.966  1.00  0.00     0.068 C 
HETATM    8  O2  UNL     1      16.021  11.202   1.786  1.00  0.00    -0.323 OA
HETATM    9  C12 UNL     1      15.680  10.386   0.725  1.00  0.00     0.298 C 
HETATM   10  O3  UNL     1      14.981  11.089  -0.245  1.00  0.00    -0.323 OA
HETATM   11  C13 UNL     1      14.089  10.116  -0.701  1.00  0.00     0.160 C 
HETATM   12  C14 UNL     1      14.869   9.074  -1.453  1.00  0.00     0.078 C 
HETATM   13  C15 UNL     1      13.055  10.701  -1.635  1.00  0.00     0.078 C 
HETATM   14  O4  UNL     1      13.546   9.667   0.484  1.00  0.00    -0.343 OA
HETATM   15  C16 UNL     1      14.645   9.397   1.264  1.00  0.00     0.209 C 
ENDROOT
BRANCH   1  16
HETATM   16  C5  UNL     1      13.276   9.090   3.362  1.00  0.00     0.054 C 
BRANCH  16  17
HETATM   17  C4  UNL     1      13.489   8.757   4.791  1.00  0.00     0.124 C 
BRANCH  17  18
HETATM   18  N2  UNL     1      13.816   9.888   5.611  1.00  0.00    -0.367 N 
ATOM     19  H2  UNL     1      13.685  10.814   5.201  1.00  0.00     0.161 HD
BRANCH  18  20
HETATM   20  C3  UNL     1      14.307   9.831   6.944  1.00  0.00     0.167 C 
HETATM   21  S1  UNL     1      15.568   8.845   7.256  1.00  0.00    -0.041 SA
BRANCH  20  22
HETATM   22  N1  UNL     1      13.752  10.570   8.003  1.00  0.00    -0.368 N 
ATOM     23  H1  UNL     1      13.056  11.281   7.783  1.00  0.00     0.161 HD
BRANCH  22  24
HETATM   24  C2  UNL     1      14.119  10.372   9.395  1.00  0.00     0.117 C 
HETATM   25  C1  UNL     1      13.649  11.486  10.273  1.00  0.00     0.026 C 
ENDBRANCH  22  24
ENDBRANCH  20  22
ENDBRANCH  18  20
ENDBRANCH  17  18
ENDBRANCH  16  17
ENDBRANCH   1  16
TORSDOF 6
ENDMDL
MODEL 2
REMARK VINA RESULT: -7.823726092      3.008      5.755
REMARK  6 active torsions:
REMARK  status: ('A' for Active; 'I' for Inactive)
REMARK    1  A    between atoms: C2_2  and  N1_3 
REMARK    2  A    between atoms: N1_3  and  C3_5 
REMARK    3  A    between atoms: C3_5  and  N2_7 
REMARK    4  A    between atoms: N2_7  and  C4_9 
REMARK    5  A    between atoms: C4_9  and  C5_10 
REMARK    6  A    between atoms: C5_10  and  C6_11 
ROOT
HETATM    1  C6  UNL     1      16.183   8.904   5.142  1.00  0.00     0.160 C 
HETATM    2  O1  UNL     1      15.861   9.352   6.419  1.00  0.00    -0.347 OA
HETATM    3  C7  UNL     1      14.595   8.840   6.701  1.00  0.00     0.167 C 
HETATM    4  C8  UNL     1      13.650   9.913   7.190  1.00  0.00     0.068 C 
HETATM    5  C9  UNL     1      14.105  10.140   8.606  1.00  0.00     0.006 C 
HETATM    6  C10 UNL     1      14.577   8.801   9.103  1.00  0.00     0.006 C 
HETATM    7  C11 UNL     1      14.735   7.911   7.878  1.00  0.00     0.068 C 
HETATM    8  O2  UNL     1      14.022   8.186   5.614  1.00  0.00    -0.323 OA
HETATM    9  C12 UNL     1      13.840   9.050   4.552  1.00  0.00     0.298 C 
HETATM   10  O3  UNL     1      13.442   8.368   3.413  1.00  0.00    -0.323 OA
HETATM   11  C13 UNL     1      14.081   9.104   2.413  1.00  0.00     0.160 C 
HETATM   12  C14 UNL     1      13.418  10.450   2.320  1.00  0.00     0.078 C 
HETATM   13  C15 UNL     1      13.973   8.428   1.066  1.00  0.00     0.078 C 
HETATM   14  O4  UNL     1      15.374   9.146   2.889  1.00  0.00    -0.343 OA
HETATM   15  C16 UNL     1      15.230   9.574   4.187  1.00  0.00     0.209 C 
ENDROOT
BRANCH   1  16
HETATM   16  C5  UNL     1      17.630   9.069   4.785  1.00  0.00     0.054 C 
BRANCH  16  17
HETATM   17  C4  UNL     1      18.031  10.476   4.543  1.00  0.00     0.124 C 
BRANCH  17  18
HETATM   18  N2  UNL     1      18.984  10.637   3.483  1.00  0.00    -0.367 N 
ATOM     19  H2  UNL     1      19.763  11.274   3.649  1.00  0.00     0.161 HD
BRANCH  18  20
HETATM   20  C3  UNL     1      18.936   9.984   2.219  1.00  0.00     0.167 C 
HETATM   21  S1  UNL     1      20.269   9.193   1.713  1.00  0.00    -0.041 SA
BRANCH  20  22
HETATM   22  N1  UNL     1      17.804  10.000   1.386  1.00  0.00    -0.368 N 
ATOM     23  H1  UNL     1      17.361   9.111   1.156  1.00  0.00     0.161 HD
BRANCH  22  24
HETATM   24  C2  UNL     1      17.234  11.218   0.835  1.00  0.00     0.117 C 
HETATM   25  C1  UNL     1      16.270  10.945  -0.274  1.00  0.00     0.026 C 
ENDBRANCH  22  24
ENDBRANCH  20  22
ENDBRANCH  18  20
ENDBRANCH  17  18
ENDBRANCH  16  17
ENDBRANCH   1  16
TORSDOF 6
ENDMDL
MODEL 3
REMARK VINA RESULT: -7.753851707      3.525      6.075
REMARK  6 active torsions:
REMARK  status: ('A' for Active; 'I' for Inactive)
REMARK    1  A    between atoms: C2_2  and  N1_3 
REMARK    2  A    between atoms: N1_3  and  C3_5 
REMARK    3  A    between atoms: C3_5  and  N2_7 
REMARK    4  A    between atoms: N2_7  and  C4_9 
REMARK    5  A    between atoms: C4_9  and  C5_10 
REMARK    6  A    between atoms: C5_10  and  C6_11 
ROOT
HETATM    1  C6  UNL     1      16.152   9.036   5.138  1.00  0.00     0.160 C 
HETATM    2  O1  UNL     1      15.814   9.393   6.438  1.00  0.00    -0.347 OA
HETATM    3  C7  UNL     1      14.588   8.782   6.701  1.00  0.00     0.167 C 
HETATM    4  C8  UNL     1      13.580   9.763   7.254  1.00  0.00     0.068 C 
HETATM    5  C9  UNL     1      14.033   9.943   8.677  1.00  0.00     0.006 C 
HETATM    6  C10 UNL     1      14.598   8.615   9.097  1.00  0.00     0.006 C 
HETATM    7  C11 UNL     1      14.802   7.804   7.826  1.00  0.00     0.068 C 
HETATM    8  O2  UNL     1      14.048   8.151   5.585  1.00  0.00    -0.323 OA
HETATM    9  C12 UNL     1      13.798   9.056   4.572  1.00  0.00     0.298 C 
HETATM   10  O3  UNL     1      13.435   8.411   3.400  1.00  0.00    -0.323 OA
HETATM   11  C13 UNL     1      14.014   9.241   2.437  1.00  0.00     0.160 C 
HETATM   12  C14 UNL     1      13.262  10.543   2.422  1.00  0.00     0.078 C 
HETATM   13  C15 UNL     1      13.937   8.632   1.056  1.00  0.00     0.078 C 
HETATM   14  O4  UNL     1      15.306   9.343   2.906  1.00  0.00    -0.343 OA
HETATM   15  C16 UNL     1      15.147   9.691   4.226  1.00  0.00     0.209 C 
ENDROOT
BRANCH   1  16
HETATM   16  C5  UNL     1      17.581   9.317   4.780  1.00  0.00     0.054 C 
BRANCH  16  17
HETATM   17  C4  UNL     1      18.251   8.204   4.064  1.00  0.00     0.124 C 
BRANCH  17  18
HETATM   18  N2  UNL     1      18.726   7.159   4.924  1.00  0.00    -0.367 N 
ATOM     19  H2  UNL     1      18.405   7.171   5.892  1.00  0.00     0.161 HD
BRANCH  18  20
HETATM   20  C3  UNL     1      19.607   6.109   4.544  1.00  0.00     0.167 C 
HETATM   21  S1  UNL     1      21.208   6.417   4.535  1.00  0.00    -0.041 SA
BRANCH  20  22
HETATM   22  N1  UNL     1      19.165   4.830   4.165  1.00  0.00    -0.368 N 
ATOM     23  H1  UNL     1      18.161   4.671   4.081  1.00  0.00     0.161 HD
BRANCH  22  24
HETATM   24  C2  UNL     1      20.064   3.723   3.886  1.00  0.00     0.117 C 
HETATM   25  C1  UNL     1      19.445   2.697   2.993  1.00  0.00     0.026 C 
ENDBRANCH  22  24
ENDBRANCH  20  22
ENDBRANCH  18  20
ENDBRANCH  17  18
ENDBRANCH  16  17
ENDBRANCH   1  16
TORSDOF 6
ENDMDL
MODEL 4
REMARK VINA RESULT: -7.745471459      3.104      6.000
REMARK  6 active torsions:
REMARK  status: ('A' for Active; 'I' for Inactive)
REMARK    1  A    between atoms: C2_2  and  N1_3 
REMARK    2  A    between atoms: N1_3  and  C3_5 
REMARK    3  A    between atoms: C3_5  and  N2_7 
REMARK    4  A    between atoms: N2_7  and  C4_9 
REMARK    5  A    between atoms: C4_9  and  C5_10 
REMARK    6  A    between atoms: C5_10  and  C6_11 
ROOT
HETATM    1  C6  UNL     1      14.421   9.253   3.809  1.00  0.00     0.160 C 
HETATM    2  O1  UNL     1      14.268   8.585   5.018  1.00  0.00    -0.347 OA
HETATM    3  C7  UNL     1      14.755   9.446   6.001  1.00  0.00     0.167 C 
HETATM    4  C8  UNL     1      15.745   8.758   6.912  1.00  0.00     0.068 C 
HETATM    5  C9  UNL     1      14.862   7.915   7.790  1.00  0.00     0.006 C 
HETATM    6  C10 UNL     1      13.591   8.699   7.965  1.00  0.00     0.006 C 
HETATM    7  C11 UNL     1      13.604   9.794   6.908  1.00  0.00     0.068 C 
HETATM    8  O2  UNL     1      15.339  10.593   5.473  1.00  0.00    -0.323 OA
HETATM    9  C12 UNL     1      16.430  10.280   4.686  1.00  0.00     0.298 C 
HETATM   10  O3  UNL     1      16.902  11.397   4.014  1.00  0.00    -0.323 OA
HETATM   11  C13 UNL     1      17.318  10.836   2.804  1.00  0.00     0.160 C 
HETATM   12  C14 UNL     1      18.533   9.990   3.069  1.00  0.00     0.078 C 
HETATM   13  C15 UNL     1      17.689  11.897   1.795  1.00  0.00     0.078 C 
HETATM   14  O4  UNL     1      16.201  10.116   2.438  1.00  0.00    -0.343 OA
HETATM   15  C16 UNL     1      15.902   9.385   3.563  1.00  0.00     0.209 C 
ENDROOT
BRANCH   1  16
HETATM   16  C5  UNL     1      13.662   8.638   2.671  1.00  0.00     0.054 C 
BRANCH  16  17
HETATM   17  C4  UNL     1      12.842   9.606   1.903  1.00  0.00     0.124 C 
BRANCH  17  18
HETATM   18  N2  UNL     1      13.603  10.443   1.021  1.00  0.00    -0.367 N 
ATOM     19  H2  UNL     1      13.788  11.398   1.328  1.00  0.00     0.161 HD
BRANCH  18  20
HETATM   20  C3  UNL     1      14.121  10.056  -0.246  1.00  0.00     0.167 C 
HETATM   21  S1  UNL     1      13.176  10.266  -1.558  1.00  0.00    -0.041 SA
BRANCH  20  22
HETATM   22  N1  UNL     1      15.397   9.493  -0.419  1.00  0.00    -0.368 N 
ATOM     23  H1  UNL     1      15.821   9.005   0.370  1.00  0.00     0.161 HD
BRANCH  22  24
HETATM   24  C2  UNL     1      16.143   9.569  -1.663  1.00  0.00     0.117 C 
HETATM   25  C1  UNL     1      17.469  10.237  -1.493  1.00  0.00     0.026 C 
ENDBRANCH  22  24
ENDBRANCH  20  22
ENDBRANCH  18  20
ENDBRANCH  17  18
ENDBRANCH  16  17
ENDBRANCH   1  16
TORSDOF 6
ENDMDL
MODEL 5
REMARK VINA RESULT: -7.741582900      3.617      7.012
REMARK  6 active torsions:
REMARK  status: ('A' for Active; 'I' for Inactive)
REMARK    1  A    between atoms: C2_2  and  N1_3 
REMARK    2  A    between atoms: N1_3  and  C3_5 
REMARK    3  A    between atoms: C3_5  and  N2_7 
REMARK    4  A    between atoms: N2_7  and  C4_9 
REMARK    5  A    between atoms: C4_9  and  C5_10 
REMARK    6  A    between atoms: C5_10  and  C6_11 
ROOT
HETATM    1  C6  UNL     1      16.324   9.224   5.633  1.00  0.00     0.160 C 
HETATM    2  O1  UNL     1      15.811   8.882   4.387  1.00  0.00    -0.347 OA
HETATM    3  C7  UNL     1      14.762   9.769   4.143  1.00  0.00     0.167 C 
HETATM    4  C8  UNL     1      13.501   9.047   3.728  1.00  0.00     0.068 C 
HETATM    5  C9  UNL     1      13.788   8.664   2.302  1.00  0.00     0.006 C 
HETATM    6  C10 UNL     1      14.637   9.773   1.744  1.00  0.00     0.006 C 
HETATM    7  C11 UNL     1      15.132  10.585   2.932  1.00  0.00     0.068 C 
HETATM    8  O2  UNL     1      14.484  10.589   5.232  1.00  0.00    -0.323 OA
HETATM    9  C12 UNL     1      14.090   9.846   6.327  1.00  0.00     0.298 C 
HETATM   10  O3  UNL     1      13.989  10.638   7.461  1.00  0.00    -0.323 OA
HETATM   11  C13 UNL     1      14.409   9.752   8.455  1.00  0.00     0.160 C 
HETATM   12  C14 UNL     1      13.357   8.691   8.618  1.00  0.00     0.078 C 
HETATM   13  C15 UNL     1      14.591  10.448   9.784  1.00  0.00     0.078 C 
HETATM   14  O4  UNL     1      15.595   9.291   7.926  1.00  0.00    -0.343 OA
HETATM   15  C16 UNL     1      15.257   8.910   6.649  1.00  0.00     0.209 C 
ENDROOT
BRANCH   1  16
HETATM   16  C5  UNL     1      17.658   8.610   5.933  1.00  0.00     0.054 C 
BRANCH  16  17
HETATM   17  C4  UNL     1      18.559   8.526   4.758  1.00  0.00     0.124 C 
BRANCH  17  18
HETATM   18  N2  UNL     1      18.545   7.251   4.102  1.00  0.00    -0.367 N 
ATOM     19  H2  UNL     1      17.807   7.087   3.418  1.00  0.00     0.161 HD
BRANCH  18  20
HETATM   20  C3  UNL     1      19.473   6.195   4.324  1.00  0.00     0.167 C 
HETATM   21  S1  UNL     1      21.025   6.590   4.632  1.00  0.00    -0.041 SA
BRANCH  20  22
HETATM   22  N1  UNL     1      19.120   4.835   4.277  1.00  0.00    -0.368 N 
ATOM     23  H1  UNL     1      18.152   4.580   4.470  1.00  0.00     0.161 HD
BRANCH  22  24
HETATM   24  C2  UNL     1      20.064   3.775   3.967  1.00  0.00     0.117 C 
HETATM   25  C1  UNL     1      19.514   2.793   2.983  1.00  0.00     0.026 C 
ENDBRANCH  22  24
ENDBRANCH  20  22
ENDBRANCH  18  20
ENDBRANCH  17  18
ENDBRANCH  16  17
ENDBRANCH   1  16
TORSDOF 6
ENDMDL
