MODEL 1
REMARK VINA RESULT: -8.283126462      0.000      0.000
REMARK  6 active torsions:
REMARK  status: ('A' for Active; 'I' for Inactive)
REMARK    1  A    between atoms: C2_2  and  N1_3 
REMARK    2  A    between atoms: N1_3  and  C3_5 
REMARK    3  A    between atoms: C4_8  and  N3_9 
REMARK    4  A    between atoms: N5_18  and  C11_20 
REMARK    5  A    between atoms: C14_23  and  O1_24 
REMARK    6  A    between atoms: O1_24  and  C15_25 
ROOT
HETATM    1  C3  UNL     1      18.237  10.132   3.500  1.00  0.00     0.707 A 
HETATM    2  N2  UNL     1      17.501   9.805   4.578  1.00  0.00    -0.021 N 
ATOM      3  H2  UNL     1      17.934   9.879   5.498  1.00  0.00     0.203 HD
HETATM    4  C4  UNL     1      16.223   9.384   4.503  1.00  0.00     0.709 A 
HETATM    5  N4  UNL     1      15.705   9.306   3.251  1.00  0.00    -0.021 N 
ATOM      6  H4  UNL     1      14.739   8.992   3.151  1.00  0.00     0.203 HD
HETATM    7  C10 UNL     1      16.377   9.615   2.145  1.00  0.00     0.707 A 
HETATM    8  N5  UNL     1      15.943   9.552   0.961  1.00  0.00    -0.220 N 
ATOM      9  H5  UNL     1      16.604   9.829   0.235  1.00  0.00     0.178 HD
HETATM   10  N6  UNL     1      17.669  10.035   2.298  1.00  0.00    -0.022 N 
ATOM     11  H6  UNL     1      18.212  10.281   1.471  1.00  0.00     0.203 HD
ENDROOT
BRANCH   8  12
HETATM   12  C11 UNL     1      14.654   9.144   0.494  1.00  0.00     0.099 C 
HETATM   13  C12 UNL     1      13.754  10.341   0.229  1.00  0.00     0.028 C 
HETATM   14  C13 UNL     1      14.216  11.103  -0.999  1.00  0.00     0.034 C 
HETATM   15  C14 UNL     1      14.567  10.137  -2.119  1.00  0.00     0.121 C 
HETATM   16  C17 UNL     1      13.926   8.774  -1.812  1.00  0.00     0.034 C 
HETATM   17  C18 UNL     1      14.717   8.194  -0.664  1.00  0.00     0.028 C 
BRANCH  15  18
HETATM   18  O1  UNL     1      14.269  10.599  -3.374  1.00  0.00    -0.386 OA
BRANCH  18  19
HETATM   19  C15 UNL     1      14.122   9.590  -4.317  1.00  0.00     0.163 C 
HETATM   20  C16 UNL     1      15.172   9.805  -5.388  1.00  0.00     0.033 C 
ENDBRANCH  18  19
ENDBRANCH  15  18
ENDBRANCH   8  12
BRANCH   4  21
HETATM   21  N3  UNL     1      15.458   9.038   5.671  1.00  0.00    -0.217 N 
HETATM   22  C5  UNL     1      16.188   8.682   6.844  1.00  0.00     0.141 C 
HETATM   23  C6  UNL     1      15.345   8.517   8.063  1.00  0.00     0.020 C 
HETATM   24  C7  UNL     1      14.092   7.771   7.676  1.00  0.00     0.003 C 
HETATM   25  C8  UNL     1      13.293   8.675   6.772  1.00  0.00     0.020 C 
HETATM   26  C9  UNL     1      14.027   9.088   5.545  1.00  0.00     0.141 C 
ENDBRANCH   4  21
BRANCH   1  27
HETATM   27  N1  UNL     1      19.458  10.533   3.593  1.00  0.00    -0.225 N 
ATOM     28  H1  UNL     1      19.657  11.468   3.949  1.00  0.00     0.177 HD
BRANCH  27  29
HETATM   29  C2  UNL     1      20.546   9.669   3.198  1.00  0.00     0.133 C 
HETATM   30  C1  UNL     1      21.581  10.534   2.478  1.00  0.00     0.027 C 
ENDBRANCH  27  29
ENDBRANCH   1  27
TORSDOF 6
ENDMDL
MODEL 2
REMARK VINA RESULT: -8.252324213      3.600      6.853
REMARK  6 active torsions:
REMARK  status: ('A' for Active; 'I' for Inactive)
REMARK    1  A    between atoms: C2_2  and  N1_3 
REMARK    2  A    between atoms: N1_3  and  C3_5 
REMARK    3  A    between atoms: C4_8  and  N3_9 
REMARK    4  A    between atoms: N5_18  and  C11_20 
REMARK    5  A    between atoms: C14_23  and  O1_24 
REMARK    6  A    between atoms: O1_24  and  C15_25 
ROOT
HETATM    1  C3  UNL     1      16.423  10.111  -2.116  1.00  0.00     0.707 A 
HETATM    2  N2  UNL     1      15.474   9.788  -1.218  1.00  0.00    -0.021 N 
ATOM      3  H2  UNL     1      14.564   9.486  -1.565  1.00  0.00     0.203 HD
HETATM    4  C4  UNL     1      15.664   9.843   0.115  1.00  0.00     0.709 A 
HETATM    5  N4  UNL     1      16.896  10.252   0.514  1.00  0.00    -0.021 N 
ATOM      6  H4  UNL     1      17.082  10.307   1.516  1.00  0.00     0.203 HD
HETATM    7  C10 UNL     1      17.878  10.585  -0.321  1.00  0.00     0.707 A 
HETATM    8  N5  UNL     1      19.034  10.978   0.000  1.00  0.00    -0.220 N 
ATOM      9  H5  UNL     1      19.658  11.189  -0.778  1.00  0.00     0.178 HD
HETATM   10  N6  UNL     1      17.612  10.504  -1.659  1.00  0.00    -0.022 N 
ATOM     11  H6  UNL     1      18.343  10.752  -2.326  1.00  0.00     0.203 HD
ENDROOT
BRANCH   8  12
HETATM   12  C11 UNL     1      19.592  11.168   1.304  1.00  0.00     0.099 C 
HETATM   13  C12 UNL     1      19.479   9.908   2.146  1.00  0.00     0.028 C 
HETATM   14  C13 UNL     1      20.425   8.834   1.643  1.00  0.00     0.034 C 
HETATM   15  C14 UNL     1      21.786   9.433   1.329  1.00  0.00     0.121 C 
HETATM   16  C17 UNL     1      21.897  10.795   2.033  1.00  0.00     0.034 C 
HETATM   17  C18 UNL     1      20.983  11.728   1.276  1.00  0.00     0.028 C 
BRANCH  15  18
HETATM   18  O1  UNL     1      22.842   8.603   1.598  1.00  0.00    -0.386 OA
BRANCH  18  19
HETATM   19  C15 UNL     1      22.938   7.526   0.726  1.00  0.00     0.163 C 
HETATM   20  C16 UNL     1      23.153   8.080  -0.667  1.00  0.00     0.033 C 
ENDBRANCH  18  19
ENDBRANCH  15  18
ENDBRANCH   8  12
BRANCH   4  21
HETATM   21  N3  UNL     1      14.633   9.493   1.054  1.00  0.00    -0.217 N 
HETATM   22  C5  UNL     1      14.035   8.206   0.912  1.00  0.00     0.141 C 
HETATM   23  C6  UNL     1      13.111   7.834   2.022  1.00  0.00     0.020 C 
HETATM   24  C7  UNL     1      12.274   9.041   2.367  1.00  0.00     0.003 C 
HETATM   25  C8  UNL     1      13.199  10.072   2.961  1.00  0.00     0.020 C 
HETATM   26  C9  UNL     1      14.304  10.476   2.050  1.00  0.00     0.141 C 
ENDBRANCH   4  21
BRANCH   1  27
HETATM   27  N1  UNL     1      16.220  10.052  -3.386  1.00  0.00    -0.225 N 
ATOM     28  H1  UNL     1      17.014  10.078  -4.027  1.00  0.00     0.177 HD
BRANCH  27  29
HETATM   29  C2  UNL     1      14.879   9.948  -3.912  1.00  0.00     0.133 C 
HETATM   30  C1  UNL     1      14.982   9.948  -5.438  1.00  0.00     0.027 C 
ENDBRANCH  27  29
ENDBRANCH   1  27
TORSDOF 6
ENDMDL
MODEL 3
REMARK VINA RESULT: -8.133941502      1.567      1.783
REMARK  6 active torsions:
REMARK  status: ('A' for Active; 'I' for Inactive)
REMARK    1  A    between atoms: C2_2  and  N1_3 
REMARK    2  A    between atoms: N1_3  and  C3_5 
REMARK    3  A    between atoms: C4_8  and  N3_9 
REMARK    4  A    between atoms: N5_18  and  C11_20 
REMARK    5  A    between atoms: C14_23  and  O1_24 
REMARK    6  A    between atoms: O1_24  and  C15_25 
ROOT
HETATM    1  C3  UNL     1      18.286   8.081   4.326  1.00  0.00     0.707 A 
HETATM    2  N2  UNL     1      17.473   8.266   5.381  1.00  0.00    -0.021 N 
ATOM      3  H2  UNL     1      17.768   7.904   6.288  1.00  0.00     0.203 HD
HETATM    4  C4  UNL     1      16.288   8.904   5.303  1.00  0.00     0.709 A 
HETATM    5  N4  UNL     1      15.951   9.362   4.070  1.00  0.00    -0.021 N 
ATOM      6  H4  UNL     1      15.061   9.851   3.968  1.00  0.00     0.203 HD
HETATM    7  C10 UNL     1      16.708   9.212   2.987  1.00  0.00     0.707 A 
HETATM    8  N5  UNL     1      16.435   9.612   1.820  1.00  0.00    -0.220 N 
ATOM      9  H5  UNL     1      17.139   9.408   1.110  1.00  0.00     0.178 HD
HETATM   10  N6  UNL     1      17.897   8.556   3.142  1.00  0.00    -0.022 N 
ATOM     11  H6  UNL     1      18.502   8.425   2.332  1.00  0.00     0.203 HD
ENDROOT
BRANCH   8  12
HETATM   12  C11 UNL     1      15.277  10.311   1.354  1.00  0.00     0.099 C 
HETATM   13  C12 UNL     1      15.574  11.097   0.088  1.00  0.00     0.028 C 
HETATM   14  C13 UNL     1      15.773  10.165  -1.093  1.00  0.00     0.034 C 
HETATM   15  C14 UNL     1      14.714   9.075  -1.091  1.00  0.00     0.121 C 
HETATM   16  C17 UNL     1      13.552   9.521  -0.189  1.00  0.00     0.034 C 
HETATM   17  C18 UNL     1      14.069   9.433   1.227  1.00  0.00     0.028 C 
BRANCH  15  18
HETATM   18  O1  UNL     1      14.305   8.685  -2.339  1.00  0.00    -0.386 OA
BRANCH  18  19
HETATM   19  C15 UNL     1      13.846   9.734  -3.126  1.00  0.00     0.163 C 
HETATM   20  C16 UNL     1      14.292   9.469  -4.549  1.00  0.00     0.033 C 
ENDBRANCH  18  19
ENDBRANCH  15  18
ENDBRANCH   8  12
BRANCH   4  21
HETATM   21  N3  UNL     1      15.436   9.087   6.447  1.00  0.00    -0.217 N 
HETATM   22  C5  UNL     1      15.703   8.279   7.592  1.00  0.00     0.141 C 
HETATM   23  C6  UNL     1      14.909   8.647   8.800  1.00  0.00     0.020 C 
HETATM   24  C7  UNL     1      13.491   8.929   8.367  1.00  0.00     0.003 C 
HETATM   25  C8  UNL     1      13.520  10.180   7.527  1.00  0.00     0.020 C 
HETATM   26  C9  UNL     1      14.395  10.071   6.327  1.00  0.00     0.141 C 
ENDBRANCH   4  21
BRANCH   1  27
HETATM   27  N1  UNL     1      19.415   7.468   4.422  1.00  0.00    -0.225 N 
ATOM     28  H1  UNL     1      19.639   6.715   3.771  1.00  0.00     0.177 HD
BRANCH  27  29
HETATM   29  C2  UNL     1      20.366   7.837   5.445  1.00  0.00     0.133 C 
HETATM   30  C1  UNL     1      20.949   9.198   5.060  1.00  0.00     0.027 C 
ENDBRANCH  27  29
ENDBRANCH   1  27
TORSDOF 6
ENDMDL
MODEL 4
REMARK VINA RESULT: -8.024327483      2.271      2.656
REMARK  6 active torsions:
REMARK  status: ('A' for Active; 'I' for Inactive)
REMARK    1  A    between atoms: C2_2  and  N1_3 
REMARK    2  A    between atoms: N1_3  and  C3_5 
REMARK    3  A    between atoms: C4_8  and  N3_9 
REMARK    4  A    between atoms: N5_18  and  C11_20 
REMARK    5  A    between atoms: C14_23  and  O1_24 
REMARK    6  A    between atoms: O1_24  and  C15_25 
ROOT
HETATM    1  C3  UNL     1      18.875   7.663   4.457  1.00  0.00     0.707 A 
HETATM    2  N2  UNL     1      17.919   7.895   5.375  1.00  0.00    -0.021 N 
ATOM      3  H2  UNL     1      17.958   7.378   6.253  1.00  0.00     0.203 HD
HETATM    4  C4  UNL     1      16.914   8.774   5.194  1.00  0.00     0.709 A 
HETATM    5  N4  UNL     1      16.918   9.431   4.005  1.00  0.00    -0.021 N 
ATOM      6  H4  UNL     1      16.174  10.106   3.829  1.00  0.00     0.203 HD
HETATM    7  C10 UNL     1      17.833   9.248   3.056  1.00  0.00     0.707 A 
HETATM    8  N5  UNL     1      17.875   9.827   1.934  1.00  0.00    -0.220 N 
ATOM      9  H5  UNL     1      18.653   9.560   1.332  1.00  0.00     0.178 HD
HETATM   10  N6  UNL     1      18.823   8.341   3.310  1.00  0.00    -0.022 N 
ATOM     11  H6  UNL     1      19.540   8.178   2.604  1.00  0.00     0.203 HD
ENDROOT
BRANCH   8  12
HETATM   12  C11 UNL     1      16.983  10.804   1.390  1.00  0.00     0.099 C 
HETATM   13  C12 UNL     1      17.664  11.644   0.322  1.00  0.00     0.028 C 
HETATM   14  C13 UNL     1      17.909  10.828  -0.934  1.00  0.00     0.034 C 
HETATM   15  C14 UNL     1      16.682   9.996  -1.271  1.00  0.00     0.121 C 
HETATM   16  C17 UNL     1      15.473  10.576  -0.521  1.00  0.00     0.034 C 
HETATM   17  C18 UNL     1      15.678  10.223   0.932  1.00  0.00     0.028 C 
BRANCH  15  18
HETATM   18  O1  UNL     1      16.458   9.843  -2.614  1.00  0.00    -0.386 OA
BRANCH  18  19
HETATM   19  C15 UNL     1      15.131  10.031  -2.980  1.00  0.00     0.163 C 
HETATM   20  C16 UNL     1      15.070  10.047  -4.494  1.00  0.00     0.033 C 
ENDBRANCH  18  19
ENDBRANCH  15  18
ENDBRANCH   8  12
BRANCH   4  21
HETATM   21  N3  UNL     1      15.903   9.003   6.191  1.00  0.00    -0.217 N 
HETATM   22  C5  UNL     1      16.012   8.266   7.407  1.00  0.00     0.141 C 
HETATM   23  C6  UNL     1      15.047   8.684   8.465  1.00  0.00     0.020 C 
HETATM   24  C7  UNL     1      13.704   8.912   7.818  1.00  0.00     0.003 C 
HETATM   25  C8  UNL     1      13.838  10.115   6.919  1.00  0.00     0.020 C 
HETATM   26  C9  UNL     1      14.879   9.957   5.866  1.00  0.00     0.141 C 
ENDBRANCH   4  21
BRANCH   1  27
HETATM   27  N1  UNL     1      19.827   6.817   4.650  1.00  0.00    -0.225 N 
ATOM     28  H1  UNL     1      20.748   7.150   4.937  1.00  0.00     0.177 HD
BRANCH  27  29
HETATM   29  C2  UNL     1      19.603   5.403   4.464  1.00  0.00     0.133 C 
HETATM   30  C1  UNL     1      20.931   4.779   4.033  1.00  0.00     0.027 C 
ENDBRANCH  27  29
ENDBRANCH   1  27
TORSDOF 6
ENDMDL
MODEL 5
REMARK VINA RESULT: -7.937084481      2.881      7.561
REMARK  6 active torsions:
REMARK  status: ('A' for Active; 'I' for Inactive)
REMARK    1  A    between atoms: C2_2  and  N1_3 
REMARK    2  A    between atoms: N1_3  and  C3_5 
REMARK    3  A    between atoms: C4_8  and  N3_9 
REMARK    4  A    between atoms: N5_18  and  C11_20 
REMARK    5  A    between atoms: C14_23  and  O1_24 
REMARK    6  A    between atoms: O1_24  and  C15_25 
ROOT
HETATM    1  C3  UNL     1      15.462  10.449   2.606  1.00  0.00     0.707 A 
HETATM    2  N2  UNL     1      14.897  10.304   1.393  1.00  0.00    -0.021 N 
ATOM      3  H2  UNL     1      13.884  10.195   1.342  1.00  0.00     0.203 HD
HETATM    4  C4  UNL     1      15.600  10.295   0.243  1.00  0.00     0.709 A 
HETATM    5  N4  UNL     1      16.943  10.444   0.377  1.00  0.00    -0.021 N 
ATOM      6  H4  UNL     1      17.512  10.443  -0.470  1.00  0.00     0.203 HD
HETATM    7  C10 UNL     1      17.563  10.592   1.545  1.00  0.00     0.707 A 
HETATM    8  N5  UNL     1      18.807  10.725   1.721  1.00  0.00    -0.220 N 
ATOM      9  H5  UNL     1      19.104  10.827   2.692  1.00  0.00     0.178 HD
HETATM   10  N6  UNL     1      16.786  10.592   2.669  1.00  0.00    -0.022 N 
ATOM     11  H6  UNL     1      17.230  10.704   3.580  1.00  0.00     0.203 HD
ENDROOT
BRANCH   8  12
HETATM   12  C11 UNL     1      19.857  10.753   0.751  1.00  0.00     0.099 C 
HETATM   13  C12 UNL     1      21.065  11.523   1.260  1.00  0.00     0.028 C 
HETATM   14  C13 UNL     1      21.778  10.749   2.352  1.00  0.00     0.034 C 
HETATM   15  C14 UNL     1      21.903   9.284   1.967  1.00  0.00     0.121 C 
HETATM   16  C17 UNL     1      21.684   9.154   0.451  1.00  0.00     0.034 C 
HETATM   17  C18 UNL     1      20.211   9.395   0.223  1.00  0.00     0.028 C 
BRANCH  15  18
HETATM   18  O1  UNL     1      23.059   8.686   2.395  1.00  0.00    -0.386 OA
BRANCH  18  19
HETATM   19  C15 UNL     1      23.218   7.387   1.929  1.00  0.00     0.163 C 
HETATM   20  C16 UNL     1      24.668   7.218   1.526  1.00  0.00     0.033 C 
ENDBRANCH  18  19
ENDBRANCH  15  18
ENDBRANCH   8  12
BRANCH   4  21
HETATM   21  N3  UNL     1      14.972  10.137  -1.041  1.00  0.00    -0.217 N 
HETATM   22  C5  UNL     1      13.554   9.983  -1.056  1.00  0.00     0.141 C 
HETATM   23  C6  UNL     1      12.949  10.011  -2.419  1.00  0.00     0.020 C 
HETATM   24  C7  UNL     1      13.824   9.200  -3.343  1.00  0.00     0.003 C 
HETATM   25  C8  UNL     1      15.131   9.937  -3.483  1.00  0.00     0.020 C 
HETATM   26  C9  UNL     1      15.835  10.151  -2.190  1.00  0.00     0.141 C 
ENDBRANCH   4  21
BRANCH   1  27
HETATM   27  N1  UNL     1      14.771  10.455   3.693  1.00  0.00    -0.225 N 
ATOM     28  H1  UNL     1      13.753  10.510   3.645  1.00  0.00     0.177 HD
BRANCH  27  29
HETATM   29  C2  UNL     1      15.425  10.385   4.979  1.00  0.00     0.133 C 
HETATM   30  C1  UNL     1      14.359  10.037   6.018  1.00  0.00     0.027 C 
ENDBRANCH  27  29
ENDBRANCH   1  27
TORSDOF 6
ENDMDL
