MODEL 1
REMARK VINA RESULT: -9.219170114      0.000      0.000
REMARK  5 active torsions:
REMARK  status: ('A' for Active; 'I' for Inactive)
REMARK    1  A    between atoms: N1_1  and  C1_4 
REMARK    2  A    between atoms: C3_12  and  N5_13 
REMARK       I    between atoms: N6_17  and  C7_19 
REMARK    3  A    between atoms: C7_19  and  C8_21 
REMARK    4  A    between atoms: C8_21  and  C9_22 
REMARK    5  A    between atoms: C9_22  and  C10_23 
ROOT
HETATM    1  N5  UNL     1      14.470   9.376  -1.698  1.00  0.00    -0.362 N 
HETATM    2  C4  UNL     1      14.974  10.505  -0.937  1.00  0.00     0.130 C 
HETATM    3  C5  UNL     1      14.259  10.459   0.408  1.00  0.00     0.072 C 
HETATM    4  C6  UNL     1      14.309   9.131   1.019  1.00  0.00    -0.007 C 
HETATM    5  N6  UNL     1      14.206   9.003   2.291  1.00  0.00    -0.334 N 
ATOM      6  H6  UNL     1      14.239   8.084   2.732  1.00  0.00     0.168 HD
HETATM    7  C7  UNL     1      14.041  10.197   3.075  1.00  0.00     0.221 C 
HETATM    8  O1  UNL     1      13.007  10.884   2.923  1.00  0.00    -0.273 OA
HETATM    9  C17 UNL     1      14.477   7.867   0.256  1.00  0.00     0.072 C 
HETATM   10  C18 UNL     1      14.752   8.059  -1.193  1.00  0.00     0.130 C 
ENDROOT
BRANCH   7  11
HETATM   11  C8  UNL     1      15.089  10.571   4.029  1.00  0.00     0.103 C 
BRANCH  11  12
HETATM   12  C9  UNL     1      14.702  10.513   5.477  1.00  0.00     0.014 C 
BRANCH  12  13
HETATM   13  C10 UNL     1      14.627   9.112   5.946  1.00  0.00    -0.010 C 
HETATM   14  C11 UNL     1      15.715   8.792   6.989  1.00  0.00     0.009 C 
HETATM   15  C12 UNL     1      15.056   7.988   8.065  1.00  0.00    -0.014 C 
HETATM   16  C13 UNL     1      14.344   8.951   8.989  1.00  0.00     0.005 C 
HETATM   17  C16 UNL     1      13.838   7.424   7.312  1.00  0.00     0.009 C 
HETATM   18  C14 UNL     1      13.331   9.583   8.025  1.00  0.00     0.005 C 
HETATM   19  C15 UNL     1      13.391   8.794   6.752  1.00  0.00    -0.010 C 
ENDBRANCH  12  13
ENDBRANCH  11  12
ENDBRANCH   7  11
BRANCH   1  20
HETATM   20  C3  UNL     1      13.731   9.527  -2.886  1.00  0.00     0.162 A 
HETATM   21  C1  UNL     1      14.385   9.745  -4.070  1.00  0.00     0.146 A 
HETATM   22  N2  UNL     1      13.680   9.888  -5.197  1.00  0.00    -0.335 N 
HETATM   23  C2  UNL     1      12.335   9.820  -5.179  1.00  0.00     0.199 A 
ATOM     24  H2  UNL     1      14.166  10.051  -6.079  1.00  0.00     0.168 HD
HETATM   25  N3  UNL     1      11.700   9.608  -4.025  1.00  0.00    -0.294 N 
HETATM   26  N4  UNL     1      12.393   9.467  -2.914  1.00  0.00    -0.282 N 
ATOM     27  H3  UNL     1      10.681   9.555  -4.003  1.00  0.00     0.187 HD
ATOM     28  H4  UNL     1      11.892   9.306  -2.040  1.00  0.00     0.188 HD
BRANCH  21  29
HETATM   29  N1  UNL     1      15.667   9.808  -4.080  1.00  0.00    -0.382 N 
ATOM     30  H12 UNL     1      16.207   8.991  -4.367  1.00  0.00     0.157 HD
ATOM     31  H11 UNL     1      16.153  10.662  -3.806  1.00  0.00     0.157 HD
ENDBRANCH  21  29
ENDBRANCH   1  20
TORSDOF 5
ENDMDL
MODEL 2
REMARK VINA RESULT: -9.135085398      0.550      1.032
REMARK  5 active torsions:
REMARK  status: ('A' for Active; 'I' for Inactive)
REMARK    1  A    between atoms: N1_1  and  C1_4 
REMARK    2  A    between atoms: C3_12  and  N5_13 
REMARK       I    between atoms: N6_17  and  C7_19 
REMARK    3  A    between atoms: C7_19  and  C8_21 
REMARK    4  A    between atoms: C8_21  and  C9_22 
REMARK    5  A    between atoms: C9_22  and  C10_23 
ROOT
HETATM    1  N5  UNL     1      14.449   9.469  -1.598  1.00  0.00    -0.362 N 
HETATM    2  C4  UNL     1      14.964  10.628  -0.891  1.00  0.00     0.130 C 
HETATM    3  C5  UNL     1      14.227  10.671   0.442  1.00  0.00     0.072 C 
HETATM    4  C6  UNL     1      14.240   9.378   1.125  1.00  0.00    -0.007 C 
HETATM    5  N6  UNL     1      14.114   9.322   2.401  1.00  0.00    -0.334 N 
ATOM      6  H6  UNL     1      14.122   8.428   2.892  1.00  0.00     0.168 HD
HETATM    7  C7  UNL     1      13.961  10.561   3.116  1.00  0.00     0.221 C 
HETATM    8  O1  UNL     1      12.944  11.257   2.909  1.00  0.00    -0.273 OA
HETATM    9  C17 UNL     1      14.395   8.071   0.436  1.00  0.00     0.072 C 
HETATM   10  C18 UNL     1      14.697   8.177  -1.016  1.00  0.00     0.130 C 
ENDROOT
BRANCH   7  11
HETATM   11  C8  UNL     1      15.001  10.967   4.065  1.00  0.00     0.103 C 
BRANCH  11  12
HETATM   12  C9  UNL     1      15.276  10.004   5.181  1.00  0.00     0.014 C 
BRANCH  12  13
HETATM   13  C10 UNL     1      14.103   9.885   6.075  1.00  0.00    -0.010 C 
HETATM   14  C11 UNL     1      13.604   8.431   6.182  1.00  0.00     0.009 C 
HETATM   15  C12 UNL     1      13.296   8.187   7.627  1.00  0.00    -0.014 C 
HETATM   16  C13 UNL     1      14.598   7.874   8.329  1.00  0.00     0.005 C 
HETATM   17  C16 UNL     1      13.084   9.626   8.132  1.00  0.00     0.009 C 
HETATM   18  C14 UNL     1      15.370   9.181   8.106  1.00  0.00     0.005 C 
HETATM   19  C15 UNL     1      14.400  10.166   7.528  1.00  0.00    -0.010 C 
ENDBRANCH  12  13
ENDBRANCH  11  12
ENDBRANCH   7  11
BRANCH   1  20
HETATM   20  C3  UNL     1      13.733   9.569  -2.805  1.00  0.00     0.162 A 
HETATM   21  C1  UNL     1      14.408   9.757  -3.982  1.00  0.00     0.146 A 
HETATM   22  N2  UNL     1      13.724   9.851  -5.127  1.00  0.00    -0.335 N 
HETATM   23  C2  UNL     1      12.380   9.762  -5.133  1.00  0.00     0.199 A 
ATOM     24  H2  UNL     1      14.225   9.992  -6.004  1.00  0.00     0.168 HD
HETATM   25  N3  UNL     1      11.725   9.579  -3.986  1.00  0.00    -0.294 N 
HETATM   26  N4  UNL     1      12.397   9.487  -2.857  1.00  0.00    -0.282 N 
ATOM     27  H3  UNL     1      10.707   9.511  -3.982  1.00  0.00     0.187 HD
ATOM     28  H4  UNL     1      11.881   9.346  -1.988  1.00  0.00     0.188 HD
BRANCH  21  29
HETATM   29  N1  UNL     1      15.689   9.840  -3.968  1.00  0.00    -0.382 N 
ATOM     30  H12 UNL     1      16.236   9.250  -4.595  1.00  0.00     0.157 HD
ATOM     31  H11 UNL     1      16.166  10.487  -3.341  1.00  0.00     0.157 HD
ENDBRANCH  21  29
ENDBRANCH   1  20
TORSDOF 5
ENDMDL
MODEL 3
REMARK VINA RESULT: -8.979882736      1.111      1.204
REMARK  5 active torsions:
REMARK  status: ('A' for Active; 'I' for Inactive)
REMARK    1  A    between atoms: N1_1  and  C1_4 
REMARK    2  A    between atoms: C3_12  and  N5_13 
REMARK       I    between atoms: N6_17  and  C7_19 
REMARK    3  A    between atoms: C7_19  and  C8_21 
REMARK    4  A    between atoms: C8_21  and  C9_22 
REMARK    5  A    between atoms: C9_22  and  C10_23 
ROOT
HETATM    1  N5  UNL     1      14.199  10.547  -1.563  1.00  0.00    -0.362 N 
HETATM    2  C4  UNL     1      13.444  11.071  -0.437  1.00  0.00     0.130 C 
HETATM    3  C5  UNL     1      13.652  10.084   0.705  1.00  0.00     0.072 C 
HETATM    4  C6  UNL     1      15.062   9.755   0.906  1.00  0.00    -0.007 C 
HETATM    5  N6  UNL     1      15.473   9.355   2.054  1.00  0.00    -0.334 N 
ATOM      6  H6  UNL     1      16.454   9.122   2.210  1.00  0.00     0.168 HD
HETATM    7  C7  UNL     1      14.506   9.245   3.112  1.00  0.00     0.221 C 
HETATM    8  O1  UNL     1      13.579   8.413   3.002  1.00  0.00    -0.273 OA
HETATM    9  C17 UNL     1      16.101   9.851  -0.152  1.00  0.00     0.072 C 
HETATM   10  C18 UNL     1      15.627  10.466  -1.421  1.00  0.00     0.130 C 
ENDROOT
BRANCH   7  11
HETATM   11  C8  UNL     1      14.638  10.110   4.288  1.00  0.00     0.103 C 
BRANCH  11  12
HETATM   12  C9  UNL     1      15.569   9.620   5.356  1.00  0.00     0.014 C 
BRANCH  12  13
HETATM   13  C10 UNL     1      14.890   8.650   6.244  1.00  0.00    -0.010 C 
HETATM   14  C11 UNL     1      15.684   8.399   7.540  1.00  0.00     0.009 C 
HETATM   15  C12 UNL     1      14.689   8.385   8.658  1.00  0.00    -0.014 C 
HETATM   16  C13 UNL     1      14.392   9.821   9.027  1.00  0.00     0.005 C 
HETATM   17  C16 UNL     1      13.393   8.053   7.898  1.00  0.00     0.009 C 
HETATM   18  C14 UNL     1      13.792  10.341   7.714  1.00  0.00     0.005 C 
HETATM   19  C15 UNL     1      13.590   9.149   6.827  1.00  0.00    -0.010 C 
ENDBRANCH  12  13
ENDBRANCH  11  12
ENDBRANCH   7  11
BRANCH   1  20
HETATM   20  C3  UNL     1      13.588  10.126  -2.759  1.00  0.00     0.162 A 
HETATM   21  C1  UNL     1      14.351   9.930  -3.879  1.00  0.00     0.146 A 
HETATM   22  N2  UNL     1      13.768   9.529  -5.013  1.00  0.00    -0.335 N 
HETATM   23  C2  UNL     1      12.439   9.316  -5.064  1.00  0.00     0.199 A 
ATOM     24  H2  UNL     1      14.334   9.382  -5.848  1.00  0.00     0.168 HD
HETATM   25  N3  UNL     1      11.697   9.509  -3.972  1.00  0.00    -0.294 N 
HETATM   26  N4  UNL     1      12.270   9.904  -2.854  1.00  0.00    -0.282 N 
ATOM     27  H3  UNL     1      10.690   9.350  -4.002  1.00  0.00     0.187 HD
ATOM     28  H4  UNL     1      11.689  10.046  -2.027  1.00  0.00     0.188 HD
BRANCH  21  29
HETATM   29  N1  UNL     1      15.617  10.133  -3.823  1.00  0.00    -0.382 N 
ATOM     30  H12 UNL     1      15.965  11.067  -3.603  1.00  0.00     0.157 HD
ATOM     31  H11 UNL     1      16.279   9.376  -3.994  1.00  0.00     0.157 HD
ENDBRANCH  21  29
ENDBRANCH   1  20
TORSDOF 5
ENDMDL
MODEL 4
REMARK VINA RESULT: -8.863849406      1.343      1.991
REMARK  5 active torsions:
REMARK  status: ('A' for Active; 'I' for Inactive)
REMARK    1  A    between atoms: N1_1  and  C1_4 
REMARK    2  A    between atoms: C3_12  and  N5_13 
REMARK       I    between atoms: N6_17  and  C7_19 
REMARK    3  A    between atoms: C7_19  and  C8_21 
REMARK    4  A    between atoms: C8_21  and  C9_22 
REMARK    5  A    between atoms: C9_22  and  C10_23 
ROOT
HETATM    1  N5  UNL     1      14.644  10.568  -1.475  1.00  0.00    -0.362 N 
HETATM    2  C4  UNL     1      13.420  10.623  -0.694  1.00  0.00     0.130 C 
HETATM    3  C5  UNL     1      13.550   9.542   0.371  1.00  0.00     0.072 C 
HETATM    4  C6  UNL     1      14.829   9.608   1.077  1.00  0.00    -0.007 C 
HETATM    5  N6  UNL     1      14.934   9.135   2.265  1.00  0.00    -0.334 N 
ATOM      6  H6  UNL     1      15.819   9.174   2.771  1.00  0.00     0.168 HD
HETATM    7  C7  UNL     1      13.764   8.547   2.859  1.00  0.00     0.221 C 
HETATM    8  O1  UNL     1      13.276   7.516   2.345  1.00  0.00    -0.273 OA
HETATM    9  C17 UNL     1      16.066  10.205   0.510  1.00  0.00     0.072 C 
HETATM   10  C18 UNL     1      15.873  10.884  -0.799  1.00  0.00     0.130 C 
ENDROOT
BRANCH   7  11
HETATM   11  C8  UNL     1      13.181   9.171   4.050  1.00  0.00     0.103 C 
BRANCH  11  12
HETATM   12  C9  UNL     1      14.161   9.678   5.066  1.00  0.00     0.014 C 
BRANCH  12  13
HETATM   13  C10 UNL     1      14.434   8.650   6.093  1.00  0.00    -0.010 C 
HETATM   14  C11 UNL     1      15.677   8.992   6.938  1.00  0.00     0.009 C 
HETATM   15  C12 UNL     1      15.328   8.687   8.360  1.00  0.00    -0.014 C 
HETATM   16  C13 UNL     1      14.540   9.859   8.903  1.00  0.00     0.005 C 
HETATM   17  C16 UNL     1      14.177   7.682   8.175  1.00  0.00     0.009 C 
HETATM   18  C14 UNL     1      13.315   9.838   7.980  1.00  0.00     0.005 C 
HETATM   19  C15 UNL     1      13.393   8.570   7.183  1.00  0.00    -0.010 C 
ENDBRANCH  12  13
ENDBRANCH  11  12
ENDBRANCH   7  11
BRANCH   1  20
HETATM   20  C3  UNL     1      14.662  10.223  -2.839  1.00  0.00     0.162 A 
HETATM   21  C1  UNL     1      13.490   9.908  -3.475  1.00  0.00     0.146 A 
HETATM   22  N2  UNL     1      13.510   9.581  -4.772  1.00  0.00    -0.335 N 
HETATM   23  C2  UNL     1      14.671   9.559  -5.456  1.00  0.00     0.199 A 
ATOM     24  H2  UNL     1      12.639   9.346  -5.247  1.00  0.00     0.168 HD
HETATM   25  N3  UNL     1      15.810   9.865  -4.834  1.00  0.00    -0.294 N 
HETATM   26  N4  UNL     1      15.792  10.187  -3.557  1.00  0.00    -0.282 N 
ATOM     27  H3  UNL     1      16.693   9.850  -5.345  1.00  0.00     0.187 HD
ATOM     28  H4  UNL     1      16.672  10.419  -3.096  1.00  0.00     0.188 HD
BRANCH  21  29
HETATM   29  N1  UNL     1      12.389   9.933  -2.817  1.00  0.00    -0.382 N 
ATOM     30  H12 UNL     1      11.503   9.879  -3.321  1.00  0.00     0.157 HD
ATOM     31  H11 UNL     1      12.386  10.003  -1.800  1.00  0.00     0.157 HD
ENDBRANCH  21  29
ENDBRANCH   1  20
TORSDOF 5
ENDMDL
MODEL 5
REMARK VINA RESULT: -8.804997478      0.754      1.431
REMARK  5 active torsions:
REMARK  status: ('A' for Active; 'I' for Inactive)
REMARK    1  A    between atoms: N1_1  and  C1_4 
REMARK    2  A    between atoms: C3_12  and  N5_13 
REMARK       I    between atoms: N6_17  and  C7_19 
REMARK    3  A    between atoms: C7_19  and  C8_21 
REMARK    4  A    between atoms: C8_21  and  C9_22 
REMARK    5  A    between atoms: C9_22  and  C10_23 
ROOT
HETATM    1  N5  UNL     1      15.242   9.279  -1.443  1.00  0.00    -0.362 N 
HETATM    2  C4  UNL     1      15.974  10.195  -0.586  1.00  0.00     0.130 C 
HETATM    3  C5  UNL     1      15.058  10.494   0.593  1.00  0.00     0.072 C 
HETATM    4  C6  UNL     1      14.503   9.279   1.188  1.00  0.00    -0.007 C 
HETATM    5  N6  UNL     1      14.127   9.276   2.415  1.00  0.00    -0.334 N 
ATOM      6  H6  UNL     1      13.739   8.436   2.845  1.00  0.00     0.168 HD
HETATM    7  C7  UNL     1      14.270  10.495   3.164  1.00  0.00     0.221 C 
HETATM    8  O1  UNL     1      13.607  11.498   2.821  1.00  0.00    -0.273 OA
HETATM    9  C17 UNL     1      14.335   7.995   0.460  1.00  0.00     0.072 C 
HETATM   10  C18 UNL     1      14.923   7.984  -0.905  1.00  0.00     0.130 C 
ENDROOT
BRANCH   7  11
HETATM   11  C8  UNL     1      15.187  10.524   4.307  1.00  0.00     0.103 C 
BRANCH  11  12
HETATM   12  C9  UNL     1      14.548  10.396   5.658  1.00  0.00     0.014 C 
BRANCH  12  13
HETATM   13  C10 UNL     1      14.572   8.991   6.121  1.00  0.00    -0.010 C 
HETATM   14  C11 UNL     1      15.647   8.756   7.200  1.00  0.00     0.009 C 
HETATM   15  C12 UNL     1      15.020   7.896   8.251  1.00  0.00    -0.014 C 
HETATM   16  C13 UNL     1      14.200   8.792   9.152  1.00  0.00     0.005 C 
HETATM   17  C16 UNL     1      13.878   7.238   7.456  1.00  0.00     0.009 C 
HETATM   18  C14 UNL     1      13.172   9.344   8.156  1.00  0.00     0.005 C 
HETATM   19  C15 UNL     1      13.340   8.569   6.884  1.00  0.00    -0.010 C 
ENDBRANCH  12  13
ENDBRANCH  11  12
ENDBRANCH   7  11
BRANCH   1  20
HETATM   20  C3  UNL     1      14.843   9.614  -2.750  1.00  0.00     0.162 A 
HETATM   21  C1  UNL     1      13.520   9.848  -3.018  1.00  0.00     0.146 A 
HETATM   22  N2  UNL     1      13.144  10.167  -4.261  1.00  0.00    -0.335 N 
HETATM   23  C2  UNL     1      14.054  10.258  -5.250  1.00  0.00     0.199 A 
ATOM     24  H2  UNL     1      12.160  10.341  -4.462  1.00  0.00     0.168 HD
HETATM   25  N3  UNL     1      15.341  10.029  -4.988  1.00  0.00    -0.294 N 
HETATM   26  N4  UNL     1      15.713   9.715  -3.763  1.00  0.00    -0.282 N 
ATOM     27  H3  UNL     1      16.036  10.096  -5.732  1.00  0.00     0.187 HD
ATOM     28  H4  UNL     1      16.701   9.543  -3.579  1.00  0.00     0.188 HD
BRANCH  21  29
HETATM   29  N1  UNL     1      12.659   9.760  -2.070  1.00  0.00    -0.382 N 
ATOM     30  H12 UNL     1      11.895  10.434  -2.022  1.00  0.00     0.157 HD
ATOM     31  H11 UNL     1      12.728   9.026  -1.365  1.00  0.00     0.157 HD
ENDBRANCH  21  29
ENDBRANCH   1  20
TORSDOF 5
ENDMDL
