MODEL 1
REMARK VINA RESULT: -8.495599019      0.000      0.000
REMARK  7 active torsions:
REMARK  status: ('A' for Active; 'I' for Inactive)
REMARK    1  A    between atoms: C3_3  and  O1_4 
REMARK    2  A    between atoms: C4_6  and  O2_7 
REMARK    3  A    between atoms: O2_7  and  C5_8 
REMARK    4  A    between atoms: C5_8  and  C6_10 
REMARK    5  A    between atoms: C6_10  and  C7_11 
REMARK    6  A    between atoms: C7_11  and  C8_12 
REMARK       I    between atoms: C8_12  and  N1_14 
REMARK    7  A    between atoms: N1_14  and  C9_16 
ROOT
HETATM    1  C5  UNL     1      17.710  11.666   0.606  1.00  0.00     0.259 C 
HETATM    2  O3  UNL     1      18.197  12.808   0.391  1.00  0.00    -0.265 OA
ENDROOT
BRANCH   1   3
HETATM    3  O2  UNL     1      16.646  11.694   1.544  1.00  0.00    -0.312 OA
BRANCH   3   4
HETATM    4  C4  UNL     1      16.527  10.756   2.579  1.00  0.00     0.177 C 
HETATM    5  C3  UNL     1      16.390  11.470   3.905  1.00  0.00     0.178 C 
HETATM    6  C2  UNL     1      15.401  10.439   4.289  1.00  0.00    -0.047 C 
HETATM    7  C1  UNL     1      14.962   9.966   5.440  1.00  0.00     0.018 C 
HETATM    8  C12 UNL     1      15.152  10.201   2.852  1.00  0.00     0.014 C 
HETATM    9  C13 UNL     1      14.024  10.956   2.220  1.00  0.00     0.017 C 
HETATM   10  C17 UNL     1      15.080   8.736   2.472  1.00  0.00     0.017 C 
HETATM   11  C14 UNL     1      13.384  10.263   1.048  1.00  0.00     0.001 C 
HETATM   12  C15 UNL     1      12.929   8.861   1.374  1.00  0.00     0.000 C 
HETATM   13  C16 UNL     1      13.638   8.310   2.594  1.00  0.00     0.001 C 
BRANCH   5  14
HETATM   14  O1  UNL     1      15.842  12.741   3.744  1.00  0.00    -0.389 OA
ATOM     15  H1  UNL     1      15.924  13.294   4.513  1.00  0.00     0.210 HD
ENDBRANCH   5  14
ENDBRANCH   3   4
ENDBRANCH   1   3
BRANCH   1  16
HETATM   16  C6  UNL     1      18.157  10.422  -0.016  1.00  0.00     0.120 C 
BRANCH  16  17
HETATM   17  C7  UNL     1      17.933  10.297  -1.485  1.00  0.00     0.113 C 
BRANCH  17  18
HETATM   18  C8  UNL     1      16.606   9.850  -1.907  1.00  0.00     0.224 C 
HETATM   19  O4  UNL     1      15.914   9.117  -1.158  1.00  0.00    -0.273 OA
HETATM   20  N1  UNL     1      16.088  10.249  -3.172  1.00  0.00    -0.307 N 
ATOM     21  H1  UNL     1      16.670  10.726  -3.861  1.00  0.00     0.171 HD
BRANCH  20  22
HETATM   22  C9  UNL     1      14.827   9.973  -3.408  1.00  0.00     0.150 A 
HETATM   23  N2  UNL     1      13.789  10.178  -2.590  1.00  0.00    -0.346 N 
HETATM   24  C10 UNL     1      12.604   9.840  -2.999  1.00  0.00     0.097 A 
ATOM     25  H2  UNL     1      13.926  10.588  -1.667  1.00  0.00     0.167 HD
HETATM   26  C11 UNL     1      12.481   9.294  -4.249  1.00  0.00     0.070 A 
HETATM   27  S1  UNL     1      14.100   9.288  -4.789  1.00  0.00    -0.064 SA
ENDBRANCH  20  22
ENDBRANCH  17  18
ENDBRANCH  16  17
ENDBRANCH   1  16
TORSDOF 7
ENDMDL
MODEL 2
REMARK VINA RESULT: -8.261632943      4.104      7.589
REMARK  7 active torsions:
REMARK  status: ('A' for Active; 'I' for Inactive)
REMARK    1  A    between atoms: C3_3  and  O1_4 
REMARK    2  A    between atoms: C4_6  and  O2_7 
REMARK    3  A    between atoms: O2_7  and  C5_8 
REMARK    4  A    between atoms: C5_8  and  C6_10 
REMARK    5  A    between atoms: C6_10  and  C7_11 
REMARK    6  A    between atoms: C7_11  and  C8_12 
REMARK       I    between atoms: C8_12  and  N1_14 
REMARK    7  A    between atoms: N1_14  and  C9_16 
ROOT
HETATM    1  C5  UNL     1      13.410   8.511   1.165  1.00  0.00     0.259 C 
HETATM    2  O3  UNL     1      13.860   7.362   0.912  1.00  0.00    -0.265 OA
ENDROOT
BRANCH   1   3
HETATM    3  O2  UNL     1      13.237   9.299  -0.001  1.00  0.00    -0.312 OA
BRANCH   3   4
HETATM    4  C4  UNL     1      13.936   9.053  -1.190  1.00  0.00     0.177 C 
HETATM    5  C3  UNL     1      13.261   9.767  -2.340  1.00  0.00     0.178 C 
HETATM    6  C2  UNL     1      14.610  10.081  -2.858  1.00  0.00    -0.047 C 
HETATM    7  C1  UNL     1      15.095  10.370  -4.050  1.00  0.00     0.018 C 
HETATM    8  C12 UNL     1      15.129   9.926  -1.483  1.00  0.00     0.014 C 
HETATM    9  C13 UNL     1      15.232  11.165  -0.648  1.00  0.00     0.017 C 
HETATM   10  C17 UNL     1      16.413   9.127  -1.394  1.00  0.00     0.017 C 
HETATM   11  C14 UNL     1      16.309  11.126   0.402  1.00  0.00     0.001 C 
HETATM   12  C15 UNL     1      17.667  10.789  -0.165  1.00  0.00     0.000 C 
HETATM   13  C16 UNL     1      17.560  10.102  -1.509  1.00  0.00     0.001 C 
BRANCH   5  14
HETATM   14  O1  UNL     1      12.554  10.885  -1.900  1.00  0.00    -0.389 OA
ATOM     15  H1  UNL     1      12.410  10.902  -0.960  1.00  0.00     0.210 HD
ENDBRANCH   5  14
ENDBRANCH   3   4
ENDBRANCH   1   3
BRANCH   1  16
HETATM   16  C6  UNL     1      13.086   9.022   2.495  1.00  0.00     0.120 C 
BRANCH  16  17
HETATM   17  C7  UNL     1      13.871  10.202   2.962  1.00  0.00     0.113 C 
BRANCH  17  18
HETATM   18  C8  UNL     1      14.277  10.199   4.367  1.00  0.00     0.224 C 
HETATM   19  O4  UNL     1      15.069  11.070   4.801  1.00  0.00    -0.273 OA
HETATM   20  N1  UNL     1      13.771   9.206   5.253  1.00  0.00    -0.307 N 
ATOM     21  H1  UNL     1      13.239   8.405   4.911  1.00  0.00     0.171 HD
BRANCH  20  22
HETATM   22  C9  UNL     1      14.023   9.369   6.531  1.00  0.00     0.150 A 
HETATM   23  N2  UNL     1      13.576  10.350   7.322  1.00  0.00    -0.346 N 
HETATM   24  C10 UNL     1      13.933  10.348   8.571  1.00  0.00     0.097 A 
ATOM     25  H2  UNL     1      12.971  11.083   6.953  1.00  0.00     0.167 HD
HETATM   26  C11 UNL     1      14.747   9.338   9.010  1.00  0.00     0.070 A 
HETATM   27  S1  UNL     1      14.969   8.423   7.587  1.00  0.00    -0.064 SA
ENDBRANCH  20  22
ENDBRANCH  17  18
ENDBRANCH  16  17
ENDBRANCH   1  16
TORSDOF 7
ENDMDL
MODEL 3
REMARK VINA RESULT: -7.830284868      4.162      6.837
REMARK  7 active torsions:
REMARK  status: ('A' for Active; 'I' for Inactive)
REMARK    1  A    between atoms: C3_3  and  O1_4 
REMARK    2  A    between atoms: C4_6  and  O2_7 
REMARK    3  A    between atoms: O2_7  and  C5_8 
REMARK    4  A    between atoms: C5_8  and  C6_10 
REMARK    5  A    between atoms: C6_10  and  C7_11 
REMARK    6  A    between atoms: C7_11  and  C8_12 
REMARK       I    between atoms: C8_12  and  N1_14 
REMARK    7  A    between atoms: N1_14  and  C9_16 
ROOT
HETATM    1  C5  UNL     1      15.150  10.537   0.555  1.00  0.00     0.259 C 
HETATM    2  O3  UNL     1      14.411  10.772  -0.439  1.00  0.00    -0.265 OA
ENDROOT
BRANCH   1   3
HETATM    3  O2  UNL     1      16.381  11.238   0.497  1.00  0.00    -0.312 OA
BRANCH   3   4
HETATM    4  C4  UNL     1      17.623  10.593   0.579  1.00  0.00     0.177 C 
HETATM    5  C3  UNL     1      18.697  11.469  -0.025  1.00  0.00     0.178 C 
HETATM    6  C2  UNL     1      19.589  11.025   1.068  1.00  0.00    -0.047 C 
HETATM    7  C1  UNL     1      20.898  10.948   1.216  1.00  0.00     0.018 C 
HETATM    8  C12 UNL     1      18.386  10.725   1.872  1.00  0.00     0.014 C 
HETATM    9  C13 UNL     1      17.895  11.798   2.794  1.00  0.00     0.017 C 
HETATM   10  C17 UNL     1      18.444   9.396   2.598  1.00  0.00     0.017 C 
HETATM   11  C14 UNL     1      17.162  11.294   4.007  1.00  0.00     0.001 C 
HETATM   12  C15 UNL     1      17.959  10.283   4.795  1.00  0.00     0.000 C 
HETATM   13  C16 UNL     1      19.051   9.651   3.956  1.00  0.00     0.001 C 
BRANCH   5  14
HETATM   14  O1  UNL     1      18.352  12.817   0.043  1.00  0.00    -0.389 OA
ATOM     15  H1  UNL     1      17.630  12.999   0.634  1.00  0.00     0.210 HD
ENDBRANCH   5  14
ENDBRANCH   3   4
ENDBRANCH   1   3
BRANCH   1  16
HETATM   16  C6  UNL     1      14.820   9.649   1.667  1.00  0.00     0.120 C 
BRANCH  16  17
HETATM   17  C7  UNL     1      13.855  10.178   2.675  1.00  0.00     0.113 C 
BRANCH  17  18
HETATM   18  C8  UNL     1      13.860   9.527   3.985  1.00  0.00     0.224 C 
HETATM   19  O4  UNL     1      13.613   8.301   4.087  1.00  0.00    -0.273 OA
HETATM   20  N1  UNL     1      14.148  10.285   5.156  1.00  0.00    -0.307 N 
ATOM     21  H1  UNL     1      14.217  11.303   5.131  1.00  0.00     0.171 HD
BRANCH  20  22
HETATM   22  C9  UNL     1      14.321   9.611   6.269  1.00  0.00     0.150 A 
HETATM   23  N2  UNL     1      15.162   8.591   6.472  1.00  0.00    -0.346 N 
HETATM   24  C10 UNL     1      15.197   8.044   7.649  1.00  0.00     0.097 A 
ATOM     25  H2  UNL     1      15.762   8.251   5.720  1.00  0.00     0.167 HD
HETATM   26  C11 UNL     1      14.370   8.543   8.620  1.00  0.00     0.070 A 
HETATM   27  S1  UNL     1      13.566   9.796   7.785  1.00  0.00    -0.064 SA
ENDBRANCH  20  22
ENDBRANCH  17  18
ENDBRANCH  16  17
ENDBRANCH   1  16
TORSDOF 7
ENDMDL
MODEL 4
REMARK VINA RESULT: -7.752360296      4.112      7.070
REMARK  7 active torsions:
REMARK  status: ('A' for Active; 'I' for Inactive)
REMARK    1  A    between atoms: C3_3  and  O1_4 
REMARK    2  A    between atoms: C4_6  and  O2_7 
REMARK    3  A    between atoms: O2_7  and  C5_8 
REMARK    4  A    between atoms: C5_8  and  C6_10 
REMARK    5  A    between atoms: C6_10  and  C7_11 
REMARK    6  A    between atoms: C7_11  and  C8_12 
REMARK       I    between atoms: C8_12  and  N1_14 
REMARK    7  A    between atoms: N1_14  and  C9_16 
ROOT
HETATM    1  C5  UNL     1      13.433   8.749   1.370  1.00  0.00     0.259 C 
HETATM    2  O3  UNL     1      12.317   8.374   1.818  1.00  0.00    -0.265 OA
ENDROOT
BRANCH   1   3
HETATM    3  O2  UNL     1      13.314   9.530   0.192  1.00  0.00    -0.312 OA
BRANCH   3   4
HETATM    4  C4  UNL     1      13.936   9.180  -1.013  1.00  0.00     0.177 C 
HETATM    5  C3  UNL     1      13.228   9.850  -2.170  1.00  0.00     0.178 C 
HETATM    6  C2  UNL     1      14.558  10.071  -2.778  1.00  0.00    -0.047 C 
HETATM    7  C1  UNL     1      14.988  10.263  -4.010  1.00  0.00     0.018 C 
HETATM    8  C12 UNL     1      15.145   9.980  -1.424  1.00  0.00     0.014 C 
HETATM    9  C13 UNL     1      15.343  11.264  -0.677  1.00  0.00     0.017 C 
HETATM   10  C17 UNL     1      16.399   9.133  -1.351  1.00  0.00     0.017 C 
HETATM   11  C14 UNL     1      16.473  11.243   0.315  1.00  0.00     0.001 C 
HETATM   12  C15 UNL     1      17.784  10.813  -0.299  1.00  0.00     0.000 C 
HETATM   13  C16 UNL     1      17.576  10.048  -1.589  1.00  0.00     0.001 C 
BRANCH   5  14
HETATM   14  O1  UNL     1      12.591  11.022  -1.767  1.00  0.00    -0.389 OA
ATOM     15  H1  UNL     1      12.071  10.924  -0.977  1.00  0.00     0.210 HD
ENDBRANCH   5  14
ENDBRANCH   3   4
ENDBRANCH   1   3
BRANCH   1  16
HETATM   16  C6  UNL     1      14.733   8.440   1.960  1.00  0.00     0.120 C 
BRANCH  16  17
HETATM   17  C7  UNL     1      15.218   9.368   3.023  1.00  0.00     0.113 C 
BRANCH  17  18
HETATM   18  C8  UNL     1      16.381   8.927   3.792  1.00  0.00     0.224 C 
HETATM   19  O4  UNL     1      16.266   8.638   5.008  1.00  0.00    -0.273 OA
HETATM   20  N1  UNL     1      17.654   8.822   3.162  1.00  0.00    -0.307 N 
ATOM     21  H1  UNL     1      17.815   9.178   2.219  1.00  0.00     0.171 HD
BRANCH  20  22
HETATM   22  C9  UNL     1      18.609   8.245   3.852  1.00  0.00     0.150 A 
HETATM   23  N2  UNL     1      18.702   6.951   4.176  1.00  0.00    -0.346 N 
HETATM   24  C10 UNL     1      19.728   6.559   4.869  1.00  0.00     0.097 A 
ATOM     25  H2  UNL     1      17.985   6.287   3.886  1.00  0.00     0.167 HD
HETATM   26  C11 UNL     1      20.661   7.495   5.230  1.00  0.00     0.070 A 
HETATM   27  S1  UNL     1      20.012   8.918   4.548  1.00  0.00    -0.064 SA
ENDBRANCH  20  22
ENDBRANCH  17  18
ENDBRANCH  16  17
ENDBRANCH   1  16
TORSDOF 7
ENDMDL
MODEL 5
REMARK VINA RESULT: -7.726254580      2.129      2.838
REMARK  7 active torsions:
REMARK  status: ('A' for Active; 'I' for Inactive)
REMARK    1  A    between atoms: C3_3  and  O1_4 
REMARK    2  A    between atoms: C4_6  and  O2_7 
REMARK    3  A    between atoms: O2_7  and  C5_8 
REMARK    4  A    between atoms: C5_8  and  C6_10 
REMARK    5  A    between atoms: C6_10  and  C7_11 
REMARK    6  A    between atoms: C7_11  and  C8_12 
REMARK       I    between atoms: C8_12  and  N1_14 
REMARK    7  A    between atoms: N1_14  and  C9_16 
ROOT
HETATM    1  C5  UNL     1      18.063  11.550   0.389  1.00  0.00     0.259 C 
HETATM    2  O3  UNL     1      18.340  12.744   0.098  1.00  0.00    -0.265 OA
ENDROOT
BRANCH   1   3
HETATM    3  O2  UNL     1      18.825  11.062   1.481  1.00  0.00    -0.312 OA
BRANCH   3   4
HETATM    4  C4  UNL     1      18.601   9.805   2.058  1.00  0.00     0.177 C 
HETATM    5  C3  UNL     1      19.781   9.419   2.921  1.00  0.00     0.178 C 
HETATM    6  C2  UNL     1      18.813   8.855   3.887  1.00  0.00    -0.047 C 
HETATM    7  C1  UNL     1      18.881   7.934   4.829  1.00  0.00     0.018 C 
HETATM    8  C12 UNL     1      17.790   9.762   3.327  1.00  0.00     0.014 C 
HETATM    9  C13 UNL     1      17.602  11.084   4.007  1.00  0.00     0.017 C 
HETATM   10  C17 UNL     1      16.447   9.104   3.083  1.00  0.00     0.017 C 
HETATM   11  C14 UNL     1      16.218  11.660   3.885  1.00  0.00     0.001 C 
HETATM   12  C15 UNL     1      15.143  10.704   4.341  1.00  0.00     0.000 C 
HETATM   13  C16 UNL     1      15.629   9.270   4.340  1.00  0.00     0.001 C 
BRANCH   5  14
HETATM   14  O1  UNL     1      20.456  10.543   3.393  1.00  0.00    -0.389 OA
ATOM     15  H1  UNL     1      19.931  11.335   3.390  1.00  0.00     0.210 HD
ENDBRANCH   5  14
ENDBRANCH   3   4
ENDBRANCH   1   3
BRANCH   1  16
HETATM   16  C6  UNL     1      17.075  10.717  -0.293  1.00  0.00     0.120 C 
BRANCH  16  17
HETATM   17  C7  UNL     1      15.648  10.941   0.079  1.00  0.00     0.113 C 
BRANCH  17  18
HETATM   18  C8  UNL     1      14.662  10.771  -0.987  1.00  0.00     0.224 C 
HETATM   19  O4  UNL     1      13.831  11.677  -1.235  1.00  0.00    -0.273 OA
HETATM   20  N1  UNL     1      14.642   9.571  -1.754  1.00  0.00    -0.307 N 
ATOM     21  H1  UNL     1      15.205   8.761  -1.495  1.00  0.00     0.171 HD
BRANCH  20  22
HETATM   22  C9  UNL     1      13.863   9.558  -2.811  1.00  0.00     0.150 A 
HETATM   23  N2  UNL     1      12.526   9.554  -2.828  1.00  0.00    -0.346 N 
HETATM   24  C10 UNL     1      11.922   9.541  -3.977  1.00  0.00     0.097 A 
ATOM     25  H2  UNL     1      11.993   9.560  -1.959  1.00  0.00     0.167 HD
HETATM   26  C11 UNL     1      12.690   9.533  -5.112  1.00  0.00     0.070 A 
HETATM   27  S1  UNL     1      14.270   9.544  -4.467  1.00  0.00    -0.064 SA
ENDBRANCH  20  22
ENDBRANCH  17  18
ENDBRANCH  16  17
ENDBRANCH   1  16
TORSDOF 7
ENDMDL
