MODEL 1
REMARK VINA RESULT: -9.051228423      0.000      0.000
REMARK  10 active torsions:
REMARK  status: ('A' for Active; 'I' for Inactive)
REMARK    1  A    between atoms: C7_8  and  C8_9 
REMARK    2  A    between atoms: C8_9  and  C9_10 
REMARK    3  A    between atoms: C9_10  and  C10_11 
REMARK    4  A    between atoms: C10_11  and  O2_13 
REMARK    5  A    between atoms: O2_13  and  C11_14 
REMARK    6  A    between atoms: C15_19  and  O4_21 
REMARK    7  A    between atoms: C22_30  and  C23_31 
REMARK    8  A    between atoms: C23_31  and  C24_32 
REMARK    9  A    between atoms: C24_32  and  C25_33 
REMARK   10  A    between atoms: C28_37  and  C29_38 
ROOT
HETATM    1  C1  UNL     1      20.239  -1.324 -17.763  1.00  0.00     0.018 C 
HETATM    2  C2  UNL     1      20.505  -1.188 -19.033  1.00  0.00    -0.047 C 
HETATM    3  C3  UNL     1      19.527  -1.727 -20.039  1.00  0.00     0.199 C 
HETATM    4  F1  UNL     1      18.364  -2.158 -19.438  1.00  0.00    -0.245 F 
HETATM    5  C4  UNL     1      19.278  -0.649 -21.084  1.00  0.00     0.047 C 
HETATM    6  C5  UNL     1      19.667   0.731 -20.650  1.00  0.00     0.003 C 
HETATM    7  C6  UNL     1      19.345   1.677 -21.817  1.00  0.00     0.014 C 
HETATM    8  C7  UNL     1      17.858   1.893 -21.816  1.00  0.00     0.061 C 
HETATM    9  C13 UNL     1      17.586   3.279 -21.339  1.00  0.00     0.134 C 
HETATM   10  O3  UNL     1      16.934   3.492 -20.355  1.00  0.00    -0.297 OA
HETATM   11  C14 UNL     1      18.146   4.404 -22.117  1.00  0.00     0.116 C 
HETATM   12  C15 UNL     1      19.594   4.113 -22.460  1.00  0.00     0.070 C 
HETATM   13  C16 UNL     1      20.377   5.360 -22.015  1.00  0.00     0.047 C 
HETATM   14  C17 UNL     1      20.059   2.995 -21.568  1.00  0.00     0.097 C 
HETATM   15  C18 UNL     1      21.534   2.807 -21.671  1.00  0.00     0.251 C 
HETATM   16  F2  UNL     1      22.269   3.790 -21.036  1.00  0.00    -0.206 F 
HETATM   17  F3  UNL     1      21.876   2.900 -23.016  1.00  0.00    -0.206 F 
HETATM   18  C19 UNL     1      21.994   1.462 -21.136  1.00  0.00     0.090 C 
HETATM   19  C20 UNL     1      21.061   0.896 -20.130  1.00  0.00    -0.024 C 
HETATM   20  C21 UNL     1      20.988   1.726 -18.852  1.00  0.00     0.016 C 
HETATM   21  C22 UNL     1      21.646  -0.469 -19.637  1.00  0.00     0.048 C 
ENDROOT
BRANCH  21  22
HETATM   22  C23 UNL     1      22.473  -1.116 -20.611  1.00  0.00    -0.016 C 
BRANCH  22  23
HETATM   23  C24 UNL     1      23.584  -1.986 -20.272  1.00  0.00     0.011 C 
BRANCH  23  24
HETATM   24  C25 UNL     1      23.669  -3.411 -20.501  1.00  0.00     0.006 A 
HETATM   25  C26 UNL     1      24.491  -4.004 -21.484  1.00  0.00     0.039 A 
HETATM   26  C27 UNL     1      24.284  -5.348 -21.449  1.00  0.00     0.143 A 
HETATM   27  O5  UNL     1      23.409  -5.591 -20.526  1.00  0.00    -0.315 OA
HETATM   28  C28 UNL     1      23.003  -4.481 -19.920  1.00  0.00     0.161 A 
BRANCH  28  29
HETATM   29  C29 UNL     1      22.031  -4.436 -18.833  1.00  0.00     0.235 C 
HETATM   30  O6  UNL     1      20.853  -4.779 -19.004  1.00  0.00    -0.642 OA
HETATM   31  O7  UNL     1      22.441  -4.000 -17.589  1.00  0.00    -0.642 OA
ENDBRANCH  28  29
ENDBRANCH  23  24
ENDBRANCH  22  23
ENDBRANCH  21  22
BRANCH   8  32
HETATM   32  C8  UNL     1      17.154   1.799 -23.118  1.00  0.00     0.022 C 
BRANCH  32  33
HETATM   33  C9  UNL     1      17.679   0.892 -24.160  1.00  0.00     0.112 C 
BRANCH  33  34
HETATM   34  C10 UNL     1      18.536   1.716 -25.063  1.00  0.00     0.258 C 
HETATM   35  O1  UNL     1      18.161   2.819 -25.545  1.00  0.00    -0.265 OA
BRANCH  34  36
HETATM   36  O2  UNL     1      19.784   1.264 -25.391  1.00  0.00    -0.322 OA
BRANCH  36  37
HETATM   37  C11 UNL     1      20.234  -0.071 -25.313  1.00  0.00     0.174 C 
HETATM   38  C12 UNL     1      21.245  -0.163 -24.172  1.00  0.00     0.034 C 
ENDBRANCH  36  37
ENDBRANCH  34  36
ENDBRANCH  33  34
ENDBRANCH  32  33
ENDBRANCH   8  32
BRANCH  12  39
HETATM   39  O4  UNL     1      19.864   3.960 -23.785  1.00  0.00    -0.389 OA
ATOM     40  H4  UNL     1      20.487   3.276 -24.000  1.00  0.00     0.210 HD
ENDBRANCH  12  39
TORSDOF 10
ENDMDL
MODEL 2
REMARK VINA RESULT: -8.441902138      3.024      5.246
REMARK  10 active torsions:
REMARK  status: ('A' for Active; 'I' for Inactive)
REMARK    1  A    between atoms: C7_8  and  C8_9 
REMARK    2  A    between atoms: C8_9  and  C9_10 
REMARK    3  A    between atoms: C9_10  and  C10_11 
REMARK    4  A    between atoms: C10_11  and  O2_13 
REMARK    5  A    between atoms: O2_13  and  C11_14 
REMARK    6  A    between atoms: C15_19  and  O4_21 
REMARK    7  A    between atoms: C22_30  and  C23_31 
REMARK    8  A    between atoms: C23_31  and  C24_32 
REMARK    9  A    between atoms: C24_32  and  C25_33 
REMARK   10  A    between atoms: C28_37  and  C29_38 
ROOT
HETATM    1  C1  UNL     1      21.715  -2.555 -19.473  1.00  0.00     0.018 C 
HETATM    2  C2  UNL     1      21.761  -1.251 -19.507  1.00  0.00    -0.047 C 
HETATM    3  C3  UNL     1      22.859  -0.586 -20.287  1.00  0.00     0.199 C 
HETATM    4  F1  UNL     1      23.590  -1.498 -21.018  1.00  0.00    -0.245 F 
HETATM    5  C4  UNL     1      22.235   0.494 -21.159  1.00  0.00     0.047 C 
HETATM    6  C5  UNL     1      20.760   0.341 -21.366  1.00  0.00     0.003 C 
HETATM    7  C6  UNL     1      20.309   1.504 -22.263  1.00  0.00     0.014 C 
HETATM    8  C7  UNL     1      20.730   1.171 -23.667  1.00  0.00     0.061 C 
HETATM    9  C13 UNL     1      19.512   0.819 -24.451  1.00  0.00     0.134 C 
HETATM   10  O3  UNL     1      19.378  -0.259 -24.959  1.00  0.00    -0.297 OA
HETATM   11  C14 UNL     1      18.455   1.842 -24.590  1.00  0.00     0.116 C 
HETATM   12  C15 UNL     1      18.190   2.485 -23.242  1.00  0.00     0.070 C 
HETATM   13  C16 UNL     1      16.667   2.400 -23.042  1.00  0.00     0.047 C 
HETATM   14  C17 UNL     1      18.794   1.600 -22.187  1.00  0.00     0.097 C 
HETATM   15  C18 UNL     1      18.375   2.031 -20.823  1.00  0.00     0.251 C 
HETATM   16  F2  UNL     1      17.064   1.719 -20.515  1.00  0.00    -0.206 F 
HETATM   17  F3  UNL     1      18.444   3.420 -20.782  1.00  0.00    -0.206 F 
HETATM   18  C19 UNL     1      19.260   1.460 -19.729  1.00  0.00     0.090 C 
HETATM   19  C20 UNL     1      19.926   0.197 -20.131  1.00  0.00    -0.024 C 
HETATM   20  C21 UNL     1      18.944  -0.948 -20.361  1.00  0.00     0.016 C 
HETATM   21  C22 UNL     1      20.785  -0.306 -18.924  1.00  0.00     0.048 C 
ENDROOT
BRANCH  21  22
HETATM   22  C23 UNL     1      21.229   0.750 -18.065  1.00  0.00    -0.016 C 
BRANCH  22  23
HETATM   23  C24 UNL     1      20.787   0.909 -16.692  1.00  0.00     0.011 C 
BRANCH  23  24
HETATM   24  C25 UNL     1      21.607   1.262 -15.553  1.00  0.00     0.006 A 
HETATM   25  C26 UNL     1      22.836   1.950 -15.649  1.00  0.00     0.039 A 
HETATM   26  C27 UNL     1      23.349   2.067 -14.396  1.00  0.00     0.143 A 
HETATM   27  O5  UNL     1      22.523   1.505 -13.573  1.00  0.00    -0.315 OA
HETATM   28  C28 UNL     1      21.461   1.006 -14.196  1.00  0.00     0.161 A 
BRANCH  28  29
HETATM   29  C29 UNL     1      20.354   0.325 -13.536  1.00  0.00     0.235 C 
HETATM   30  O6  UNL     1      19.314   0.926 -13.232  1.00  0.00    -0.642 OA
HETATM   31  O7  UNL     1      20.474  -1.020 -13.248  1.00  0.00    -0.642 OA
ENDBRANCH  28  29
ENDBRANCH  23  24
ENDBRANCH  22  23
ENDBRANCH  21  22
BRANCH   8  32
HETATM   32  C8  UNL     1      21.386   2.244 -24.454  1.00  0.00     0.022 C 
BRANCH  32  33
HETATM   33  C9  UNL     1      21.993   3.392 -23.748  1.00  0.00     0.112 C 
BRANCH  33  34
HETATM   34  C10 UNL     1      21.614   4.620 -24.507  1.00  0.00     0.258 C 
HETATM   35  O1  UNL     1      22.146   4.938 -25.605  1.00  0.00    -0.265 OA
BRANCH  34  36
HETATM   36  O2  UNL     1      20.650   5.446 -23.998  1.00  0.00    -0.322 OA
BRANCH  36  37
HETATM   37  C11 UNL     1      20.840   6.440 -23.015  1.00  0.00     0.174 C 
HETATM   38  C12 UNL     1      20.854   7.798 -23.712  1.00  0.00     0.034 C 
ENDBRANCH  36  37
ENDBRANCH  34  36
ENDBRANCH  33  34
ENDBRANCH  32  33
ENDBRANCH   8  32
BRANCH  12  39
HETATM   39  O4  UNL     1      18.502   3.807 -23.152  1.00  0.00    -0.389 OA
ATOM     40  H4  UNL     1      18.069   4.283 -22.451  1.00  0.00     0.210 HD
ENDBRANCH  12  39
TORSDOF 10
ENDMDL
MODEL 3
REMARK VINA RESULT: -8.402802499      0.754      1.087
REMARK  10 active torsions:
REMARK  status: ('A' for Active; 'I' for Inactive)
REMARK    1  A    between atoms: C7_8  and  C8_9 
REMARK    2  A    between atoms: C8_9  and  C9_10 
REMARK    3  A    between atoms: C9_10  and  C10_11 
REMARK    4  A    between atoms: C10_11  and  O2_13 
REMARK    5  A    between atoms: O2_13  and  C11_14 
REMARK    6  A    between atoms: C15_19  and  O4_21 
REMARK    7  A    between atoms: C22_30  and  C23_31 
REMARK    8  A    between atoms: C23_31  and  C24_32 
REMARK    9  A    between atoms: C24_32  and  C25_33 
REMARK   10  A    between atoms: C28_37  and  C29_38 
ROOT
HETATM    1  C1  UNL     1      20.284  -1.220 -17.919  1.00  0.00     0.018 C 
HETATM    2  C2  UNL     1      20.582  -1.112 -19.185  1.00  0.00    -0.047 C 
HETATM    3  C3  UNL     1      19.639  -1.690 -20.202  1.00  0.00     0.199 C 
HETATM    4  F1  UNL     1      18.467  -2.125 -19.622  1.00  0.00    -0.245 F 
HETATM    5  C4  UNL     1      19.402  -0.642 -21.280  1.00  0.00     0.047 C 
HETATM    6  C5  UNL     1      19.760   0.753 -20.871  1.00  0.00     0.003 C 
HETATM    7  C6  UNL     1      19.456   1.665 -22.069  1.00  0.00     0.014 C 
HETATM    8  C7  UNL     1      17.965   1.859 -22.112  1.00  0.00     0.061 C 
HETATM    9  C13 UNL     1      17.661   3.252 -21.678  1.00  0.00     0.134 C 
HETATM   10  O3  UNL     1      16.980   3.479 -20.717  1.00  0.00    -0.297 OA
HETATM   11  C14 UNL     1      18.225   4.365 -22.468  1.00  0.00     0.116 C 
HETATM   12  C15 UNL     1      19.686   4.089 -22.766  1.00  0.00     0.070 C 
HETATM   13  C16 UNL     1      20.439   5.358 -22.332  1.00  0.00     0.047 C 
HETATM   14  C17 UNL     1      20.143   3.000 -21.835  1.00  0.00     0.097 C 
HETATM   15  C18 UNL     1      21.623   2.832 -21.894  1.00  0.00     0.251 C 
HETATM   16  F2  UNL     1      22.327   3.841 -21.264  1.00  0.00    -0.206 F 
HETATM   17  F3  UNL     1      21.999   2.897 -23.231  1.00  0.00    -0.206 F 
HETATM   18  C19 UNL     1      22.088   1.507 -21.314  1.00  0.00     0.090 C 
HETATM   19  C20 UNL     1      21.137   0.953 -20.318  1.00  0.00    -0.024 C 
HETATM   20  C21 UNL     1      21.018   1.813 -19.064  1.00  0.00     0.016 C 
HETATM   21  C22 UNL     1      21.728  -0.391 -19.776  1.00  0.00     0.048 C 
ENDROOT
BRANCH  21  22
HETATM   22  C23 UNL     1      22.590  -1.049 -20.711  1.00  0.00    -0.016 C 
BRANCH  22  23
HETATM   23  C24 UNL     1      23.671  -1.936 -20.323  1.00  0.00     0.011 C 
BRANCH  23  24
HETATM   24  C25 UNL     1      23.736  -3.366 -20.532  1.00  0.00     0.006 A 
HETATM   25  C26 UNL     1      24.524  -3.982 -21.527  1.00  0.00     0.039 A 
HETATM   26  C27 UNL     1      24.305  -5.322 -21.465  1.00  0.00     0.143 A 
HETATM   27  O5  UNL     1      23.453  -5.543 -20.515  1.00  0.00    -0.315 OA
HETATM   28  C28 UNL     1      23.075  -4.420 -19.915  1.00  0.00     0.161 A 
BRANCH  28  29
HETATM   29  C29 UNL     1      22.134  -4.348 -18.803  1.00  0.00     0.235 C 
HETATM   30  O6  UNL     1      22.489  -3.962 -17.681  1.00  0.00    -0.642 OA
HETATM   31  O7  UNL     1      20.821  -4.718 -19.014  1.00  0.00    -0.642 OA
ENDBRANCH  28  29
ENDBRANCH  23  24
ENDBRANCH  22  23
ENDBRANCH  21  22
BRANCH   8  32
HETATM   32  C8  UNL     1      17.298   1.722 -23.430  1.00  0.00     0.022 C 
BRANCH  32  33
HETATM   33  C9  UNL     1      18.071   1.983 -24.663  1.00  0.00     0.112 C 
BRANCH  33  34
HETATM   34  C10 UNL     1      19.041   0.858 -24.815  1.00  0.00     0.258 C 
HETATM   35  O1  UNL     1      20.248   1.034 -25.132  1.00  0.00    -0.265 OA
BRANCH  34  36
HETATM   36  O2  UNL     1      18.613  -0.423 -24.605  1.00  0.00    -0.322 OA
BRANCH  36  37
HETATM   37  C11 UNL     1      19.380  -1.595 -24.771  1.00  0.00     0.174 C 
HETATM   38  C12 UNL     1      18.432  -2.733 -25.143  1.00  0.00     0.034 C 
ENDBRANCH  36  37
ENDBRANCH  34  36
ENDBRANCH  33  34
ENDBRANCH  32  33
ENDBRANCH   8  32
BRANCH  12  39
HETATM   39  O4  UNL     1      19.993   3.908 -24.080  1.00  0.00    -0.389 OA
ATOM     40  H4  UNL     1      19.560   4.497 -24.687  1.00  0.00     0.210 HD
ENDBRANCH  12  39
TORSDOF 10
ENDMDL
MODEL 4
REMARK VINA RESULT: -8.267358841      1.925      7.919
REMARK  10 active torsions:
REMARK  status: ('A' for Active; 'I' for Inactive)
REMARK    1  A    between atoms: C7_8  and  C8_9 
REMARK    2  A    between atoms: C8_9  and  C9_10 
REMARK    3  A    between atoms: C9_10  and  C10_11 
REMARK    4  A    between atoms: C10_11  and  O2_13 
REMARK    5  A    between atoms: O2_13  and  C11_14 
REMARK    6  A    between atoms: C15_19  and  O4_21 
REMARK    7  A    between atoms: C22_30  and  C23_31 
REMARK    8  A    between atoms: C23_31  and  C24_32 
REMARK    9  A    between atoms: C24_32  and  C25_33 
REMARK   10  A    between atoms: C28_37  and  C29_38 
ROOT
HETATM    1  C1  UNL     1      21.389   2.509 -25.446  1.00  0.00     0.018 C 
HETATM    2  C2  UNL     1      20.592   1.675 -24.834  1.00  0.00    -0.047 C 
HETATM    3  C3  UNL     1      20.709   0.208 -25.138  1.00  0.00     0.199 C 
HETATM    4  F1  UNL     1      21.802  -0.062 -25.933  1.00  0.00    -0.245 F 
HETATM    5  C4  UNL     1      20.746  -0.548 -23.818  1.00  0.00     0.047 C 
HETATM    6  C5  UNL     1      21.096   0.298 -22.633  1.00  0.00     0.003 C 
HETATM    7  C6  UNL     1      21.089  -0.624 -21.404  1.00  0.00     0.014 C 
HETATM    8  C7  UNL     1      22.360  -1.425 -21.443  1.00  0.00     0.061 C 
HETATM    9  C13 UNL     1      23.267  -0.920 -20.374  1.00  0.00     0.134 C 
HETATM   10  O3  UNL     1      24.347  -0.463 -20.625  1.00  0.00    -0.297 OA
HETATM   11  C14 UNL     1      22.799  -0.993 -18.974  1.00  0.00     0.116 C 
HETATM   12  C15 UNL     1      21.367  -0.502 -18.890  1.00  0.00     0.070 C 
HETATM   13  C16 UNL     1      21.362   0.551 -17.769  1.00  0.00     0.047 C 
HETATM   14  C17 UNL     1      21.067   0.248 -20.159  1.00  0.00     0.097 C 
HETATM   15  C18 UNL     1      19.765   0.967 -20.061  1.00  0.00     0.251 C 
HETATM   16  F2  UNL     1      19.806   2.091 -19.257  1.00  0.00    -0.206 F 
HETATM   17  F3  UNL     1      18.856   0.109 -19.451  1.00  0.00    -0.206 F 
HETATM   18  C19 UNL     1      19.219   1.383 -21.416  1.00  0.00     0.090 C 
HETATM   19  C20 UNL     1      20.283   1.539 -22.439  1.00  0.00    -0.024 C 
HETATM   20  C21 UNL     1      21.243   2.685 -22.130  1.00  0.00     0.016 C 
HETATM   21  C22 UNL     1      19.609   1.990 -23.777  1.00  0.00     0.048 C 
ENDROOT
BRANCH  21  22
HETATM   22  C23 UNL     1      18.251   1.553 -23.902  1.00  0.00    -0.016 C 
BRANCH  22  23
HETATM   23  C24 UNL     1      17.107   2.440 -23.791  1.00  0.00     0.011 C 
BRANCH  23  24
HETATM   24  C25 UNL     1      16.823   3.355 -22.708  1.00  0.00     0.006 A 
HETATM   25  C26 UNL     1      16.049   3.020 -21.576  1.00  0.00     0.039 A 
HETATM   26  C27 UNL     1      15.949   4.128 -20.794  1.00  0.00     0.143 A 
HETATM   27  O5  UNL     1      16.602   5.085 -21.374  1.00  0.00    -0.315 OA
HETATM   28  C28 UNL     1      17.149   4.691 -22.518  1.00  0.00     0.161 A 
BRANCH  28  29
HETATM   29  C29 UNL     1      17.953   5.540 -23.390  1.00  0.00     0.235 C 
HETATM   30  O6  UNL     1      17.532   6.633 -23.794  1.00  0.00    -0.642 OA
HETATM   31  O7  UNL     1      19.208   5.110 -23.769  1.00  0.00    -0.642 OA
ENDBRANCH  28  29
ENDBRANCH  23  24
ENDBRANCH  22  23
ENDBRANCH  21  22
BRANCH   8  32
HETATM   32  C8  UNL     1      22.255  -2.883 -21.189  1.00  0.00     0.022 C 
BRANCH  32  33
HETATM   33  C9  UNL     1      23.483  -3.707 -21.183  1.00  0.00     0.112 C 
BRANCH  33  34
HETATM   34  C10 UNL     1      23.098  -5.058 -20.678  1.00  0.00     0.258 C 
HETATM   35  O1  UNL     1      22.439  -5.884 -21.365  1.00  0.00    -0.265 OA
BRANCH  34  36
HETATM   36  O2  UNL     1      23.470  -5.427 -19.415  1.00  0.00    -0.322 OA
BRANCH  36  37
HETATM   37  C11 UNL     1      23.391  -4.626 -18.256  1.00  0.00     0.174 C 
HETATM   38  C12 UNL     1      21.916  -4.370 -17.959  1.00  0.00     0.034 C 
ENDBRANCH  36  37
ENDBRANCH  34  36
ENDBRANCH  33  34
ENDBRANCH  32  33
ENDBRANCH   8  32
BRANCH  12  39
HETATM   39  O4  UNL     1      20.446  -1.435 -18.526  1.00  0.00    -0.389 OA
ATOM     40  H4  UNL     1      19.596  -1.094 -18.270  1.00  0.00     0.210 HD
ENDBRANCH  12  39
TORSDOF 10
ENDMDL
MODEL 5
REMARK VINA RESULT: -8.219503443      3.062      8.306
REMARK  10 active torsions:
REMARK  status: ('A' for Active; 'I' for Inactive)
REMARK    1  A    between atoms: C7_8  and  C8_9 
REMARK    2  A    between atoms: C8_9  and  C9_10 
REMARK    3  A    between atoms: C9_10  and  C10_11 
REMARK    4  A    between atoms: C10_11  and  O2_13 
REMARK    5  A    between atoms: O2_13  and  C11_14 
REMARK    6  A    between atoms: C15_19  and  O4_21 
REMARK    7  A    between atoms: C22_30  and  C23_31 
REMARK    8  A    between atoms: C23_31  and  C24_32 
REMARK    9  A    between atoms: C24_32  and  C25_33 
REMARK   10  A    between atoms: C28_37  and  C29_38 
ROOT
HETATM    1  C1  UNL     1      18.427   1.888 -24.850  1.00  0.00     0.018 C 
HETATM    2  C2  UNL     1      19.311   2.217 -23.948  1.00  0.00    -0.047 C 
HETATM    3  C3  UNL     1      18.849   2.930 -22.709  1.00  0.00     0.199 C 
HETATM    4  F1  UNL     1      17.474   2.987 -22.636  1.00  0.00    -0.245 F 
HETATM    5  C4  UNL     1      19.468   2.238 -21.504  1.00  0.00     0.047 C 
HETATM    6  C5  UNL     1      19.970   0.854 -21.779  1.00  0.00     0.003 C 
HETATM    7  C6  UNL     1      20.552   0.316 -20.463  1.00  0.00     0.014 C 
HETATM    8  C7  UNL     1      19.391  -0.075 -19.591  1.00  0.00     0.061 C 
HETATM    9  C13 UNL     1      19.329  -1.563 -19.533  1.00  0.00     0.134 C 
HETATM   10  O3  UNL     1      18.370  -2.171 -19.917  1.00  0.00    -0.297 OA
HETATM   11  C14 UNL     1      20.495  -2.285 -18.982  1.00  0.00     0.116 C 
HETATM   12  C15 UNL     1      21.771  -1.716 -19.572  1.00  0.00     0.070 C 
HETATM   13  C16 UNL     1      22.552  -2.930 -20.103  1.00  0.00     0.047 C 
HETATM   14  C17 UNL     1      21.393  -0.908 -20.782  1.00  0.00     0.097 C 
HETATM   15  C18 UNL     1      22.602  -0.511 -21.560  1.00  0.00     0.251 C 
HETATM   16  F2  UNL     1      23.174  -1.547 -22.273  1.00  0.00    -0.206 F 
HETATM   17  F3  UNL     1      23.572  -0.108 -20.649  1.00  0.00    -0.206 F 
HETATM   18  C19 UNL     1      22.330   0.627 -22.528  1.00  0.00     0.090 C 
HETATM   19  C20 UNL     1      20.905   0.704 -22.937  1.00  0.00    -0.024 C 
HETATM   20  C21 UNL     1      20.453  -0.506 -23.750  1.00  0.00     0.016 C 
HETATM   21  C22 UNL     1      20.752   1.890 -23.946  1.00  0.00     0.048 C 
ENDROOT
BRANCH  21  22
HETATM   22  C23 UNL     1      21.726   2.923 -23.759  1.00  0.00    -0.016 C 
BRANCH  22  23
HETATM   23  C24 UNL     1      21.897   4.042 -24.667  1.00  0.00     0.011 C 
BRANCH  23  24
HETATM   24  C25 UNL     1      21.491   5.411 -24.441  1.00  0.00     0.006 A 
HETATM   25  C26 UNL     1      20.838   5.857 -23.271  1.00  0.00     0.039 A 
HETATM   26  C27 UNL     1      20.566   7.181 -23.422  1.00  0.00     0.143 A 
HETATM   27  O5  UNL     1      21.007   7.548 -24.583  1.00  0.00    -0.315 OA
HETATM   28  C28 UNL     1      21.572   6.543 -25.241  1.00  0.00     0.161 A 
BRANCH  28  29
HETATM   29  C29 UNL     1      22.170   6.649 -26.568  1.00  0.00     0.235 C 
HETATM   30  O6  UNL     1      23.127   5.939 -26.904  1.00  0.00    -0.642 OA
HETATM   31  O7  UNL     1      21.652   7.564 -27.462  1.00  0.00    -0.642 OA
ENDBRANCH  28  29
ENDBRANCH  23  24
ENDBRANCH  22  23
ENDBRANCH  21  22
BRANCH   8  32
HETATM   32  C8  UNL     1      19.428   0.356 -18.172  1.00  0.00     0.022 C 
BRANCH  32  33
HETATM   33  C9  UNL     1      20.604   1.099 -17.672  1.00  0.00     0.112 C 
BRANCH  33  34
HETATM   34  C10 UNL     1      20.872   0.609 -16.288  1.00  0.00     0.258 C 
HETATM   35  O1  UNL     1      20.424  -0.485 -15.850  1.00  0.00    -0.265 OA
BRANCH  34  36
HETATM   36  O2  UNL     1      21.635   1.372 -15.448  1.00  0.00    -0.322 OA
BRANCH  36  37
HETATM   37  C11 UNL     1      21.507   1.447 -14.045  1.00  0.00     0.174 C 
HETATM   38  C12 UNL     1      22.798   2.039 -13.484  1.00  0.00     0.034 C 
ENDBRANCH  36  37
ENDBRANCH  34  36
ENDBRANCH  33  34
ENDBRANCH  32  33
ENDBRANCH   8  32
BRANCH  12  39
HETATM   39  O4  UNL     1      22.602  -1.099 -18.688  1.00  0.00    -0.389 OA
ATOM     40  H4  UNL     1      23.402  -1.569 -18.482  1.00  0.00     0.210 HD
ENDBRANCH  12  39
TORSDOF 10
ENDMDL
