MODEL 1
REMARK VINA RESULT: -8.679796824      0.000      0.000
REMARK  8 active torsions:
REMARK  status: ('A' for Active; 'I' for Inactive)
REMARK    1  A    between atoms: C2_2  and  C3_3 
REMARK    2  A    between atoms: C3_3  and  C4_4 
REMARK    3  A    between atoms: C4_4  and  C5_5 
REMARK    4  A    between atoms: C5_5  and  N1_6 
REMARK       I    between atoms: N1_6  and  C6_8 
REMARK       I    between atoms: C6_8  and  N2_10 
REMARK    5  A    between atoms: C10_14  and  N3_15 
REMARK    6  A    between atoms: C13_18  and  N4_19 
REMARK    7  A    between atoms: C14_24  and  C15_25 
REMARK    8  A    between atoms: C23_36  and  N7_37 
ROOT
HETATM    1  N3  UNL     1      20.491   2.983 -23.779  1.00  0.00    -0.359 N 
HETATM    2  C11 UNL     1      21.655   3.095 -24.517  1.00  0.00     0.063 C 
HETATM    3  C12 UNL     1      21.584   4.289 -25.458  1.00  0.00     0.072 C 
HETATM    4  C13 UNL     1      21.267   5.493 -24.604  1.00  0.00     0.120 C 
HETATM    5  C22 UNL     1      19.859   5.275 -24.084  1.00  0.00     0.082 C 
HETATM    6  C23 UNL     1      19.946   4.105 -23.127  1.00  0.00     0.285 C 
ENDROOT
BRANCH   1   7
HETATM    7  C10 UNL     1      20.149   1.734 -23.188  1.00  0.00     0.108 C 
HETATM    8  C9  UNL     1      18.693   1.401 -23.124  1.00  0.00     0.029 C 
HETATM    9  C8  UNL     1      18.385  -0.030 -22.898  1.00  0.00     0.027 C 
HETATM   10  C7  UNL     1      19.510  -1.000 -22.953  1.00  0.00     0.089 C 
HETATM   11  N2  UNL     1      20.828  -0.462 -22.721  1.00  0.00    -0.323 N 
HETATM   12  C26 UNL     1      19.684  -1.383 -24.438  1.00  0.00     0.027 C 
HETATM   13  C6  UNL     1      21.828  -0.771 -21.778  1.00  0.00     0.319 C 
HETATM   14  C24 UNL     1      20.936   0.563 -23.779  1.00  0.00     0.112 C 
HETATM   15  N1  UNL     1      21.679  -1.777 -20.789  1.00  0.00    -0.343 N 
HETATM   16  O1  UNL     1      22.940  -0.139 -21.779  1.00  0.00    -0.247 OA
ATOM     17  H1  UNL     1      20.803  -2.298 -20.754  1.00  0.00     0.164 HD
HETATM   18  C25 UNL     1      20.277  -0.084 -24.950  1.00  0.00     0.029 C 
BRANCH  15  19
HETATM   19  C5  UNL     1      22.708  -2.093 -19.834  1.00  0.00     0.124 C 
BRANCH  19  20
HETATM   20  C4  UNL     1      23.047  -3.547 -19.868  1.00  0.00     0.020 C 
BRANCH  20  21
HETATM   21  C3  UNL     1      24.268  -3.820 -20.730  1.00  0.00     0.001 C 
BRANCH  21  22
HETATM   22  C2  UNL     1      24.206  -5.159 -21.405  1.00  0.00    -0.004 C 
HETATM   23  C1  UNL     1      22.850  -5.773 -21.072  1.00  0.00     0.005 C 
ENDBRANCH  21  22
ENDBRANCH  20  21
ENDBRANCH  19  20
ENDBRANCH  15  19
ENDBRANCH   1   7
BRANCH   6  24
HETATM   24  N7  UNL     1      20.660   4.571 -21.955  1.00  0.00    -0.058 N 
ATOM     25  H73 UNL     1      21.641   4.726 -22.188  1.00  0.00     0.276 HD
ATOM     26  H72 UNL     1      20.372   5.523 -21.731  1.00  0.00     0.276 HD
ATOM     27  H71 UNL     1      20.590   3.985 -21.124  1.00  0.00     0.276 HD
ENDBRANCH   6  24
BRANCH   4  28
HETATM   28  N4  UNL     1      21.495   6.752 -25.208  1.00  0.00    -0.245 N 
HETATM   29  N5  UNL     1      20.954   7.884 -24.775  1.00  0.00    -0.237 N 
HETATM   30  N6  UNL     1      21.342   8.874 -25.516  1.00  0.00    -0.281 N 
ATOM     31  H5  UNL     1      20.326   7.963 -23.976  1.00  0.00     0.208 HD
HETATM   32  C14 UNL     1      22.164   8.412 -26.476  1.00  0.00     0.119 A 
ATOM     33  H6  UNL     1      21.068   9.849 -25.392  1.00  0.00     0.188 HD
HETATM   34  C21 UNL     1      22.256   7.050 -26.271  1.00  0.00     0.235 A 
HETATM   35  F1  UNL     1      22.995   6.201 -27.031  1.00  0.00    -0.182 F 
BRANCH  32  36
HETATM   36  C15 UNL     1      22.784   9.261 -27.482  1.00  0.00     0.018 A 
HETATM   37  C16 UNL     1      23.955   9.954 -27.270  1.00  0.00     0.017 A 
HETATM   38  C17 UNL     1      24.498  10.757 -28.278  1.00  0.00     0.025 A 
HETATM   39  C18 UNL     1      23.873  10.875 -29.511  1.00  0.00     0.035 A 
HETATM   40 CL1  UNL     1      24.582  11.892 -30.749  1.00  0.00    -0.084 Cl
HETATM   41  C19 UNL     1      22.700  10.178 -29.716  1.00  0.00     0.048 A 
HETATM   42  C20 UNL     1      22.166   9.382 -28.711  1.00  0.00     0.048 A 
HETATM   43 CL2  UNL     1      20.665   8.507 -29.012  1.00  0.00    -0.083 Cl
ENDBRANCH  32  36
ENDBRANCH   4  28
TORSDOF 8
ENDMDL
MODEL 2
REMARK VINA RESULT: -8.669164533      1.863      1.937
REMARK  8 active torsions:
REMARK  status: ('A' for Active; 'I' for Inactive)
REMARK    1  A    between atoms: C2_2  and  C3_3 
REMARK    2  A    between atoms: C3_3  and  C4_4 
REMARK    3  A    between atoms: C4_4  and  C5_5 
REMARK    4  A    between atoms: C5_5  and  N1_6 
REMARK       I    between atoms: N1_6  and  C6_8 
REMARK       I    between atoms: C6_8  and  N2_10 
REMARK    5  A    between atoms: C10_14  and  N3_15 
REMARK    6  A    between atoms: C13_18  and  N4_19 
REMARK    7  A    between atoms: C14_24  and  C15_25 
REMARK    8  A    between atoms: C23_36  and  N7_37 
ROOT
HETATM    1  N3  UNL     1      20.194   3.194 -22.870  1.00  0.00    -0.359 N 
HETATM    2  C11 UNL     1      21.449   3.686 -22.560  1.00  0.00     0.063 C 
HETATM    3  C12 UNL     1      21.729   4.970 -23.327  1.00  0.00     0.072 C 
HETATM    4  C13 UNL     1      20.592   5.914 -23.018  1.00  0.00     0.120 C 
HETATM    5  C22 UNL     1      19.358   5.301 -23.650  1.00  0.00     0.082 C 
HETATM    6  C23 UNL     1      19.070   4.041 -22.860  1.00  0.00     0.285 C 
ENDROOT
BRANCH   1   7
HETATM    7  C10 UNL     1      19.899   1.820 -22.640  1.00  0.00     0.108 C 
HETATM    8  C9  UNL     1      18.536   1.353 -23.036  1.00  0.00     0.029 C 
HETATM    9  C8  UNL     1      18.391  -0.114 -23.175  1.00  0.00     0.027 C 
HETATM   10  C7  UNL     1      19.622  -0.944 -23.105  1.00  0.00     0.089 C 
HETATM   11  N2  UNL     1      20.750  -0.356 -22.428  1.00  0.00    -0.323 N 
HETATM   12  C26 UNL     1      20.208  -0.976 -24.532  1.00  0.00     0.027 C 
HETATM   13  C6  UNL     1      21.521  -0.773 -21.325  1.00  0.00     0.319 C 
HETATM   14  C24 UNL     1      20.967   0.882 -23.205  1.00  0.00     0.112 C 
HETATM   15  N1  UNL     1      21.279  -1.980 -20.622  1.00  0.00    -0.343 N 
HETATM   16  O1  UNL     1      22.497  -0.060 -20.907  1.00  0.00    -0.247 OA
ATOM     17  H1  UNL     1      20.506  -2.573 -20.923  1.00  0.00     0.164 HD
HETATM   18  C25 UNL     1      20.717   0.451 -24.611  1.00  0.00     0.029 C 
BRANCH  15  19
HETATM   19  C5  UNL     1      22.076  -2.405 -19.500  1.00  0.00     0.124 C 
BRANCH  19  20
HETATM   20  C4  UNL     1      22.430  -3.852 -19.608  1.00  0.00     0.020 C 
BRANCH  20  21
HETATM   21  C3  UNL     1      23.837  -4.048 -20.147  1.00  0.00     0.001 C 
BRANCH  21  22
HETATM   22  C2  UNL     1      23.902  -5.105 -21.210  1.00  0.00    -0.004 C 
HETATM   23  C1  UNL     1      22.577  -5.862 -21.180  1.00  0.00     0.005 C 
ENDBRANCH  21  22
ENDBRANCH  20  21
ENDBRANCH  19  20
ENDBRANCH  15  19
ENDBRANCH   1   7
BRANCH   6  24
HETATM   24  N7  UNL     1      18.598   4.459 -21.556  1.00  0.00    -0.058 N 
ATOM     25  H73 UNL     1      17.603   4.677 -21.603  1.00  0.00     0.276 HD
ATOM     26  H72 UNL     1      18.581   3.661 -20.923  1.00  0.00     0.276 HD
ATOM     27  H71 UNL     1      19.101   5.233 -21.124  1.00  0.00     0.276 HD
ENDBRANCH   6  24
BRANCH   4  28
HETATM   28  N4  UNL     1      20.818   7.274 -23.340  1.00  0.00    -0.245 N 
HETATM   29  N5  UNL     1      20.665   8.269 -22.475  1.00  0.00    -0.237 N 
HETATM   30  N6  UNL     1      20.944   9.399 -23.045  1.00  0.00    -0.281 N 
ATOM     31  H5  UNL     1      20.371   8.160 -21.505  1.00  0.00     0.208 HD
HETATM   32  C14 UNL     1      21.294   9.175 -24.324  1.00  0.00     0.119 A 
ATOM     33  H6  UNL     1      20.904  10.314 -22.594  1.00  0.00     0.188 HD
HETATM   34  C21 UNL     1      21.211   7.809 -24.504  1.00  0.00     0.235 A 
HETATM   35  F1  UNL     1      21.485   7.163 -25.668  1.00  0.00    -0.182 F 
BRANCH  32  36
HETATM   36  C15 UNL     1      21.673  10.230 -25.252  1.00  0.00     0.018 A 
HETATM   37  C16 UNL     1      22.962  10.693 -25.385  1.00  0.00     0.017 A 
HETATM   38  C17 UNL     1      23.260  11.714 -26.294  1.00  0.00     0.025 A 
HETATM   39  C18 UNL     1      22.268  12.283 -27.080  1.00  0.00     0.035 A 
HETATM   40 CL1  UNL     1      22.678  13.561 -28.206  1.00  0.00    -0.084 Cl
HETATM   41  C19 UNL     1      20.978  11.814 -26.941  1.00  0.00     0.048 A 
HETATM   42  C20 UNL     1      20.689  10.799 -26.036  1.00  0.00     0.048 A 
HETATM   43 CL2  UNL     1      19.028  10.227 -25.887  1.00  0.00    -0.083 Cl
ENDBRANCH  32  36
ENDBRANCH   4  28
TORSDOF 8
ENDMDL
MODEL 3
REMARK VINA RESULT: -8.626481911      1.364      1.452
REMARK  8 active torsions:
REMARK  status: ('A' for Active; 'I' for Inactive)
REMARK    1  A    between atoms: C2_2  and  C3_3 
REMARK    2  A    between atoms: C3_3  and  C4_4 
REMARK    3  A    between atoms: C4_4  and  C5_5 
REMARK    4  A    between atoms: C5_5  and  N1_6 
REMARK       I    between atoms: N1_6  and  C6_8 
REMARK       I    between atoms: C6_8  and  N2_10 
REMARK    5  A    between atoms: C10_14  and  N3_15 
REMARK    6  A    between atoms: C13_18  and  N4_19 
REMARK    7  A    between atoms: C14_24  and  C15_25 
REMARK    8  A    between atoms: C23_36  and  N7_37 
ROOT
HETATM    1  N3  UNL     1      20.800   3.222 -23.307  1.00  0.00    -0.359 N 
HETATM    2  C11 UNL     1      21.777   2.945 -24.246  1.00  0.00     0.063 C 
HETATM    3  C12 UNL     1      21.656   3.878 -25.442  1.00  0.00     0.072 C 
HETATM    4  C13 UNL     1      21.693   5.286 -24.896  1.00  0.00     0.120 C 
HETATM    5  C22 UNL     1      20.418   5.455 -24.093  1.00  0.00     0.082 C 
HETATM    6  C23 UNL     1      20.562   4.545 -22.891  1.00  0.00     0.285 C 
ENDROOT
BRANCH   1   7
HETATM    7  C10 UNL     1      20.437   2.229 -22.354  1.00  0.00     0.108 C 
HETATM    8  C9  UNL     1      19.162   2.454 -21.606  1.00  0.00     0.029 C 
HETATM    9  C8  UNL     1      18.602   1.253 -20.945  1.00  0.00     0.027 C 
HETATM   10  C7  UNL     1      19.231  -0.061 -21.242  1.00  0.00     0.089 C 
HETATM   11  N2  UNL     1      20.591  -0.024 -21.719  1.00  0.00    -0.323 N 
HETATM   12  C26 UNL     1      18.557  -0.587 -22.526  1.00  0.00     0.027 C 
HETATM   13  C6  UNL     1      21.782  -0.606 -21.243  1.00  0.00     0.319 C 
HETATM   14  C24 UNL     1      20.471   0.813 -22.931  1.00  0.00     0.112 C 
HETATM   15  N1  UNL     1      21.839  -1.415 -20.079  1.00  0.00    -0.343 N 
HETATM   16  O1  UNL     1      22.887  -0.424 -21.861  1.00  0.00    -0.247 OA
ATOM     17  H1  UNL     1      20.979  -1.579 -19.557  1.00  0.00     0.164 HD
HETATM   18  C25 UNL     1      19.179   0.367 -23.529  1.00  0.00     0.029 C 
BRANCH  15  19
HETATM   19  C5  UNL     1      23.058  -2.014 -19.603  1.00  0.00     0.124 C 
BRANCH  19  20
HETATM   20  C4  UNL     1      23.119  -3.464 -19.954  1.00  0.00     0.020 C 
BRANCH  20  21
HETATM   21  C3  UNL     1      24.254  -3.761 -20.921  1.00  0.00     0.001 C 
BRANCH  21  22
HETATM   22  C2  UNL     1      24.189  -5.157 -21.470  1.00  0.00    -0.004 C 
HETATM   23  C1  UNL     1      22.820  -5.725 -21.106  1.00  0.00     0.005 C 
ENDBRANCH  21  22
ENDBRANCH  20  21
ENDBRANCH  19  20
ENDBRANCH  15  19
ENDBRANCH   1   7
BRANCH   6  24
HETATM   24  N7  UNL     1      21.570   5.135 -22.034  1.00  0.00    -0.058 N 
ATOM     25  H73 UNL     1      21.177   5.935 -21.538  1.00  0.00     0.276 HD
ATOM     26  H72 UNL     1      21.766   4.512 -21.251  1.00  0.00     0.276 HD
ATOM     27  H71 UNL     1      22.443   5.405 -22.487  1.00  0.00     0.276 HD
ENDBRANCH   6  24
BRANCH   4  28
HETATM   28  N4  UNL     1      21.944   6.306 -25.844  1.00  0.00    -0.245 N 
HETATM   29  N5  UNL     1      21.191   7.391 -25.974  1.00  0.00    -0.237 N 
HETATM   30  N6  UNL     1      21.659   8.148 -26.916  1.00  0.00    -0.281 N 
ATOM     31  H5  UNL     1      20.364   7.598 -25.414  1.00  0.00     0.208 HD
HETATM   32  C14 UNL     1      22.755   7.571 -27.442  1.00  0.00     0.119 A 
ATOM     33  H6  UNL     1      21.261   9.040 -27.211  1.00  0.00     0.188 HD
HETATM   34  C21 UNL     1      22.930   6.391 -26.749  1.00  0.00     0.235 A 
HETATM   35  F1  UNL     1      23.933   5.502 -26.973  1.00  0.00    -0.182 F 
BRANCH  32  36
HETATM   36  C15 UNL     1      23.533   8.158 -28.522  1.00  0.00     0.018 A 
HETATM   37  C16 UNL     1      24.539   9.076 -28.319  1.00  0.00     0.017 A 
HETATM   38  C17 UNL     1      25.248   9.605 -29.402  1.00  0.00     0.025 A 
HETATM   39  C18 UNL     1      24.956   9.221 -30.703  1.00  0.00     0.035 A 
HETATM   40 CL1  UNL     1      25.864   9.907 -32.035  1.00  0.00    -0.084 Cl
HETATM   41  C19 UNL     1      23.947   8.301 -30.899  1.00  0.00     0.048 A 
HETATM   42  C20 UNL     1      23.247   7.778 -29.819  1.00  0.00     0.048 A 
HETATM   43 CL2  UNL     1      21.964   6.605 -30.112  1.00  0.00    -0.083 Cl
ENDBRANCH  32  36
ENDBRANCH   4  28
TORSDOF 8
ENDMDL
MODEL 4
REMARK VINA RESULT: -8.554829685      4.499      5.562
REMARK  8 active torsions:
REMARK  status: ('A' for Active; 'I' for Inactive)
REMARK    1  A    between atoms: C2_2  and  C3_3 
REMARK    2  A    between atoms: C3_3  and  C4_4 
REMARK    3  A    between atoms: C4_4  and  C5_5 
REMARK    4  A    between atoms: C5_5  and  N1_6 
REMARK       I    between atoms: N1_6  and  C6_8 
REMARK       I    between atoms: C6_8  and  N2_10 
REMARK    5  A    between atoms: C10_14  and  N3_15 
REMARK    6  A    between atoms: C13_18  and  N4_19 
REMARK    7  A    between atoms: C14_24  and  C15_25 
REMARK    8  A    between atoms: C23_36  and  N7_37 
ROOT
HETATM    1  N3  UNL     1      19.220   3.133 -22.643  1.00  0.00    -0.359 N 
HETATM    2  C11 UNL     1      20.242   3.934 -22.168  1.00  0.00     0.063 C 
HETATM    3  C12 UNL     1      20.071   5.368 -22.648  1.00  0.00     0.072 C 
HETATM    4  C13 UNL     1      18.688   5.802 -22.227  1.00  0.00     0.120 C 
HETATM    5  C22 UNL     1      17.722   4.962 -23.041  1.00  0.00     0.082 C 
HETATM    6  C23 UNL     1      17.878   3.544 -22.534  1.00  0.00     0.285 C 
ENDROOT
BRANCH   1   7
HETATM    7  C10 UNL     1      19.401   1.722 -22.707  1.00  0.00     0.108 C 
HETATM    8  C9  UNL     1      18.316   0.937 -23.369  1.00  0.00     0.029 C 
HETATM    9  C8  UNL     1      18.697  -0.431 -23.788  1.00  0.00     0.027 C 
HETATM   10  C7  UNL     1      20.130  -0.814 -23.693  1.00  0.00     0.089 C 
HETATM   11  N2  UNL     1      20.933  -0.053 -22.768  1.00  0.00    -0.323 N 
HETATM   12  C26 UNL     1      20.795  -0.345 -25.004  1.00  0.00     0.027 C 
HETATM   13  C6  UNL     1      21.717  -0.427 -21.659  1.00  0.00     0.319 C 
HETATM   14  C24 UNL     1      20.766   1.325 -23.272  1.00  0.00     0.112 C 
HETATM   15  N1  UNL     1      21.856  -1.770 -21.224  1.00  0.00    -0.343 N 
HETATM   16  O1  UNL     1      22.354   0.454 -20.985  1.00  0.00    -0.247 OA
ATOM     17  H1  UNL     1      21.360  -2.501 -21.733  1.00  0.00     0.164 HD
HETATM   18  C25 UNL     1      20.784   1.151 -24.754  1.00  0.00     0.029 C 
BRANCH  15  19
HETATM   19  C5  UNL     1      22.666  -2.147 -20.095  1.00  0.00     0.124 C 
BRANCH  19  20
HETATM   20  C4  UNL     1      23.718  -3.130 -20.490  1.00  0.00     0.020 C 
BRANCH  20  21
HETATM   21  C3  UNL     1      23.571  -4.444 -19.740  1.00  0.00     0.001 C 
BRANCH  21  22
HETATM   22  C2  UNL     1      22.280  -5.142 -20.054  1.00  0.00    -0.004 C 
HETATM   23  C1  UNL     1      22.500  -5.951 -21.329  1.00  0.00     0.005 C 
ENDBRANCH  21  22
ENDBRANCH  20  21
ENDBRANCH  19  20
ENDBRANCH  15  19
ENDBRANCH   1   7
BRANCH   6  24
HETATM   24  N7  UNL     1      17.305   3.506 -21.204  1.00  0.00    -0.058 N 
ATOM     25  H73 UNL     1      16.541   4.178 -21.138  1.00  0.00     0.276 HD
ATOM     26  H72 UNL     1      16.795   2.633 -21.072  1.00  0.00     0.276 HD
ATOM     27  H71 UNL     1      17.956   3.645 -20.431  1.00  0.00     0.276 HD
ENDBRANCH   6  24
BRANCH   4  28
HETATM   28  N4  UNL     1      18.445   7.196 -22.261  1.00  0.00    -0.245 N 
HETATM   29  N5  UNL     1      19.347   8.091 -22.642  1.00  0.00    -0.237 N 
HETATM   30  N6  UNL     1      18.846   9.284 -22.575  1.00  0.00    -0.281 N 
ATOM     31  H5  UNL     1      20.296   7.871 -22.945  1.00  0.00     0.208 HD
HETATM   32  C14 UNL     1      17.577   9.206 -22.138  1.00  0.00     0.119 A 
ATOM     33  H6  UNL     1      19.337  10.146 -22.815  1.00  0.00     0.188 HD
HETATM   34  C21 UNL     1      17.327   7.863 -21.939  1.00  0.00     0.235 A 
HETATM   35  F1  UNL     1      16.150   7.351 -21.495  1.00  0.00    -0.182 F 
BRANCH  32  36
HETATM   36  C15 UNL     1      16.718  10.366 -21.949  1.00  0.00     0.018 A 
HETATM   37  C16 UNL     1      16.146  10.695 -20.741  1.00  0.00     0.017 A 
HETATM   38  C17 UNL     1      15.326  11.823 -20.627  1.00  0.00     0.025 A 
HETATM   39  C18 UNL     1      15.069  12.633 -21.724  1.00  0.00     0.035 A 
HETATM   40 CL1  UNL     1      14.035  14.036 -21.543  1.00  0.00    -0.084 Cl
HETATM   41  C19 UNL     1      15.645  12.296 -22.932  1.00  0.00     0.048 A 
HETATM   42  C20 UNL     1      16.459  11.175 -23.038  1.00  0.00     0.048 A 
HETATM   43 CL2  UNL     1      17.177  10.778 -24.599  1.00  0.00    -0.083 Cl
ENDBRANCH  32  36
ENDBRANCH   4  28
TORSDOF 8
ENDMDL
MODEL 5
REMARK VINA RESULT: -8.464812234      1.389      1.616
REMARK  8 active torsions:
REMARK  status: ('A' for Active; 'I' for Inactive)
REMARK    1  A    between atoms: C2_2  and  C3_3 
REMARK    2  A    between atoms: C3_3  and  C4_4 
REMARK    3  A    between atoms: C4_4  and  C5_5 
REMARK    4  A    between atoms: C5_5  and  N1_6 
REMARK       I    between atoms: N1_6  and  C6_8 
REMARK       I    between atoms: C6_8  and  N2_10 
REMARK    5  A    between atoms: C10_14  and  N3_15 
REMARK    6  A    between atoms: C13_18  and  N4_19 
REMARK    7  A    between atoms: C14_24  and  C15_25 
REMARK    8  A    between atoms: C23_36  and  N7_37 
ROOT
HETATM    1  N3  UNL     1      20.761   3.274 -23.319  1.00  0.00    -0.359 N 
HETATM    2  C11 UNL     1      21.750   3.035 -24.256  1.00  0.00     0.063 C 
HETATM    3  C12 UNL     1      21.621   3.991 -25.432  1.00  0.00     0.072 C 
HETATM    4  C13 UNL     1      21.627   5.387 -24.858  1.00  0.00     0.120 C 
HETATM    5  C22 UNL     1      20.342   5.515 -24.062  1.00  0.00     0.082 C 
HETATM    6  C23 UNL     1      20.494   4.583 -22.877  1.00  0.00     0.285 C 
ENDROOT
BRANCH   1   7
HETATM    7  C10 UNL     1      20.410   2.254 -22.390  1.00  0.00     0.108 C 
HETATM    8  C9  UNL     1      19.125   2.438 -21.649  1.00  0.00     0.029 C 
HETATM    9  C8  UNL     1      18.583   1.213 -21.017  1.00  0.00     0.027 C 
HETATM   10  C7  UNL     1      19.241  -0.082 -21.336  1.00  0.00     0.089 C 
HETATM   11  N2  UNL     1      20.604  -0.008 -21.800  1.00  0.00    -0.323 N 
HETATM   12  C26 UNL     1      18.588  -0.594 -22.636  1.00  0.00     0.027 C 
HETATM   13  C6  UNL     1      21.802  -0.576 -21.325  1.00  0.00     0.319 C 
HETATM   14  C24 UNL     1      20.478   0.851 -22.995  1.00  0.00     0.112 C 
HETATM   15  N1  UNL     1      21.866  -1.407 -20.178  1.00  0.00    -0.343 N 
HETATM   16  O1  UNL     1      22.908  -0.360 -21.930  1.00  0.00    -0.247 OA
ATOM     17  H1  UNL     1      21.004  -1.599 -19.667  1.00  0.00     0.164 HD
HETATM   18  C25 UNL     1      19.200   0.392 -23.613  1.00  0.00     0.029 C 
BRANCH  15  19
HETATM   19  C5  UNL     1      23.093  -1.992 -19.703  1.00  0.00     0.124 C 
BRANCH  19  20
HETATM   20  C4  UNL     1      23.137  -3.457 -19.988  1.00  0.00     0.020 C 
BRANCH  20  21
HETATM   21  C3  UNL     1      24.266  -3.811 -20.943  1.00  0.00     0.001 C 
BRANCH  21  22
HETATM   22  C2  UNL     1      24.167  -5.220 -21.451  1.00  0.00    -0.004 C 
HETATM   23  C1  UNL     1      22.779  -5.738 -21.085  1.00  0.00     0.005 C 
ENDBRANCH  21  22
ENDBRANCH  20  21
ENDBRANCH  19  20
ENDBRANCH  15  19
ENDBRANCH   1   7
BRANCH   6  24
HETATM   24  N7  UNL     1      21.484   5.174 -22.000  1.00  0.00    -0.058 N 
ATOM     25  H73 UNL     1      21.226   5.010 -21.028  1.00  0.00     0.276 HD
ATOM     26  H72 UNL     1      22.353   4.643 -22.051  1.00  0.00     0.276 HD
ATOM     27  H71 UNL     1      21.677   6.165 -22.144  1.00  0.00     0.276 HD
ENDBRANCH   6  24
BRANCH   4  28
HETATM   28  N4  UNL     1      21.865   6.432 -25.783  1.00  0.00    -0.245 N 
HETATM   29  N5  UNL     1      21.112   7.520 -25.873  1.00  0.00    -0.237 N 
HETATM   30  N6  UNL     1      21.567   8.301 -26.801  1.00  0.00    -0.281 N 
ATOM     31  H5  UNL     1      20.293   7.713 -25.295  1.00  0.00     0.208 HD
HETATM   32  C14 UNL     1      22.654   7.737 -27.358  1.00  0.00     0.119 A 
ATOM     33  H6  UNL     1      21.166   9.201 -27.067  1.00  0.00     0.188 HD
HETATM   34  C21 UNL     1      22.838   6.538 -26.699  1.00  0.00     0.235 A 
HETATM   35  F1  UNL     1      23.836   5.655 -26.961  1.00  0.00    -0.182 F 
BRANCH  32  36
HETATM   36  C15 UNL     1      23.418   8.351 -28.434  1.00  0.00     0.018 A 
HETATM   37  C16 UNL     1      23.465   7.845 -29.713  1.00  0.00     0.017 A 
HETATM   38  C17 UNL     1      24.221   8.482 -30.702  1.00  0.00     0.025 A 
HETATM   39  C18 UNL     1      24.940   9.634 -30.420  1.00  0.00     0.035 A 
HETATM   40 CL1  UNL     1      25.878  10.404 -31.685  1.00  0.00    -0.084 Cl
HETATM   41  C19 UNL     1      24.889  10.136 -29.136  1.00  0.00     0.048 A 
HETATM   42  C20 UNL     1      24.135   9.499 -28.158  1.00  0.00     0.048 A 
HETATM   43 CL2  UNL     1      24.094  10.171 -26.529  1.00  0.00    -0.083 Cl
ENDBRANCH  32  36
ENDBRANCH   4  28
TORSDOF 8
ENDMDL
