MODEL 1
REMARK VINA RESULT: -8.056374812      0.000      0.000
REMARK  12 active torsions:
REMARK  status: ('A' for Active; 'I' for Inactive)
REMARK    1  A    between atoms: C2_2  and  C3_3 
REMARK    2  A    between atoms: C3_3  and  C4_4 
REMARK    3  A    between atoms: C4_4  and  C5_5 
REMARK    4  A    between atoms: C5_5  and  C6_6 
REMARK    5  A    between atoms: C6_6  and  C7_7 
REMARK    6  A    between atoms: C10_13  and  C11_14 
REMARK    7  A    between atoms: C13_16  and  C14_17 
REMARK    8  A    between atoms: C14_17  and  C15_18 
REMARK    9  A    between atoms: C22_29  and  C23_30 
REMARK   10  A    between atoms: C23_30  and  C24_31 
REMARK   11  A    between atoms: C24_31  and  C25_32 
REMARK   12  A    between atoms: C25_32  and  N3_33 
ROOT
HETATM    1  C7  UNL     1      23.902  46.301  43.298  1.00  0.00    -0.004 C 
HETATM    2  C8  UNL     1      23.220  44.996  43.110  1.00  0.00     0.142 C 
HETATM    3  C9  UNL     1      22.397  44.591  44.280  1.00  0.00     0.222 C 
HETATM    4  O1  UNL     1      23.055  43.970  45.206  1.00  0.00    -0.273 OA
HETATM    5  N1  UNL     1      21.056  44.770  44.540  1.00  0.00    -0.351 N 
ATOM      6  H1  UNL     1      20.858  45.217  45.435  1.00  0.00     0.163 HD
HETATM    7  C10 UNL     1      19.872  44.436  43.764  1.00  0.00     0.130 C 
HETATM    8  C13 UNL     1      19.554  45.481  42.754  1.00  0.00     0.016 C 
HETATM    9  N2  UNL     1      19.077  46.735  43.287  1.00  0.00    -0.330 N 
ATOM     10  H2  UNL     1      18.157  47.034  42.963  1.00  0.00     0.168 HD
HETATM   11  C21 UNL     1      19.715  47.594  44.194  1.00  0.00     0.244 C 
HETATM   12  O2  UNL     1      18.994  48.053  45.169  1.00  0.00    -0.271 OA
HETATM   13  C22 UNL     1      21.119  48.059  44.193  1.00  0.00     0.177 C 
HETATM   14  N6  UNL     1      21.846  47.854  42.981  1.00  0.00    -0.344 N 
ATOM     15  H6  UNL     1      21.307  47.999  42.127  1.00  0.00     0.163 HD
HETATM   16  C27 UNL     1      23.172  47.490  42.779  1.00  0.00     0.244 C 
HETATM   17  O3  UNL     1      23.857  48.294  42.045  1.00  0.00    -0.268 OA
ENDROOT
BRANCH   8  18
HETATM   18  C14 UNL     1      18.908  45.051  41.481  1.00  0.00     0.093 C 
BRANCH  18  19
HETATM   19  C15 UNL     1      17.561  45.451  41.174  1.00  0.00    -0.050 A 
HETATM   20  C16 UNL     1      16.445  44.731  41.562  1.00  0.00     0.007 A 
HETATM   21  C17 UNL     1      15.158  45.110  41.266  1.00  0.00     0.004 A 
HETATM   22  C18 UNL     1      14.952  46.265  40.546  1.00  0.00     0.042 A 
HETATM   23  C19 UNL     1      16.024  47.011  40.139  1.00  0.00     0.116 A 
HETATM   24  F1  UNL     1      15.835  48.145  39.435  1.00  0.00    -0.206 F 
HETATM   25  C20 UNL     1      17.300  46.594  40.458  1.00  0.00     0.049 A 
ENDBRANCH  18  19
ENDBRANCH   8  18
BRANCH   7  26
HETATM   26  C11 UNL     1      18.682  44.270  44.710  1.00  0.00     0.026 C 
HETATM   27  C12 UNL     1      17.663  43.302  44.145  1.00  0.00     0.007 C 
ENDBRANCH   7  26
BRANCH  13  28
HETATM   28  C23 UNL     1      21.139  49.587  44.453  1.00  0.00     0.036 C 
BRANCH  28  29
HETATM   29  C24 UNL     1      22.509  50.015  44.903  1.00  0.00     0.022 C 
BRANCH  29  30
HETATM   30  C25 UNL     1      22.993  49.254  46.101  1.00  0.00     0.122 C 
BRANCH  30  31
HETATM   31  N3  UNL     1      23.472  50.168  47.118  1.00  0.00    -0.367 N 
HETATM   32  C26 UNL     1      23.398  49.920  48.368  1.00  0.00     0.196 C 
HETATM   33  N4  UNL     1      22.815  48.681  48.783  1.00  0.00    -0.067 NA
HETATM   34  N5  UNL     1      23.858  50.792  49.376  1.00  0.00    -0.067 NA
ATOM     35  H3  UNL     1      23.888  51.051  46.821  1.00  0.00     0.161 HD
ENDBRANCH  30  31
ENDBRANCH  29  30
ENDBRANCH  28  29
ENDBRANCH  13  28
BRANCH   1  36
HETATM   36  C6  UNL     1      25.361  46.378  42.978  1.00  0.00     0.040 C 
BRANCH  36  37
HETATM   37  C5  UNL     1      26.362  46.276  44.031  1.00  0.00     0.004 C 
BRANCH  37  38
HETATM   38  C4  UNL     1      26.897  45.014  44.529  1.00  0.00     0.000 C 
BRANCH  38  39
HETATM   39  C3  UNL     1      28.381  44.791  44.437  1.00  0.00    -0.000 C 
BRANCH  39  40
HETATM   40  C2  UNL     1      29.125  45.919  43.751  1.00  0.00    -0.005 C 
HETATM   41  C1  UNL     1      29.556  46.843  44.900  1.00  0.00     0.005 C 
ENDBRANCH  39  40
ENDBRANCH  38  39
ENDBRANCH  37  38
ENDBRANCH  36  37
ENDBRANCH   1  36
TORSDOF 12
ENDMDL
MODEL 2
REMARK VINA RESULT: -7.746300919      0.773      1.091
REMARK  12 active torsions:
REMARK  status: ('A' for Active; 'I' for Inactive)
REMARK    1  A    between atoms: C2_2  and  C3_3 
REMARK    2  A    between atoms: C3_3  and  C4_4 
REMARK    3  A    between atoms: C4_4  and  C5_5 
REMARK    4  A    between atoms: C5_5  and  C6_6 
REMARK    5  A    between atoms: C6_6  and  C7_7 
REMARK    6  A    between atoms: C10_13  and  C11_14 
REMARK    7  A    between atoms: C13_16  and  C14_17 
REMARK    8  A    between atoms: C14_17  and  C15_18 
REMARK    9  A    between atoms: C22_29  and  C23_30 
REMARK   10  A    between atoms: C23_30  and  C24_31 
REMARK   11  A    between atoms: C24_31  and  C25_32 
REMARK   12  A    between atoms: C25_32  and  N3_33 
ROOT
HETATM    1  C7  UNL     1      23.916  46.318  43.342  1.00  0.00    -0.004 C 
HETATM    2  C8  UNL     1      23.239  45.009  43.163  1.00  0.00     0.142 C 
HETATM    3  C9  UNL     1      22.397  44.621  44.326  1.00  0.00     0.222 C 
HETATM    4  O1  UNL     1      23.040  44.016  45.273  1.00  0.00    -0.273 OA
HETATM    5  N1  UNL     1      21.051  44.803  44.559  1.00  0.00    -0.351 N 
ATOM      6  H1  UNL     1      20.838  45.263  45.444  1.00  0.00     0.163 HD
HETATM    7  C10 UNL     1      19.881  44.454  43.769  1.00  0.00     0.130 C 
HETATM    8  C13 UNL     1      19.579  45.483  42.737  1.00  0.00     0.016 C 
HETATM    9  N2  UNL     1      19.091  46.744  43.242  1.00  0.00    -0.330 N 
ATOM     10  H2  UNL     1      18.177  47.036  42.897  1.00  0.00     0.168 HD
HETATM   11  C21 UNL     1      19.713  47.619  44.146  1.00  0.00     0.244 C 
HETATM   12  O2  UNL     1      18.974  48.092  45.101  1.00  0.00    -0.271 OA
HETATM   13  C22 UNL     1      21.116  48.086  44.162  1.00  0.00     0.177 C 
HETATM   14  N6  UNL     1      21.864  47.863  42.966  1.00  0.00    -0.344 N 
ATOM     15  H6  UNL     1      21.339  47.993  42.101  1.00  0.00     0.163 HD
HETATM   16  C27 UNL     1      23.193  47.498  42.793  1.00  0.00     0.244 C 
HETATM   17  O3  UNL     1      23.890  48.291  42.058  1.00  0.00    -0.268 OA
ENDROOT
BRANCH   8  18
HETATM   18  C14 UNL     1      18.956  45.031  41.460  1.00  0.00     0.093 C 
BRANCH  18  19
HETATM   19  C15 UNL     1      17.625  45.450  41.109  1.00  0.00    -0.050 A 
HETATM   20  C16 UNL     1      17.341  46.666  40.515  1.00  0.00     0.007 A 
HETATM   21  C17 UNL     1      16.070  47.070  40.185  1.00  0.00     0.004 A 
HETATM   22  C18 UNL     1      15.013  46.230  40.452  1.00  0.00     0.042 A 
HETATM   23  C19 UNL     1      15.243  45.016  41.039  1.00  0.00     0.116 A 
HETATM   24  F1  UNL     1      14.217  44.183  41.305  1.00  0.00    -0.206 F 
HETATM   25  C20 UNL     1      16.535  44.650  41.356  1.00  0.00     0.049 A 
ENDBRANCH  18  19
ENDBRANCH   8  18
BRANCH   7  26
HETATM   26  C11 UNL     1      18.676  44.301  44.696  1.00  0.00     0.026 C 
HETATM   27  C12 UNL     1      17.638  43.374  44.098  1.00  0.00     0.007 C 
ENDBRANCH   7  26
BRANCH  13  28
HETATM   28  C23 UNL     1      21.129  49.617  44.398  1.00  0.00     0.036 C 
BRANCH  28  29
HETATM   29  C24 UNL     1      22.498  50.059  44.837  1.00  0.00     0.022 C 
BRANCH  29  30
HETATM   30  C25 UNL     1      23.001  49.299  46.029  1.00  0.00     0.122 C 
BRANCH  30  31
HETATM   31  N3  UNL     1      23.442  50.214  47.060  1.00  0.00    -0.367 N 
HETATM   32  C26 UNL     1      23.435  49.920  48.303  1.00  0.00     0.196 C 
HETATM   33  N4  UNL     1      22.971  48.624  48.692  1.00  0.00    -0.067 NA
HETATM   34  N5  UNL     1      23.861  50.792  49.325  1.00  0.00    -0.067 NA
ATOM     35  H3  UNL     1      23.774  51.138  46.782  1.00  0.00     0.161 HD
ENDBRANCH  30  31
ENDBRANCH  29  30
ENDBRANCH  28  29
ENDBRANCH  13  28
BRANCH   1  36
HETATM   36  C6  UNL     1      25.381  46.393  43.046  1.00  0.00     0.040 C 
BRANCH  36  37
HETATM   37  C5  UNL     1      26.365  46.228  44.107  1.00  0.00     0.004 C 
BRANCH  37  38
HETATM   38  C4  UNL     1      26.911  44.940  44.520  1.00  0.00     0.000 C 
BRANCH  38  39
HETATM   39  C3  UNL     1      28.402  44.751  44.455  1.00  0.00    -0.000 C 
BRANCH  39  40
HETATM   40  C2  UNL     1      29.127  45.876  43.745  1.00  0.00    -0.005 C 
HETATM   41  C1  UNL     1      29.529  46.840  44.872  1.00  0.00     0.005 C 
ENDBRANCH  39  40
ENDBRANCH  38  39
ENDBRANCH  37  38
ENDBRANCH  36  37
ENDBRANCH   1  36
TORSDOF 12
ENDMDL
MODEL 3
REMARK VINA RESULT: -7.322404107      1.341      1.650
REMARK  12 active torsions:
REMARK  status: ('A' for Active; 'I' for Inactive)
REMARK    1  A    between atoms: C2_2  and  C3_3 
REMARK    2  A    between atoms: C3_3  and  C4_4 
REMARK    3  A    between atoms: C4_4  and  C5_5 
REMARK    4  A    between atoms: C5_5  and  C6_6 
REMARK    5  A    between atoms: C6_6  and  C7_7 
REMARK    6  A    between atoms: C10_13  and  C11_14 
REMARK    7  A    between atoms: C13_16  and  C14_17 
REMARK    8  A    between atoms: C14_17  and  C15_18 
REMARK    9  A    between atoms: C22_29  and  C23_30 
REMARK   10  A    between atoms: C23_30  and  C24_31 
REMARK   11  A    between atoms: C24_31  and  C25_32 
REMARK   12  A    between atoms: C25_32  and  N3_33 
ROOT
HETATM    1  C7  UNL     1      23.937  46.351  43.390  1.00  0.00    -0.004 C 
HETATM    2  C8  UNL     1      23.234  45.053  43.223  1.00  0.00     0.142 C 
HETATM    3  C9  UNL     1      22.379  44.696  44.385  1.00  0.00     0.222 C 
HETATM    4  O1  UNL     1      23.005  44.088  45.342  1.00  0.00    -0.273 OA
HETATM    5  N1  UNL     1      21.036  44.907  44.610  1.00  0.00    -0.351 N 
ATOM      6  H1  UNL     1      20.828  45.381  45.488  1.00  0.00     0.163 HD
HETATM    7  C10 UNL     1      19.863  44.574  43.817  1.00  0.00     0.130 C 
HETATM    8  C13 UNL     1      19.587  45.596  42.773  1.00  0.00     0.016 C 
HETATM    9  N2  UNL     1      19.122  46.873  43.262  1.00  0.00    -0.330 N 
ATOM     10  H2  UNL     1      18.216  47.180  42.909  1.00  0.00     0.168 HD
HETATM   11  C21 UNL     1      19.757  47.745  44.159  1.00  0.00     0.244 C 
HETATM   12  O2  UNL     1      19.024  48.243  45.105  1.00  0.00    -0.271 OA
HETATM   13  C22 UNL     1      21.169  48.184  44.177  1.00  0.00     0.177 C 
HETATM   14  N6  UNL     1      21.919  47.932  42.987  1.00  0.00    -0.344 N 
ATOM     15  H6  UNL     1      21.401  48.064  42.118  1.00  0.00     0.163 HD
HETATM   16  C27 UNL     1      23.241  47.538  42.824  1.00  0.00     0.244 C 
HETATM   17  O3  UNL     1      23.957  48.309  42.084  1.00  0.00    -0.268 OA
ENDROOT
BRANCH   8  18
HETATM   18  C14 UNL     1      18.961  45.143  41.498  1.00  0.00     0.093 C 
BRANCH  18  19
HETATM   19  C15 UNL     1      17.594  45.478  41.197  1.00  0.00    -0.050 A 
HETATM   20  C16 UNL     1      16.516  44.704  41.589  1.00  0.00     0.007 A 
HETATM   21  C17 UNL     1      15.211  45.019  41.298  1.00  0.00     0.004 A 
HETATM   22  C18 UNL     1      14.945  46.163  40.580  1.00  0.00     0.042 A 
HETATM   23  C19 UNL     1      15.978  46.961  40.169  1.00  0.00     0.116 A 
HETATM   24  F1  UNL     1      15.731  48.084  39.467  1.00  0.00    -0.206 F 
HETATM   25  C20 UNL     1      17.274  46.607  40.482  1.00  0.00     0.049 A 
ENDBRANCH  18  19
ENDBRANCH   8  18
BRANCH   7  26
HETATM   26  C11 UNL     1      18.651  44.455  44.741  1.00  0.00     0.026 C 
HETATM   27  C12 UNL     1      17.692  43.388  44.253  1.00  0.00     0.007 C 
ENDBRANCH   7  26
BRANCH  13  28
HETATM   28  C23 UNL     1      21.213  49.717  44.396  1.00  0.00     0.036 C 
BRANCH  28  29
HETATM   29  C24 UNL     1      22.634  50.170  44.592  1.00  0.00     0.022 C 
BRANCH  29  30
HETATM   30  C25 UNL     1      22.782  51.148  45.720  1.00  0.00     0.122 C 
BRANCH  30  31
HETATM   31  N3  UNL     1      22.656  52.505  45.229  1.00  0.00    -0.367 N 
HETATM   32  C26 UNL     1      23.568  53.386  45.374  1.00  0.00     0.196 C 
HETATM   33  N4  UNL     1      24.771  53.015  46.053  1.00  0.00    -0.067 NA
HETATM   34  N5  UNL     1      23.469  54.711  44.904  1.00  0.00    -0.067 NA
ATOM     35  H3  UNL     1      21.798  52.768  44.743  1.00  0.00     0.161 HD
ENDBRANCH  30  31
ENDBRANCH  29  30
ENDBRANCH  28  29
ENDBRANCH  13  28
BRANCH   1  36
HETATM   36  C6  UNL     1      25.404  46.392  43.101  1.00  0.00     0.040 C 
BRANCH  36  37
HETATM   37  C5  UNL     1      26.380  46.238  44.171  1.00  0.00     0.004 C 
BRANCH  37  38
HETATM   38  C4  UNL     1      26.951  44.959  44.577  1.00  0.00     0.000 C 
BRANCH  38  39
HETATM   39  C3  UNL     1      28.427  44.750  44.379  1.00  0.00    -0.000 C 
BRANCH  39  40
HETATM   40  C2  UNL     1      29.131  45.936  43.752  1.00  0.00    -0.005 C 
HETATM   41  C1  UNL     1      29.457  46.855  44.938  1.00  0.00     0.005 C 
ENDBRANCH  39  40
ENDBRANCH  38  39
ENDBRANCH  37  38
ENDBRANCH  36  37
ENDBRANCH   1  36
TORSDOF 12
ENDMDL
MODEL 4
REMARK VINA RESULT: -6.975119484      1.466      1.925
REMARK  12 active torsions:
REMARK  status: ('A' for Active; 'I' for Inactive)
REMARK    1  A    between atoms: C2_2  and  C3_3 
REMARK    2  A    between atoms: C3_3  and  C4_4 
REMARK    3  A    between atoms: C4_4  and  C5_5 
REMARK    4  A    between atoms: C5_5  and  C6_6 
REMARK    5  A    between atoms: C6_6  and  C7_7 
REMARK    6  A    between atoms: C10_13  and  C11_14 
REMARK    7  A    between atoms: C13_16  and  C14_17 
REMARK    8  A    between atoms: C14_17  and  C15_18 
REMARK    9  A    between atoms: C22_29  and  C23_30 
REMARK   10  A    between atoms: C23_30  and  C24_31 
REMARK   11  A    between atoms: C24_31  and  C25_32 
REMARK   12  A    between atoms: C25_32  and  N3_33 
ROOT
HETATM    1  C7  UNL     1      23.943  46.383  43.353  1.00  0.00    -0.004 C 
HETATM    2  C8  UNL     1      23.264  45.071  43.205  1.00  0.00     0.142 C 
HETATM    3  C9  UNL     1      22.416  44.716  44.375  1.00  0.00     0.222 C 
HETATM    4  O1  UNL     1      23.055  44.134  45.339  1.00  0.00    -0.273 OA
HETATM    5  N1  UNL     1      21.071  44.907  44.599  1.00  0.00    -0.351 N 
ATOM      6  H1  UNL     1      20.856  45.390  45.472  1.00  0.00     0.163 HD
HETATM    7  C10 UNL     1      19.902  44.541  43.815  1.00  0.00     0.130 C 
HETATM    8  C13 UNL     1      19.606  45.544  42.756  1.00  0.00     0.016 C 
HETATM    9  N2  UNL     1      19.120  46.818  43.227  1.00  0.00    -0.330 N 
ATOM     10  H2  UNL     1      18.208  47.105  42.873  1.00  0.00     0.168 HD
HETATM   11  C21 UNL     1      19.742  47.715  44.110  1.00  0.00     0.244 C 
HETATM   12  O2  UNL     1      19.001  48.214  45.051  1.00  0.00    -0.271 OA
HETATM   13  C22 UNL     1      21.146  48.179  44.119  1.00  0.00     0.177 C 
HETATM   14  N6  UNL     1      21.897  47.923  42.931  1.00  0.00    -0.344 N 
ATOM     15  H6  UNL     1      21.375  48.032  42.061  1.00  0.00     0.163 HD
HETATM   16  C27 UNL     1      23.225  47.550  42.771  1.00  0.00     0.244 C 
HETATM   17  O3  UNL     1      23.926  48.322  42.018  1.00  0.00    -0.268 OA
ENDROOT
BRANCH   8  18
HETATM   18  C14 UNL     1      18.985  45.061  41.489  1.00  0.00     0.093 C 
BRANCH  18  19
HETATM   19  C15 UNL     1      17.649  45.460  41.133  1.00  0.00    -0.050 A 
HETATM   20  C16 UNL     1      17.350  46.671  40.534  1.00  0.00     0.007 A 
HETATM   21  C17 UNL     1      16.075  47.055  40.198  1.00  0.00     0.004 A 
HETATM   22  C18 UNL     1      15.029  46.201  40.465  1.00  0.00     0.042 A 
HETATM   23  C19 UNL     1      15.274  44.992  41.057  1.00  0.00     0.116 A 
HETATM   24  F1  UNL     1      14.259  44.146  41.322  1.00  0.00    -0.206 F 
HETATM   25  C20 UNL     1      16.570  44.646  41.378  1.00  0.00     0.049 A 
ENDBRANCH  18  19
ENDBRANCH   8  18
BRANCH   7  26
HETATM   26  C11 UNL     1      18.694  44.415  44.742  1.00  0.00     0.026 C 
HETATM   27  C12 UNL     1      17.686  43.423  44.198  1.00  0.00     0.007 C 
ENDBRANCH   7  26
BRANCH  13  28
HETATM   28  C23 UNL     1      21.163  49.715  44.316  1.00  0.00     0.036 C 
BRANCH  28  29
HETATM   29  C24 UNL     1      22.459  50.140  44.950  1.00  0.00     0.022 C 
BRANCH  29  30
HETATM   30  C25 UNL     1      22.434  51.562  45.426  1.00  0.00     0.122 C 
BRANCH  30  31
HETATM   31  N3  UNL     1      23.747  51.960  45.890  1.00  0.00    -0.367 N 
HETATM   32  C26 UNL     1      24.209  53.142  45.748  1.00  0.00     0.196 C 
HETATM   33  N4  UNL     1      23.389  54.118  45.100  1.00  0.00    -0.067 NA
HETATM   34  N5  UNL     1      25.482  53.553  46.193  1.00  0.00    -0.067 NA
ATOM     35  H3  UNL     1      24.331  51.263  46.353  1.00  0.00     0.161 HD
ENDBRANCH  30  31
ENDBRANCH  29  30
ENDBRANCH  28  29
ENDBRANCH  13  28
BRANCH   1  36
HETATM   36  C6  UNL     1      25.409  46.446  43.059  1.00  0.00     0.040 C 
BRANCH  36  37
HETATM   37  C5  UNL     1      26.390  46.288  44.124  1.00  0.00     0.004 C 
BRANCH  37  38
HETATM   38  C4  UNL     1      26.923  45.002  44.559  1.00  0.00     0.000 C 
BRANCH  38  39
HETATM   39  C3  UNL     1      28.400  44.761  44.405  1.00  0.00    -0.000 C 
BRANCH  39  40
HETATM   40  C2  UNL     1      29.135  45.899  43.725  1.00  0.00    -0.005 C 
HETATM   41  C1  UNL     1      29.567  46.815  44.879  1.00  0.00     0.005 C 
ENDBRANCH  39  40
ENDBRANCH  38  39
ENDBRANCH  37  38
ENDBRANCH  36  37
ENDBRANCH   1  36
TORSDOF 12
ENDMDL
MODEL 5
REMARK VINA RESULT: -6.776550518      3.666      7.787
REMARK  12 active torsions:
REMARK  status: ('A' for Active; 'I' for Inactive)
REMARK    1  A    between atoms: C2_2  and  C3_3 
REMARK    2  A    between atoms: C3_3  and  C4_4 
REMARK    3  A    between atoms: C4_4  and  C5_5 
REMARK    4  A    between atoms: C5_5  and  C6_6 
REMARK    5  A    between atoms: C6_6  and  C7_7 
REMARK    6  A    between atoms: C10_13  and  C11_14 
REMARK    7  A    between atoms: C13_16  and  C14_17 
REMARK    8  A    between atoms: C14_17  and  C15_18 
REMARK    9  A    between atoms: C22_29  and  C23_30 
REMARK   10  A    between atoms: C23_30  and  C24_31 
REMARK   11  A    between atoms: C24_31  and  C25_32 
REMARK   12  A    between atoms: C25_32  and  N3_33 
ROOT
HETATM    1  C7  UNL     1      23.208  46.198  41.929  1.00  0.00    -0.004 C 
HETATM    2  C8  UNL     1      24.178  47.168  42.497  1.00  0.00     0.142 C 
HETATM    3  C9  UNL     1      23.686  48.571  42.475  1.00  0.00     0.222 C 
HETATM    4  O1  UNL     1      23.906  49.196  41.363  1.00  0.00    -0.273 OA
HETATM    5  N1  UNL     1      23.035  49.309  43.439  1.00  0.00    -0.351 N 
ATOM      6  H1  UNL     1      22.162  49.731  43.124  1.00  0.00     0.163 HD
HETATM    7  C10 UNL     1      23.371  49.593  44.825  1.00  0.00     0.130 C 
HETATM    8  C13 UNL     1      22.943  48.499  45.738  1.00  0.00     0.016 C 
HETATM    9  N2  UNL     1      21.517  48.365  45.919  1.00  0.00    -0.330 N 
ATOM     10  H2  UNL     1      21.181  48.445  46.878  1.00  0.00     0.168 HD
HETATM   11  C21 UNL     1      20.534  48.138  44.943  1.00  0.00     0.244 C 
HETATM   12  O2  UNL     1      19.464  48.868  45.014  1.00  0.00    -0.271 OA
HETATM   13  C22 UNL     1      20.545  47.166  43.829  1.00  0.00     0.177 C 
HETATM   14  N6  UNL     1      21.530  46.134  43.908  1.00  0.00    -0.344 N 
ATOM     15  H6  UNL     1      21.694  45.769  44.846  1.00  0.00     0.163 HD
HETATM   16  C27 UNL     1      22.298  45.547  42.910  1.00  0.00     0.244 C 
HETATM   17  O3  UNL     1      22.205  44.267  42.827  1.00  0.00    -0.268 OA
ENDROOT
BRANCH   8  18
HETATM   18  C14 UNL     1      23.760  48.246  46.959  1.00  0.00     0.093 C 
BRANCH  18  19
HETATM   19  C15 UNL     1      23.598  49.069  48.129  1.00  0.00    -0.050 A 
HETATM   20  C16 UNL     1      23.906  50.417  48.161  1.00  0.00     0.007 A 
HETATM   21  C17 UNL     1      23.757  51.202  49.278  1.00  0.00     0.004 A 
HETATM   22  C18 UNL     1      23.276  50.632  50.435  1.00  0.00     0.042 A 
HETATM   23  C19 UNL     1      22.957  49.301  50.453  1.00  0.00     0.116 A 
HETATM   24  F1  UNL     1      22.483  48.731  51.579  1.00  0.00    -0.206 F 
HETATM   25  C20 UNL     1      23.123  48.549  49.309  1.00  0.00     0.049 A 
ENDBRANCH  18  19
ENDBRANCH   8  18
BRANCH   7  26
HETATM   26  C11 UNL     1      22.697  50.897  45.248  1.00  0.00     0.026 C 
HETATM   27  C12 UNL     1      23.657  52.066  45.159  1.00  0.00     0.007 C 
ENDBRANCH   7  26
BRANCH  13  28
HETATM   28  C23 UNL     1      19.173  46.448  43.778  1.00  0.00     0.036 C 
BRANCH  28  29
HETATM   29  C24 UNL     1      19.338  45.060  43.224  1.00  0.00     0.022 C 
BRANCH  29  30
HETATM   30  C25 UNL     1      18.872  43.996  44.174  1.00  0.00     0.122 C 
BRANCH  30  31
HETATM   31  N3  UNL     1      20.001  43.238  44.673  1.00  0.00    -0.367 N 
HETATM   32  C26 UNL     1      20.625  43.542  45.745  1.00  0.00     0.196 C 
HETATM   33  N4  UNL     1      20.187  44.684  46.486  1.00  0.00    -0.067 NA
HETATM   34  N5  UNL     1      21.724  42.820  46.251  1.00  0.00    -0.067 NA
ATOM     35  H3  UNL     1      20.312  42.423  44.144  1.00  0.00     0.161 HD
ENDBRANCH  30  31
ENDBRANCH  29  30
ENDBRANCH  28  29
ENDBRANCH  13  28
BRANCH   1  36
HETATM   36  C6  UNL     1      23.714  45.214  40.922  1.00  0.00     0.040 C 
BRANCH  36  37
HETATM   37  C5  UNL     1      23.796  45.567  39.511  1.00  0.00     0.004 C 
BRANCH  37  38
HETATM   38  C4  UNL     1      23.365  44.694  38.425  1.00  0.00     0.000 C 
BRANCH  38  39
HETATM   39  C3  UNL     1      23.823  45.022  37.031  1.00  0.00    -0.000 C 
BRANCH  39  40
HETATM   40  C2  UNL     1      22.704  45.463  36.110  1.00  0.00    -0.005 C 
HETATM   41  C1  UNL     1      23.336  45.453  34.711  1.00  0.00     0.005 C 
ENDBRANCH  39  40
ENDBRANCH  38  39
ENDBRANCH  37  38
ENDBRANCH  36  37
ENDBRANCH   1  36
TORSDOF 12
ENDMDL
