MODEL 1
REMARK VINA RESULT: -3.756156761      0.000      0.000
REMARK  5 active torsions:
REMARK  status: ('A' for Active; 'I' for Inactive)
REMARK    1  A    between atoms: O1_1  and  C1_3 
REMARK    2  A    between atoms: C1_3  and  C2_4 
REMARK    3  A    between atoms: C2_4  and  N1_5 
REMARK    4  A    between atoms: C5_9  and  C6_10 
REMARK    5  A    between atoms: C6_10  and  O2_11 
ROOT
HETATM    1  N1  UNL     1      62.044 105.411  53.427  1.00  0.00     0.107 N 
HETATM    2  C3  UNL     1      60.859 106.077  52.884  1.00  0.00     0.347 C 
HETATM    3  S1  UNL     1      61.359 106.113  51.104  1.00  0.00    -0.137 SA
HETATM    4  C4  UNL     1      63.173 105.954  51.420  1.00  0.00     0.113 C 
HETATM    5  C5  UNL     1      63.106 106.234  52.901  1.00  0.00     0.256 C 
ENDROOT
BRANCH   1   6
HETATM    6  C2  UNL     1      62.044 104.071  52.910  1.00  0.00     0.299 C 
BRANCH   6   7
HETATM    7  C1  UNL     1      62.415 103.058  53.941  1.00  0.00     0.194 C 
BRANCH   7   8
HETATM    8  O1  UNL     1      62.066 103.471  55.232  1.00  0.00    -0.399 OA
ATOM      9  H1  UNL     1      61.136 103.369  55.399  1.00  0.00     0.209 HD
ENDBRANCH   7   8
ENDBRANCH   6   7
ENDBRANCH   1   6
BRANCH   5  10
HETATM   10  C6  UNL     1      64.378 106.235  53.632  1.00  0.00     0.200 C 
BRANCH  10  11
HETATM   11  O2  UNL     1      64.647 105.096  54.383  1.00  0.00    -0.399 OA
ATOM     12  H2  UNL     1      64.997 104.355  53.902  1.00  0.00     0.209 HD
ENDBRANCH  10  11
ENDBRANCH   5  10
TORSDOF 5
ENDMDL
MODEL 2
REMARK VINA RESULT: -3.708303895      1.862      2.924
REMARK  5 active torsions:
REMARK  status: ('A' for Active; 'I' for Inactive)
REMARK    1  A    between atoms: O1_1  and  C1_3 
REMARK    2  A    between atoms: C1_3  and  C2_4 
REMARK    3  A    between atoms: C2_4  and  N1_5 
REMARK    4  A    between atoms: C5_9  and  C6_10 
REMARK    5  A    between atoms: C6_10  and  O2_11 
ROOT
HETATM    1  N1  UNL     1      63.149 105.287  54.368  1.00  0.00     0.107 N 
HETATM    2  C3  UNL     1      64.069 106.091  53.562  1.00  0.00     0.347 C 
HETATM    3  S1  UNL     1      63.078 106.158  52.003  1.00  0.00    -0.137 SA
HETATM    4  C4  UNL     1      62.072 104.648  52.359  1.00  0.00     0.113 C 
HETATM    5  C5  UNL     1      62.922 104.153  53.503  1.00  0.00     0.256 C 
ENDROOT
BRANCH   1   6
HETATM    6  C2  UNL     1      61.976 106.085  54.588  1.00  0.00     0.299 C 
BRANCH   6   7
HETATM    7  C1  UNL     1      61.647 106.235  56.035  1.00  0.00     0.194 C 
BRANCH   7   8
HETATM    8  O1  UNL     1      61.669 105.008  56.709  1.00  0.00    -0.399 OA
ATOM      9  H1  UNL     1      62.555 104.694  56.847  1.00  0.00     0.209 HD
ENDBRANCH   7   8
ENDBRANCH   6   7
ENDBRANCH   1   6
BRANCH   5  10
HETATM   10  C6  UNL     1      62.509 102.897  54.140  1.00  0.00     0.200 C 
BRANCH  10  11
HETATM   11  O2  UNL     1      61.776 102.025  53.342  1.00  0.00    -0.399 OA
ATOM     12  H2  UNL     1      60.854 101.942  53.557  1.00  0.00     0.209 HD
ENDBRANCH  10  11
ENDBRANCH   5  10
TORSDOF 5
ENDMDL
MODEL 3
REMARK VINA RESULT: -3.346374121      1.282      1.379
REMARK  5 active torsions:
REMARK  status: ('A' for Active; 'I' for Inactive)
REMARK    1  A    between atoms: O1_1  and  C1_3 
REMARK    2  A    between atoms: C1_3  and  C2_4 
REMARK    3  A    between atoms: C2_4  and  N1_5 
REMARK    4  A    between atoms: C5_9  and  C6_10 
REMARK    5  A    between atoms: C6_10  and  O2_11 
ROOT
HETATM    1  N1  UNL     1      61.658 104.968  53.299  1.00  0.00     0.107 N 
HETATM    2  C3  UNL     1      60.905 105.453  52.141  1.00  0.00     0.347 C 
HETATM    3  S1  UNL     1      62.329 106.039  51.117  1.00  0.00    -0.137 SA
HETATM    4  C4  UNL     1      63.504 106.233  52.531  1.00  0.00     0.113 C 
HETATM    5  C5  UNL     1      62.468 106.118  53.621  1.00  0.00     0.256 C 
ENDROOT
BRANCH   1   6
HETATM    6  C2  UNL     1      62.420 103.834  52.857  1.00  0.00     0.299 C 
BRANCH   6   7
HETATM    7  C1  UNL     1      62.767 102.906  53.973  1.00  0.00     0.194 C 
BRANCH   7   8
HETATM    8  O1  UNL     1      62.051 103.196  55.139  1.00  0.00    -0.399 OA
ATOM      9  H1  UNL     1      61.845 104.121  55.210  1.00  0.00     0.209 HD
ENDBRANCH   7   8
ENDBRANCH   6   7
ENDBRANCH   1   6
BRANCH   5  10
HETATM   10  C6  UNL     1      62.946 106.235  55.004  1.00  0.00     0.200 C 
BRANCH  10  11
HETATM   11  O2  UNL     1      62.033 105.890  55.993  1.00  0.00    -0.399 OA
ATOM     12  H2  UNL     1      62.371 105.870  56.881  1.00  0.00     0.209 HD
ENDBRANCH  10  11
ENDBRANCH   5  10
TORSDOF 5
ENDMDL
MODEL 4
REMARK VINA RESULT: -2.302022646      2.307      3.395
REMARK  5 active torsions:
REMARK  status: ('A' for Active; 'I' for Inactive)
REMARK    1  A    between atoms: O1_1  and  C1_3 
REMARK    2  A    between atoms: C1_3  and  C2_4 
REMARK    3  A    between atoms: C2_4  and  N1_5 
REMARK    4  A    between atoms: C5_9  and  C6_10 
REMARK    5  A    between atoms: C6_10  and  O2_11 
ROOT
HETATM    1  N1  UNL     1      62.363 105.761  53.790  1.00  0.00     0.107 N 
HETATM    2  C3  UNL     1      62.339 104.704  54.803  1.00  0.00     0.347 C 
HETATM    3  S1  UNL     1      62.676 103.260  53.697  1.00  0.00    -0.137 SA
HETATM    4  C4  UNL     1      62.102 104.081  52.143  1.00  0.00     0.113 C 
HETATM    5  C5  UNL     1      61.427 105.251  52.817  1.00  0.00     0.256 C 
ENDROOT
BRANCH   1   6
HETATM    6  C2  UNL     1      63.711 105.844  53.303  1.00  0.00     0.299 C 
BRANCH   6   7
HETATM    7  C1  UNL     1      64.683 106.235  54.366  1.00  0.00     0.194 C 
BRANCH   7   8
HETATM    8  O1  UNL     1      65.637 105.238  54.597  1.00  0.00    -0.399 OA
ATOM      9  H1  UNL     1      66.268 105.496  55.259  1.00  0.00     0.209 HD
ENDBRANCH   7   8
ENDBRANCH   6   7
ENDBRANCH   1   6
BRANCH   5  10
HETATM   10  C6  UNL     1      60.770 106.229  51.942  1.00  0.00     0.200 C 
BRANCH  10  11
HETATM   11  O2  UNL     1      61.117 106.170  50.597  1.00  0.00    -0.399 OA
ATOM     12  H2  UNL     1      61.475 106.968  50.225  1.00  0.00     0.209 HD
ENDBRANCH  10  11
ENDBRANCH   5  10
TORSDOF 5
ENDMDL
MODEL 5
REMARK VINA RESULT: -2.015797473      2.624      3.339
REMARK  5 active torsions:
REMARK  status: ('A' for Active; 'I' for Inactive)
REMARK    1  A    between atoms: O1_1  and  C1_3 
REMARK    2  A    between atoms: C1_3  and  C2_4 
REMARK    3  A    between atoms: C2_4  and  N1_5 
REMARK    4  A    between atoms: C5_9  and  C6_10 
REMARK    5  A    between atoms: C6_10  and  O2_11 
ROOT
HETATM    1  N1  UNL     1      62.253 105.374  52.553  1.00  0.00     0.107 N 
HETATM    2  C3  UNL     1      62.846 104.300  51.753  1.00  0.00     0.347 C 
HETATM    3  S1  UNL     1      62.353 102.868  52.813  1.00  0.00    -0.137 SA
HETATM    4  C4  UNL     1      62.131 103.853  54.361  1.00  0.00     0.113 C 
HETATM    5  C5  UNL     1      62.808 105.103  53.857  1.00  0.00     0.256 C 
ENDROOT
BRANCH   1   6
HETATM    6  C2  UNL     1      60.829 105.207  52.487  1.00  0.00     0.299 C 
BRANCH   6   7
HETATM    7  C1  UNL     1      60.169 106.235  51.630  1.00  0.00     0.194 C 
BRANCH   7   8
HETATM    8  O1  UNL     1      60.306 105.949  50.267  1.00  0.00    -0.399 OA
ATOM      9  H1  UNL     1      60.804 105.154  50.118  1.00  0.00     0.209 HD
ENDBRANCH   7   8
ENDBRANCH   6   7
ENDBRANCH   1   6
BRANCH   5  10
HETATM   10  C6  UNL     1      62.899 106.230  54.794  1.00  0.00     0.200 C 
BRANCH  10  11
HETATM   11  O2  UNL     1      61.971 106.234  55.830  1.00  0.00    -0.399 OA
ATOM     12  H2  UNL     1      61.176 105.737  55.676  1.00  0.00     0.209 HD
ENDBRANCH  10  11
ENDBRANCH   5  10
TORSDOF 5
ENDMDL
