MODEL 1
REMARK VINA RESULT: -5.150697140      0.000      0.000
REMARK  5 active torsions:
REMARK  status: ('A' for Active; 'I' for Inactive)
REMARK    1  A    between atoms: O1_1  and  C1_3 
REMARK    2  A    between atoms: C1_3  and  O2_4 
REMARK    3  A    between atoms: O2_4  and  N1_5 
REMARK    4  A    between atoms: C6_10  and  C7_11 
REMARK    5  A    between atoms: C7_11  and  O3_12 
ROOT
HETATM    1  N1  UNL     1      64.004  97.912  48.049  1.00  0.00    -0.264 N 
HETATM    2  C2  UNL     1      63.906  96.673  48.698  1.00  0.00     0.090 C 
HETATM    3  C3  UNL     1      64.580  96.491  49.987  1.00  0.00     0.047 C 
HETATM    4  C4  UNL     1      65.199  97.715  50.590  1.00  0.00     0.007 C 
HETATM    5  C5  UNL     1      64.258  98.883  50.293  1.00  0.00     0.030 C 
HETATM    6  C6  UNL     1      64.330  99.051  48.789  1.00  0.00     0.137 C 
ENDROOT
BRANCH   1   7
HETATM    7  O2  UNL     1      63.028  98.072  47.132  1.00  0.00    -0.253 OA
BRANCH   7   8
HETATM    8  C1  UNL     1      63.517  97.636  45.891  1.00  0.00     0.367 C 
BRANCH   8   9
HETATM    9  O1  UNL     1      64.141  98.696  45.228  1.00  0.00    -0.375 OA
ATOM     10  H1  UNL     1      63.508  99.382  45.051  1.00  0.00     0.212 HD
ENDBRANCH   8   9
ENDBRANCH   7   8
ENDBRANCH   1   7
BRANCH   6  11
HETATM   11  C7  UNL     1      63.531 100.294  48.448  1.00  0.00     0.191 C 
BRANCH  11  12
HETATM   12  O3  UNL     1      63.868 100.644  47.126  1.00  0.00    -0.399 OA
ATOM     13  H3  UNL     1      63.228 100.228  46.560  1.00  0.00     0.209 HD
ENDBRANCH  11  12
ENDBRANCH   6  11
TORSDOF 5
ENDMDL
MODEL 2
REMARK VINA RESULT: -4.023219532      1.256      2.892
REMARK  5 active torsions:
REMARK  status: ('A' for Active; 'I' for Inactive)
REMARK    1  A    between atoms: O1_1  and  C1_3 
REMARK    2  A    between atoms: C1_3  and  O2_4 
REMARK    3  A    between atoms: O2_4  and  N1_5 
REMARK    4  A    between atoms: C6_10  and  C7_11 
REMARK    5  A    between atoms: C7_11  and  O3_12 
ROOT
HETATM    1  N1  UNL     1      64.183  98.715  49.127  1.00  0.00    -0.264 N 
HETATM    2  C2  UNL     1      65.027  98.377  50.194  1.00  0.00     0.090 C 
HETATM    3  C3  UNL     1      64.990  97.010  50.723  1.00  0.00     0.047 C 
HETATM    4  C4  UNL     1      64.152  96.027  49.964  1.00  0.00     0.007 C 
HETATM    5  C5  UNL     1      64.324  96.348  48.478  1.00  0.00     0.030 C 
HETATM    6  C6  UNL     1      63.673  97.704  48.308  1.00  0.00     0.137 C 
ENDROOT
BRANCH   1   7
HETATM    7  O2  UNL     1      64.609  99.824  48.488  1.00  0.00    -0.253 OA
BRANCH   7   8
HETATM    8  C1  UNL     1      63.491 100.623  48.206  1.00  0.00     0.367 C 
BRANCH   8   9
HETATM    9  O1  UNL     1      62.894 101.041  49.399  1.00  0.00    -0.375 OA
ATOM     10  H1  UNL     1      63.397 101.751  49.780  1.00  0.00     0.212 HD
ENDBRANCH   8   9
ENDBRANCH   7   8
ENDBRANCH   1   7
BRANCH   6  11
HETATM   11  C7  UNL     1      63.679  98.011  46.823  1.00  0.00     0.191 C 
BRANCH  11  12
HETATM   12  O3  UNL     1      62.452  97.552  46.308  1.00  0.00    -0.399 OA
ATOM     13  H3  UNL     1      62.493  96.603  46.303  1.00  0.00     0.209 HD
ENDBRANCH  11  12
ENDBRANCH   6  11
TORSDOF 5
ENDMDL
MODEL 3
REMARK VINA RESULT: -3.865137000      0.976      1.016
REMARK  5 active torsions:
REMARK  status: ('A' for Active; 'I' for Inactive)
REMARK    1  A    between atoms: O1_1  and  C1_3 
REMARK    2  A    between atoms: C1_3  and  O2_4 
REMARK    3  A    between atoms: O2_4  and  N1_5 
REMARK    4  A    between atoms: C6_10  and  C7_11 
REMARK    5  A    between atoms: C7_11  and  O3_12 
ROOT
HETATM    1  N1  UNL     1      64.315  97.356  48.663  1.00  0.00    -0.264 N 
HETATM    2  C2  UNL     1      64.113  96.075  49.196  1.00  0.00     0.090 C 
HETATM    3  C3  UNL     1      64.731  95.734  50.481  1.00  0.00     0.047 C 
HETATM    4  C4  UNL     1      65.411  96.854  51.208  1.00  0.00     0.007 C 
HETATM    5  C5  UNL     1      64.561  98.107  50.991  1.00  0.00     0.030 C 
HETATM    6  C6  UNL     1      64.693  98.401  49.511  1.00  0.00     0.137 C 
ENDROOT
BRANCH   1   7
HETATM    7  O2  UNL     1      63.383  97.663  47.739  1.00  0.00    -0.253 OA
BRANCH   7   8
HETATM    8  C1  UNL     1      63.906  97.362  46.472  1.00  0.00     0.367 C 
BRANCH   8   9
HETATM    9  O1  UNL     1      63.326  98.195  45.510  1.00  0.00    -0.375 OA
ATOM     10  H1  UNL     1      62.404  98.318  45.704  1.00  0.00     0.212 HD
ENDBRANCH   8   9
ENDBRANCH   7   8
ENDBRANCH   1   7
BRANCH   6  11
HETATM   11  C7  UNL     1      63.991  99.721  49.261  1.00  0.00     0.191 C 
BRANCH  11  12
HETATM   12  O3  UNL     1      64.758 100.415  48.305  1.00  0.00    -0.399 OA
ATOM     13  H3  UNL     1      64.904  99.815  47.583  1.00  0.00     0.209 HD
ENDBRANCH  11  12
ENDBRANCH   6  11
TORSDOF 5
ENDMDL
MODEL 4
REMARK VINA RESULT: -3.761908045      7.947      9.665
REMARK  5 active torsions:
REMARK  status: ('A' for Active; 'I' for Inactive)
REMARK    1  A    between atoms: O1_1  and  C1_3 
REMARK    2  A    between atoms: C1_3  and  O2_4 
REMARK    3  A    between atoms: O2_4  and  N1_5 
REMARK    4  A    between atoms: C6_10  and  C7_11 
REMARK    5  A    between atoms: C7_11  and  O3_12 
ROOT
HETATM    1  N1  UNL     1      62.589 104.762  54.448  1.00  0.00    -0.264 N 
HETATM    2  C2  UNL     1      61.951 105.907  53.950  1.00  0.00     0.090 C 
HETATM    3  C3  UNL     1      62.076 106.227  52.525  1.00  0.00     0.047 C 
HETATM    4  C4  UNL     1      62.759 105.202  51.672  1.00  0.00     0.007 C 
HETATM    5  C5  UNL     1      62.323 103.830  52.189  1.00  0.00     0.030 C 
HETATM    6  C6  UNL     1      62.939 103.733  53.569  1.00  0.00     0.137 C 
ENDROOT
BRANCH   1   7
HETATM    7  O2  UNL     1      62.061 104.369  55.624  1.00  0.00    -0.253 OA
BRANCH   7   8
HETATM    8  C1  UNL     1      61.578 105.506  56.289  1.00  0.00     0.367 C 
BRANCH   8   9
HETATM    9  O1  UNL     1      61.226 105.174  57.601  1.00  0.00    -0.375 OA
ATOM     10  H1  UNL     1      61.975 105.286  58.174  1.00  0.00     0.212 HD
ENDBRANCH   8   9
ENDBRANCH   7   8
ENDBRANCH   1   7
BRANCH   6  11
HETATM   11  C7  UNL     1      62.666 102.331  54.074  1.00  0.00     0.191 C 
BRANCH  11  12
HETATM   12  O3  UNL     1      61.573 101.837  53.335  1.00  0.00    -0.399 OA
ATOM     13  H3  UNL     1      60.880 101.654  53.959  1.00  0.00     0.209 HD
ENDBRANCH  11  12
ENDBRANCH   6  11
TORSDOF 5
ENDMDL
MODEL 5
REMARK VINA RESULT: -3.640097722      1.284      2.542
REMARK  5 active torsions:
REMARK  status: ('A' for Active; 'I' for Inactive)
REMARK    1  A    between atoms: O1_1  and  C1_3 
REMARK    2  A    between atoms: C1_3  and  O2_4 
REMARK    3  A    between atoms: O2_4  and  N1_5 
REMARK    4  A    between atoms: C6_10  and  C7_11 
REMARK    5  A    between atoms: C7_11  and  O3_12 
ROOT
HETATM    1  N1  UNL     1      63.457  99.279  48.141  1.00  0.00    -0.264 N 
HETATM    2  C2  UNL     1      64.499  99.514  49.049  1.00  0.00     0.090 C 
HETATM    3  C3  UNL     1      64.924  98.429  49.939  1.00  0.00     0.047 C 
HETATM    4  C4  UNL     1      64.305  97.087  49.691  1.00  0.00     0.007 C 
HETATM    5  C5  UNL     1      64.175  96.928  48.175  1.00  0.00     0.030 C 
HETATM    6  C6  UNL     1      63.148  97.967  47.774  1.00  0.00     0.137 C 
ENDROOT
BRANCH   1   7
HETATM    7  O2  UNL     1      63.460 100.180  47.137  1.00  0.00    -0.253 OA
BRANCH   7   8
HETATM    8  C1  UNL     1      64.792 100.430  46.776  1.00  0.00     0.367 C 
BRANCH   8   9
HETATM    9  O1  UNL     1      64.922 100.393  45.385  1.00  0.00    -0.375 OA
ATOM     10  H1  UNL     1      65.841 100.347  45.148  1.00  0.00     0.212 HD
ENDBRANCH   8   9
ENDBRANCH   7   8
ENDBRANCH   1   7
BRANCH   6  11
HETATM   11  C7  UNL     1      62.866  97.757  46.299  1.00  0.00     0.191 C 
BRANCH  11  12
HETATM   12  O3  UNL     1      64.086  97.387  45.700  1.00  0.00    -0.399 OA
ATOM     13  H3  UNL     1      63.898  96.655  45.125  1.00  0.00     0.209 HD
ENDBRANCH  11  12
ENDBRANCH   6  11
TORSDOF 5
ENDMDL
