MODEL 1
REMARK VINA RESULT: -4.179238185      0.000      0.000
REMARK  3 active torsions:
REMARK  status: ('A' for Active; 'I' for Inactive)
REMARK    1  A    between atoms: N1_2  and  C2_4 
REMARK    2  A    between atoms: C2_4  and  N2_5 
REMARK    3  A    between atoms: N3_7  and  C3_9 
ROOT
HETATM    1  N2  UNL     1      50.165  71.998  16.282  1.00  0.00    -0.300 N 
ATOM      2  H2  UNL     1      50.926  72.537  16.694  1.00  0.00     0.187 HD
HETATM    3  N3  UNL     1      49.016  72.384  16.447  1.00  0.00    -0.331 N 
ATOM      4  H3  UNL     1      48.839  73.230  16.987  1.00  0.00     0.180 HD
ENDROOT
BRANCH   1   5
HETATM    5  C2  UNL     1      50.486  70.820  15.536  1.00  0.00     0.192 C 
BRANCH   5   6
HETATM    6  N1  UNL     1      51.002  69.823  16.378  1.00  0.00    -0.389 N 
HETATM    7  C1  UNL     1      50.161  68.807  16.828  1.00  0.00     0.147 C 
ATOM      8  H1  UNL     1      51.982  69.841  16.657  1.00  0.00     0.159 HD
ENDBRANCH   5   6
ENDBRANCH   1   5
BRANCH   3   9
HETATM    9  C3  UNL     1      47.928  71.664  15.892  1.00  0.00     0.099 A 
HETATM   10  C4  UNL     1      46.601  72.376  15.884  1.00  0.00     0.029 A 
HETATM   11  C5  UNL     1      46.827  71.226  16.814  1.00  0.00     0.029 A 
ENDBRANCH   3   9
TORSDOF 3
ENDMDL
MODEL 2
REMARK VINA RESULT: -4.171601880      4.304      6.287
REMARK  3 active torsions:
REMARK  status: ('A' for Active; 'I' for Inactive)
REMARK    1  A    between atoms: N1_2  and  C2_4 
REMARK    2  A    between atoms: C2_4  and  N2_5 
REMARK    3  A    between atoms: N3_7  and  C3_9 
ROOT
HETATM    1  N2  UNL     1      43.316  70.403  15.876  1.00  0.00    -0.300 N 
ATOM      2  H2  UNL     1      42.630  69.721  15.557  1.00  0.00     0.187 HD
HETATM    3  N3  UNL     1      44.407  70.002  16.260  1.00  0.00    -0.331 N 
ATOM      4  H3  UNL     1      44.609  69.003  16.254  1.00  0.00     0.180 HD
ENDROOT
BRANCH   1   5
HETATM    5  C2  UNL     1      42.965  71.790  15.857  1.00  0.00     0.192 C 
BRANCH   5   6
HETATM    6  N1  UNL     1      42.572  72.186  14.569  1.00  0.00    -0.389 N 
HETATM    7  C1  UNL     1      42.594  73.538  14.234  1.00  0.00     0.147 C 
ATOM      8  H1  UNL     1      42.273  71.491  13.885  1.00  0.00     0.159 HD
ENDBRANCH   5   6
ENDBRANCH   1   5
BRANCH   3   9
HETATM    9  C3  UNL     1      45.391  70.917  16.711  1.00  0.00     0.099 A 
HETATM   10  C4  UNL     1      46.760  70.340  16.966  1.00  0.00     0.029 A 
HETATM   11  C5  UNL     1      45.903  70.768  18.115  1.00  0.00     0.029 A 
ENDBRANCH   3   9
TORSDOF 3
ENDMDL
MODEL 3
REMARK VINA RESULT: -4.151439009      4.424      5.909
REMARK  3 active torsions:
REMARK  status: ('A' for Active; 'I' for Inactive)
REMARK    1  A    between atoms: N1_2  and  C2_4 
REMARK    2  A    between atoms: C2_4  and  N2_5 
REMARK    3  A    between atoms: N3_7  and  C3_9 
ROOT
HETATM    1  N2  UNL     1      43.330  72.027  15.397  1.00  0.00    -0.300 N 
ATOM      2  H2  UNL     1      42.570  71.629  14.846  1.00  0.00     0.187 HD
HETATM    3  N3  UNL     1      44.041  71.272  16.046  1.00  0.00    -0.331 N 
ATOM      4  H3  UNL     1      43.864  70.267  16.026  1.00  0.00     0.180 HD
ENDROOT
BRANCH   1   5
HETATM    5  C2  UNL     1      43.521  73.444  15.379  1.00  0.00     0.192 C 
BRANCH   5   6
HETATM    6  N1  UNL     1      43.938  73.875  14.110  1.00  0.00    -0.389 N 
HETATM    7  C1  UNL     1      45.165  74.522  13.978  1.00  0.00     0.147 C 
ATOM      8  H1  UNL     1      43.349  73.716  13.294  1.00  0.00     0.159 HD
ENDBRANCH   5   6
ENDBRANCH   1   5
BRANCH   3   9
HETATM    9  C3  UNL     1      45.110  71.782  16.825  1.00  0.00     0.099 A 
HETATM   10  C4  UNL     1      46.464  71.176  16.564  1.00  0.00     0.029 A 
HETATM   11  C5  UNL     1      45.743  70.872  17.838  1.00  0.00     0.029 A 
ENDBRANCH   3   9
TORSDOF 3
ENDMDL
MODEL 4
REMARK VINA RESULT: -4.117788418      3.492      5.360
REMARK  3 active torsions:
REMARK  status: ('A' for Active; 'I' for Inactive)
REMARK    1  A    between atoms: N1_2  and  C2_4 
REMARK    2  A    between atoms: C2_4  and  N2_5 
REMARK    3  A    between atoms: N3_7  and  C3_9 
ROOT
HETATM    1  N2  UNL     1      46.262  73.163  14.644  1.00  0.00    -0.300 N 
ATOM      2  H2  UNL     1      46.821  73.277  13.799  1.00  0.00     0.187 HD
HETATM    3  N3  UNL     1      46.516  72.229  15.392  1.00  0.00    -0.331 N 
ATOM      4  H3  UNL     1      47.274  71.587  15.161  1.00  0.00     0.180 HD
ENDROOT
BRANCH   1   5
HETATM    5  C2  UNL     1      45.214  74.100  14.905  1.00  0.00     0.192 C 
BRANCH   5   6
HETATM    6  N1  UNL     1      44.169  73.948  13.981  1.00  0.00    -0.389 N 
HETATM    7  C1  UNL     1      42.900  73.598  14.438  1.00  0.00     0.147 C 
ATOM      8  H1  UNL     1      44.336  74.093  12.986  1.00  0.00     0.159 HD
ENDBRANCH   5   6
ENDBRANCH   1   5
BRANCH   3   9
HETATM    9  C3  UNL     1      45.765  72.032  16.578  1.00  0.00     0.099 A 
HETATM   10  C4  UNL     1      46.310  71.012  17.543  1.00  0.00     0.029 A 
HETATM   11  C5  UNL     1      45.068  70.715  16.763  1.00  0.00     0.029 A 
ENDBRANCH   3   9
TORSDOF 3
ENDMDL
MODEL 5
REMARK VINA RESULT: -4.106276144      3.908      4.853
REMARK  3 active torsions:
REMARK  status: ('A' for Active; 'I' for Inactive)
REMARK    1  A    between atoms: N1_2  and  C2_4 
REMARK    2  A    between atoms: C2_4  and  N2_5 
REMARK    3  A    between atoms: N3_7  and  C3_9 
ROOT
HETATM    1  N2  UNL     1      45.349  72.957  15.417  1.00  0.00    -0.300 N 
ATOM      2  H2  UNL     1      44.600  73.557  15.072  1.00  0.00     0.187 HD
HETATM    3  N3  UNL     1      45.051  71.951  16.045  1.00  0.00    -0.331 N 
ATOM      4  H3  UNL     1      44.070  71.730  16.212  1.00  0.00     0.180 HD
ENDROOT
BRANCH   1   5
HETATM    5  C2  UNL     1      46.704  73.328  15.146  1.00  0.00     0.192 C 
BRANCH   5   6
HETATM    6  N1  UNL     1      46.804  74.707  14.908  1.00  0.00    -0.389 N 
HETATM    7  C1  UNL     1      45.736  75.538  15.242  1.00  0.00     0.147 C 
ATOM      8  H1  UNL     1      47.650  75.098  14.494  1.00  0.00     0.159 HD
ENDBRANCH   5   6
ENDBRANCH   1   5
BRANCH   3   9
HETATM    9  C3  UNL     1      46.061  71.089  16.543  1.00  0.00     0.099 A 
HETATM   10  C4  UNL     1      45.588  69.768  17.092  1.00  0.00     0.029 A 
HETATM   11  C5  UNL     1      46.098  70.824  18.021  1.00  0.00     0.029 A 
ENDBRANCH   3   9
TORSDOF 3
ENDMDL
