MODEL 1
REMARK VINA RESULT: -5.344291836      0.000      0.000
REMARK  4 active torsions:
REMARK  status: ('A' for Active; 'I' for Inactive)
REMARK    1  A    between atoms: C2_2  and  N1_3 
REMARK    2  A    between atoms: C4_8  and  C5_9 
REMARK    3  A    between atoms: C5_9  and  N2_10 
REMARK    4  A    between atoms: N2_10  and  N3_12 
ROOT
HETATM    1  C1  UNL     1      44.616  74.791  16.604  1.00  0.00     0.046 C 
HETATM    2  C2  UNL     1      44.295  73.398  17.087  1.00  0.00     0.126 A 
HETATM    3  C3  UNL     1      45.073  72.314  16.402  1.00  0.00     0.047 A 
HETATM    4  C4  UNL     1      43.619  72.420  16.215  1.00  0.00     0.042 A 
ENDROOT
BRANCH   4   5
HETATM    5  C5  UNL     1      43.013  72.819  14.896  1.00  0.00     0.148 C 
BRANCH   5   6
HETATM    6  N2  UNL     1      42.102  71.776  14.497  1.00  0.00    -0.322 N 
ATOM      7  H2  UNL     1      42.329  70.795  14.664  1.00  0.00     0.181 HD
BRANCH   6   8
HETATM    8  N3  UNL     1      40.906  72.132  13.879  1.00  0.00    -0.254 N 
HETATM    9  N4  UNL     1      40.272  71.377  13.076  1.00  0.00    -0.331 N 
ATOM     10  H42 UNL     1      40.677  70.460  12.884  1.00  0.00     0.178 HD
ATOM     11  H41 UNL     1      39.396  71.638  12.623  1.00  0.00     0.178 HD
ATOM     12  H3  UNL     1      40.516  73.052  14.082  1.00  0.00     0.207 HD
ENDBRANCH   6   8
ENDBRANCH   5   6
ENDBRANCH   4   5
BRANCH   2  13
HETATM   13  N1  UNL     1      44.025  73.304  18.510  1.00  0.00    -0.070 N 
ATOM     14  H13 UNL     1      44.559  72.540  18.923  1.00  0.00     0.275 HD
ATOM     15  H12 UNL     1      44.439  74.094  19.004  1.00  0.00     0.275 HD
ATOM     16  H11 UNL     1      43.036  73.216  18.746  1.00  0.00     0.275 HD
ENDBRANCH   2  13
TORSDOF 4
ENDMDL
MODEL 2
REMARK VINA RESULT: -5.275617701      1.865      2.460
REMARK  4 active torsions:
REMARK  status: ('A' for Active; 'I' for Inactive)
REMARK    1  A    between atoms: C2_2  and  N1_3 
REMARK    2  A    between atoms: C4_8  and  C5_9 
REMARK    3  A    between atoms: C5_9  and  N2_10 
REMARK    4  A    between atoms: N2_10  and  N3_12 
ROOT
HETATM    1  C1  UNL     1      46.351  73.493  15.350  1.00  0.00     0.046 C 
HETATM    2  C2  UNL     1      45.108  74.234  14.922  1.00  0.00     0.126 A 
HETATM    3  C3  UNL     1      44.365  74.893  16.046  1.00  0.00     0.047 A 
HETATM    4  C4  UNL     1      43.764  73.770  15.312  1.00  0.00     0.042 A 
ENDROOT
BRANCH   4   5
HETATM    5  C5  UNL     1      43.546  72.426  15.954  1.00  0.00     0.148 C 
BRANCH   5   6
HETATM    6  N2  UNL     1      42.705  71.651  15.076  1.00  0.00    -0.322 N 
ATOM      7  H2  UNL     1      42.607  70.644  15.205  1.00  0.00     0.181 HD
BRANCH   6   8
HETATM    8  N3  UNL     1      42.028  72.304  14.049  1.00  0.00    -0.254 N 
HETATM    9  N4  UNL     1      40.964  71.861  13.510  1.00  0.00    -0.331 N 
ATOM     10  H42 UNL     1      40.599  70.976  13.863  1.00  0.00     0.178 HD
ATOM     11  H41 UNL     1      40.468  72.339  12.758  1.00  0.00     0.178 HD
ATOM     12  H3  UNL     1      42.407  73.188  13.710  1.00  0.00     0.207 HD
ENDBRANCH   6   8
ENDBRANCH   5   6
ENDBRANCH   4   5
BRANCH   2  13
HETATM   13  N1  UNL     1      45.223  74.906  13.640  1.00  0.00    -0.070 N 
ATOM     14  H13 UNL     1      46.190  75.178  13.466  1.00  0.00     0.275 HD
ATOM     15  H12 UNL     1      45.088  74.243  12.877  1.00  0.00     0.275 HD
ATOM     16  H11 UNL     1      44.601  75.708  13.528  1.00  0.00     0.275 HD
ENDBRANCH   2  13
TORSDOF 4
ENDMDL
MODEL 3
REMARK VINA RESULT: -5.264474815      1.647      1.899
REMARK  4 active torsions:
REMARK  status: ('A' for Active; 'I' for Inactive)
REMARK    1  A    between atoms: C2_2  and  N1_3 
REMARK    2  A    between atoms: C4_8  and  C5_9 
REMARK    3  A    between atoms: C5_9  and  N2_10 
REMARK    4  A    between atoms: N2_10  and  N3_12 
ROOT
HETATM    1  C1  UNL     1      44.189  73.364  17.537  1.00  0.00     0.046 C 
HETATM    2  C2  UNL     1      44.833  73.002  16.221  1.00  0.00     0.126 A 
HETATM    3  C3  UNL     1      45.648  74.103  15.610  1.00  0.00     0.047 A 
HETATM    4  C4  UNL     1      44.414  73.639  14.960  1.00  0.00     0.042 A 
ENDROOT
BRANCH   4   5
HETATM    5  C5  UNL     1      43.184  74.504  14.879  1.00  0.00     0.148 C 
BRANCH   5   6
HETATM    6  N2  UNL     1      42.263  73.874  13.966  1.00  0.00    -0.322 N 
ATOM      7  H2  UNL     1      41.756  74.426  13.275  1.00  0.00     0.181 HD
BRANCH   6   8
HETATM    8  N3  UNL     1      42.079  72.496  14.046  1.00  0.00    -0.254 N 
HETATM    9  N4  UNL     1      41.033  71.897  13.640  1.00  0.00    -0.331 N 
ATOM     10  H42 UNL     1      40.296  72.474  13.234  1.00  0.00     0.178 HD
ATOM     11  H41 UNL     1      40.897  70.888  13.699  1.00  0.00     0.178 HD
ATOM     12  H3  UNL     1      42.826  71.934  14.454  1.00  0.00     0.207 HD
ENDBRANCH   6   8
ENDBRANCH   5   6
ENDBRANCH   4   5
BRANCH   2  13
HETATM   13  N1  UNL     1      45.297  71.629  16.139  1.00  0.00    -0.070 N 
ATOM     14  H13 UNL     1      45.712  71.340  17.025  1.00  0.00     0.275 HD
ATOM     15  H12 UNL     1      44.506  70.987  16.100  1.00  0.00     0.275 HD
ATOM     16  H11 UNL     1      45.941  71.447  15.368  1.00  0.00     0.275 HD
ENDBRANCH   2  13
TORSDOF 4
ENDMDL
MODEL 4
REMARK VINA RESULT: -5.202042833      1.395      1.925
REMARK  4 active torsions:
REMARK  status: ('A' for Active; 'I' for Inactive)
REMARK    1  A    between atoms: C2_2  and  N1_3 
REMARK    2  A    between atoms: C4_8  and  C5_9 
REMARK    3  A    between atoms: C5_9  and  N2_10 
REMARK    4  A    between atoms: N2_10  and  N3_12 
ROOT
HETATM    1  C1  UNL     1      45.427  71.077  16.880  1.00  0.00     0.046 C 
HETATM    2  C2  UNL     1      45.172  72.495  16.433  1.00  0.00     0.126 A 
HETATM    3  C3  UNL     1      44.221  73.256  17.308  1.00  0.00     0.047 A 
HETATM    4  C4  UNL     1      43.852  72.915  15.927  1.00  0.00     0.042 A 
ENDROOT
BRANCH   4   5
HETATM    5  C5  UNL     1      42.769  71.919  15.616  1.00  0.00     0.148 C 
BRANCH   5   6
HETATM    6  N2  UNL     1      42.336  72.149  14.260  1.00  0.00    -0.322 N 
ATOM      7  H2  UNL     1      43.016  72.310  13.517  1.00  0.00     0.181 HD
BRANCH   6   8
HETATM    8  N3  UNL     1      40.971  72.146  13.983  1.00  0.00    -0.254 N 
HETATM    9  N4  UNL     1      40.445  71.497  13.024  1.00  0.00    -0.331 N 
ATOM     10  H42 UNL     1      41.073  70.953  12.433  1.00  0.00     0.178 HD
ATOM     11  H41 UNL     1      39.445  71.496  12.821  1.00  0.00     0.178 HD
ATOM     12  H3  UNL     1      40.358  72.695  14.586  1.00  0.00     0.207 HD
ENDBRANCH   6   8
ENDBRANCH   5   6
ENDBRANCH   4   5
BRANCH   2  13
HETATM   13  N1  UNL     1      46.332  73.165  15.873  1.00  0.00    -0.070 N 
ATOM     14  H13 UNL     1      47.169  72.598  16.008  1.00  0.00     0.275 HD
ATOM     15  H12 UNL     1      46.285  73.167  14.855  1.00  0.00     0.275 HD
ATOM     16  H11 UNL     1      46.482  74.111  16.224  1.00  0.00     0.275 HD
ENDBRANCH   2  13
TORSDOF 4
ENDMDL
MODEL 5
REMARK VINA RESULT: -5.134639943      3.241      4.692
REMARK  4 active torsions:
REMARK  status: ('A' for Active; 'I' for Inactive)
REMARK    1  A    between atoms: C2_2  and  N1_3 
REMARK    2  A    between atoms: C4_8  and  C5_9 
REMARK    3  A    between atoms: C5_9  and  N2_10 
REMARK    4  A    between atoms: N2_10  and  N3_12 
ROOT
HETATM    1  C1  UNL     1      44.613  71.534  16.711  1.00  0.00     0.046 C 
HETATM    2  C2  UNL     1      44.339  73.016  16.784  1.00  0.00     0.126 A 
HETATM    3  C3  UNL     1      43.841  73.615  15.502  1.00  0.00     0.047 A 
HETATM    4  C4  UNL     1      45.159  73.986  16.036  1.00  0.00     0.042 A 
ENDROOT
BRANCH   4   5
HETATM    5  C5  UNL     1      46.437  73.582  15.351  1.00  0.00     0.148 C 
BRANCH   5   6
HETATM    6  N2  UNL     1      47.021  74.768  14.775  1.00  0.00    -0.322 N 
ATOM      7  H2  UNL     1      47.802  74.698  14.122  1.00  0.00     0.181 HD
BRANCH   6   8
HETATM    8  N3  UNL     1      46.499  76.010  15.127  1.00  0.00    -0.254 N 
HETATM    9  N4  UNL     1      47.177  77.086  15.134  1.00  0.00    -0.331 N 
ATOM     10  H42 UNL     1      48.158  77.017  14.864  1.00  0.00     0.178 HD
ATOM     11  H41 UNL     1      46.795  77.996  15.392  1.00  0.00     0.178 HD
ATOM     12  H3  UNL     1      45.516  76.060  15.393  1.00  0.00     0.207 HD
ENDBRANCH   6   8
ENDBRANCH   5   6
ENDBRANCH   4   5
BRANCH   2  13
HETATM   13  N1  UNL     1      43.790  73.462  18.051  1.00  0.00    -0.070 N 
ATOM     14  H13 UNL     1      43.780  72.696  18.724  1.00  0.00     0.275 HD
ATOM     15  H12 UNL     1      44.439  74.095  18.518  1.00  0.00     0.275 HD
ATOM     16  H11 UNL     1      42.865  73.888  17.983  1.00  0.00     0.275 HD
ENDBRANCH   2  13
TORSDOF 4
ENDMDL
