MODEL 1
REMARK VINA RESULT: -7.542302260      0.000      0.000
REMARK  5 active torsions:
REMARK  status: ('A' for Active; 'I' for Inactive)
REMARK    1  A    between atoms: C2_2  and  O2_4 
REMARK    2  A    between atoms: O2_4  and  C3_5 
REMARK    3  A    between atoms: C11_14  and  O4_15 
REMARK    4  A    between atoms: C13_18  and  C15_20 
REMARK    5  A    between atoms: C16_21  and  O5_22 
ROOT
HETATM    1  C3  UNL     1       1.537  -8.946  43.207  1.00  0.00     0.173 C 
HETATM    2  C4  UNL     1       2.622  -9.922  42.729  1.00  0.00     0.067 C 
HETATM    3  C5  UNL     1       1.860 -11.199  42.671  1.00  0.00     0.121 C 
HETATM    4  C6  UNL     1       2.727 -12.406  43.025  1.00  0.00     0.040 C 
HETATM    5  O3  UNL     1       0.847 -11.141  43.580  1.00  0.00    -0.367 OA
HETATM    6  C7  UNL     1       0.613  -9.839  43.969  1.00  0.00     0.117 C 
HETATM    7  C8  UNL     1       0.954  -9.716  45.413  1.00  0.00     0.019 C 
HETATM    8  C9  UNL     1       0.188 -10.397  46.257  1.00  0.00    -0.056 C 
HETATM    9  C10 UNL     1       0.481 -10.313  47.702  1.00  0.00     0.046 C 
HETATM   10  C11 UNL     1      -0.911 -11.200  45.671  1.00  0.00     0.147 C 
HETATM   11  C12 UNL     1      -1.682 -10.424  44.659  1.00  0.00     0.053 C 
HETATM   12  C13 UNL     1      -0.846  -9.546  43.754  1.00  0.00     0.015 C 
HETATM   13  C14 UNL     1      -1.211  -8.117  44.055  1.00  0.00     0.023 C 
ENDROOT
BRANCH   1  14
HETATM   14  O2  UNL     1       2.208  -8.014  44.035  1.00  0.00    -0.313 OA
BRANCH  14  15
HETATM   15  C2  UNL     1       2.308  -6.662  43.706  1.00  0.00     0.255 C 
HETATM   16  C1  UNL     1       1.545  -6.061  42.585  1.00  0.00     0.126 C 
HETATM   17  O1  UNL     1       3.089  -5.978  44.420  1.00  0.00    -0.266 OA
ENDBRANCH  14  15
ENDBRANCH   1  14
BRANCH  12  18
HETATM   18  C15 UNL     1      -1.258  -9.814  42.351  1.00  0.00     0.010 C 
HETATM   19  C16 UNL     1      -1.748 -10.941  41.918  1.00  0.00     0.128 C 
BRANCH  19  20
HETATM   20  O5  UNL     1      -1.917 -11.999  42.783  1.00  0.00    -0.373 OA
ATOM     21  H5  UNL     1      -1.509 -12.836  42.598  1.00  0.00     0.216 HD
ENDBRANCH  19  20
ENDBRANCH  12  18
BRANCH  10  22
HETATM   22  O4  UNL     1      -1.797 -11.482  46.738  1.00  0.00    -0.391 OA
ATOM     23  H4  UNL     1      -2.535 -10.895  46.625  1.00  0.00     0.210 HD
ENDBRANCH  10  22
TORSDOF 5
ENDMDL
MODEL 2
REMARK VINA RESULT: -7.270572423      2.525      5.772
REMARK  5 active torsions:
REMARK  status: ('A' for Active; 'I' for Inactive)
REMARK    1  A    between atoms: C2_2  and  O2_4 
REMARK    2  A    between atoms: O2_4  and  C3_5 
REMARK    3  A    between atoms: C11_14  and  O4_15 
REMARK    4  A    between atoms: C13_18  and  C15_20 
REMARK    5  A    between atoms: C16_21  and  O5_22 
ROOT
HETATM    1  C3  UNL     1       1.251 -10.391  42.607  1.00  0.00     0.173 C 
HETATM    2  C4  UNL     1       2.303 -11.482  42.847  1.00  0.00     0.067 C 
HETATM    3  C5  UNL     1       3.564 -10.730  42.602  1.00  0.00     0.121 C 
HETATM    4  C6  UNL     1       4.649 -11.608  41.979  1.00  0.00     0.040 C 
HETATM    5  O3  UNL     1       3.302  -9.719  41.727  1.00  0.00    -0.367 OA
HETATM    6  C7  UNL     1       1.947  -9.476  41.653  1.00  0.00     0.117 C 
HETATM    7  C8  UNL     1       1.488  -9.819  40.279  1.00  0.00     0.019 C 
HETATM    8  C9  UNL     1       1.958  -9.061  39.297  1.00  0.00    -0.056 C 
HETATM    9  C10 UNL     1       1.536  -9.356  37.912  1.00  0.00     0.046 C 
HETATM   10  C11 UNL     1       2.883  -7.967  39.674  1.00  0.00     0.147 C 
HETATM   11  C12 UNL     1       2.371  -7.188  40.835  1.00  0.00     0.053 C 
HETATM   12  C13 UNL     1       1.723  -8.014  41.924  1.00  0.00     0.015 C 
HETATM   13  C14 UNL     1       0.266  -7.639  41.964  1.00  0.00     0.023 C 
ENDROOT
BRANCH   1  14
HETATM   14  O2  UNL     1       0.146 -11.057  42.022  1.00  0.00    -0.313 OA
BRANCH  14  15
HETATM   15  C2  UNL     1      -1.112 -11.080  42.624  1.00  0.00     0.255 C 
HETATM   16  C1  UNL     1      -1.290 -11.274  44.083  1.00  0.00     0.126 C 
HETATM   17  O1  UNL     1      -2.095 -10.927  41.850  1.00  0.00    -0.266 OA
ENDBRANCH  14  15
ENDBRANCH   1  14
BRANCH  12  18
HETATM   18  C15 UNL     1       2.314  -7.601  43.224  1.00  0.00     0.010 C 
HETATM   19  C16 UNL     1       2.252  -6.400  43.725  1.00  0.00     0.128 C 
BRANCH  19  20
HETATM   20  O5  UNL     1       1.602  -5.398  43.040  1.00  0.00    -0.373 OA
ATOM     21  H5  UNL     1       1.795  -4.487  43.229  1.00  0.00     0.216 HD
ENDBRANCH  19  20
ENDBRANCH  12  18
BRANCH  10  22
HETATM   22  O4  UNL     1       2.914  -7.086  38.566  1.00  0.00    -0.391 OA
ATOM     23  H4  UNL     1       3.314  -6.285  38.883  1.00  0.00     0.210 HD
ENDBRANCH  10  22
TORSDOF 5
ENDMDL
MODEL 3
REMARK VINA RESULT: -7.215605699      2.332      4.839
REMARK  5 active torsions:
REMARK  status: ('A' for Active; 'I' for Inactive)
REMARK    1  A    between atoms: C2_2  and  O2_4 
REMARK    2  A    between atoms: O2_4  and  C3_5 
REMARK    3  A    between atoms: C11_14  and  O4_15 
REMARK    4  A    between atoms: C13_18  and  C15_20 
REMARK    5  A    between atoms: C16_21  and  O5_22 
ROOT
HETATM    1  C3  UNL     1       2.710  -9.490  41.256  1.00  0.00     0.173 C 
HETATM    2  C4  UNL     1       2.641  -8.677  39.955  1.00  0.00     0.067 C 
HETATM    3  C5  UNL     1       1.892  -7.472  40.404  1.00  0.00     0.121 C 
HETATM    4  C6  UNL     1       0.992  -6.907  39.306  1.00  0.00     0.040 C 
HETATM    5  O3  UNL     1       1.092  -7.824  41.449  1.00  0.00    -0.367 OA
HETATM    6  C7  UNL     1       1.496  -9.025  41.991  1.00  0.00     0.117 C 
HETATM    7  C8  UNL     1       0.417 -10.025  41.761  1.00  0.00     0.019 C 
HETATM    8  C9  UNL     1      -0.729  -9.809  42.395  1.00  0.00    -0.056 C 
HETATM    9  C10 UNL     1      -1.835 -10.769  42.204  1.00  0.00     0.046 C 
HETATM   10  C11 UNL     1      -0.806  -8.603  43.253  1.00  0.00     0.147 C 
HETATM   11  C12 UNL     1       0.393  -8.470  44.126  1.00  0.00     0.053 C 
HETATM   12  C13 UNL     1       1.707  -8.822  43.465  1.00  0.00     0.015 C 
HETATM   13  C14 UNL     1       2.243 -10.045  44.159  1.00  0.00     0.023 C 
ENDROOT
BRANCH   1  14
HETATM   14  O2  UNL     1       2.625 -10.846  40.856  1.00  0.00    -0.313 OA
BRANCH  14  15
HETATM   15  C2  UNL     1       3.738 -11.686  40.834  1.00  0.00     0.255 C 
HETATM   16  C1  UNL     1       4.378 -12.186  42.074  1.00  0.00     0.126 C 
HETATM   17  O1  UNL     1       4.170 -11.997  39.691  1.00  0.00    -0.266 OA
ENDBRANCH  14  15
ENDBRANCH   1  14
BRANCH  12  18
HETATM   18  C15 UNL     1       2.664  -7.715  43.734  1.00  0.00     0.010 C 
HETATM   19  C16 UNL     1       2.340  -6.458  43.849  1.00  0.00     0.128 C 
BRANCH  19  20
HETATM   20  O5  UNL     1       1.025  -6.069  43.719  1.00  0.00    -0.373 OA
ATOM     21  H5  UNL     1       0.348  -6.718  43.569  1.00  0.00     0.216 HD
ENDBRANCH  19  20
ENDBRANCH  12  18
BRANCH  10  22
HETATM   22  O4  UNL     1      -1.918  -8.805  44.106  1.00  0.00    -0.391 OA
ATOM     23  H4  UNL     1      -2.103  -7.959  44.495  1.00  0.00     0.210 HD
ENDBRANCH  10  22
TORSDOF 5
ENDMDL
MODEL 4
REMARK VINA RESULT: -7.208802029      2.402      3.733
REMARK  5 active torsions:
REMARK  status: ('A' for Active; 'I' for Inactive)
REMARK    1  A    between atoms: C2_2  and  O2_4 
REMARK    2  A    between atoms: O2_4  and  C3_5 
REMARK    3  A    between atoms: C11_14  and  O4_15 
REMARK    4  A    between atoms: C13_18  and  C15_20 
REMARK    5  A    between atoms: C16_21  and  O5_22 
ROOT
HETATM    1  C3  UNL     1       0.709 -10.051  41.411  1.00  0.00     0.173 C 
HETATM    2  C4  UNL     1       1.289 -11.310  42.070  1.00  0.00     0.067 C 
HETATM    3  C5  UNL     1       0.637 -11.266  43.407  1.00  0.00     0.121 C 
HETATM    4  C6  UNL     1       1.538 -11.822  44.509  1.00  0.00     0.040 C 
HETATM    5  O3  UNL     1       0.367  -9.967  43.715  1.00  0.00    -0.367 OA
HETATM    6  C7  UNL     1       0.418  -9.177  42.587  1.00  0.00     0.117 C 
HETATM    7  C8  UNL     1       1.554  -8.226  42.735  1.00  0.00     0.019 C 
HETATM    8  C9  UNL     1       1.439  -7.321  43.700  1.00  0.00    -0.056 C 
HETATM    9  C10 UNL     1       2.537  -6.352  43.894  1.00  0.00     0.046 C 
HETATM   10  C11 UNL     1       0.204  -7.360  44.517  1.00  0.00     0.147 C 
HETATM   11  C12 UNL     1      -1.014  -7.485  43.669  1.00  0.00     0.053 C 
HETATM   12  C13 UNL     1      -0.879  -8.423  42.490  1.00  0.00     0.015 C 
HETATM   13  C14 UNL     1      -0.986  -7.590  41.241  1.00  0.00     0.023 C 
ENDROOT
BRANCH   1  14
HETATM   14  O2  UNL     1       1.746  -9.543  40.592  1.00  0.00    -0.313 OA
BRANCH  14  15
HETATM   15  C2  UNL     1       1.624  -9.456  39.205  1.00  0.00     0.255 C 
HETATM   16  C1  UNL     1       1.715  -8.166  38.480  1.00  0.00     0.126 C 
HETATM   17  O1  UNL     1       1.430 -10.545  38.601  1.00  0.00    -0.266 OA
ENDBRANCH  14  15
ENDBRANCH   1  14
BRANCH  12  18
HETATM   18  C15 UNL     1      -2.049  -9.341  42.501  1.00  0.00     0.010 C 
HETATM   19  C16 UNL     1      -2.621  -9.810  43.574  1.00  0.00     0.128 C 
BRANCH  19  20
HETATM   20  O5  UNL     1      -2.145  -9.462  44.819  1.00  0.00    -0.373 OA
ATOM     21  H5  UNL     1      -2.062  -8.547  45.059  1.00  0.00     0.216 HD
ENDBRANCH  19  20
ENDBRANCH  12  18
BRANCH  10  22
HETATM   22  O4  UNL     1       0.129  -6.105  45.166  1.00  0.00    -0.391 OA
ATOM     23  H4  UNL     1       0.888  -5.616  44.875  1.00  0.00     0.210 HD
ENDBRANCH  10  22
TORSDOF 5
ENDMDL
MODEL 5
REMARK VINA RESULT: -7.179353293      2.181      5.372
REMARK  5 active torsions:
REMARK  status: ('A' for Active; 'I' for Inactive)
REMARK    1  A    between atoms: C2_2  and  O2_4 
REMARK    2  A    between atoms: O2_4  and  C3_5 
REMARK    3  A    between atoms: C11_14  and  O4_15 
REMARK    4  A    between atoms: C13_18  and  C15_20 
REMARK    5  A    between atoms: C16_21  and  O5_22 
ROOT
HETATM    1  C3  UNL     1       0.386 -10.365  41.773  1.00  0.00     0.173 C 
HETATM    2  C4  UNL     1       0.447 -10.693  40.275  1.00  0.00     0.067 C 
HETATM    3  C5  UNL     1       1.694  -9.988  39.873  1.00  0.00     0.121 C 
HETATM    4  C6  UNL     1       1.615  -9.439  38.448  1.00  0.00     0.040 C 
HETATM    5  O3  UNL     1       1.882  -8.929  40.709  1.00  0.00    -0.367 OA
HETATM    6  C7  UNL     1       1.119  -9.065  41.849  1.00  0.00     0.117 C 
HETATM    7  C8  UNL     1       0.105  -7.974  41.862  1.00  0.00     0.019 C 
HETATM    8  C9  UNL     1       0.574  -6.739  41.991  1.00  0.00    -0.056 C 
HETATM    9  C10 UNL     1      -0.387  -5.617  42.010  1.00  0.00     0.046 C 
HETATM   10  C11 UNL     1       2.043  -6.585  42.103  1.00  0.00     0.147 C 
HETATM   11  C12 UNL     1       2.626  -7.548  43.078  1.00  0.00     0.053 C 
HETATM   12  C13 UNL     1       2.031  -8.939  43.037  1.00  0.00     0.015 C 
HETATM   13  C14 UNL     1       1.327  -9.164  44.348  1.00  0.00     0.023 C 
ENDROOT
BRANCH   1  14
HETATM   14  O2  UNL     1      -0.992 -10.237  42.075  1.00  0.00    -0.313 OA
BRANCH  14  15
HETATM   15  C2  UNL     1      -1.595 -10.946  43.113  1.00  0.00     0.255 C 
HETATM   16  C1  UNL     1      -0.964 -12.137  43.732  1.00  0.00     0.126 C 
HETATM   17  O1  UNL     1      -2.715 -10.513  43.497  1.00  0.00    -0.266 OA
ENDBRANCH  14  15
ENDBRANCH   1  14
BRANCH  12  18
HETATM   18  C15 UNL     1       3.153  -9.913  42.972  1.00  0.00     0.010 C 
HETATM   19  C16 UNL     1       4.294  -9.701  42.381  1.00  0.00     0.128 C 
BRANCH  19  20
HETATM   20  O5  UNL     1       4.533  -8.500  41.750  1.00  0.00    -0.373 OA
ATOM     21  H5  UNL     1       4.330  -7.683  42.188  1.00  0.00     0.216 HD
ENDBRANCH  19  20
ENDBRANCH  12  18
BRANCH  10  22
HETATM   22  O4  UNL     1       2.258  -5.287  42.626  1.00  0.00    -0.391 OA
ATOM     23  H4  UNL     1       3.139  -5.045  42.365  1.00  0.00     0.210 HD
ENDBRANCH  10  22
TORSDOF 5
ENDMDL
