MODEL 1
REMARK VINA RESULT: -6.991206073      0.000      0.000
REMARK  6 active torsions:
REMARK  status: ('A' for Active; 'I' for Inactive)
REMARK    1  A    between atoms: C2_2  and  C3_3 
REMARK    2  A    between atoms: C3_3  and  C4_4 
REMARK    3  A    between atoms: C4_4  and  C5_5 
REMARK    4  A    between atoms: C5_5  and  O1_6 
REMARK    5  A    between atoms: C11_13  and  O2_14 
REMARK    6  A    between atoms: C14_18  and  O3_19 
ROOT
HETATM    1  C4  UNL     1      10.766  -9.911  25.652  1.00  0.00    -0.009 C 
HETATM    2  C6  UNL     1      10.238  -9.900  27.030  1.00  0.00     0.012 C 
HETATM    3  C7  UNL     1       8.947 -10.623  27.239  1.00  0.00     0.002 C 
HETATM    4  C8  UNL     1       8.932 -11.982  26.626  1.00  0.00     0.012 C 
HETATM    5  C9  UNL     1       9.150 -11.804  25.131  1.00  0.00    -0.011 C 
HETATM    6  C10 UNL     1       7.878 -11.337  24.558  1.00  0.00     0.018 C 
HETATM    7  C11 UNL     1       9.300 -13.254  24.617  1.00  0.00     0.127 C 
HETATM    8  C12 UNL     1       9.623 -13.246  23.149  1.00  0.00     0.035 C 
HETATM    9  C13 UNL     1      10.825 -12.404  22.815  1.00  0.00     0.034 C 
HETATM   10  C14 UNL     1      10.720 -10.998  23.385  1.00  0.00     0.124 C 
HETATM   11  C15 UNL     1      10.416 -11.113  24.838  1.00  0.00     0.036 C 
ENDROOT
BRANCH   1  12
HETATM   12  C3  UNL     1      12.304  -9.848  25.812  1.00  0.00     0.038 C 
BRANCH  12  13
HETATM   13  C2  UNL     1      12.908 -11.146  26.102  1.00  0.00    -0.036 C 
HETATM   14  C1  UNL     1      13.969 -11.527  25.369  1.00  0.00     0.007 C 
ENDBRANCH  12  13
ENDBRANCH   1  12
BRANCH   1  15
HETATM   15  C5  UNL     1      10.496  -8.573  24.965  1.00  0.00     0.174 C 
BRANCH  15  16
HETATM   16  O1  UNL     1      11.562  -7.730  24.896  1.00  0.00    -0.400 OA
ATOM     17  H1  UNL     1      11.991  -7.549  25.724  1.00  0.00     0.209 HD
ENDBRANCH  15  16
ENDBRANCH   1  15
BRANCH  10  18
HETATM   18  O3  UNL     1       9.912 -10.190  22.642  1.00  0.00    -0.395 OA
ATOM     19  H3  UNL     1       9.101  -9.974  23.089  1.00  0.00     0.210 HD
ENDBRANCH  10  18
BRANCH   7  20
HETATM   20  O2  UNL     1       8.117 -13.965  24.793  1.00  0.00    -0.395 OA
ATOM     21  H2  UNL     1       8.263 -14.897  24.677  1.00  0.00     0.210 HD
ENDBRANCH   7  20
TORSDOF 6
ENDMDL
MODEL 2
REMARK VINA RESULT: -6.929375174      2.805      5.219
REMARK  6 active torsions:
REMARK  status: ('A' for Active; 'I' for Inactive)
REMARK    1  A    between atoms: C2_2  and  C3_3 
REMARK    2  A    between atoms: C3_3  and  C4_4 
REMARK    3  A    between atoms: C4_4  and  C5_5 
REMARK    4  A    between atoms: C5_5  and  O1_6 
REMARK    5  A    between atoms: C11_13  and  O2_14 
REMARK    6  A    between atoms: C14_18  and  O3_19 
ROOT
HETATM    1  C4  UNL     1      12.044 -14.584  23.587  1.00  0.00    -0.009 C 
HETATM    2  C6  UNL     1      10.875 -14.254  22.748  1.00  0.00     0.012 C 
HETATM    3  C7  UNL     1       9.821 -13.418  23.399  1.00  0.00     0.002 C 
HETATM    4  C8  UNL     1      10.374 -12.230  24.113  1.00  0.00     0.012 C 
HETATM    5  C9  UNL     1      11.314 -12.750  25.190  1.00  0.00    -0.011 C 
HETATM    6  C10 UNL     1      10.479 -13.247  26.294  1.00  0.00     0.018 C 
HETATM    7  C11 UNL     1      11.968 -11.463  25.744  1.00  0.00     0.127 C 
HETATM    8  C12 UNL     1      13.011 -11.818  26.766  1.00  0.00     0.035 C 
HETATM    9  C13 UNL     1      14.035 -12.792  26.248  1.00  0.00     0.034 C 
HETATM   10  C14 UNL     1      13.398 -14.026  25.630  1.00  0.00     0.124 C 
HETATM   11  C15 UNL     1      12.397 -13.572  24.626  1.00  0.00     0.036 C 
ENDROOT
BRANCH   1  12
HETATM   12  C3  UNL     1      13.225 -14.712  22.594  1.00  0.00     0.038 C 
BRANCH  12  13
HETATM   13  C2  UNL     1      13.588 -13.446  21.963  1.00  0.00    -0.036 C 
HETATM   14  C1  UNL     1      14.545 -13.464  21.018  1.00  0.00     0.007 C 
ENDBRANCH  12  13
ENDBRANCH   1  12
BRANCH   1  15
HETATM   15  C5  UNL     1      11.946 -16.019  24.099  1.00  0.00     0.174 C 
BRANCH  15  16
HETATM   16  O1  UNL     1      10.826 -16.305  24.818  1.00  0.00    -0.400 OA
ATOM     17  H1  UNL     1      10.748 -17.206  25.108  1.00  0.00     0.209 HD
ENDBRANCH  15  16
ENDBRANCH   1  15
BRANCH  10  18
HETATM   18  O3  UNL     1      12.976 -14.923  26.567  1.00  0.00    -0.395 OA
ATOM     19  H3  UNL     1      12.422 -14.526  27.229  1.00  0.00     0.210 HD
ENDBRANCH  10  18
BRANCH   7  20
HETATM   20  O2  UNL     1      11.019 -10.653  26.361  1.00  0.00    -0.395 OA
ATOM     21  H2  UNL     1      11.419 -10.122  27.039  1.00  0.00     0.210 HD
ENDBRANCH   7  20
TORSDOF 6
ENDMDL
MODEL 3
REMARK VINA RESULT: -6.881739574      1.171      1.272
REMARK  6 active torsions:
REMARK  status: ('A' for Active; 'I' for Inactive)
REMARK    1  A    between atoms: C2_2  and  C3_3 
REMARK    2  A    between atoms: C3_3  and  C4_4 
REMARK    3  A    between atoms: C4_4  and  C5_5 
REMARK    4  A    between atoms: C5_5  and  O1_6 
REMARK    5  A    between atoms: C11_13  and  O2_14 
REMARK    6  A    between atoms: C14_18  and  O3_19 
ROOT
HETATM    1  C4  UNL     1      11.700 -10.601  25.137  1.00  0.00    -0.009 C 
HETATM    2  C6  UNL     1      11.234 -10.075  26.435  1.00  0.00     0.012 C 
HETATM    3  C7  UNL     1       9.783 -10.271  26.734  1.00  0.00     0.002 C 
HETATM    4  C8  UNL     1       9.315 -11.663  26.473  1.00  0.00     0.012 C 
HETATM    5  C9  UNL     1       9.547 -11.946  24.997  1.00  0.00    -0.011 C 
HETATM    6  C10 UNL     1       8.484 -11.258  24.249  1.00  0.00     0.018 C 
HETATM    7  C11 UNL     1       9.208 -13.449  24.864  1.00  0.00     0.127 C 
HETATM    8  C12 UNL     1       9.485 -13.915  23.462  1.00  0.00     0.035 C 
HETATM    9  C13 UNL     1      10.888 -13.612  23.008  1.00  0.00     0.034 C 
HETATM   10  C14 UNL     1      11.257 -12.151  23.208  1.00  0.00     0.124 C 
HETATM   11  C15 UNL     1      10.962 -11.793  24.623  1.00  0.00     0.036 C 
ENDROOT
BRANCH   1  12
HETATM   12  C3  UNL     1      13.179 -10.994  25.373  1.00  0.00     0.038 C 
BRANCH  12  13
HETATM   13  C2  UNL     1      13.343 -12.054  26.364  1.00  0.00    -0.036 C 
HETATM   14  C1  UNL     1      13.973 -13.180  25.985  1.00  0.00     0.007 C 
ENDBRANCH  12  13
ENDBRANCH   1  12
BRANCH   1  15
HETATM   15  C5  UNL     1      11.864  -9.466  24.128  1.00  0.00     0.174 C 
BRANCH  15  16
HETATM   16  O1  UNL     1      13.050  -9.449  23.460  1.00  0.00    -0.400 OA
ATOM     17  H1  UNL     1      13.700  -8.846  23.801  1.00  0.00     0.209 HD
ENDBRANCH  15  16
ENDBRANCH   1  15
BRANCH  10  18
HETATM   18  O3  UNL     1      10.738 -11.343  22.241  1.00  0.00    -0.395 OA
ATOM     19  H3  UNL     1      11.380 -10.737  21.889  1.00  0.00     0.210 HD
ENDBRANCH  10  18
BRANCH   7  20
HETATM   20  O2  UNL     1       7.862 -13.677  25.135  1.00  0.00    -0.395 OA
ATOM     21  H2  UNL     1       7.707 -14.596  25.320  1.00  0.00     0.210 HD
ENDBRANCH   7  20
TORSDOF 6
ENDMDL
MODEL 4
REMARK VINA RESULT: -6.878710973      5.472      7.380
REMARK  6 active torsions:
REMARK  status: ('A' for Active; 'I' for Inactive)
REMARK    1  A    between atoms: C2_2  and  C3_3 
REMARK    2  A    between atoms: C3_3  and  C4_4 
REMARK    3  A    between atoms: C4_4  and  C5_5 
REMARK    4  A    between atoms: C5_5  and  O1_6 
REMARK    5  A    between atoms: C11_13  and  O2_14 
REMARK    6  A    between atoms: C14_18  and  O3_19 
ROOT
HETATM    1  C4  UNL     1      15.672 -14.520  20.791  1.00  0.00    -0.009 C 
HETATM    2  C6  UNL     1      16.189 -15.879  20.536  1.00  0.00     0.012 C 
HETATM    3  C7  UNL     1      15.872 -16.902  21.578  1.00  0.00     0.002 C 
HETATM    4  C8  UNL     1      14.437 -16.897  21.986  1.00  0.00     0.012 C 
HETATM    5  C9  UNL     1      14.136 -15.519  22.555  1.00  0.00    -0.011 C 
HETATM    6  C10 UNL     1      14.706 -15.472  23.910  1.00  0.00     0.018 C 
HETATM    7  C11 UNL     1      12.606 -15.549  22.776  1.00  0.00     0.127 C 
HETATM    8  C12 UNL     1      12.130 -14.206  23.251  1.00  0.00     0.035 C 
HETATM    9  C13 UNL     1      12.544 -13.080  22.342  1.00  0.00     0.034 C 
HETATM   10  C14 UNL     1      14.038 -13.089  22.056  1.00  0.00     0.124 C 
HETATM   11  C15 UNL     1      14.406 -14.450  21.580  1.00  0.00     0.036 C 
ENDROOT
BRANCH   1  12
HETATM   12  C3  UNL     1      15.419 -13.919  19.387  1.00  0.00     0.038 C 
BRANCH  12  13
HETATM   13  C2  UNL     1      16.295 -12.794  19.075  1.00  0.00    -0.036 C 
HETATM   14  C1  UNL     1      16.305 -12.333  17.811  1.00  0.00     0.007 C 
ENDBRANCH  12  13
ENDBRANCH   1  12
BRANCH   1  15
HETATM   15  C5  UNL     1      16.790 -13.609  21.295  1.00  0.00     0.174 C 
BRANCH  15  16
HETATM   16  O1  UNL     1      17.452 -14.056  22.396  1.00  0.00    -0.400 OA
ATOM     17  H1  UNL     1      17.772 -13.378  22.980  1.00  0.00     0.209 HD
ENDBRANCH  15  16
ENDBRANCH   1  15
BRANCH  10  18
HETATM   18  O3  UNL     1      14.770 -12.569  23.082  1.00  0.00    -0.395 OA
ATOM     19  H3  UNL     1      15.510 -12.056  22.778  1.00  0.00     0.210 HD
ENDBRANCH  10  18
BRANCH   7  20
HETATM   20  O2  UNL     1      12.266 -16.493  23.742  1.00  0.00    -0.395 OA
ATOM     21  H2  UNL     1      12.095 -17.337  23.342  1.00  0.00     0.210 HD
ENDBRANCH   7  20
TORSDOF 6
ENDMDL
MODEL 5
REMARK VINA RESULT: -6.856307954      2.575      4.084
REMARK  6 active torsions:
REMARK  status: ('A' for Active; 'I' for Inactive)
REMARK    1  A    between atoms: C2_2  and  C3_3 
REMARK    2  A    between atoms: C3_3  and  C4_4 
REMARK    3  A    between atoms: C4_4  and  C5_5 
REMARK    4  A    between atoms: C5_5  and  O1_6 
REMARK    5  A    between atoms: C11_13  and  O2_14 
REMARK    6  A    between atoms: C14_18  and  O3_19 
ROOT
HETATM    1  C4  UNL     1      11.736 -11.240  24.755  1.00  0.00    -0.009 C 
HETATM    2  C6  UNL     1      10.585 -11.029  23.854  1.00  0.00     0.012 C 
HETATM    3  C7  UNL     1      10.627 -11.773  22.559  1.00  0.00     0.002 C 
HETATM    4  C8  UNL     1      10.976 -13.214  22.723  1.00  0.00     0.012 C 
HETATM    5  C9  UNL     1      12.356 -13.273  23.360  1.00  0.00    -0.011 C 
HETATM    6  C10 UNL     1      13.336 -12.973  22.305  1.00  0.00     0.018 C 
HETATM    7  C11 UNL     1      12.550 -14.779  23.655  1.00  0.00     0.127 C 
HETATM    8  C12 UNL     1      13.845 -14.996  24.384  1.00  0.00     0.035 C 
HETATM    9  C13 UNL     1      13.967 -14.159  25.629  1.00  0.00     0.034 C 
HETATM   10  C14 UNL     1      13.700 -12.686  25.363  1.00  0.00     0.124 C 
HETATM   11  C15 UNL     1      12.396 -12.576  24.655  1.00  0.00     0.036 C 
ENDROOT
BRANCH   1  12
HETATM   12  C3  UNL     1      11.162 -11.073  26.183  1.00  0.00     0.038 C 
BRANCH  12  13
HETATM   13  C2  UNL     1      11.345  -9.730  26.725  1.00  0.00    -0.036 C 
HETATM   14  C1  UNL     1      10.337  -9.192  27.435  1.00  0.00     0.007 C 
ENDBRANCH  12  13
ENDBRANCH   1  12
BRANCH   1  15
HETATM   15  C5  UNL     1      12.690 -10.049  24.690  1.00  0.00     0.174 C 
BRANCH  15  16
HETATM   16  O1  UNL     1      13.197  -9.777  23.457  1.00  0.00    -0.400 OA
ATOM     17  H1  UNL     1      13.338  -8.856  23.270  1.00  0.00     0.209 HD
ENDBRANCH  15  16
ENDBRANCH   1  15
BRANCH  10  18
HETATM   18  O3  UNL     1      14.769 -12.054  24.799  1.00  0.00    -0.395 OA
ATOM     19  H3  UNL     1      14.576 -11.712  23.934  1.00  0.00     0.210 HD
ENDBRANCH  10  18
BRANCH   7  20
HETATM   20  O2  UNL     1      12.594 -15.511  22.471  1.00  0.00    -0.395 OA
ATOM     21  H2  UNL     1      13.055 -16.332  22.601  1.00  0.00     0.210 HD
ENDBRANCH   7  20
TORSDOF 6
ENDMDL
