MODEL 1
REMARK VINA RESULT: -9.857411041      0.000      0.000
REMARK  7 active torsions:
REMARK  status: ('A' for Active; 'I' for Inactive)
REMARK    1  A    between atoms: C2_2  and  C3_3 
REMARK    2  A    between atoms: C4_4  and  C5_5 
REMARK    3  A    between atoms: N2_13  and  C10_14 
REMARK    4  A    between atoms: C13_17  and  N3_18 
REMARK    5  A    between atoms: C17_25  and  O2_26 
REMARK    6  A    between atoms: O2_26  and  C18_27 
REMARK    7  A    between atoms: C18_27  and  C19_29 
ROOT
HETATM    1  C10 UNL     1     -45.219  23.984 -19.732  1.00  0.00     0.044 A 
HETATM    2  C11 UNL     1     -45.104  25.276 -19.284  1.00  0.00     0.032 A 
HETATM    3  C12 UNL     1     -43.881  25.947 -19.366  1.00  0.00     0.033 A 
HETATM    4  C13 UNL     1     -42.768  25.336 -19.893  1.00  0.00     0.055 A 
HETATM    5  C26 UNL     1     -42.916  24.044 -20.332  1.00  0.00     0.033 A 
HETATM    6  C27 UNL     1     -44.113  23.361 -20.262  1.00  0.00     0.032 A 
ENDROOT
BRANCH   4   7
HETATM    7  N3  UNL     1     -41.530  26.031 -19.969  1.00  0.00    -0.238 N 
HETATM    8  N4  UNL     1     -40.712  26.297 -18.967  1.00  0.00    -0.014 NA
HETATM    9  N5  UNL     1     -39.655  26.958 -19.401  1.00  0.00    -0.281 N 
HETATM   10  C14 UNL     1     -39.799  27.123 -20.719  1.00  0.00     0.074 A 
ATOM     11  H5  UNL     1     -38.872  27.285 -18.835  1.00  0.00     0.184 HD
HETATM   12  C15 UNL     1     -39.040  27.724 -21.719  1.00  0.00     0.036 A 
HETATM   13  C25 UNL     1     -40.987  26.534 -21.074  1.00  0.00     0.085 A 
HETATM   14  C16 UNL     1     -39.488  27.718 -23.021  1.00  0.00     0.040 A 
HETATM   15  C17 UNL     1     -40.680  27.131 -23.394  1.00  0.00     0.081 A 
HETATM   16  C24 UNL     1     -41.432  26.535 -22.404  1.00  0.00     0.071 A 
BRANCH  15  17
HETATM   17  O2  UNL     1     -41.081  27.157 -24.731  1.00  0.00    -0.275 OA
BRANCH  17  18
HETATM   18  C18 UNL     1     -40.629  26.230 -25.657  1.00  0.00     0.300 C 
HETATM   19  O3  UNL     1     -41.422  25.315 -25.992  1.00  0.00    -0.259 OA
BRANCH  18  20
HETATM   20  C19 UNL     1     -39.274  26.309 -26.233  1.00  0.00     0.055 A 
HETATM   21  C20 UNL     1     -38.852  27.357 -26.984  1.00  0.00     0.024 A 
HETATM   22  C21 UNL     1     -37.565  27.359 -27.489  1.00  0.00     0.075 A 
HETATM   23  C22 UNL     1     -36.712  26.305 -27.234  1.00  0.00     0.245 A 
HETATM   24  O4  UNL     1     -35.530  26.337 -27.714  1.00  0.00    -0.268 OA
HETATM   25  N6  UNL     1     -37.141  25.267 -26.486  1.00  0.00    -0.333 N 
HETATM   26  C23 UNL     1     -38.394  25.272 -25.998  1.00  0.00     0.108 A 
ATOM     27  H6  UNL     1     -36.518  24.483 -26.291  1.00  0.00     0.168 HD
ENDBRANCH  18  20
ENDBRANCH  17  18
ENDBRANCH  15  17
ENDBRANCH   4   7
BRANCH   1  28
HETATM   28  N2  UNL     1     -46.458  23.305 -19.650  1.00  0.00    -0.262 N 
HETATM   29  C9  UNL     1     -47.506  23.472 -20.465  1.00  0.00     0.332 A 
HETATM   30  N1  UNL     1     -48.495  22.650 -20.066  1.00  0.00    -0.306 N 
HETATM   31  O1  UNL     1     -47.637  24.240 -21.460  1.00  0.00    -0.246 OA
HETATM   32  C8  UNL     1     -48.051  21.961 -18.981  1.00  0.00     0.064 A 
ATOM     33  H1  UNL     1     -49.413  22.560 -20.500  1.00  0.00     0.171 HD
HETATM   34  C7  UNL     1     -48.699  21.003 -18.219  1.00  0.00     0.033 A 
HETATM   35  C28 UNL     1     -46.758  22.376 -18.718  1.00  0.00     0.072 A 
HETATM   36  C6  UNL     1     -47.986  20.471 -17.164  1.00  0.00     0.023 A 
HETATM   37  C5  UNL     1     -46.696  20.875 -16.887  1.00  0.00     0.020 A 
HETATM   38  C29 UNL     1     -46.061  21.823 -17.646  1.00  0.00     0.053 A 
BRANCH  37  39
HETATM   39  C4  UNL     1     -45.955  20.307 -15.773  1.00  0.00    -0.067 C 
HETATM   40  C3  UNL     1     -45.345  19.817 -14.855  1.00  0.00    -0.101 C 
BRANCH  40  41
HETATM   41  C2  UNL     1     -44.606  19.196 -13.742  1.00  0.00     0.090 C 
HETATM   42  C1  UNL     1     -44.465  17.689 -13.984  1.00  0.00     0.018 C 
ENDBRANCH  40  41
ENDBRANCH  37  39
ENDBRANCH   1  28
TORSDOF 7
ENDMDL
MODEL 2
REMARK VINA RESULT: -9.804839562      5.634     11.151
REMARK  7 active torsions:
REMARK  status: ('A' for Active; 'I' for Inactive)
REMARK    1  A    between atoms: C2_2  and  C3_3 
REMARK    2  A    between atoms: C4_4  and  C5_5 
REMARK    3  A    between atoms: N2_13  and  C10_14 
REMARK    4  A    between atoms: C13_17  and  N3_18 
REMARK    5  A    between atoms: C17_25  and  O2_26 
REMARK    6  A    between atoms: O2_26  and  C18_27 
REMARK    7  A    between atoms: C18_27  and  C19_29 
ROOT
HETATM    1  C10 UNL     1     -45.828  23.192 -17.062  1.00  0.00     0.044 A 
HETATM    2  C11 UNL     1     -46.110  24.454 -16.604  1.00  0.00     0.032 A 
HETATM    3  C12 UNL     1     -45.511  24.933 -15.434  1.00  0.00     0.033 A 
HETATM    4  C13 UNL     1     -44.630  24.158 -14.718  1.00  0.00     0.055 A 
HETATM    5  C26 UNL     1     -44.370  22.901 -15.203  1.00  0.00     0.033 A 
HETATM    6  C27 UNL     1     -44.948  22.407 -16.355  1.00  0.00     0.032 A 
ENDROOT
BRANCH   4   7
HETATM    7  N3  UNL     1     -44.029  24.657 -13.531  1.00  0.00    -0.238 N 
HETATM    8  N4  UNL     1     -42.770  24.507 -13.161  1.00  0.00    -0.014 NA
HETATM    9  N5  UNL     1     -42.559  25.102 -12.001  1.00  0.00    -0.281 N 
HETATM   10  C14 UNL     1     -43.715  25.649 -11.615  1.00  0.00     0.074 A 
ATOM     11  H5  UNL     1     -41.676  25.137 -11.492  1.00  0.00     0.184 HD
HETATM   12  C15 UNL     1     -44.128  26.390 -10.511  1.00  0.00     0.036 A 
HETATM   13  C25 UNL     1     -44.642  25.365 -12.586  1.00  0.00     0.085 A 
HETATM   14  C16 UNL     1     -45.433  26.815 -10.416  1.00  0.00     0.040 A 
HETATM   15  C17 UNL     1     -46.377  26.538 -11.383  1.00  0.00     0.081 A 
HETATM   16  C24 UNL     1     -45.970  25.804 -12.476  1.00  0.00     0.071 A 
BRANCH  15  17
HETATM   17  O2  UNL     1     -47.687  26.997 -11.230  1.00  0.00    -0.275 OA
BRANCH  17  18
HETATM   18  C18 UNL     1     -48.360  27.666 -12.240  1.00  0.00     0.300 C 
HETATM   19  O3  UNL     1     -48.020  28.852 -12.474  1.00  0.00    -0.259 OA
BRANCH  18  20
HETATM   20  C19 UNL     1     -49.433  27.017 -13.016  1.00  0.00     0.055 A 
HETATM   21  C20 UNL     1     -49.214  26.406 -14.208  1.00  0.00     0.024 A 
HETATM   22  C21 UNL     1     -50.272  25.818 -14.876  1.00  0.00     0.075 A 
HETATM   23  C22 UNL     1     -51.543  25.851 -14.340  1.00  0.00     0.245 A 
HETATM   24  O4  UNL     1     -52.498  25.299 -14.981  1.00  0.00    -0.268 OA
HETATM   25  N6  UNL     1     -51.751  26.461 -13.155  1.00  0.00    -0.333 N 
HETATM   26  C23 UNL     1     -50.716  27.031 -12.510  1.00  0.00     0.108 A 
ATOM     27  H6  UNL     1     -52.686  26.491 -12.750  1.00  0.00     0.168 HD
ENDBRANCH  18  20
ENDBRANCH  17  18
ENDBRANCH  15  17
ENDBRANCH   4   7
BRANCH   1  28
HETATM   28  N2  UNL     1     -46.434  22.708 -18.246  1.00  0.00    -0.262 N 
HETATM   29  C9  UNL     1     -47.440  21.829 -18.316  1.00  0.00     0.332 A 
HETATM   30  N1  UNL     1     -47.738  21.620 -19.612  1.00  0.00    -0.306 N 
HETATM   31  O1  UNL     1     -48.065  21.245 -17.385  1.00  0.00    -0.246 OA
HETATM   32  C8  UNL     1     -46.899  22.385 -20.360  1.00  0.00     0.064 A 
ATOM     33  H1  UNL     1     -48.464  20.999 -19.969  1.00  0.00     0.171 HD
HETATM   34  C7  UNL     1     -46.815  22.515 -21.737  1.00  0.00     0.033 A 
HETATM   35  C28 UNL     1     -46.072  23.076 -19.493  1.00  0.00     0.072 A 
HETATM   36  C6  UNL     1     -45.850  23.378 -22.216  1.00  0.00     0.023 A 
HETATM   37  C5  UNL     1     -45.017  24.074 -21.364  1.00  0.00     0.020 A 
HETATM   38  C29 UNL     1     -45.107  23.941 -20.004  1.00  0.00     0.053 A 
BRANCH  37  39
HETATM   39  C4  UNL     1     -44.006  24.982 -21.881  1.00  0.00    -0.067 C 
HETATM   40  C3  UNL     1     -43.161  25.738 -22.291  1.00  0.00    -0.101 C 
BRANCH  40  41
HETATM   41  C2  UNL     1     -42.122  26.666 -22.769  1.00  0.00     0.090 C 
HETATM   42  C1  UNL     1     -40.932  26.660 -21.803  1.00  0.00     0.018 C 
ENDBRANCH  40  41
ENDBRANCH  37  39
ENDBRANCH   1  28
TORSDOF 7
ENDMDL
MODEL 3
REMARK VINA RESULT: -9.631462407      3.894      9.858
REMARK  7 active torsions:
REMARK  status: ('A' for Active; 'I' for Inactive)
REMARK    1  A    between atoms: C2_2  and  C3_3 
REMARK    2  A    between atoms: C4_4  and  C5_5 
REMARK    3  A    between atoms: N2_13  and  C10_14 
REMARK    4  A    between atoms: C13_17  and  N3_18 
REMARK    5  A    between atoms: C17_25  and  O2_26 
REMARK    6  A    between atoms: O2_26  and  C18_27 
REMARK    7  A    between atoms: C18_27  and  C19_29 
ROOT
HETATM    1  C10 UNL     1     -44.531  24.927 -21.039  1.00  0.00     0.044 A 
HETATM    2  C11 UNL     1     -45.537  25.846 -21.202  1.00  0.00     0.032 A 
HETATM    3  C12 UNL     1     -46.768  25.459 -21.740  1.00  0.00     0.033 A 
HETATM    4  C13 UNL     1     -47.003  24.157 -22.116  1.00  0.00     0.055 A 
HETATM    5  C26 UNL     1     -45.976  23.264 -21.939  1.00  0.00     0.033 A 
HETATM    6  C27 UNL     1     -44.753  23.622 -21.411  1.00  0.00     0.032 A 
ENDROOT
BRANCH   4   7
HETATM    7  N3  UNL     1     -48.259  23.779 -22.661  1.00  0.00    -0.238 N 
HETATM    8  N4  UNL     1     -48.639  23.893 -23.921  1.00  0.00    -0.014 NA
HETATM    9  N5  UNL     1     -49.871  23.442 -24.071  1.00  0.00    -0.281 N 
HETATM   10  C14 UNL     1     -50.295  23.027 -22.874  1.00  0.00     0.074 A 
ATOM     11  H5  UNL     1     -50.403  23.415 -24.941  1.00  0.00     0.184 HD
HETATM   12  C15 UNL     1     -51.474  22.466 -22.393  1.00  0.00     0.036 A 
HETATM   13  C25 UNL     1     -49.272  23.243 -21.985  1.00  0.00     0.085 A 
HETATM   14  C16 UNL     1     -51.590  22.144 -21.060  1.00  0.00     0.040 A 
HETATM   15  C17 UNL     1     -50.571  22.354 -20.153  1.00  0.00     0.081 A 
HETATM   16  C24 UNL     1     -49.403  22.910 -20.628  1.00  0.00     0.071 A 
BRANCH  15  17
HETATM   17  O2  UNL     1     -50.749  22.006 -18.812  1.00  0.00    -0.275 OA
BRANCH  17  18
HETATM   18  C18 UNL     1     -50.083  22.655 -17.785  1.00  0.00     0.300 C 
HETATM   19  O3  UNL     1     -50.517  23.781 -17.436  1.00  0.00    -0.259 OA
BRANCH  18  20
HETATM   20  C19 UNL     1     -48.912  22.054 -17.121  1.00  0.00     0.055 A 
HETATM   21  C20 UNL     1     -48.194  22.699 -16.166  1.00  0.00     0.024 A 
HETATM   22  C21 UNL     1     -47.108  22.068 -15.588  1.00  0.00     0.075 A 
HETATM   23  C22 UNL     1     -46.752  20.793 -15.976  1.00  0.00     0.245 A 
HETATM   24  O4  UNL     1     -45.745  20.238 -15.423  1.00  0.00    -0.268 OA
HETATM   25  N6  UNL     1     -47.471  20.159 -16.926  1.00  0.00    -0.333 N 
HETATM   26  C23 UNL     1     -48.527  20.779 -17.483  1.00  0.00     0.108 A 
ATOM     27  H6  UNL     1     -47.217  19.217 -17.219  1.00  0.00     0.168 HD
ENDBRANCH  18  20
ENDBRANCH  17  18
ENDBRANCH  15  17
ENDBRANCH   4   7
BRANCH   1  28
HETATM   28  N2  UNL     1     -43.285  25.319 -20.494  1.00  0.00    -0.262 N 
HETATM   29  C9  UNL     1     -42.209  25.713 -21.186  1.00  0.00     0.332 A 
HETATM   30  N1  UNL     1     -41.223  26.002 -20.317  1.00  0.00    -0.306 N 
HETATM   31  O1  UNL     1     -42.053  25.827 -22.435  1.00  0.00    -0.246 OA
HETATM   32  C8  UNL     1     -41.696  25.782 -19.061  1.00  0.00     0.064 A 
ATOM     33  H1  UNL     1     -40.287  26.329 -20.557  1.00  0.00     0.171 HD
HETATM   34  C7  UNL     1     -41.062  25.936 -17.839  1.00  0.00     0.033 A 
HETATM   35  C28 UNL     1     -43.005  25.348 -19.174  1.00  0.00     0.072 A 
HETATM   36  C6  UNL     1     -41.806  25.631 -16.717  1.00  0.00     0.023 A 
HETATM   37  C5  UNL     1     -43.112  25.197 -16.813  1.00  0.00     0.020 A 
HETATM   38  C29 UNL     1     -43.733  25.048 -18.025  1.00  0.00     0.053 A 
BRANCH  37  39
HETATM   39  C4  UNL     1     -43.885  24.880 -15.624  1.00  0.00    -0.067 C 
HETATM   40  C3  UNL     1     -44.512  24.625 -14.626  1.00  0.00    -0.101 C 
BRANCH  40  41
HETATM   41  C2  UNL     1     -45.260  24.323 -13.393  1.00  0.00     0.090 C 
HETATM   42  C1  UNL     1     -44.897  22.921 -12.892  1.00  0.00     0.018 C 
ENDBRANCH  40  41
ENDBRANCH  37  39
ENDBRANCH   1  28
TORSDOF 7
ENDMDL
MODEL 4
REMARK VINA RESULT: -9.494666084      6.002     10.642
REMARK  7 active torsions:
REMARK  status: ('A' for Active; 'I' for Inactive)
REMARK    1  A    between atoms: C2_2  and  C3_3 
REMARK    2  A    between atoms: C4_4  and  C5_5 
REMARK    3  A    between atoms: N2_13  and  C10_14 
REMARK    4  A    between atoms: C13_17  and  N3_18 
REMARK    5  A    between atoms: C17_25  and  O2_26 
REMARK    6  A    between atoms: O2_26  and  C18_27 
REMARK    7  A    between atoms: C18_27  and  C19_29 
ROOT
HETATM    1  C10 UNL     1     -45.286  22.792 -16.630  1.00  0.00     0.044 A 
HETATM    2  C11 UNL     1     -44.029  23.339 -16.600  1.00  0.00     0.032 A 
HETATM    3  C12 UNL     1     -43.535  23.914 -15.426  1.00  0.00     0.033 A 
HETATM    4  C13 UNL     1     -44.289  23.946 -14.277  1.00  0.00     0.055 A 
HETATM    5  C26 UNL     1     -45.543  23.391 -14.340  1.00  0.00     0.033 A 
HETATM    6  C27 UNL     1     -46.052  22.817 -15.488  1.00  0.00     0.032 A 
ENDROOT
BRANCH   4   7
HETATM    7  N3  UNL     1     -43.774  24.534 -13.090  1.00  0.00    -0.238 N 
HETATM    8  N4  UNL     1     -42.562  24.372 -12.591  1.00  0.00    -0.014 NA
HETATM    9  N5  UNL     1     -42.428  25.067 -11.477  1.00  0.00    -0.281 N 
HETATM   10  C14 UNL     1     -43.586  25.693 -11.253  1.00  0.00     0.074 A 
ATOM     11  H5  UNL     1     -41.593  25.117 -10.893  1.00  0.00     0.184 HD
HETATM   12  C15 UNL     1     -44.060  26.553 -10.266  1.00  0.00     0.036 A 
HETATM   13  C25 UNL     1     -44.435  25.353 -12.277  1.00  0.00     0.085 A 
HETATM   14  C16 UNL     1     -45.347  27.036 -10.334  1.00  0.00     0.040 A 
HETATM   15  C17 UNL     1     -46.213  26.703 -11.356  1.00  0.00     0.081 A 
HETATM   16  C24 UNL     1     -45.745  25.852 -12.333  1.00  0.00     0.071 A 
BRANCH  15  17
HETATM   17  O2  UNL     1     -47.508  27.226 -11.370  1.00  0.00    -0.275 OA
BRANCH  17  18
HETATM   18  C18 UNL     1     -47.956  28.068 -12.375  1.00  0.00     0.300 C 
HETATM   19  O3  UNL     1     -49.075  27.815 -12.886  1.00  0.00    -0.259 OA
BRANCH  18  20
HETATM   20  C19 UNL     1     -47.156  29.220 -12.833  1.00  0.00     0.055 A 
HETATM   21  C20 UNL     1     -46.469  30.024 -11.982  1.00  0.00     0.024 A 
HETATM   22  C21 UNL     1     -45.740  31.085 -12.488  1.00  0.00     0.075 A 
HETATM   23  C22 UNL     1     -45.711  31.329 -13.846  1.00  0.00     0.245 A 
HETATM   24  O4  UNL     1     -45.028  32.316 -14.281  1.00  0.00    -0.268 OA
HETATM   25  N6  UNL     1     -46.397  30.524 -14.683  1.00  0.00    -0.333 N 
HETATM   26  C23 UNL     1     -47.103  29.494 -14.184  1.00  0.00     0.108 A 
ATOM     27  H6  UNL     1     -46.382  30.695 -15.688  1.00  0.00     0.168 HD
ENDBRANCH  18  20
ENDBRANCH  17  18
ENDBRANCH  15  17
ENDBRANCH   4   7
BRANCH   1  28
HETATM   28  N2  UNL     1     -45.786  22.210 -17.819  1.00  0.00    -0.262 N 
HETATM   29  C9  UNL     1     -46.496  21.079 -17.908  1.00  0.00     0.332 A 
HETATM   30  N1  UNL     1     -46.787  20.855 -19.203  1.00  0.00    -0.306 N 
HETATM   31  O1  UNL     1     -46.876  20.294 -16.993  1.00  0.00    -0.246 OA
HETATM   32  C8  UNL     1     -46.245  21.867 -19.932  1.00  0.00     0.064 A 
ATOM     33  H1  UNL     1     -47.319  20.067 -19.572  1.00  0.00     0.171 HD
HETATM   34  C7  UNL     1     -46.273  22.082 -21.300  1.00  0.00     0.033 A 
HETATM   35  C28 UNL     1     -45.610  22.727 -19.054  1.00  0.00     0.072 A 
HETATM   36  C6  UNL     1     -45.626  23.212 -21.759  1.00  0.00     0.023 A 
HETATM   37  C5  UNL     1     -44.988  24.079 -20.896  1.00  0.00     0.020 A 
HETATM   38  C29 UNL     1     -44.966  23.860 -19.544  1.00  0.00     0.053 A 
BRANCH  37  39
HETATM   39  C4  UNL     1     -44.312  25.266 -21.391  1.00  0.00    -0.067 C 
HETATM   40  C3  UNL     1     -43.733  26.241 -21.803  1.00  0.00    -0.101 C 
BRANCH  40  41
HETATM   41  C2  UNL     1     -43.006  27.418 -22.308  1.00  0.00     0.090 C 
HETATM   42  C1  UNL     1     -42.014  26.994 -23.396  1.00  0.00     0.018 C 
ENDBRANCH  40  41
ENDBRANCH  37  39
ENDBRANCH   1  28
TORSDOF 7
ENDMDL
MODEL 5
REMARK VINA RESULT: -9.475641640      3.729      9.973
REMARK  7 active torsions:
REMARK  status: ('A' for Active; 'I' for Inactive)
REMARK    1  A    between atoms: C2_2  and  C3_3 
REMARK    2  A    between atoms: C4_4  and  C5_5 
REMARK    3  A    between atoms: N2_13  and  C10_14 
REMARK    4  A    between atoms: C13_17  and  N3_18 
REMARK    5  A    between atoms: C17_25  and  O2_26 
REMARK    6  A    between atoms: O2_26  and  C18_27 
REMARK    7  A    between atoms: C18_27  and  C19_29 
ROOT
HETATM    1  C10 UNL     1     -44.629  24.911 -21.282  1.00  0.00     0.044 A 
HETATM    2  C11 UNL     1     -45.648  25.824 -21.379  1.00  0.00     0.032 A 
HETATM    3  C12 UNL     1     -46.934  25.413 -21.743  1.00  0.00     0.033 A 
HETATM    4  C13 UNL     1     -47.210  24.093 -22.011  1.00  0.00     0.055 A 
HETATM    5  C26 UNL     1     -46.168  23.205 -21.906  1.00  0.00     0.033 A 
HETATM    6  C27 UNL     1     -44.891  23.587 -21.548  1.00  0.00     0.032 A 
ENDROOT
BRANCH   4   7
HETATM    7  N3  UNL     1     -48.521  23.689 -22.380  1.00  0.00    -0.238 N 
HETATM    8  N4  UNL     1     -49.051  23.739 -23.590  1.00  0.00    -0.014 NA
HETATM    9  N5  UNL     1     -50.291  23.284 -23.566  1.00  0.00    -0.281 N 
HETATM   10  C14 UNL     1     -50.565  22.933 -22.307  1.00  0.00     0.074 A 
ATOM     11  H5  UNL     1     -50.923  23.214 -24.363  1.00  0.00     0.184 HD
HETATM   12  C15 UNL     1     -51.675  22.399 -21.658  1.00  0.00     0.036 A 
HETATM   13  C25 UNL     1     -49.443  23.191 -21.560  1.00  0.00     0.085 A 
HETATM   14  C16 UNL     1     -51.627  22.146 -20.307  1.00  0.00     0.040 A 
HETATM   15  C17 UNL     1     -50.507  22.400 -19.542  1.00  0.00     0.081 A 
HETATM   16  C24 UNL     1     -49.408  22.929 -20.183  1.00  0.00     0.071 A 
BRANCH  15  17
HETATM   17  O2  UNL     1     -50.520  22.121 -18.173  1.00  0.00    -0.275 OA
BRANCH  17  18
HETATM   18  C18 UNL     1     -49.669  22.754 -17.281  1.00  0.00     0.300 C 
HETATM   19  O3  UNL     1     -49.933  23.943 -16.974  1.00  0.00    -0.259 OA
BRANCH  18  20
HETATM   20  C19 UNL     1     -48.497  22.065 -16.709  1.00  0.00     0.055 A 
HETATM   21  C20 UNL     1     -48.142  20.803 -17.058  1.00  0.00     0.024 A 
HETATM   22  C21 UNL     1     -47.028  20.224 -16.478  1.00  0.00     0.075 A 
HETATM   23  C22 UNL     1     -46.281  20.921 -15.551  1.00  0.00     0.245 A 
HETATM   24  O4  UNL     1     -45.258  20.359 -15.034  1.00  0.00    -0.268 OA
HETATM   25  N6  UNL     1     -46.642  22.176 -15.210  1.00  0.00    -0.333 N 
HETATM   26  C23 UNL     1     -47.727  22.732 -15.779  1.00  0.00     0.108 A 
ATOM     27  H6  UNL     1     -46.097  22.699 -14.526  1.00  0.00     0.168 HD
ENDBRANCH  18  20
ENDBRANCH  17  18
ENDBRANCH  15  17
ENDBRANCH   4   7
BRANCH   1  28
HETATM   28  N2  UNL     1     -43.327  25.327 -20.914  1.00  0.00    -0.262 N 
HETATM   29  C9  UNL     1     -42.367  25.746 -21.745  1.00  0.00     0.332 A 
HETATM   30  N1  UNL     1     -41.275  26.053 -21.019  1.00  0.00    -0.306 N 
HETATM   31  O1  UNL     1     -42.388  25.867 -23.003  1.00  0.00    -0.246 OA
HETATM   32  C8  UNL     1     -41.565  25.820 -19.712  1.00  0.00     0.064 A 
ATOM     33  H1  UNL     1     -40.388  26.400 -21.385  1.00  0.00     0.171 HD
HETATM   34  C7  UNL     1     -40.771  25.983 -18.588  1.00  0.00     0.033 A 
HETATM   35  C28 UNL     1     -42.868  25.359 -19.645  1.00  0.00     0.072 A 
HETATM   36  C6  UNL     1     -41.345  25.659 -17.376  1.00  0.00     0.023 A 
HETATM   37  C5  UNL     1     -42.643  25.198 -17.293  1.00  0.00     0.020 A 
HETATM   38  C29 UNL     1     -43.423  25.039 -18.408  1.00  0.00     0.053 A 
BRANCH  37  39
HETATM   39  C4  UNL     1     -43.237  24.861 -16.009  1.00  0.00    -0.067 C 
HETATM   40  C3  UNL     1     -43.717  24.593 -14.936  1.00  0.00    -0.101 C 
BRANCH  40  41
HETATM   41  C2  UNL     1     -44.287  24.281 -13.614  1.00  0.00     0.090 C 
HETATM   42  C1  UNL     1     -43.240  24.529 -12.522  1.00  0.00     0.018 C 
ENDBRANCH  40  41
ENDBRANCH  37  39
ENDBRANCH   1  28
TORSDOF 7
ENDMDL
