MODEL 1
REMARK VINA RESULT: -10.048197981      0.000      0.000
REMARK  7 active torsions:
REMARK  status: ('A' for Active; 'I' for Inactive)
REMARK    1  A    between atoms: C1_1  and  C23_35 
REMARK    2  A    between atoms: C2_2  and  C3_3 
REMARK    3  A    between atoms: C6_10  and  N3_11 
REMARK    4  A    between atoms: C11_17  and  N4_18 
REMARK    5  A    between atoms: N4_18  and  C12_20 
REMARK    6  A    between atoms: C23_35  and  C24_36 
REMARK    7  A    between atoms: C24_36  and  N7_37 
ROOT
HETATM    1  C3  UNL     1     -43.856  24.336 -20.930  1.00  0.00     0.035 A 
HETATM    2  C4  UNL     1     -44.360  23.173 -21.476  1.00  0.00     0.110 A 
HETATM    3  N1  UNL     1     -45.006  22.261 -20.737  1.00  0.00    -0.349 N 
ATOM      4  H1  UNL     1     -45.356  21.423 -21.201  1.00  0.00     0.167 HD
HETATM    5  C5  UNL     1     -45.218  22.397 -19.409  1.00  0.00     0.134 A 
HETATM    6  N2  UNL     1     -45.869  21.463 -18.701  1.00  0.00    -0.324 N 
ATOM      7  H2  UNL     1     -46.210  20.629 -19.179  1.00  0.00     0.169 HD
HETATM    8  C6  UNL     1     -46.089  21.596 -17.353  1.00  0.00     0.150 A 
HETATM    9  C11 UNL     1     -45.611  22.730 -16.748  1.00  0.00     0.151 A 
HETATM   10  N6  UNL     1     -44.937  23.686 -17.509  1.00  0.00    -0.336 N 
ATOM     11  H6  UNL     1     -44.587  24.526 -17.046  1.00  0.00     0.168 HD
HETATM   12  C21 UNL     1     -44.735  23.543 -18.809  1.00  0.00     0.080 A 
HETATM   13  C22 UNL     1     -44.066  24.486 -19.576  1.00  0.00     0.055 A 
ENDROOT
BRANCH   1  14
HETATM   14  C2  UNL     1     -43.159  25.328 -21.708  1.00  0.00    -0.066 C 
HETATM   15  C1  UNL     1     -42.572  26.172 -22.343  1.00  0.00    -0.099 C 
BRANCH  15  16
HETATM   16  C23 UNL     1     -41.847  27.199 -23.092  1.00  0.00     0.114 C 
BRANCH  16  17
HETATM   17  C24 UNL     1     -41.401  28.333 -22.180  1.00  0.00     0.142 C 
BRANCH  17  18
HETATM   18  N7  UNL     1     -40.908  27.805 -20.917  1.00  0.00    -0.339 N 
HETATM   19  C25 UNL     1     -39.774  27.126 -20.687  1.00  0.00     0.185 A 
HETATM   20  N8  UNL     1     -39.686  26.815 -19.370  1.00  0.00    -0.337 N 
HETATM   21  C26 UNL     1     -40.790  27.306 -18.739  1.00  0.00     0.133 A 
ATOM     22  H8  UNL     1     -38.924  26.301 -18.928  1.00  0.00     0.168 HD
HETATM   23  N9  UNL     1     -41.414  27.416 -17.549  1.00  0.00    -0.350 N 
HETATM   24  C29 UNL     1     -41.526  27.915 -19.734  1.00  0.00     0.081 A 
HETATM   25  C27 UNL     1     -42.543  28.096 -17.794  1.00  0.00     0.092 A 
ATOM     26  H9  UNL     1     -41.094  27.058 -16.650  1.00  0.00     0.166 HD
HETATM   27  C28 UNL     1     -42.650  28.420 -19.119  1.00  0.00     0.050 A 
ENDBRANCH  17  18
ENDBRANCH  16  17
ENDBRANCH  15  16
ENDBRANCH   1  14
BRANCH   9  28
HETATM   28  N4  UNL     1     -45.706  22.974 -15.554  1.00  0.00    -0.339 N 
ATOM     29  H4  UNL     1     -46.246  22.193 -15.183  1.00  0.00     0.167 HD
BRANCH  28  30
HETATM   30  C12 UNL     1     -45.466  23.735 -14.494  1.00  0.00     0.034 A 
HETATM   31  C13 UNL     1     -46.460  24.591 -13.994  1.00  0.00     0.030 A 
HETATM   32  C14 UNL     1     -46.249  25.400 -12.912  1.00  0.00     0.016 A 
HETATM   33  C15 UNL     1     -45.032  25.385 -12.287  1.00  0.00    -0.010 A 
HETATM   34  C16 UNL     1     -44.827  26.204 -11.194  1.00  0.00     0.099 A 
HETATM   35  C19 UNL     1     -44.007  24.562 -12.732  1.00  0.00    -0.021 A 
HETATM   36  N5  UNL     1     -43.628  26.182 -10.588  1.00  0.00    -0.374 N 
HETATM   37  C17 UNL     1     -42.617  25.397 -10.994  1.00  0.00     0.088 A 
ATOM     38  H5  UNL     1     -43.478  26.789  -9.781  1.00  0.00     0.164 HD
HETATM   39  C18 UNL     1     -42.793  24.577 -12.071  1.00  0.00     0.029 A 
HETATM   40  C20 UNL     1     -44.250  23.763 -13.819  1.00  0.00     0.042 A 
ENDBRANCH  28  30
ENDBRANCH   9  28
BRANCH   8  41
HETATM   41  N3  UNL     1     -46.810  20.570 -16.707  1.00  0.00    -0.360 N 
HETATM   42  C7  UNL     1     -48.163  20.179 -16.955  1.00  0.00     0.151 C 
HETATM   43  C8  UNL     1     -48.248  18.649 -17.060  1.00  0.00     0.187 C 
HETATM   44  O1  UNL     1     -46.952  18.173 -17.203  1.00  0.00    -0.388 OA
HETATM   45  C9  UNL     1     -46.337  18.314 -15.930  1.00  0.00     0.187 C 
HETATM   46  C10 UNL     1     -46.065  19.795 -15.682  1.00  0.00     0.151 C 
ENDBRANCH   8  41
TORSDOF 7
ENDMDL
MODEL 2
REMARK VINA RESULT: -9.769339921      1.834      2.702
REMARK  7 active torsions:
REMARK  status: ('A' for Active; 'I' for Inactive)
REMARK    1  A    between atoms: C1_1  and  C23_35 
REMARK    2  A    between atoms: C2_2  and  C3_3 
REMARK    3  A    between atoms: C6_10  and  N3_11 
REMARK    4  A    between atoms: C11_17  and  N4_18 
REMARK    5  A    between atoms: N4_18  and  C12_20 
REMARK    6  A    between atoms: C23_35  and  C24_36 
REMARK    7  A    between atoms: C24_36  and  N7_37 
ROOT
HETATM    1  C3  UNL     1     -42.497  24.958 -20.218  1.00  0.00     0.035 A 
HETATM    2  C4  UNL     1     -43.241  24.060 -20.955  1.00  0.00     0.110 A 
HETATM    3  N1  UNL     1     -44.208  23.314 -20.405  1.00  0.00    -0.349 N 
ATOM      4  H1  UNL     1     -44.723  22.670 -21.005  1.00  0.00     0.167 HD
HETATM    5  C5  UNL     1     -44.536  23.373 -19.095  1.00  0.00     0.134 A 
HETATM    6  N2  UNL     1     -45.511  22.611 -18.578  1.00  0.00    -0.324 N 
ATOM      7  H2  UNL     1     -46.014  21.969 -19.191  1.00  0.00     0.169 HD
HETATM    8  C6  UNL     1     -45.850  22.667 -17.250  1.00  0.00     0.150 A 
HETATM    9  C11 UNL     1     -45.146  23.540 -16.459  1.00  0.00     0.151 A 
HETATM   10  N6  UNL     1     -44.137  24.322 -17.023  1.00  0.00    -0.336 N 
ATOM     11  H6  UNL     1     -43.622  24.967 -16.424  1.00  0.00     0.168 HD
HETATM   12  C21 UNL     1     -43.824  24.256 -18.307  1.00  0.00     0.080 A 
HETATM   13  C22 UNL     1     -42.823  25.028 -18.880  1.00  0.00     0.055 A 
ENDROOT
BRANCH   1  14
HETATM   14  C2  UNL     1     -41.454  25.769 -20.791  1.00  0.00    -0.066 C 
HETATM   15  C1  UNL     1     -40.592  26.465 -21.273  1.00  0.00    -0.099 C 
BRANCH  15  16
HETATM   16  C23 UNL     1     -39.559  27.329 -21.846  1.00  0.00     0.114 C 
BRANCH  16  17
HETATM   17  C24 UNL     1     -39.843  27.630 -23.310  1.00  0.00     0.142 C 
BRANCH  17  18
HETATM   18  N7  UNL     1     -40.446  28.948 -23.450  1.00  0.00    -0.339 N 
HETATM   19  C25 UNL     1     -39.840  30.112 -23.728  1.00  0.00     0.185 A 
HETATM   20  N8  UNL     1     -40.760  31.107 -23.772  1.00  0.00    -0.337 N 
HETATM   21  C26 UNL     1     -41.986  30.569 -23.516  1.00  0.00     0.133 A 
ATOM     22  H8  UNL     1     -40.567  32.090 -23.963  1.00  0.00     0.168 HD
HETATM   23  N9  UNL     1     -43.298  30.846 -23.385  1.00  0.00    -0.350 N 
HETATM   24  C29 UNL     1     -41.750  29.224 -23.321  1.00  0.00     0.081 A 
HETATM   25  C27 UNL     1     -43.889  29.676 -23.108  1.00  0.00     0.092 A 
ATOM     26  H9  UNL     1     -43.748  31.757 -23.477  1.00  0.00     0.166 HD
HETATM   27  C28 UNL     1     -42.978  28.657 -23.060  1.00  0.00     0.050 A 
ENDBRANCH  17  18
ENDBRANCH  16  17
ENDBRANCH  15  16
ENDBRANCH   1  14
BRANCH   9  28
HETATM   28  N4  UNL     1     -45.315  23.680 -15.257  1.00  0.00    -0.339 N 
ATOM     29  H4  UNL     1     -45.908  22.893 -14.996  1.00  0.00     0.167 HD
BRANCH  28  30
HETATM   30  C12 UNL     1     -45.123  24.333 -14.118  1.00  0.00     0.034 A 
HETATM   31  C13 UNL     1     -46.144  25.124 -13.570  1.00  0.00     0.030 A 
HETATM   32  C14 UNL     1     -45.982  25.821 -12.405  1.00  0.00     0.016 A 
HETATM   33  C15 UNL     1     -44.787  25.755 -11.742  1.00  0.00    -0.010 A 
HETATM   34  C16 UNL     1     -44.631  26.461 -10.566  1.00  0.00     0.099 A 
HETATM   35  C19 UNL     1     -43.737  24.992 -12.230  1.00  0.00    -0.021 A 
HETATM   36  N5  UNL     1     -43.453  26.390  -9.922  1.00  0.00    -0.374 N 
HETATM   37  C17 UNL     1     -42.418  25.660 -10.369  1.00  0.00     0.088 A 
ATOM     38  H5  UNL     1     -43.340  26.914  -9.054  1.00  0.00     0.164 HD
HETATM   39  C18 UNL     1     -42.546  24.952 -11.529  1.00  0.00     0.029 A 
HETATM   40  C20 UNL     1     -43.931  24.304 -13.401  1.00  0.00     0.042 A 
ENDBRANCH  28  30
ENDBRANCH   9  28
BRANCH   8  41
HETATM   41  N3  UNL     1     -46.910  21.845 -16.813  1.00  0.00    -0.360 N 
HETATM   42  C7  UNL     1     -48.257  22.243 -16.551  1.00  0.00     0.151 C 
HETATM   43  C8  UNL     1     -49.227  21.245 -17.201  1.00  0.00     0.187 C 
HETATM   44  O1  UNL     1     -48.490  20.477 -18.093  1.00  0.00    -0.388 OA
HETATM   45  C9  UNL     1     -47.703  19.598 -17.302  1.00  0.00     0.187 C 
HETATM   46  C10 UNL     1     -46.589  20.405 -16.640  1.00  0.00     0.151 C 
ENDBRANCH   8  41
TORSDOF 7
ENDMDL
MODEL 3
REMARK VINA RESULT: -9.689089441      1.935      3.007
REMARK  7 active torsions:
REMARK  status: ('A' for Active; 'I' for Inactive)
REMARK    1  A    between atoms: C1_1  and  C23_35 
REMARK    2  A    between atoms: C2_2  and  C3_3 
REMARK    3  A    between atoms: C6_10  and  N3_11 
REMARK    4  A    between atoms: C11_17  and  N4_18 
REMARK    5  A    between atoms: N4_18  and  C12_20 
REMARK    6  A    between atoms: C23_35  and  C24_36 
REMARK    7  A    between atoms: C24_36  and  N7_37 
ROOT
HETATM    1  C3  UNL     1     -42.509  24.953 -20.197  1.00  0.00     0.035 A 
HETATM    2  C4  UNL     1     -43.248  24.046 -20.928  1.00  0.00     0.110 A 
HETATM    3  N1  UNL     1     -44.208  23.295 -20.372  1.00  0.00    -0.349 N 
ATOM      4  H1  UNL     1     -44.719  22.644 -20.968  1.00  0.00     0.167 HD
HETATM    5  C5  UNL     1     -44.534  23.359 -19.062  1.00  0.00     0.134 A 
HETATM    6  N2  UNL     1     -45.502  22.592 -18.539  1.00  0.00    -0.324 N 
ATOM      7  H2  UNL     1     -46.002  21.943 -19.148  1.00  0.00     0.169 HD
HETATM    8  C6  UNL     1     -45.839  22.653 -17.210  1.00  0.00     0.150 A 
HETATM    9  C11 UNL     1     -45.140  23.536 -16.426  1.00  0.00     0.151 A 
HETATM   10  N6  UNL     1     -44.138  24.322 -16.996  1.00  0.00    -0.336 N 
ATOM     11  H6  UNL     1     -43.627  24.975 -16.401  1.00  0.00     0.168 HD
HETATM   12  C21 UNL     1     -43.827  24.252 -18.280  1.00  0.00     0.080 A 
HETATM   13  C22 UNL     1     -42.833  25.028 -18.859  1.00  0.00     0.055 A 
ENDROOT
BRANCH   1  14
HETATM   14  C2  UNL     1     -41.474  25.769 -20.777  1.00  0.00    -0.066 C 
HETATM   15  C1  UNL     1     -40.619  26.465 -21.273  1.00  0.00    -0.099 C 
BRANCH  15  16
HETATM   16  C23 UNL     1     -39.601  27.326 -21.875  1.00  0.00     0.114 C 
BRANCH  16  17
HETATM   17  C24 UNL     1     -39.889  27.573 -23.348  1.00  0.00     0.142 C 
BRANCH  17  18
HETATM   18  N7  UNL     1     -40.860  28.647 -23.503  1.00  0.00    -0.339 N 
HETATM   19  C25 UNL     1     -42.198  28.568 -23.467  1.00  0.00     0.185 A 
HETATM   20  N8  UNL     1     -42.734  29.799 -23.654  1.00  0.00    -0.337 N 
HETATM   21  C26 UNL     1     -41.716  30.691 -23.814  1.00  0.00     0.133 A 
ATOM     22  H8  UNL     1     -43.730  30.020 -23.672  1.00  0.00     0.168 HD
HETATM   23  N9  UNL     1     -41.418  31.988 -24.027  1.00  0.00    -0.350 N 
HETATM   24  C29 UNL     1     -40.565  29.937 -23.714  1.00  0.00     0.081 A 
HETATM   25  C27 UNL     1     -40.080  32.051 -24.060  1.00  0.00     0.092 A 
ATOM     26  H9  UNL     1     -42.074  32.760 -24.139  1.00  0.00     0.166 HD
HETATM   27  C28 UNL     1     -39.519  30.818 -23.872  1.00  0.00     0.050 A 
ENDBRANCH  17  18
ENDBRANCH  16  17
ENDBRANCH  15  16
ENDBRANCH   1  14
BRANCH   9  28
HETATM   28  N4  UNL     1     -45.308  23.681 -15.224  1.00  0.00    -0.339 N 
ATOM     29  H4  UNL     1     -45.895  22.890 -14.957  1.00  0.00     0.167 HD
BRANCH  28  30
HETATM   30  C12 UNL     1     -45.118  24.341 -14.089  1.00  0.00     0.034 A 
HETATM   31  C13 UNL     1     -46.146  25.126 -13.543  1.00  0.00     0.030 A 
HETATM   32  C14 UNL     1     -45.987  25.831 -12.382  1.00  0.00     0.016 A 
HETATM   33  C15 UNL     1     -44.789  25.778 -11.721  1.00  0.00    -0.010 A 
HETATM   34  C16 UNL     1     -44.636  26.492 -10.549  1.00  0.00     0.099 A 
HETATM   35  C19 UNL     1     -43.734  25.021 -12.208  1.00  0.00    -0.021 A 
HETATM   36  N5  UNL     1     -43.456  26.434  -9.908  1.00  0.00    -0.374 N 
HETATM   37  C17 UNL     1     -42.416  25.711 -10.354  1.00  0.00     0.088 A 
ATOM     38  H5  UNL     1     -43.345  26.964  -9.043  1.00  0.00     0.164 HD
HETATM   39  C18 UNL     1     -42.541  24.996 -11.510  1.00  0.00     0.029 A 
HETATM   40  C20 UNL     1     -43.925  24.326 -13.375  1.00  0.00     0.042 A 
ENDBRANCH  28  30
ENDBRANCH   9  28
BRANCH   8  41
HETATM   41  N3  UNL     1     -46.891  21.825 -16.767  1.00  0.00    -0.360 N 
HETATM   42  C7  UNL     1     -48.234  22.219 -16.477  1.00  0.00     0.151 C 
HETATM   43  C8  UNL     1     -49.215  21.230 -17.125  1.00  0.00     0.187 C 
HETATM   44  O1  UNL     1     -48.494  20.475 -18.039  1.00  0.00    -0.388 OA
HETATM   45  C9  UNL     1     -47.693  19.585 -17.273  1.00  0.00     0.187 C 
HETATM   46  C10 UNL     1     -46.568  20.382 -16.620  1.00  0.00     0.151 C 
ENDBRANCH   8  41
TORSDOF 7
ENDMDL
MODEL 4
REMARK VINA RESULT: -9.638841927      0.693      1.412
REMARK  7 active torsions:
REMARK  status: ('A' for Active; 'I' for Inactive)
REMARK    1  A    between atoms: C1_1  and  C23_35 
REMARK    2  A    between atoms: C2_2  and  C3_3 
REMARK    3  A    between atoms: C6_10  and  N3_11 
REMARK    4  A    between atoms: C11_17  and  N4_18 
REMARK    5  A    between atoms: N4_18  and  C12_20 
REMARK    6  A    between atoms: C23_35  and  C24_36 
REMARK    7  A    between atoms: C24_36  and  N7_37 
ROOT
HETATM    1  C3  UNL     1     -43.912  24.296 -20.876  1.00  0.00     0.035 A 
HETATM    2  C4  UNL     1     -44.314  23.096 -21.426  1.00  0.00     0.110 A 
HETATM    3  N1  UNL     1     -44.955  22.163 -20.710  1.00  0.00    -0.349 N 
ATOM      4  H1  UNL     1     -45.226  21.297 -21.176  1.00  0.00     0.167 HD
HETATM    5  C5  UNL     1     -45.262  22.313 -19.402  1.00  0.00     0.134 A 
HETATM    6  N2  UNL     1     -45.906  21.357 -18.717  1.00  0.00    -0.324 N 
ATOM      7  H2  UNL     1     -46.168  20.495 -19.196  1.00  0.00     0.169 HD
HETATM    8  C6  UNL     1     -46.222  21.503 -17.389  1.00  0.00     0.150 A 
HETATM    9  C11 UNL     1     -45.849  22.675 -16.781  1.00  0.00     0.151 A 
HETATM   10  N6  UNL     1     -45.180  23.652 -17.518  1.00  0.00    -0.336 N 
ATOM     11  H6  UNL     1     -44.909  24.519 -17.053  1.00  0.00     0.168 HD
HETATM   12  C21 UNL     1     -44.885  23.496 -18.798  1.00  0.00     0.080 A 
HETATM   13  C22 UNL     1     -44.220  24.460 -19.542  1.00  0.00     0.055 A 
ENDROOT
BRANCH   1  14
HETATM   14  C2  UNL     1     -43.221  25.311 -21.629  1.00  0.00    -0.066 C 
HETATM   15  C1  UNL     1     -42.635  26.170 -22.244  1.00  0.00    -0.099 C 
BRANCH  15  16
HETATM   16  C23 UNL     1     -41.906  27.212 -22.969  1.00  0.00     0.114 C 
BRANCH  16  17
HETATM   17  C24 UNL     1     -41.451  28.320 -22.032  1.00  0.00     0.142 C 
BRANCH  17  18
HETATM   18  N7  UNL     1     -40.934  27.756 -20.793  1.00  0.00    -0.339 N 
HETATM   19  C25 UNL     1     -39.764  27.134 -20.589  1.00  0.00     0.185 A 
HETATM   20  N8  UNL     1     -39.665  26.760 -19.289  1.00  0.00    -0.337 N 
HETATM   21  C26 UNL     1     -40.800  27.153 -18.642  1.00  0.00     0.133 A 
ATOM     22  H8  UNL     1     -38.878  26.269 -18.867  1.00  0.00     0.168 HD
HETATM   23  N9  UNL     1     -41.435  27.166 -17.454  1.00  0.00    -0.350 N 
HETATM   24  C29 UNL     1     -41.565  27.769 -19.611  1.00  0.00     0.081 A 
HETATM   25  C27 UNL     1     -42.601  27.790 -17.674  1.00  0.00     0.092 A 
ATOM     26  H9  UNL     1     -41.100  26.780 -16.572  1.00  0.00     0.166 HD
HETATM   27  C28 UNL     1     -42.719  28.177 -18.980  1.00  0.00     0.050 A 
ENDBRANCH  17  18
ENDBRANCH  16  17
ENDBRANCH  15  16
ENDBRANCH   1  14
BRANCH   9  28
HETATM   28  N4  UNL     1     -46.036  22.936 -15.602  1.00  0.00    -0.339 N 
ATOM     29  H4  UNL     1     -46.668  22.202 -15.281  1.00  0.00     0.167 HD
BRANCH  28  30
HETATM   30  C12 UNL     1     -45.839  23.686 -14.525  1.00  0.00     0.034 A 
HETATM   31  C13 UNL     1     -44.779  23.406 -13.649  1.00  0.00     0.030 A 
HETATM   32  C14 UNL     1     -44.549  24.147 -12.522  1.00  0.00     0.016 A 
HETATM   33  C15 UNL     1     -45.373  25.199 -12.229  1.00  0.00    -0.010 A 
HETATM   34  C16 UNL     1     -45.133  25.943 -11.091  1.00  0.00     0.099 A 
HETATM   35  C19 UNL     1     -46.438  25.529 -13.054  1.00  0.00    -0.021 A 
HETATM   36  N5  UNL     1     -45.948  26.975 -10.811  1.00  0.00    -0.374 N 
HETATM   37  C17 UNL     1     -46.987  27.318 -11.590  1.00  0.00     0.088 A 
ATOM     38  H5  UNL     1     -45.770  27.522  -9.968  1.00  0.00     0.164 HD
HETATM   39  C18 UNL     1     -47.245  26.600 -12.721  1.00  0.00     0.029 A 
HETATM   40  C20 UNL     1     -46.642  24.766 -14.176  1.00  0.00     0.042 A 
ENDBRANCH  28  30
ENDBRANCH   9  28
BRANCH   8  41
HETATM   41  N3  UNL     1     -46.926  20.450 -16.768  1.00  0.00    -0.360 N 
HETATM   42  C7  UNL     1     -48.256  20.014 -17.059  1.00  0.00     0.151 C 
HETATM   43  C8  UNL     1     -48.284  18.482 -17.169  1.00  0.00     0.187 C 
HETATM   44  O1  UNL     1     -46.968  18.052 -17.274  1.00  0.00    -0.388 OA
HETATM   45  C9  UNL     1     -46.398  18.210 -15.982  1.00  0.00     0.187 C 
HETATM   46  C10 UNL     1     -46.186  19.699 -15.722  1.00  0.00     0.151 C 
ENDBRANCH   8  41
TORSDOF 7
ENDMDL
MODEL 5
REMARK VINA RESULT: -9.564182099      0.673      1.031
REMARK  7 active torsions:
REMARK  status: ('A' for Active; 'I' for Inactive)
REMARK    1  A    between atoms: C1_1  and  C23_35 
REMARK    2  A    between atoms: C2_2  and  C3_3 
REMARK    3  A    between atoms: C6_10  and  N3_11 
REMARK    4  A    between atoms: C11_17  and  N4_18 
REMARK    5  A    between atoms: N4_18  and  C12_20 
REMARK    6  A    between atoms: C23_35  and  C24_36 
REMARK    7  A    between atoms: C24_36  and  N7_37 
ROOT
HETATM    1  C3  UNL     1     -44.024  24.178 -21.072  1.00  0.00     0.035 A 
HETATM    2  C4  UNL     1     -44.604  23.046 -21.606  1.00  0.00     0.110 A 
HETATM    3  N1  UNL     1     -45.236  22.142 -20.846  1.00  0.00    -0.349 N 
ATOM      4  H1  UNL     1     -45.645  21.326 -21.302  1.00  0.00     0.167 HD
HETATM    5  C5  UNL     1     -45.361  22.258 -19.505  1.00  0.00     0.134 A 
HETATM    6  N2  UNL     1     -46.002  21.333 -18.775  1.00  0.00    -0.324 N 
ATOM      7  H2  UNL     1     -46.402  20.522 -19.246  1.00  0.00     0.169 HD
HETATM    8  C6  UNL     1     -46.134  21.446 -17.414  1.00  0.00     0.150 A 
HETATM    9  C11 UNL     1     -45.578  22.550 -16.819  1.00  0.00     0.151 A 
HETATM   10  N6  UNL     1     -44.917  23.496 -17.602  1.00  0.00    -0.336 N 
ATOM     11  H6  UNL     1     -44.508  24.313 -17.147  1.00  0.00     0.168 HD
HETATM   12  C21 UNL     1     -44.800  23.374 -18.915  1.00  0.00     0.080 A 
HETATM   13  C22 UNL     1     -44.145  24.307 -19.704  1.00  0.00     0.055 A 
ENDROOT
BRANCH   1  14
HETATM   14  C2  UNL     1     -43.341  25.161 -21.873  1.00  0.00    -0.066 C 
HETATM   15  C1  UNL     1     -42.755  25.990 -22.528  1.00  0.00    -0.099 C 
BRANCH  15  16
HETATM   16  C23 UNL     1     -42.026  26.991 -23.308  1.00  0.00     0.114 C 
BRANCH  16  17
HETATM   17  C24 UNL     1     -40.876  27.582 -22.506  1.00  0.00     0.142 C 
BRANCH  17  18
HETATM   18  N7  UNL     1     -41.370  28.170 -21.268  1.00  0.00    -0.339 N 
HETATM   19  C25 UNL     1     -42.008  29.337 -21.101  1.00  0.00     0.185 A 
HETATM   20  N8  UNL     1     -42.299  29.516 -19.789  1.00  0.00    -0.337 N 
HETATM   21  C26 UNL     1     -41.835  28.437 -19.096  1.00  0.00     0.133 A 
ATOM     22  H8  UNL     1     -42.781  30.321 -19.388  1.00  0.00     0.168 HD
HETATM   23  N9  UNL     1     -41.727  27.885 -17.872  1.00  0.00    -0.350 N 
HETATM   24  C29 UNL     1     -41.264  27.622 -20.051  1.00  0.00     0.081 A 
HETATM   25  C27 UNL     1     -41.089  26.721 -18.055  1.00  0.00     0.092 A 
ATOM     26  H9  UNL     1     -42.062  28.272 -16.990  1.00  0.00     0.166 HD
HETATM   27  C28 UNL     1     -40.788  26.521 -19.374  1.00  0.00     0.050 A 
ENDBRANCH  17  18
ENDBRANCH  16  17
ENDBRANCH  15  16
ENDBRANCH   1  14
BRANCH   9  28
HETATM   28  N4  UNL     1     -45.590  22.772 -15.617  1.00  0.00    -0.339 N 
ATOM     29  H4  UNL     1     -45.917  21.898 -15.205  1.00  0.00     0.167 HD
BRANCH  28  30
HETATM   30  C12 UNL     1     -45.396  23.569 -14.574  1.00  0.00     0.034 A 
HETATM   31  C13 UNL     1     -46.426  24.406 -14.118  1.00  0.00     0.030 A 
HETATM   32  C14 UNL     1     -46.263  25.250 -13.055  1.00  0.00     0.016 A 
HETATM   33  C15 UNL     1     -45.059  25.290 -12.405  1.00  0.00    -0.010 A 
HETATM   34  C16 UNL     1     -44.903  26.144 -11.331  1.00  0.00     0.099 A 
HETATM   35  C19 UNL     1     -44.001  24.488 -12.806  1.00  0.00    -0.021 A 
HETATM   36  N5  UNL     1     -43.717  26.177 -10.700  1.00  0.00    -0.374 N 
HETATM   37  C17 UNL     1     -42.674  25.413 -11.064  1.00  0.00     0.088 A 
ATOM     38  H5  UNL     1     -43.603  26.810  -9.908  1.00  0.00     0.164 HD
HETATM   39  C18 UNL     1     -42.802  24.559 -12.122  1.00  0.00     0.029 A 
HETATM   40  C20 UNL     1     -44.196  23.653 -13.876  1.00  0.00     0.042 A 
ENDBRANCH  28  30
ENDBRANCH   9  28
BRANCH   8  41
HETATM   41  N3  UNL     1     -46.851  20.433 -16.743  1.00  0.00    -0.360 N 
HETATM   42  C7  UNL     1     -48.200  20.028 -16.986  1.00  0.00     0.151 C 
HETATM   43  C8  UNL     1     -48.276  18.495 -17.050  1.00  0.00     0.187 C 
HETATM   44  O1  UNL     1     -46.976  18.023 -17.175  1.00  0.00    -0.388 OA
HETATM   45  C9  UNL     1     -46.367  18.202 -15.904  1.00  0.00     0.187 C 
HETATM   46  C10 UNL     1     -46.105  19.690 -15.694  1.00  0.00     0.151 C 
ENDBRANCH   8  41
TORSDOF 7
ENDMDL
