MODEL 1
REMARK VINA RESULT: -10.658312325      0.000      0.000
REMARK  13 active torsions:
REMARK  status: ('A' for Active; 'I' for Inactive)
REMARK    1  A    between atoms: N2_4  and  C1_6 
REMARK    2  A    between atoms: C1_6  and  N3_7 
REMARK    3  A    between atoms: N3_7  and  C2_9 
REMARK    4  A    between atoms: N5_16  and  C6_17 
REMARK    5  A    between atoms: C8_22  and  N7_23 
REMARK    6  A    between atoms: C10_25  and  C11_26 
REMARK    7  A    between atoms: C11_26  and  N8_27 
REMARK    8  A    between atoms: N8_27  and  C12_29 
REMARK    9  A    between atoms: C12_29  and  C13_30 
REMARK   10  A    between atoms: C12_29  and  C14_36 
REMARK   11  A    between atoms: N10_32  and  O2_34 
REMARK   12  A    between atoms: C15_41  and  N13_42 
REMARK   13  A    between atoms: C17_53  and  O4_54 
ROOT
HETATM    1  C6  UNL     1      58.893  40.872  53.838  1.00  0.00     0.337 C 
HETATM    2  N6  UNL     1      57.843  40.924  52.843  1.00  0.00    -0.049 N 
ATOM      3  H61 UNL     1      57.070  40.285  53.023  1.00  0.00     0.279 HD
ATOM      4  H62 UNL     1      58.109  40.533  51.939  1.00  0.00     0.279 HD
HETATM    5  C7  UNL     1      57.448  42.337  52.787  1.00  0.00     0.264 C 
HETATM    6  C8  UNL     1      57.596  42.854  54.165  1.00  0.00     0.167 C 
HETATM    7  C17 UNL     1      58.817  42.087  54.678  1.00  0.00     0.195 C 
ENDROOT
BRANCH   6   8
HETATM    8  N7  UNL     1      57.802  44.250  54.326  1.00  0.00    -0.278 N 
HETATM    9  C9  UNL     1      57.983  45.051  55.389  1.00  0.00     0.144 A 
HETATM   10  C10 UNL     1      58.128  46.313  54.900  1.00  0.00     0.082 A 
HETATM   11  N15 UNL     1      58.039  46.270  53.587  1.00  0.00    -0.284 N 
HETATM   12  N16 UNL     1      57.846  45.041  53.233  1.00  0.00    -0.240 N 
ATOM     13  H15 UNL     1      58.111  47.069  52.957  1.00  0.00     0.188 HD
ATOM     14  H16 UNL     1      57.741  44.718  52.271  1.00  0.00     0.208 HD
BRANCH  10  15
HETATM   15  C11 UNL     1      58.428  47.538  55.696  1.00  0.00     0.121 C 
BRANCH  15  16
HETATM   16  N8  UNL     1      58.346  47.304  57.056  1.00  0.00    -0.359 N 
ATOM     17  H8  UNL     1      57.418  47.132  57.443  1.00  0.00     0.165 HD
BRANCH  16  18
HETATM   18  C12 UNL     1      59.412  47.282  57.937  1.00  0.00     0.109 C 
BRANCH  18  19
HETATM   19  C13 UNL     1      60.618  46.672  57.385  1.00  0.00     0.165 C 
HETATM   20  N9  UNL     1      60.870  45.293  57.459  1.00  0.00    -0.078 NA
HETATM   21  N10 UNL     1      61.484  47.425  56.800  1.00  0.00    -0.253 N 
ATOM     22  H10 UNL     1      61.298  48.426  56.741  1.00  0.00     0.195 HD
BRANCH  21  23
HETATM   23  O2  UNL     1      62.623  46.949  56.260  1.00  0.00    -0.288 OA
ATOM     24  H2  UNL     1      62.878  47.112  55.359  1.00  0.00     0.244 HD
ENDBRANCH  21  23
ENDBRANCH  18  19
BRANCH  18  25
HETATM   25  C14 UNL     1      59.226  46.942  59.339  1.00  0.00     0.147 A 
HETATM   26  N11 UNL     1      59.807  47.492  60.391  1.00  0.00    -0.279 N 
HETATM   27  N12 UNL     1      59.657  47.177  61.638  1.00  0.00    -0.132 N 
ATOM     28  H11 UNL     1      60.452  48.259  60.197  1.00  0.00     0.188 HD
HETATM   29  C15 UNL     1      58.810  46.162  61.915  1.00  0.00     0.693 A 
ATOM     30  H12 UNL     1      60.155  47.673  62.377  1.00  0.00     0.205 HD
HETATM   31  N14 UNL     1      58.168  45.536  60.921  1.00  0.00    -0.153 N 
HETATM   32  C16 UNL     1      58.338  45.884  59.629  1.00  0.00     0.290 A 
ATOM     33  H14 UNL     1      57.531  44.772  61.148  1.00  0.00     0.187 HD
HETATM   34  O3  UNL     1      57.741  45.309  58.696  1.00  0.00    -0.265 OA
BRANCH  29  35
HETATM   35  N13 UNL     1      58.637  45.804  63.132  1.00  0.00    -0.233 N 
ATOM     36 2H13 UNL     1      57.698  45.647  63.499  1.00  0.00     0.174 HD
ATOM     37 1H13 UNL     1      59.449  45.668  63.734  1.00  0.00     0.174 HD
ENDBRANCH  29  35
ENDBRANCH  18  25
ENDBRANCH  16  18
ENDBRANCH  15  16
ENDBRANCH  10  15
ENDBRANCH   6   8
BRANCH   7  38
HETATM   38  O4  UNL     1      58.822  41.925  56.035  1.00  0.00    -0.389 OA
ATOM     39  H4  UNL     1      58.454  42.621  56.565  1.00  0.00     0.210 HD
ENDBRANCH   7  38
BRANCH   1  40
HETATM   40  N5  UNL     1      58.973  39.635  54.576  1.00  0.00    -0.160 N 
HETATM   41  C2  UNL     1      60.192  39.194  55.039  1.00  0.00     0.690 A 
HETATM   42  N4  UNL     1      60.331  38.070  55.758  1.00  0.00    -0.156 N 
HETATM   43  C3  UNL     1      59.234  37.324  56.048  1.00  0.00     0.260 A 
ATOM     44  H4  UNL     1      61.252  37.779  56.085  1.00  0.00     0.187 HD
HETATM   45  O1  UNL     1      59.386  36.260  56.734  1.00  0.00    -0.268 OA
HETATM   46  C4  UNL     1      58.008  37.741  55.597  1.00  0.00     0.092 A 
HETATM   47  C5  UNL     1      57.896  38.906  54.858  1.00  0.00     0.117 A 
BRANCH  41  48
HETATM   48  N3  UNL     1      61.178  39.945  54.733  1.00  0.00    -0.154 N 
ATOM     49  H3  UNL     1      61.230  40.174  53.741  1.00  0.00     0.184 HD
BRANCH  48  50
HETATM   50  C1  UNL     1      62.204  40.514  55.503  1.00  0.00     0.367 C 
HETATM   51  N17 UNL     1      63.002  39.415  56.096  1.00  0.00    -0.037 NA
HETATM   52  N18 UNL     1      64.274  39.991  56.247  1.00  0.00    -0.221 N 
HETATM   53  N19 UNL     1      64.387  40.990  55.471  1.00  0.00    -0.190 N 
ATOM     54  H18 UNL     1      64.999  39.656  56.883  1.00  0.00     0.206 HD
HETATM   55  O5  UNL     1      63.212  41.174  54.740  1.00  0.00    -0.189 OA
ATOM     56  H19 UNL     1      65.219  41.576  55.394  1.00  0.00     0.217 HD
BRANCH  50  57
HETATM   57  N2  UNL     1      61.778  41.316  56.591  1.00  0.00    -0.272 N 
HETATM   58  N1  UNL     1      61.808  42.553  56.402  1.00  0.00    -0.344 N 
ATOM     59  H12 UNL     1      62.122  42.943  55.513  1.00  0.00     0.176 HD
ATOM     60  H11 UNL     1      61.501  43.129  57.185  1.00  0.00     0.176 HD
ATOM     61  H2  UNL     1      61.466  40.910  57.473  1.00  0.00     0.186 HD
ENDBRANCH  50  57
ENDBRANCH  48  50
ENDBRANCH  41  48
ENDBRANCH   1  40
TORSDOF 13
ENDMDL
MODEL 2
REMARK VINA RESULT: -10.323095967      0.992      1.232
REMARK  13 active torsions:
REMARK  status: ('A' for Active; 'I' for Inactive)
REMARK    1  A    between atoms: N2_4  and  C1_6 
REMARK    2  A    between atoms: C1_6  and  N3_7 
REMARK    3  A    between atoms: N3_7  and  C2_9 
REMARK    4  A    between atoms: N5_16  and  C6_17 
REMARK    5  A    between atoms: C8_22  and  N7_23 
REMARK    6  A    between atoms: C10_25  and  C11_26 
REMARK    7  A    between atoms: C11_26  and  N8_27 
REMARK    8  A    between atoms: N8_27  and  C12_29 
REMARK    9  A    between atoms: C12_29  and  C13_30 
REMARK   10  A    between atoms: C12_29  and  C14_36 
REMARK   11  A    between atoms: N10_32  and  O2_34 
REMARK   12  A    between atoms: C15_41  and  N13_42 
REMARK   13  A    between atoms: C17_53  and  O4_54 
ROOT
HETATM    1  C6  UNL     1      58.751  40.693  53.974  1.00  0.00     0.337 C 
HETATM    2  N6  UNL     1      57.699  40.709  52.981  1.00  0.00    -0.049 N 
ATOM      3  H61 UNL     1      56.983  39.998  53.125  1.00  0.00     0.279 HD
ATOM      4  H62 UNL     1      57.995  40.390  52.058  1.00  0.00     0.279 HD
HETATM    5  C7  UNL     1      57.185  42.084  52.999  1.00  0.00     0.264 C 
HETATM    6  C8  UNL     1      57.292  42.538  54.403  1.00  0.00     0.167 C 
HETATM    7  C17 UNL     1      58.574  41.851  54.877  1.00  0.00     0.195 C 
ENDROOT
BRANCH   6   8
HETATM    8  N7  UNL     1      57.379  43.936  54.639  1.00  0.00    -0.278 N 
HETATM    9  C9  UNL     1      58.166  44.706  55.407  1.00  0.00     0.144 A 
HETATM   10  C10 UNL     1      57.762  45.991  55.207  1.00  0.00     0.082 A 
HETATM   11  N15 UNL     1      56.766  45.990  54.346  1.00  0.00    -0.284 N 
HETATM   12  N16 UNL     1      56.529  44.767  53.999  1.00  0.00    -0.240 N 
ATOM     13  H15 UNL     1      56.266  46.814  54.010  1.00  0.00     0.188 HD
ATOM     14  H16 UNL     1      55.808  44.474  53.340  1.00  0.00     0.208 HD
BRANCH  10  15
HETATM   15  C11 UNL     1      58.389  47.213  55.787  1.00  0.00     0.121 C 
BRANCH  15  16
HETATM   16  N8  UNL     1      58.218  47.281  57.157  1.00  0.00    -0.359 N 
ATOM     17  H8  UNL     1      57.328  47.646  57.496  1.00  0.00     0.165 HD
BRANCH  16  18
HETATM   18  C12 UNL     1      59.147  46.900  58.107  1.00  0.00     0.109 C 
BRANCH  18  19
HETATM   19  C13 UNL     1      60.484  46.679  57.566  1.00  0.00     0.165 C 
HETATM   20  N9  UNL     1      61.029  45.397  57.397  1.00  0.00    -0.078 NA
HETATM   21  N10 UNL     1      61.192  47.698  57.220  1.00  0.00    -0.253 N 
ATOM     22  H10 UNL     1      60.794  48.630  57.338  1.00  0.00     0.195 HD
BRANCH  21  23
HETATM   23  O2  UNL     1      62.435  47.589  56.711  1.00  0.00    -0.288 OA
ATOM     24  H2  UNL     1      63.166  48.116  57.012  1.00  0.00     0.244 HD
ENDBRANCH  21  23
ENDBRANCH  18  19
BRANCH  18  25
HETATM   25  C14 UNL     1      58.816  45.933  59.142  1.00  0.00     0.147 A 
HETATM   26  N11 UNL     1      58.547  44.647  58.994  1.00  0.00    -0.279 N 
HETATM   27  N12 UNL     1      58.233  43.790  59.913  1.00  0.00    -0.132 N 
ATOM     28  H11 UNL     1      58.593  44.286  58.041  1.00  0.00     0.188 HD
HETATM   29  C15 UNL     1      58.162  44.249  61.181  1.00  0.00     0.693 A 
ATOM     30  H12 UNL     1      58.047  42.812  59.689  1.00  0.00     0.205 HD
HETATM   31  N14 UNL     1      58.417  45.538  61.441  1.00  0.00    -0.153 N 
HETATM   32  C16 UNL     1      58.746  46.412  60.468  1.00  0.00     0.290 A 
ATOM     33  H14 UNL     1      58.361  45.868  62.404  1.00  0.00     0.187 HD
HETATM   34  O3  UNL     1      58.989  47.613  60.700  1.00  0.00    -0.265 OA
BRANCH  29  35
HETATM   35  N13 UNL     1      57.843  43.444  62.123  1.00  0.00    -0.233 N 
ATOM     36 2H13 UNL     1      57.803  42.438  61.957  1.00  0.00     0.174 HD
ATOM     37 1H13 UNL     1      57.633  43.816  63.050  1.00  0.00     0.174 HD
ENDBRANCH  29  35
ENDBRANCH  18  25
ENDBRANCH  16  18
ENDBRANCH  15  16
ENDBRANCH  10  15
ENDBRANCH   6   8
BRANCH   7  38
HETATM   38  O4  UNL     1      58.597  41.618  56.224  1.00  0.00    -0.389 OA
ATOM     39  H4  UNL     1      58.999  42.274  56.780  1.00  0.00     0.210 HD
ENDBRANCH   7  38
BRANCH   1  40
HETATM   40  N5  UNL     1      58.939  39.430  54.645  1.00  0.00    -0.160 N 
HETATM   41  C2  UNL     1      60.195  39.064  55.071  1.00  0.00     0.690 A 
HETATM   42  N4  UNL     1      60.431  37.918  55.729  1.00  0.00    -0.156 N 
HETATM   43  C3  UNL     1      59.400  37.074  55.991  1.00  0.00     0.260 A 
ATOM     44  H4  UNL     1      61.377  37.684  56.031  1.00  0.00     0.187 HD
HETATM   45  O1  UNL     1      59.644  35.992  56.618  1.00  0.00    -0.268 OA
HETATM   46  C4  UNL     1      58.139  37.417  55.574  1.00  0.00     0.092 A 
HETATM   47  C5  UNL     1      57.926  38.606  54.899  1.00  0.00     0.117 A 
BRANCH  41  48
HETATM   48  N3  UNL     1      61.115  39.904  54.796  1.00  0.00    -0.154 N 
ATOM     49  H3  UNL     1      61.118  40.208  53.822  1.00  0.00     0.184 HD
BRANCH  48  50
HETATM   50  C1  UNL     1      62.123  40.489  55.577  1.00  0.00     0.367 C 
HETATM   51  N17 UNL     1      62.910  39.402  56.206  1.00  0.00    -0.037 NA
HETATM   52  N18 UNL     1      64.178  39.982  56.374  1.00  0.00    -0.221 N 
HETATM   53  N19 UNL     1      64.306  40.968  55.583  1.00  0.00    -0.190 N 
ATOM     54  H18 UNL     1      64.889  39.660  57.031  1.00  0.00     0.206 HD
HETATM   55  O5  UNL     1      63.147  41.136  54.824  1.00  0.00    -0.189 OA
ATOM     56  H19 UNL     1      65.138  41.554  55.513  1.00  0.00     0.217 HD
BRANCH  50  57
HETATM   57  N2  UNL     1      61.673  41.308  56.641  1.00  0.00    -0.272 N 
HETATM   58  N1  UNL     1      61.571  42.529  56.384  1.00  0.00    -0.344 N 
ATOM     59  H12 UNL     1      61.803  42.895  55.461  1.00  0.00     0.176 HD
ATOM     60  H11 UNL     1      61.247  43.119  57.151  1.00  0.00     0.176 HD
ATOM     61  H2  UNL     1      61.445  40.927  57.560  1.00  0.00     0.186 HD
ENDBRANCH  50  57
ENDBRANCH  48  50
ENDBRANCH  41  48
ENDBRANCH   1  40
TORSDOF 13
ENDMDL
MODEL 3
REMARK VINA RESULT: -9.986422321      1.937      8.398
REMARK  13 active torsions:
REMARK  status: ('A' for Active; 'I' for Inactive)
REMARK    1  A    between atoms: N2_4  and  C1_6 
REMARK    2  A    between atoms: C1_6  and  N3_7 
REMARK    3  A    between atoms: N3_7  and  C2_9 
REMARK    4  A    between atoms: N5_16  and  C6_17 
REMARK    5  A    between atoms: C8_22  and  N7_23 
REMARK    6  A    between atoms: C10_25  and  C11_26 
REMARK    7  A    between atoms: C11_26  and  N8_27 
REMARK    8  A    between atoms: N8_27  and  C12_29 
REMARK    9  A    between atoms: C12_29  and  C13_30 
REMARK   10  A    between atoms: C12_29  and  C14_36 
REMARK   11  A    between atoms: N10_32  and  O2_34 
REMARK   12  A    between atoms: C15_41  and  N13_42 
REMARK   13  A    between atoms: C17_53  and  O4_54 
ROOT
HETATM    1  C6  UNL     1      58.547  45.158  57.193  1.00  0.00     0.337 C 
HETATM    2  N6  UNL     1      57.955  45.701  55.989  1.00  0.00    -0.049 N 
ATOM      3  H61 UNL     1      58.541  46.386  55.512  1.00  0.00     0.279 HD
ATOM      4  H62 UNL     1      57.165  46.324  56.161  1.00  0.00     0.279 HD
HETATM    5  C7  UNL     1      57.621  44.529  55.171  1.00  0.00     0.264 C 
HETATM    6  C8  UNL     1      58.676  43.529  55.447  1.00  0.00     0.167 C 
HETATM    7  C17 UNL     1      58.984  43.770  56.926  1.00  0.00     0.195 C 
ENDROOT
BRANCH   6   8
HETATM    8  N7  UNL     1      58.359  42.161  55.238  1.00  0.00    -0.278 N 
HETATM    9  C9  UNL     1      58.113  41.124  56.055  1.00  0.00     0.144 A 
HETATM   10  C10 UNL     1      57.868  40.051  55.253  1.00  0.00     0.082 A 
HETATM   11  N15 UNL     1      57.964  40.433  53.996  1.00  0.00    -0.284 N 
HETATM   12  N16 UNL     1      58.256  41.693  53.976  1.00  0.00    -0.240 N 
ATOM     13  H15 UNL     1      57.830  39.838  53.179  1.00  0.00     0.188 HD
ATOM     14  H16 UNL     1      58.388  42.249  53.132  1.00  0.00     0.208 HD
BRANCH  10  15
HETATM   15  C11 UNL     1      57.469  38.687  55.703  1.00  0.00     0.121 C 
BRANCH  15  16
HETATM   16  N8  UNL     1      58.523  38.003  56.278  1.00  0.00    -0.359 N 
ATOM     17  H8  UNL     1      58.397  37.672  57.234  1.00  0.00     0.165 HD
BRANCH  16  18
HETATM   18  C12 UNL     1      59.735  37.728  55.670  1.00  0.00     0.109 C 
BRANCH  18  19
HETATM   19  C13 UNL     1      60.145  36.332  55.782  1.00  0.00     0.165 C 
HETATM   20  N9  UNL     1      59.274  35.265  55.511  1.00  0.00    -0.078 NA
HETATM   21  N10 UNL     1      61.354  36.064  56.134  1.00  0.00    -0.253 N 
ATOM     22  H10 UNL     1      61.989  36.839  56.325  1.00  0.00     0.195 HD
BRANCH  21  23
HETATM   23  O2  UNL     1      61.820  34.806  56.261  1.00  0.00    -0.288 OA
ATOM     24  H2  UNL     1      62.744  34.601  56.343  1.00  0.00     0.244 HD
ENDBRANCH  21  23
ENDBRANCH  18  19
BRANCH  18  25
HETATM   25  C14 UNL     1      60.865  38.636  55.793  1.00  0.00     0.147 A 
HETATM   26  N11 UNL     1      61.522  38.968  56.891  1.00  0.00    -0.279 N 
HETATM   27  N12 UNL     1      62.516  39.790  57.005  1.00  0.00    -0.132 N 
ATOM     28  H11 UNL     1      61.209  38.521  57.754  1.00  0.00     0.188 HD
HETATM   29  C15 UNL     1      62.942  40.395  55.875  1.00  0.00     0.693 A 
ATOM     30  H12 UNL     1      62.956  39.973  57.906  1.00  0.00     0.205 HD
HETATM   31  N14 UNL     1      62.344  40.129  54.706  1.00  0.00    -0.153 N 
HETATM   32  C16 UNL     1      61.313  39.265  54.612  1.00  0.00     0.290 A 
ATOM     33  H14 UNL     1      62.680  40.593  53.862  1.00  0.00     0.187 HD
HETATM   34  O3  UNL     1      60.752  39.007  53.528  1.00  0.00    -0.265 OA
BRANCH  29  35
HETATM   35  N13 UNL     1      63.913  41.228  55.937  1.00  0.00    -0.233 N 
ATOM     36 2H13 UNL     1      64.289  41.521  56.839  1.00  0.00     0.174 HD
ATOM     37 1H13 UNL     1      64.315  41.592  55.073  1.00  0.00     0.174 HD
ENDBRANCH  29  35
ENDBRANCH  18  25
ENDBRANCH  16  18
ENDBRANCH  15  16
ENDBRANCH  10  15
ENDBRANCH   6   8
BRANCH   7  38
HETATM   38  O4  UNL     1      60.259  43.425  57.277  1.00  0.00    -0.389 OA
ATOM     39  H4  UNL     1      60.430  43.231  58.191  1.00  0.00     0.210 HD
ENDBRANCH   7  38
BRANCH   1  40
HETATM   40  N5  UNL     1      59.546  45.994  57.813  1.00  0.00    -0.160 N 
HETATM   41  C2  UNL     1      59.754  45.916  59.171  1.00  0.00     0.690 A 
HETATM   42  N4  UNL     1      60.688  46.642  59.804  1.00  0.00    -0.156 N 
HETATM   43  C3  UNL     1      61.467  47.496  59.090  1.00  0.00     0.260 A 
ATOM     44  H4  UNL     1      60.812  46.554  60.812  1.00  0.00     0.187 HD
HETATM   45  O1  UNL     1      62.349  48.175  59.709  1.00  0.00    -0.268 OA
HETATM   46  C4  UNL     1      61.277  47.592  57.735  1.00  0.00     0.092 A 
HETATM   47  C5  UNL     1      60.307  46.829  57.110  1.00  0.00     0.117 A 
BRANCH  41  48
HETATM   48  N3  UNL     1      58.990  45.093  59.778  1.00  0.00    -0.154 N 
ATOM     49  H3  UNL     1      58.548  44.410  59.163  1.00  0.00     0.184 HD
BRANCH  48  50
HETATM   50  C1  UNL     1      58.644  44.949  61.130  1.00  0.00     0.367 C 
HETATM   51  N17 UNL     1      59.889  44.752  61.908  1.00  0.00    -0.037 NA
HETATM   52  N18 UNL     1      59.561  45.269  63.172  1.00  0.00    -0.221 N 
HETATM   53  N19 UNL     1      58.573  46.060  63.068  1.00  0.00    -0.190 N 
ATOM     54  H18 UNL     1      60.043  45.043  64.043  1.00  0.00     0.206 HD
HETATM   55  O5  UNL     1      58.154  46.143  61.739  1.00  0.00    -0.189 OA
ATOM     56  H19 UNL     1      58.146  46.564  63.846  1.00  0.00     0.217 HD
BRANCH  50  57
HETATM   57  N2  UNL     1      57.815  43.841  61.434  1.00  0.00    -0.272 N 
HETATM   58  N1  UNL     1      57.485  43.124  60.462  1.00  0.00    -0.344 N 
ATOM     59  H12 UNL     1      57.802  43.339  59.517  1.00  0.00     0.176 HD
ATOM     60  H11 UNL     1      56.889  42.326  60.681  1.00  0.00     0.176 HD
ATOM     61  H2  UNL     1      57.506  43.640  62.385  1.00  0.00     0.186 HD
ENDBRANCH  50  57
ENDBRANCH  48  50
ENDBRANCH  41  48
ENDBRANCH   1  40
TORSDOF 13
ENDMDL
MODEL 4
REMARK VINA RESULT: -9.960698770      3.001      6.203
REMARK  13 active torsions:
REMARK  status: ('A' for Active; 'I' for Inactive)
REMARK    1  A    between atoms: N2_4  and  C1_6 
REMARK    2  A    between atoms: C1_6  and  N3_7 
REMARK    3  A    between atoms: N3_7  and  C2_9 
REMARK    4  A    between atoms: N5_16  and  C6_17 
REMARK    5  A    between atoms: C8_22  and  N7_23 
REMARK    6  A    between atoms: C10_25  and  C11_26 
REMARK    7  A    between atoms: C11_26  and  N8_27 
REMARK    8  A    between atoms: N8_27  and  C12_29 
REMARK    9  A    between atoms: C12_29  and  C13_30 
REMARK   10  A    between atoms: C12_29  and  C14_36 
REMARK   11  A    between atoms: N10_32  and  O2_34 
REMARK   12  A    between atoms: C15_41  and  N13_42 
REMARK   13  A    between atoms: C17_53  and  O4_54 
ROOT
HETATM    1  C6  UNL     1      57.230  40.530  54.118  1.00  0.00     0.337 C 
HETATM    2  N6  UNL     1      58.230  39.484  54.142  1.00  0.00    -0.049 N 
ATOM      3  H61 UNL     1      58.547  39.193  53.218  1.00  0.00     0.279 HD
ATOM      4  H62 UNL     1      57.871  38.574  54.434  1.00  0.00     0.279 HD
HETATM    5  C7  UNL     1      59.300  40.006  55.002  1.00  0.00     0.264 C 
HETATM    6  C8  UNL     1      59.332  41.466  54.766  1.00  0.00     0.167 C 
HETATM    7  C17 UNL     1      57.856  41.800  54.546  1.00  0.00     0.195 C 
ENDROOT
BRANCH   6   8
HETATM    8  N7  UNL     1      59.863  42.288  55.796  1.00  0.00    -0.278 N 
HETATM    9  C9  UNL     1      59.354  42.829  56.914  1.00  0.00     0.144 A 
HETATM   10  C10 UNL     1      60.367  43.527  57.500  1.00  0.00     0.082 A 
HETATM   11  N15 UNL     1      61.447  43.406  56.757  1.00  0.00    -0.284 N 
HETATM   12  N16 UNL     1      61.158  42.666  55.736  1.00  0.00    -0.240 N 
ATOM     13  H15 UNL     1      62.357  43.824  56.953  1.00  0.00     0.188 HD
ATOM     14  H16 UNL     1      61.811  42.408  54.997  1.00  0.00     0.208 HD
BRANCH  10  15
HETATM   15  C11 UNL     1      60.305  44.239  58.808  1.00  0.00     0.121 C 
BRANCH  15  16
HETATM   16  N8  UNL     1      60.925  45.473  58.756  1.00  0.00    -0.359 N 
ATOM     17  H8  UNL     1      61.945  45.482  58.791  1.00  0.00     0.165 HD
BRANCH  16  18
HETATM   18  C12 UNL     1      60.286  46.695  58.660  1.00  0.00     0.109 C 
BRANCH  18  19
HETATM   19  C13 UNL     1      59.411  46.990  59.791  1.00  0.00     0.165 C 
HETATM   20  N9  UNL     1      58.032  46.729  59.768  1.00  0.00    -0.078 NA
HETATM   21  N10 UNL     1      59.922  47.503  60.856  1.00  0.00    -0.253 N 
ATOM     22  H10 UNL     1      60.924  47.688  60.874  1.00  0.00     0.195 HD
BRANCH  21  23
HETATM   23  O2  UNL     1      59.191  47.807  61.947  1.00  0.00    -0.288 OA
ATOM     24  H2  UNL     1      59.035  47.190  62.653  1.00  0.00     0.244 HD
ENDBRANCH  21  23
ENDBRANCH  18  19
BRANCH  18  25
HETATM   25  C14 UNL     1      59.718  47.154  57.402  1.00  0.00     0.147 A 
HETATM   26  N11 UNL     1      58.454  47.103  57.016  1.00  0.00    -0.279 N 
HETATM   27  N12 UNL     1      57.951  47.494  55.889  1.00  0.00    -0.132 N 
ATOM     28  H11 UNL     1      57.796  46.709  57.688  1.00  0.00     0.188 HD
HETATM   29  C15 UNL     1      58.808  48.015  54.984  1.00  0.00     0.693 A 
ATOM     30  H12 UNL     1      56.954  47.412  55.693  1.00  0.00     0.205 HD
HETATM   31  N14 UNL     1      60.112  48.112  55.274  1.00  0.00    -0.153 N 
HETATM   32  C16 UNL     1      60.612  47.702  56.457  1.00  0.00     0.290 A 
ATOM     33  H14 UNL     1      60.745  48.510  54.581  1.00  0.00     0.187 HD
HETATM   34  O3  UNL     1      61.824  47.792  56.740  1.00  0.00    -0.265 OA
BRANCH  29  35
HETATM   35  N13 UNL     1      58.362  48.403  53.848  1.00  0.00    -0.233 N 
ATOM     36 2H13 UNL     1      57.886  49.301  53.756  1.00  0.00     0.174 HD
ATOM     37 1H13 UNL     1      58.492  47.809  53.029  1.00  0.00     0.174 HD
ENDBRANCH  29  35
ENDBRANCH  18  25
ENDBRANCH  16  18
ENDBRANCH  15  16
ENDBRANCH  10  15
ENDBRANCH   6   8
BRANCH   7  38
HETATM   38  O4  UNL     1      57.663  42.902  53.760  1.00  0.00    -0.389 OA
ATOM     39  H4  UNL     1      57.971  43.738  54.087  1.00  0.00     0.210 HD
ENDBRANCH   7  38
BRANCH   1  40
HETATM   40  N5  UNL     1      56.467  40.617  52.897  1.00  0.00    -0.160 N 
HETATM   41  C2  UNL     1      55.156  41.035  52.940  1.00  0.00     0.690 A 
HETATM   42  N4  UNL     1      54.401  41.168  51.838  1.00  0.00    -0.156 N 
HETATM   43  C3  UNL     1      54.937  40.881  50.624  1.00  0.00     0.260 A 
ATOM     44  H4  UNL     1      53.434  41.483  51.912  1.00  0.00     0.187 HD
HETATM   45  O1  UNL     1      54.205  41.015  49.589  1.00  0.00    -0.268 OA
HETATM   46  C4  UNL     1      56.241  40.461  50.555  1.00  0.00     0.092 A 
HETATM   47  C5  UNL     1      56.995  40.335  51.709  1.00  0.00     0.117 A 
BRANCH  41  48
HETATM   48  N3  UNL     1      54.719  41.291  54.111  1.00  0.00    -0.154 N 
ATOM     49  H3  UNL     1      55.018  40.620  54.819  1.00  0.00     0.184 HD
BRANCH  48  50
HETATM   50  C1  UNL     1      53.905  42.320  54.610  1.00  0.00     0.367 C 
HETATM   51  N17 UNL     1      54.705  43.566  54.645  1.00  0.00    -0.037 NA
HETATM   52  N18 UNL     1      53.735  44.572  54.496  1.00  0.00    -0.221 N 
HETATM   53  N19 UNL     1      52.687  44.081  53.973  1.00  0.00    -0.190 N 
ATOM     54  H18 UNL     1      53.854  45.548  54.767  1.00  0.00     0.206 HD
HETATM   55  O5  UNL     1      52.857  42.717  53.728  1.00  0.00    -0.189 OA
ATOM     56  H19 UNL     1      51.840  44.609  53.762  1.00  0.00     0.217 HD
BRANCH  50  57
HETATM   57  N2  UNL     1      53.422  42.131  55.929  1.00  0.00    -0.272 N 
HETATM   58  N1  UNL     1      54.291  41.901  56.800  1.00  0.00    -0.344 N 
ATOM     59  H12 UNL     1      55.281  41.855  56.559  1.00  0.00     0.176 HD
ATOM     60  H11 UNL     1      53.943  41.765  57.749  1.00  0.00     0.176 HD
ATOM     61  H2  UNL     1      52.429  42.179  56.154  1.00  0.00     0.186 HD
ENDBRANCH  50  57
ENDBRANCH  48  50
ENDBRANCH  41  48
ENDBRANCH   1  40
TORSDOF 13
ENDMDL
MODEL 5
REMARK VINA RESULT: -9.833456590      3.131      5.714
REMARK  13 active torsions:
REMARK  status: ('A' for Active; 'I' for Inactive)
REMARK    1  A    between atoms: N2_4  and  C1_6 
REMARK    2  A    between atoms: C1_6  and  N3_7 
REMARK    3  A    between atoms: N3_7  and  C2_9 
REMARK    4  A    between atoms: N5_16  and  C6_17 
REMARK    5  A    between atoms: C8_22  and  N7_23 
REMARK    6  A    between atoms: C10_25  and  C11_26 
REMARK    7  A    between atoms: C11_26  and  N8_27 
REMARK    8  A    between atoms: N8_27  and  C12_29 
REMARK    9  A    between atoms: C12_29  and  C13_30 
REMARK   10  A    between atoms: C12_29  and  C14_36 
REMARK   11  A    between atoms: N10_32  and  O2_34 
REMARK   12  A    between atoms: C15_41  and  N13_42 
REMARK   13  A    between atoms: C17_53  and  O4_54 
ROOT
HETATM    1  C6  UNL     1      57.241  40.584  54.213  1.00  0.00     0.337 C 
HETATM    2  N6  UNL     1      57.845  39.308  54.536  1.00  0.00    -0.049 N 
ATOM      3  H61 UNL     1      57.982  38.699  53.730  1.00  0.00     0.279 HD
ATOM      4  H62 UNL     1      57.230  38.679  55.054  1.00  0.00     0.279 HD
HETATM    5  C7  UNL     1      59.084  39.647  55.246  1.00  0.00     0.264 C 
HETATM    6  C8  UNL     1      59.575  40.898  54.629  1.00  0.00     0.167 C 
HETATM    7  C17 UNL     1      58.277  41.637  54.298  1.00  0.00     0.195 C 
ENDROOT
BRANCH   6   8
HETATM    8  N7  UNL     1      60.417  41.733  55.411  1.00  0.00    -0.278 N 
HETATM    9  C9  UNL     1      60.217  42.848  56.133  1.00  0.00     0.144 A 
HETATM   10  C10 UNL     1      61.426  43.186  56.661  1.00  0.00     0.082 A 
HETATM   11  N15 UNL     1      62.320  42.302  56.270  1.00  0.00    -0.284 N 
HETATM   12  N16 UNL     1      61.728  41.428  55.523  1.00  0.00    -0.240 N 
ATOM     13  H15 UNL     1      63.310  42.306  56.515  1.00  0.00     0.188 HD
ATOM     14  H16 UNL     1      62.183  40.628  55.085  1.00  0.00     0.208 HD
BRANCH  10  15
HETATM   15  C11 UNL     1      61.692  44.313  57.600  1.00  0.00     0.121 C 
BRANCH  15  16
HETATM   16  N8  UNL     1      60.573  45.100  57.795  1.00  0.00    -0.359 N 
ATOM     17  H8  UNL     1      60.017  45.330  56.972  1.00  0.00     0.165 HD
BRANCH  16  18
HETATM   18  C12 UNL     1      60.141  45.604  59.009  1.00  0.00     0.109 C 
BRANCH  18  19
HETATM   19  C13 UNL     1      61.143  46.410  59.700  1.00  0.00     0.165 C 
HETATM   20  N9  UNL     1      61.687  46.040  60.939  1.00  0.00    -0.078 NA
HETATM   21  N10 UNL     1      61.551  47.501  59.150  1.00  0.00    -0.253 N 
ATOM     22  H10 UNL     1      61.160  47.767  58.247  1.00  0.00     0.195 HD
BRANCH  21  23
HETATM   23  O2  UNL     1      62.473  48.306  59.714  1.00  0.00    -0.288 OA
ATOM     24  H2  UNL     1      63.330  48.458  59.333  1.00  0.00     0.244 HD
ENDBRANCH  21  23
ENDBRANCH  18  19
BRANCH  18  25
HETATM   25  C14 UNL     1      59.371  44.788  59.934  1.00  0.00     0.147 A 
HETATM   26  N11 UNL     1      59.638  44.529  61.203  1.00  0.00    -0.279 N 
HETATM   27  N12 UNL     1      58.963  43.787  62.022  1.00  0.00    -0.132 N 
ATOM     28  H11 UNL     1      60.477  44.968  61.583  1.00  0.00     0.188 HD
HETATM   29  C15 UNL     1      57.851  43.194  61.537  1.00  0.00     0.693 A 
ATOM     30  H12 UNL     1      59.257  43.657  62.990  1.00  0.00     0.205 HD
HETATM   31  N14 UNL     1      57.489  43.391  60.262  1.00  0.00    -0.153 N 
HETATM   32  C16 UNL     1      58.207  44.171  59.428  1.00  0.00     0.290 A 
ATOM     33  H14 UNL     1      56.646  42.937  59.912  1.00  0.00     0.187 HD
HETATM   34  O3  UNL     1      57.876  44.364  58.241  1.00  0.00    -0.265 OA
BRANCH  29  35
HETATM   35  N13 UNL     1      57.156  42.440  62.303  1.00  0.00    -0.233 N 
ATOM     36 2H13 UNL     1      57.212  41.424  62.223  1.00  0.00     0.174 HD
ATOM     37 1H13 UNL     1      56.548  42.863  63.004  1.00  0.00     0.174 HD
ENDBRANCH  29  35
ENDBRANCH  18  25
ENDBRANCH  16  18
ENDBRANCH  15  16
ENDBRANCH  10  15
ENDBRANCH   6   8
BRANCH   7  38
HETATM   38  O4  UNL     1      58.398  42.497  53.242  1.00  0.00    -0.389 OA
ATOM     39  H4  UNL     1      59.221  42.502  52.768  1.00  0.00     0.210 HD
ENDBRANCH   7  38
BRANCH   1  40
HETATM   40  N5  UNL     1      56.464  40.601  52.999  1.00  0.00    -0.160 N 
HETATM   41  C2  UNL     1      55.148  41.002  53.037  1.00  0.00     0.690 A 
HETATM   42  N4  UNL     1      54.379  41.071  51.939  1.00  0.00    -0.156 N 
HETATM   43  C3  UNL     1      54.905  40.733  50.733  1.00  0.00     0.260 A 
ATOM     44  H4  UNL     1      53.408  41.375  52.009  1.00  0.00     0.187 HD
HETATM   45  O1  UNL     1      54.160  40.807  49.702  1.00  0.00    -0.268 OA
HETATM   46  C4  UNL     1      56.214  40.329  50.670  1.00  0.00     0.092 A 
HETATM   47  C5  UNL     1      56.983  40.269  51.819  1.00  0.00     0.117 A 
BRANCH  41  48
HETATM   48  N3  UNL     1      54.720  41.307  54.200  1.00  0.00    -0.154 N 
ATOM     49  H3  UNL     1      55.050  40.685  54.937  1.00  0.00     0.184 HD
BRANCH  48  50
HETATM   50  C1  UNL     1      53.881  42.336  54.656  1.00  0.00     0.367 C 
HETATM   51  N17 UNL     1      54.666  43.592  54.688  1.00  0.00    -0.037 NA
HETATM   52  N18 UNL     1      53.690  44.583  54.492  1.00  0.00    -0.221 N 
HETATM   53  N19 UNL     1      52.662  44.071  53.950  1.00  0.00    -0.190 N 
ATOM     54  H18 UNL     1      53.791  45.566  54.747  1.00  0.00     0.206 HD
HETATM   55  O5  UNL     1      52.854  42.705  53.738  1.00  0.00    -0.189 OA
ATOM     56  H19 UNL     1      51.816  44.585  53.706  1.00  0.00     0.217 HD
BRANCH  50  57
HETATM   57  N2  UNL     1      53.364  42.167  55.964  1.00  0.00    -0.272 N 
HETATM   58  N1  UNL     1      54.210  41.963  56.863  1.00  0.00    -0.344 N 
ATOM     59  H12 UNL     1      55.207  41.924  56.650  1.00  0.00     0.176 HD
ATOM     60  H11 UNL     1      53.837  41.842  57.805  1.00  0.00     0.176 HD
ATOM     61  H2  UNL     1      52.364  42.209  56.160  1.00  0.00     0.186 HD
ENDBRANCH  50  57
ENDBRANCH  48  50
ENDBRANCH  41  48
ENDBRANCH   1  40
TORSDOF 13
ENDMDL
