MODEL 1
REMARK VINA RESULT: -8.789651436      0.000      0.000
REMARK  20 active torsions:
REMARK  status: ('A' for Active; 'I' for Inactive)
REMARK    1  A    between atoms: C2_2  and  N1_5 
REMARK    2  A    between atoms: N1_5  and  C5_8 
REMARK    3  A    between atoms: C5_8  and  O1_9 
REMARK    4  A    between atoms: C5_8  and  C6_11 
REMARK    5  A    between atoms: C9_15  and  C10_16 
REMARK    6  A    between atoms: C10_16  and  O3_17 
REMARK    7  A    between atoms: C10_16  and  O4_19 
REMARK    8  A    between atoms: C11_21  and  C12_22 
REMARK    9  A    between atoms: C12_22  and  O5_23 
REMARK   10  A    between atoms: O5_23  and  C13_24 
REMARK   11  A    between atoms: C14_26  and  O7_27 
REMARK   12  A    between atoms: C14_26  and  C15_29 
REMARK   13  A    between atoms: C15_29  and  O8_30 
REMARK   14  A    between atoms: C15_29  and  S1_32 
REMARK   15  A    between atoms: C16_36  and  O12_37 
REMARK   16  A    between atoms: C17_39  and  O13_40 
REMARK   17  A    between atoms: C18_42  and  O14_43 
REMARK   18  A    between atoms: C18_42  and  C19_45 
REMARK   19  A    between atoms: C19_45  and  O15_46 
REMARK   20  A    between atoms: O15_46  and  N2_47 
ROOT
HETATM    1  C13 UNL     1      59.207  44.435  59.178  1.00  0.00     0.303 C 
HETATM    2  O6  UNL     1      60.403  45.130  59.078  1.00  0.00    -0.316 OA
HETATM    3  C14 UNL     1      60.392  46.332  59.754  1.00  0.00     0.236 C 
HETATM    4  C16 UNL     1      59.097  46.689  60.410  1.00  0.00     0.216 C 
HETATM    5  C17 UNL     1      58.544  45.551  61.248  1.00  0.00     0.194 C 
HETATM    6  C18 UNL     1      58.940  44.235  60.673  1.00  0.00     0.159 C 
ENDROOT
BRANCH   1   7
HETATM    7  O5  UNL     1      58.145  45.002  58.545  1.00  0.00    -0.351 OA
BRANCH   7   8
HETATM    8  C12 UNL     1      57.681  44.442  57.401  1.00  0.00     0.237 C 
BRANCH   8   9
HETATM    9  C11 UNL     1      58.092  43.067  57.098  1.00  0.00     0.092 A 
HETATM   10  C9  UNL     1      57.157  42.044  57.293  1.00  0.00     0.078 A 
HETATM   11  C8  UNL     1      57.550  40.759  57.008  1.00  0.00     0.188 A 
HETATM   12  C7  UNL     1      58.805  40.529  56.558  1.00  0.00     0.092 A 
HETATM   13  O2  UNL     1      56.710  39.817  57.181  1.00  0.00    -0.288 OA
HETATM   14  C6  UNL     1      59.676  41.600  56.390  1.00  0.00     0.113 A 
HETATM   15  O16 UNL     1      59.288  42.801  56.662  1.00  0.00    -0.312 OA
BRANCH  10  16
HETATM   16  C10 UNL     1      55.776  42.307  57.786  1.00  0.00     0.294 C 
BRANCH  16  17
HETATM   17  O3  UNL     1      55.587  41.540  58.923  1.00  0.00    -0.367 OA
ATOM     18  H3  UNL     1      54.962  40.858  58.708  1.00  0.00     0.213 HD
ENDBRANCH  16  17
BRANCH  16  19
HETATM   19  O4  UNL     1      54.868  41.801  56.827  1.00  0.00    -0.367 OA
ATOM     20  H4  UNL     1      54.407  42.538  56.445  1.00  0.00     0.213 HD
ENDBRANCH  16  19
ENDBRANCH  10  16
BRANCH  14  21
HETATM   21  C5  UNL     1      61.031  41.215  55.888  1.00  0.00     0.378 C 
BRANCH  21  22
HETATM   22  N1  UNL     1      60.885  39.901  55.298  1.00  0.00    -0.035 N 
ATOM     23  H12 UNL     1      61.008  39.942  54.286  1.00  0.00     0.281 HD
ATOM     24  H11 UNL     1      59.914  39.592  55.335  1.00  0.00     0.281 HD
BRANCH  22  25
HETATM   25  C2  UNL     1      61.761  38.917  55.882  1.00  0.00     0.118 C 
HETATM   26  C1  UNL     1      61.053  37.967  56.801  1.00  0.00     0.045 C 
HETATM   27  C3  UNL     1      62.319  38.091  54.728  1.00  0.00     0.045 C 
HETATM   28  C4  UNL     1      62.926  39.517  56.609  1.00  0.00     0.045 C 
ENDBRANCH  22  25
ENDBRANCH  21  22
BRANCH  21  29
HETATM   29  O1  UNL     1      61.425  42.182  55.000  1.00  0.00    -0.365 OA
ATOM     30  H1  UNL     1      62.333  42.447  55.097  1.00  0.00     0.212 HD
ENDBRANCH  21  29
ENDBRANCH  14  21
ENDBRANCH   8   9
ENDBRANCH   7   8
ENDBRANCH   1   7
BRANCH   6  31
HETATM   31  O14 UNL     1      60.058  43.652  61.213  1.00  0.00    -0.380 OA
ATOM     32  H14 UNL     1      59.818  42.772  61.480  1.00  0.00     0.211 HD
ENDBRANCH   6  31
BRANCH   6  33
HETATM   33  C19 UNL     1      57.798  43.243  60.891  1.00  0.00     0.246 C 
BRANCH  33  34
HETATM   34  O15 UNL     1      57.628  43.203  62.293  1.00  0.00    -0.284 OA
BRANCH  34  35
HETATM   35  N2  UNL     1      56.547  42.450  62.610  1.00  0.00    -0.311 N 
ATOM     36  H22 UNL     1      56.115  41.774  61.980  1.00  0.00     0.184 HD
ATOM     37  H21 UNL     1      56.239  42.662  63.559  1.00  0.00     0.184 HD
ENDBRANCH  34  35
ENDBRANCH  33  34
ENDBRANCH   6  33
BRANCH   3  38
HETATM   38  O7  UNL     1      61.331  46.186  60.812  1.00  0.00    -0.360 OA
ATOM     39  H7  UNL     1      62.062  46.749  60.585  1.00  0.00     0.213 HD
ENDBRANCH   3  38
BRANCH   3  40
HETATM   40  C15 UNL     1      60.885  47.509  58.956  1.00  0.00     0.327 C 
BRANCH  40  41
HETATM   41  O8  UNL     1      62.032  48.052  59.562  1.00  0.00    -0.373 OA
ATOM     42  H8  UNL     1      62.643  48.345  58.896  1.00  0.00     0.211 HD
ENDBRANCH  40  41
BRANCH  40  43
HETATM   43  S1  UNL     1      61.307  47.008  57.282  1.00  0.00     0.137 S 
HETATM   44  O9  UNL     1      62.124  48.100  56.675  1.00  0.00    -0.593 OA
HETATM   45  O10 UNL     1      62.036  45.716  57.316  1.00  0.00    -0.593 OA
HETATM   46  O11 UNL     1      59.869  46.886  56.413  1.00  0.00    -0.593 OA
ENDBRANCH  40  43
ENDBRANCH   3  40
BRANCH   5  47
HETATM   47  O13 UNL     1      58.915  45.679  62.587  1.00  0.00    -0.389 OA
ATOM     48  H13 UNL     1      58.471  46.409  63.002  1.00  0.00     0.210 HD
ENDBRANCH   5  47
BRANCH   4  49
HETATM   49  O12 UNL     1      59.371  47.719  61.345  1.00  0.00    -0.387 OA
ATOM     50  H12 UNL     1      60.221  48.080  61.124  1.00  0.00     0.210 HD
ENDBRANCH   4  49
TORSDOF 20
ENDMDL
MODEL 2
REMARK VINA RESULT: -8.618210698      1.461      1.922
REMARK  20 active torsions:
REMARK  status: ('A' for Active; 'I' for Inactive)
REMARK    1  A    between atoms: C2_2  and  N1_5 
REMARK    2  A    between atoms: N1_5  and  C5_8 
REMARK    3  A    between atoms: C5_8  and  O1_9 
REMARK    4  A    between atoms: C5_8  and  C6_11 
REMARK    5  A    between atoms: C9_15  and  C10_16 
REMARK    6  A    between atoms: C10_16  and  O3_17 
REMARK    7  A    between atoms: C10_16  and  O4_19 
REMARK    8  A    between atoms: C11_21  and  C12_22 
REMARK    9  A    between atoms: C12_22  and  O5_23 
REMARK   10  A    between atoms: O5_23  and  C13_24 
REMARK   11  A    between atoms: C14_26  and  O7_27 
REMARK   12  A    between atoms: C14_26  and  C15_29 
REMARK   13  A    between atoms: C15_29  and  O8_30 
REMARK   14  A    between atoms: C15_29  and  S1_32 
REMARK   15  A    between atoms: C16_36  and  O12_37 
REMARK   16  A    between atoms: C17_39  and  O13_40 
REMARK   17  A    between atoms: C18_42  and  O14_43 
REMARK   18  A    between atoms: C18_42  and  C19_45 
REMARK   19  A    between atoms: C19_45  and  O15_46 
REMARK   20  A    between atoms: O15_46  and  N2_47 
ROOT
HETATM    1  C13 UNL     1      59.371  44.052  60.537  1.00  0.00     0.303 C 
HETATM    2  O6  UNL     1      60.418  44.389  59.692  1.00  0.00    -0.316 OA
HETATM    3  C14 UNL     1      60.250  45.611  59.075  1.00  0.00     0.236 C 
HETATM    4  C16 UNL     1      58.965  46.312  59.379  1.00  0.00     0.216 C 
HETATM    5  C17 UNL     1      58.681  46.373  60.868  1.00  0.00     0.194 C 
HETATM    6  C18 UNL     1      59.254  45.185  61.561  1.00  0.00     0.159 C 
ENDROOT
BRANCH   1   7
HETATM    7  O5  UNL     1      58.182  43.798  59.925  1.00  0.00    -0.351 OA
BRANCH   7   8
HETATM    8  C12 UNL     1      57.855  42.518  59.625  1.00  0.00     0.237 C 
BRANCH   8   9
HETATM    9  C11 UNL     1      58.115  42.048  58.260  1.00  0.00     0.092 A 
HETATM   10  C9  UNL     1      57.092  41.363  57.595  1.00  0.00     0.078 A 
HETATM   11  C8  UNL     1      57.345  40.924  56.319  1.00  0.00     0.188 A 
HETATM   12  C7  UNL     1      58.552  41.164  55.756  1.00  0.00     0.092 A 
HETATM   13  O2  UNL     1      56.423  40.298  55.701  1.00  0.00    -0.288 OA
HETATM   14  C6  UNL     1      59.518  41.852  56.483  1.00  0.00     0.113 A 
HETATM   15  O16 UNL     1      59.262  42.258  57.682  1.00  0.00    -0.312 OA
BRANCH  10  16
HETATM   16  C10 UNL     1      55.765  41.106  58.220  1.00  0.00     0.294 C 
BRANCH  16  17
HETATM   17  O3  UNL     1      55.586  39.734  58.270  1.00  0.00    -0.367 OA
ATOM     18  H3  UNL     1      55.399  39.437  57.387  1.00  0.00     0.213 HD
ENDBRANCH  16  17
BRANCH  16  19
HETATM   19  O4  UNL     1      54.769  41.590  57.341  1.00  0.00    -0.367 OA
ATOM     20  H4  UNL     1      54.142  40.891  57.195  1.00  0.00     0.213 HD
ENDBRANCH  16  19
ENDBRANCH  10  16
BRANCH  14  21
HETATM   21  C5  UNL     1      60.807  42.053  55.753  1.00  0.00     0.378 C 
BRANCH  21  22
HETATM   22  N1  UNL     1      61.149  40.770  55.176  1.00  0.00    -0.035 N 
ATOM     23  H12 UNL     1      61.401  40.870  54.193  1.00  0.00     0.281 HD
ATOM     24  H11 UNL     1      60.320  40.184  55.077  1.00  0.00     0.281 HD
BRANCH  22  25
HETATM   25  C2  UNL     1      62.183  40.079  55.903  1.00  0.00     0.118 C 
HETATM   26  C1  UNL     1      61.810  39.782  57.325  1.00  0.00     0.045 C 
HETATM   27  C3  UNL     1      62.385  38.738  55.205  1.00  0.00     0.045 C 
HETATM   28  C4  UNL     1      63.500  40.795  55.886  1.00  0.00     0.045 C 
ENDBRANCH  22  25
ENDBRANCH  21  22
BRANCH  21  29
HETATM   29  O1  UNL     1      60.599  43.041  54.825  1.00  0.00    -0.365 OA
ATOM     30  H1  UNL     1      61.350  43.608  54.693  1.00  0.00     0.212 HD
ENDBRANCH  21  29
ENDBRANCH  14  21
ENDBRANCH   8   9
ENDBRANCH   7   8
ENDBRANCH   1   7
BRANCH   6  31
HETATM   31  O14 UNL     1      60.492  45.356  62.125  1.00  0.00    -0.380 OA
ATOM     32  H14 UNL     1      60.835  46.185  61.810  1.00  0.00     0.211 HD
ENDBRANCH   6  31
BRANCH   6  33
HETATM   33  C19 UNL     1      58.319  44.788  62.704  1.00  0.00     0.246 C 
BRANCH  33  34
HETATM   34  O15 UNL     1      58.819  45.486  63.827  1.00  0.00    -0.284 OA
BRANCH  34  35
HETATM   35  N2  UNL     1      59.099  44.617  64.827  1.00  0.00    -0.311 N 
ATOM     36  H22 UNL     1      60.014  44.529  65.270  1.00  0.00     0.184 HD
ATOM     37  H21 UNL     1      58.268  44.075  65.063  1.00  0.00     0.184 HD
ENDBRANCH  34  35
ENDBRANCH  33  34
ENDBRANCH   6  33
BRANCH   3  38
HETATM   38  O7  UNL     1      61.276  46.448  59.596  1.00  0.00    -0.360 OA
ATOM     39  H7  UNL     1      60.832  47.097  60.128  1.00  0.00     0.213 HD
ENDBRANCH   3  38
BRANCH   3  40
HETATM   40  C15 UNL     1      60.472  45.603  57.587  1.00  0.00     0.327 C 
BRANCH  40  41
HETATM   41  O8  UNL     1      59.245  45.438  56.920  1.00  0.00    -0.373 OA
ATOM     42  H8  UNL     1      59.388  45.024  56.077  1.00  0.00     0.211 HD
ENDBRANCH  40  41
BRANCH  40  43
HETATM   43  S1  UNL     1      61.212  47.149  57.048  1.00  0.00     0.137 S 
HETATM   44  O9  UNL     1      62.400  46.814  56.208  1.00  0.00    -0.593 OA
HETATM   45  O10 UNL     1      60.208  47.950  56.305  1.00  0.00    -0.593 OA
HETATM   46  O11 UNL     1      61.755  47.957  58.423  1.00  0.00    -0.593 OA
ENDBRANCH  40  43
ENDBRANCH   3  40
BRANCH   5  47
HETATM   47  O13 UNL     1      59.122  47.576  61.421  1.00  0.00    -0.389 OA
ATOM     48  H13 UNL     1      58.407  48.058  61.819  1.00  0.00     0.210 HD
ENDBRANCH   5  47
BRANCH   4  49
HETATM   49  O12 UNL     1      59.125  47.667  58.991  1.00  0.00    -0.387 OA
ATOM     50  H12 UNL     1      58.888  48.202  59.738  1.00  0.00     0.210 HD
ENDBRANCH   4  49
TORSDOF 20
ENDMDL
MODEL 3
REMARK VINA RESULT: -8.617182171      2.277      4.113
REMARK  20 active torsions:
REMARK  status: ('A' for Active; 'I' for Inactive)
REMARK    1  A    between atoms: C2_2  and  N1_5 
REMARK    2  A    between atoms: N1_5  and  C5_8 
REMARK    3  A    between atoms: C5_8  and  O1_9 
REMARK    4  A    between atoms: C5_8  and  C6_11 
REMARK    5  A    between atoms: C9_15  and  C10_16 
REMARK    6  A    between atoms: C10_16  and  O3_17 
REMARK    7  A    between atoms: C10_16  and  O4_19 
REMARK    8  A    between atoms: C11_21  and  C12_22 
REMARK    9  A    between atoms: C12_22  and  O5_23 
REMARK   10  A    between atoms: O5_23  and  C13_24 
REMARK   11  A    between atoms: C14_26  and  O7_27 
REMARK   12  A    between atoms: C14_26  and  C15_29 
REMARK   13  A    between atoms: C15_29  and  O8_30 
REMARK   14  A    between atoms: C15_29  and  S1_32 
REMARK   15  A    between atoms: C16_36  and  O12_37 
REMARK   16  A    between atoms: C17_39  and  O13_40 
REMARK   17  A    between atoms: C18_42  and  O14_43 
REMARK   18  A    between atoms: C18_42  and  C19_45 
REMARK   19  A    between atoms: C19_45  and  O15_46 
REMARK   20  A    between atoms: O15_46  and  N2_47 
ROOT
HETATM    1  C13 UNL     1      58.581  45.828  58.260  1.00  0.00     0.303 C 
HETATM    2  O6  UNL     1      58.738  46.055  59.619  1.00  0.00    -0.316 OA
HETATM    3  C14 UNL     1      60.056  46.036  60.026  1.00  0.00     0.236 C 
HETATM    4  C16 UNL     1      61.053  45.722  58.957  1.00  0.00     0.216 C 
HETATM    5  C17 UNL     1      60.846  46.563  57.712  1.00  0.00     0.194 C 
HETATM    6  C18 UNL     1      59.405  46.899  57.539  1.00  0.00     0.159 C 
ENDROOT
BRANCH   1   7
HETATM    7  O5  UNL     1      58.896  44.574  57.834  1.00  0.00    -0.351 OA
BRANCH   7   8
HETATM    8  C12 UNL     1      58.239  44.053  56.770  1.00  0.00     0.237 C 
BRANCH   8   9
HETATM    9  C11 UNL     1      57.992  42.607  56.761  1.00  0.00     0.092 A 
HETATM   10  C9  UNL     1      57.092  42.089  57.700  1.00  0.00     0.078 A 
HETATM   11  C8  UNL     1      56.869  40.734  57.686  1.00  0.00     0.188 A 
HETATM   12  C7  UNL     1      57.511  39.959  56.782  1.00  0.00     0.092 A 
HETATM   13  O2  UNL     1      56.053  40.247  58.536  1.00  0.00    -0.288 OA
HETATM   14  C6  UNL     1      58.391  40.551  55.881  1.00  0.00     0.113 A 
HETATM   15  O16 UNL     1      58.588  41.827  55.909  1.00  0.00    -0.312 OA
BRANCH  10  16
HETATM   16  C10 UNL     1      56.386  42.949  58.690  1.00  0.00     0.294 C 
BRANCH  16  17
HETATM   17  O3  UNL     1      56.683  42.463  59.952  1.00  0.00    -0.367 OA
ATOM     18  H3  UNL     1      57.147  43.147  60.420  1.00  0.00     0.213 HD
ENDBRANCH  16  17
BRANCH  16  19
HETATM   19  O4  UNL     1      54.996  42.754  58.521  1.00  0.00    -0.367 OA
ATOM     20  H4  UNL     1      54.550  43.197  59.233  1.00  0.00     0.213 HD
ENDBRANCH  16  19
ENDBRANCH  10  16
BRANCH  14  21
HETATM   21  C5  UNL     1      59.038  39.590  54.936  1.00  0.00     0.378 C 
BRANCH  21  22
HETATM   22  N1  UNL     1      59.424  38.441  55.728  1.00  0.00    -0.035 N 
ATOM     23  H12 UNL     1      58.947  37.600  55.404  1.00  0.00     0.281 HD
ATOM     24  H11 UNL     1      59.035  38.502  56.669  1.00  0.00     0.281 HD
BRANCH  22  25
HETATM   25  C2  UNL     1      60.850  38.237  55.773  1.00  0.00     0.118 C 
HETATM   26  C1  UNL     1      61.562  38.768  54.566  1.00  0.00     0.045 C 
HETATM   27  C3  UNL     1      61.363  39.021  56.976  1.00  0.00     0.045 C 
HETATM   28  C4  UNL     1      61.237  36.803  55.974  1.00  0.00     0.045 C 
ENDBRANCH  22  25
ENDBRANCH  21  22
BRANCH  21  29
HETATM   29  O1  UNL     1      58.122  39.306  53.955  1.00  0.00    -0.365 OA
ATOM     30  H1  UNL     1      57.459  38.678  54.218  1.00  0.00     0.212 HD
ENDBRANCH  21  29
ENDBRANCH  14  21
ENDBRANCH   8   9
ENDBRANCH   7   8
ENDBRANCH   1   7
BRANCH   6  31
HETATM   31  O14 UNL     1      59.008  48.117  58.028  1.00  0.00    -0.380 OA
ATOM     32  H14 UNL     1      59.066  48.742  57.314  1.00  0.00     0.211 HD
ENDBRANCH   6  31
BRANCH   6  33
HETATM   33  C19 UNL     1      59.082  46.916  56.045  1.00  0.00     0.246 C 
BRANCH  33  34
HETATM   34  O15 UNL     1      60.163  47.613  55.459  1.00  0.00    -0.284 OA
BRANCH  34  35
HETATM   35  N2  UNL     1      59.839  48.001  54.202  1.00  0.00    -0.311 N 
ATOM     36  H22 UNL     1      59.098  48.666  53.981  1.00  0.00     0.184 HD
ATOM     37  H21 UNL     1      60.442  47.533  53.525  1.00  0.00     0.184 HD
ENDBRANCH  34  35
ENDBRANCH  33  34
ENDBRANCH   6  33
BRANCH   3  38
HETATM   38  O7  UNL     1      60.347  47.364  60.444  1.00  0.00    -0.360 OA
ATOM     39  H7  UNL     1      59.714  47.562  61.125  1.00  0.00     0.213 HD
ENDBRANCH   3  38
BRANCH   3  40
HETATM   40  C15 UNL     1      60.332  45.179  61.231  1.00  0.00     0.327 C 
BRANCH  40  41
HETATM   41  O8  UNL     1      61.445  45.679  61.930  1.00  0.00    -0.373 OA
ATOM     42  H8  UNL     1      61.283  46.576  62.198  1.00  0.00     0.211 HD
ENDBRANCH  40  41
BRANCH  40  43
HETATM   43  S1  UNL     1      58.918  45.169  62.340  1.00  0.00     0.137 S 
HETATM   44  O9  UNL     1      59.430  44.948  63.725  1.00  0.00    -0.593 OA
HETATM   45  O10 UNL     1      58.176  46.448  62.214  1.00  0.00    -0.593 OA
HETATM   46  O11 UNL     1      57.956  43.851  61.922  1.00  0.00    -0.593 OA
ENDBRANCH  40  43
ENDBRANCH   3  40
BRANCH   5  47
HETATM   47  O13 UNL     1      61.659  47.697  57.722  1.00  0.00    -0.389 OA
ATOM     48  H13 UNL     1      61.380  48.329  57.070  1.00  0.00     0.210 HD
ENDBRANCH   5  47
BRANCH   4  49
HETATM   49  O12 UNL     1      62.326  46.115  59.444  1.00  0.00    -0.387 OA
ATOM     50  H12 UNL     1      62.385  47.057  59.347  1.00  0.00     0.210 HD
ENDBRANCH   4  49
TORSDOF 20
ENDMDL
MODEL 4
REMARK VINA RESULT: -8.498308214      3.045      7.640
REMARK  20 active torsions:
REMARK  status: ('A' for Active; 'I' for Inactive)
REMARK    1  A    between atoms: C2_2  and  N1_5 
REMARK    2  A    between atoms: N1_5  and  C5_8 
REMARK    3  A    between atoms: C5_8  and  O1_9 
REMARK    4  A    between atoms: C5_8  and  C6_11 
REMARK    5  A    between atoms: C9_15  and  C10_16 
REMARK    6  A    between atoms: C10_16  and  O3_17 
REMARK    7  A    between atoms: C10_16  and  O4_19 
REMARK    8  A    between atoms: C11_21  and  C12_22 
REMARK    9  A    between atoms: C12_22  and  O5_23 
REMARK   10  A    between atoms: O5_23  and  C13_24 
REMARK   11  A    between atoms: C14_26  and  O7_27 
REMARK   12  A    between atoms: C14_26  and  C15_29 
REMARK   13  A    between atoms: C15_29  and  O8_30 
REMARK   14  A    between atoms: C15_29  and  S1_32 
REMARK   15  A    between atoms: C16_36  and  O12_37 
REMARK   16  A    between atoms: C17_39  and  O13_40 
REMARK   17  A    between atoms: C18_42  and  O14_43 
REMARK   18  A    between atoms: C18_42  and  C19_45 
REMARK   19  A    between atoms: C19_45  and  O15_46 
REMARK   20  A    between atoms: O15_46  and  N2_47 
ROOT
HETATM    1  C13 UNL     1      59.718  41.057  57.400  1.00  0.00     0.303 C 
HETATM    2  O6  UNL     1      58.377  40.709  57.445  1.00  0.00    -0.316 OA
HETATM    3  C14 UNL     1      57.732  40.868  56.237  1.00  0.00     0.236 C 
HETATM    4  C16 UNL     1      58.566  41.433  55.133  1.00  0.00     0.216 C 
HETATM    5  C17 UNL     1      59.893  40.711  54.987  1.00  0.00     0.194 C 
HETATM    6  C18 UNL     1      60.358  40.197  56.306  1.00  0.00     0.159 C 
ENDROOT
BRANCH   1   7
HETATM    7  O5  UNL     1      59.975  42.381  57.218  1.00  0.00    -0.351 OA
BRANCH   7   8
HETATM    8  C12 UNL     1      60.242  43.157  58.296  1.00  0.00     0.237 C 
BRANCH   8   9
HETATM    9  C11 UNL     1      59.793  44.553  58.262  1.00  0.00     0.092 A 
HETATM   10  C9  UNL     1      59.289  45.109  59.443  1.00  0.00     0.078 A 
HETATM   11  C8  UNL     1      58.869  46.416  59.402  1.00  0.00     0.188 A 
HETATM   12  C7  UNL     1      58.954  47.110  58.244  1.00  0.00     0.092 A 
HETATM   13  O2  UNL     1      58.406  46.936  60.469  1.00  0.00    -0.288 OA
HETATM   14  C6  UNL     1      59.467  46.485  57.111  1.00  0.00     0.113 A 
HETATM   15  O16 UNL     1      59.859  45.256  57.169  1.00  0.00    -0.312 OA
BRANCH  10  16
HETATM   16  C10 UNL     1      59.201  44.340  60.715  1.00  0.00     0.294 C 
BRANCH  16  17
HETATM   17  O3  UNL     1      57.879  44.363  61.126  1.00  0.00    -0.367 OA
ATOM     18  H3  UNL     1      57.802  45.021  61.807  1.00  0.00     0.213 HD
ENDBRANCH  16  17
BRANCH  16  19
HETATM   19  O4  UNL     1      59.922  45.049  61.703  1.00  0.00    -0.367 OA
ATOM     20  H4  UNL     1      59.569  44.809  62.551  1.00  0.00     0.213 HD
ENDBRANCH  16  19
ENDBRANCH  10  16
BRANCH  14  21
HETATM   21  C5  UNL     1      59.509  47.356  55.897  1.00  0.00     0.378 C 
BRANCH  21  22
HETATM   22  N1  UNL     1      58.286  48.130  55.912  1.00  0.00    -0.035 N 
ATOM     23  H12 UNL     1      58.460  49.079  56.240  1.00  0.00     0.281 HD
ATOM     24  H11 UNL     1      57.662  47.808  56.652  1.00  0.00     0.281 HD
BRANCH  22  25
HETATM   25  C2  UNL     1      57.609  48.144  54.640  1.00  0.00     0.118 C 
HETATM   26  C1  UNL     1      56.115  48.132  54.765  1.00  0.00     0.045 C 
HETATM   27  C3  UNL     1      57.990  49.453  53.957  1.00  0.00     0.045 C 
HETATM   28  C4  UNL     1      58.028  47.026  53.732  1.00  0.00     0.045 C 
ENDBRANCH  22  25
ENDBRANCH  21  22
BRANCH  21  29
HETATM   29  O1  UNL     1      60.647  48.116  55.981  1.00  0.00    -0.365 OA
ATOM     30  H1  UNL     1      61.421  47.624  56.231  1.00  0.00     0.212 HD
ENDBRANCH  21  29
ENDBRANCH  14  21
ENDBRANCH   8   9
ENDBRANCH   7   8
ENDBRANCH   1   7
BRANCH   6  31
HETATM   31  O14 UNL     1      60.052  38.889  56.584  1.00  0.00    -0.380 OA
ATOM     32  H14 UNL     1      60.872  38.409  56.625  1.00  0.00     0.211 HD
ENDBRANCH   6  31
BRANCH   6  33
HETATM   33  C19 UNL     1      61.882  40.297  56.360  1.00  0.00     0.246 C 
BRANCH  33  34
HETATM   34  O15 UNL     1      62.305  39.944  55.059  1.00  0.00    -0.284 OA
BRANCH  34  35
HETATM   35  N2  UNL     1      62.733  38.658  55.042  1.00  0.00    -0.311 N 
ATOM     36  H22 UNL     1      63.331  38.263  54.315  1.00  0.00     0.184 HD
ATOM     37  H21 UNL     1      62.371  38.158  55.854  1.00  0.00     0.184 HD
ENDBRANCH  34  35
ENDBRANCH  33  34
ENDBRANCH   6  33
BRANCH   3  38
HETATM   38  O7  UNL     1      57.375  39.556  55.816  1.00  0.00    -0.360 OA
ATOM     39  H7  UNL     1      57.142  39.636  54.899  1.00  0.00     0.213 HD
ENDBRANCH   3  38
BRANCH   3  40
HETATM   40  C15 UNL     1      56.430  41.620  56.311  1.00  0.00     0.327 C 
BRANCH  40  41
HETATM   41  O8  UNL     1      55.500  41.057  55.419  1.00  0.00    -0.373 OA
ATOM     42  H8  UNL     1      55.283  40.173  55.692  1.00  0.00     0.211 HD
ENDBRANCH  40  41
BRANCH  40  43
HETATM   43  S1  UNL     1      55.747  41.544  57.972  1.00  0.00     0.137 S 
HETATM   44  O9  UNL     1      54.337  42.028  57.903  1.00  0.00    -0.593 OA
HETATM   45  O10 UNL     1      55.839  40.155  58.485  1.00  0.00    -0.593 OA
HETATM   46  O11 UNL     1      56.623  42.618  58.929  1.00  0.00    -0.593 OA
ENDBRANCH  40  43
ENDBRANCH   3  40
BRANCH   5  47
HETATM   47  O13 UNL     1      59.823  39.708  54.020  1.00  0.00    -0.389 OA
ATOM     48  H13 UNL     1      60.602  39.165  54.028  1.00  0.00     0.210 HD
ENDBRANCH   5  47
BRANCH   4  49
HETATM   49  O12 UNL     1      57.884  41.172  53.917  1.00  0.00    -0.387 OA
ATOM     50  H12 UNL     1      58.428  40.580  53.412  1.00  0.00     0.210 HD
ENDBRANCH   4  49
TORSDOF 20
ENDMDL
MODEL 5
REMARK VINA RESULT: -8.482060767      3.896      6.580
REMARK  20 active torsions:
REMARK  status: ('A' for Active; 'I' for Inactive)
REMARK    1  A    between atoms: C2_2  and  N1_5 
REMARK    2  A    between atoms: N1_5  and  C5_8 
REMARK    3  A    between atoms: C5_8  and  O1_9 
REMARK    4  A    between atoms: C5_8  and  C6_11 
REMARK    5  A    between atoms: C9_15  and  C10_16 
REMARK    6  A    between atoms: C10_16  and  O3_17 
REMARK    7  A    between atoms: C10_16  and  O4_19 
REMARK    8  A    between atoms: C11_21  and  C12_22 
REMARK    9  A    between atoms: C12_22  and  O5_23 
REMARK   10  A    between atoms: O5_23  and  C13_24 
REMARK   11  A    between atoms: C14_26  and  O7_27 
REMARK   12  A    between atoms: C14_26  and  C15_29 
REMARK   13  A    between atoms: C15_29  and  O8_30 
REMARK   14  A    between atoms: C15_29  and  S1_32 
REMARK   15  A    between atoms: C16_36  and  O12_37 
REMARK   16  A    between atoms: C17_39  and  O13_40 
REMARK   17  A    between atoms: C18_42  and  O14_43 
REMARK   18  A    between atoms: C18_42  and  C19_45 
REMARK   19  A    between atoms: C19_45  and  O15_46 
REMARK   20  A    between atoms: O15_46  and  N2_47 
ROOT
HETATM    1  C13 UNL     1      59.186  47.650  54.671  1.00  0.00     0.303 C 
HETATM    2  O6  UNL     1      59.134  46.395  54.084  1.00  0.00    -0.316 OA
HETATM    3  C14 UNL     1      57.872  45.841  54.092  1.00  0.00     0.236 C 
HETATM    4  C16 UNL     1      56.818  46.654  54.772  1.00  0.00     0.216 C 
HETATM    5  C17 UNL     1      56.811  48.097  54.302  1.00  0.00     0.194 C 
HETATM    6  C18 UNL     1      58.184  48.528  53.915  1.00  0.00     0.159 C 
ENDROOT
BRANCH   1   7
HETATM    7  O5  UNL     1      58.971  47.679  56.014  1.00  0.00    -0.351 OA
BRANCH   7   8
HETATM    8  C12 UNL     1      59.957  47.275  56.850  1.00  0.00     0.237 C 
BRANCH   8   9
HETATM    9  C11 UNL     1      59.824  45.956  57.478  1.00  0.00     0.092 A 
HETATM   10  C9  UNL     1      59.145  45.876  58.699  1.00  0.00     0.078 A 
HETATM   11  C8  UNL     1      59.026  44.638  59.281  1.00  0.00     0.188 A 
HETATM   12  C7  UNL     1      59.559  43.556  58.667  1.00  0.00     0.092 A 
HETATM   13  O2  UNL     1      58.411  44.549  60.394  1.00  0.00    -0.288 OA
HETATM   14  C6  UNL     1      60.219  43.718  57.454  1.00  0.00     0.113 A 
HETATM   15  O16 UNL     1      60.320  44.890  56.921  1.00  0.00    -0.312 OA
BRANCH  10  16
HETATM   16  C10 UNL     1      58.558  47.071  59.368  1.00  0.00     0.294 C 
BRANCH  16  17
HETATM   17  O3  UNL     1      59.104  47.148  60.638  1.00  0.00    -0.367 OA
ATOM     18  H3  UNL     1      59.626  47.940  60.678  1.00  0.00     0.213 HD
ENDBRANCH  16  17
BRANCH  16  19
HETATM   19  O4  UNL     1      57.178  46.829  59.557  1.00  0.00    -0.367 OA
ATOM     20  H4  UNL     1      56.762  47.658  59.764  1.00  0.00     0.213 HD
ENDBRANCH  16  19
ENDBRANCH  10  16
BRANCH  14  21
HETATM   21  C5  UNL     1      60.763  42.451  56.878  1.00  0.00     0.378 C 
BRANCH  21  22
HETATM   22  N1  UNL     1      59.685  41.858  56.114  1.00  0.00    -0.035 N 
ATOM     23  H12 UNL     1      59.723  42.157  55.140  1.00  0.00     0.281 HD
ATOM     24  H11 UNL     1      58.787  42.264  56.379  1.00  0.00     0.281 HD
BRANCH  22  25
HETATM   25  C2  UNL     1      59.647  40.421  56.209  1.00  0.00     0.118 C 
HETATM   26  C1  UNL     1      60.614  39.867  57.211  1.00  0.00     0.045 C 
HETATM   27  C3  UNL     1      58.246  40.053  56.688  1.00  0.00     0.045 C 
HETATM   28  C4  UNL     1      59.865  39.735  54.894  1.00  0.00     0.045 C 
ENDBRANCH  22  25
ENDBRANCH  21  22
BRANCH  21  29
HETATM   29  O1  UNL     1      61.859  42.783  56.124  1.00  0.00    -0.365 OA
ATOM     30  H1  UNL     1      62.292  43.581  56.406  1.00  0.00     0.212 HD
ENDBRANCH  21  29
ENDBRANCH  14  21
ENDBRANCH   8   9
ENDBRANCH   7   8
ENDBRANCH   1   7
BRANCH   6  31
HETATM   31  O14 UNL     1      58.489  48.440  52.581  1.00  0.00    -0.380 OA
ATOM     32  H14 UNL     1      57.744  48.776  52.097  1.00  0.00     0.211 HD
ENDBRANCH   6  31
BRANCH   6  33
HETATM   33  C19 UNL     1      58.359  49.999  54.293  1.00  0.00     0.246 C 
BRANCH  33  34
HETATM   34  O15 UNL     1      58.100  50.704  53.096  1.00  0.00    -0.284 OA
BRANCH  34  35
HETATM   35  N2  UNL     1      59.064  51.632  52.885  1.00  0.00    -0.311 N 
ATOM     36  H22 UNL     1      60.021  51.412  52.609  1.00  0.00     0.184 HD
ATOM     37  H21 UNL     1      58.690  52.568  53.043  1.00  0.00     0.184 HD
ENDBRANCH  34  35
ENDBRANCH  33  34
ENDBRANCH   6  33
BRANCH   3  38
HETATM   38  O7  UNL     1      57.477  45.765  52.727  1.00  0.00    -0.360 OA
ATOM     39  H7  UNL     1      56.542  45.601  52.740  1.00  0.00     0.213 HD
ENDBRANCH   3  38
BRANCH   3  40
HETATM   40  C15 UNL     1      57.807  44.424  54.594  1.00  0.00     0.327 C 
BRANCH  40  41
HETATM   41  O8  UNL     1      56.986  44.356  55.734  1.00  0.00    -0.373 OA
ATOM     42  H8  UNL     1      57.216  43.595  56.255  1.00  0.00     0.211 HD
ENDBRANCH  40  41
BRANCH  40  43
HETATM   43  S1  UNL     1      57.129  43.335  53.335  1.00  0.00     0.137 S 
HETATM   44  O9  UNL     1      57.226  41.936  53.848  1.00  0.00    -0.593 OA
HETATM   45  O10 UNL     1      55.730  43.728  53.037  1.00  0.00    -0.593 OA
HETATM   46  O11 UNL     1      58.112  43.462  51.974  1.00  0.00    -0.593 OA
ENDBRANCH  40  43
ENDBRANCH   3  40
BRANCH   5  47
HETATM   47  O13 UNL     1      55.883  48.295  53.278  1.00  0.00    -0.389 OA
ATOM     48  H13 UNL     1      55.947  49.171  52.918  1.00  0.00     0.210 HD
ENDBRANCH   5  47
BRANCH   4  49
HETATM   49  O12 UNL     1      55.562  46.141  54.360  1.00  0.00    -0.387 OA
ATOM     50  H12 UNL     1      54.896  46.581  54.874  1.00  0.00     0.210 HD
ENDBRANCH   4  49
TORSDOF 20
ENDMDL
