MODEL 1
REMARK VINA RESULT: -9.064191431      0.000      0.000
REMARK  5 active torsions:
REMARK  status: ('A' for Active; 'I' for Inactive)
REMARK    1  A    between atoms: N1_2  and  C2_4 
REMARK    2  A    between atoms: C6_10  and  C7_11 
REMARK    3  A    between atoms: C7_11  and  C8_12 
REMARK    4  A    between atoms: C8_12  and  N3_13 
REMARK    5  A    between atoms: N3_13  and  C9_15 
ROOT
HETATM    1  N3  UNL     1      38.654   1.017  91.940  1.00  0.00    -0.226 N 
ATOM      2  H3  UNL     1      37.814   1.396  91.502  1.00  0.00     0.177 HD
ENDROOT
BRANCH   1   3
HETATM    3  C8  UNL     1      38.803  -0.399  92.034  1.00  0.00     0.142 C 
BRANCH   3   4
HETATM    4  C7  UNL     1      39.715  -0.975  90.942  1.00  0.00     0.062 C 
BRANCH   4   5
HETATM    5  C6  UNL     1      40.852  -1.659  91.601  1.00  0.00    -0.013 A 
HETATM    6  C2  UNL     1      42.144  -1.385  91.219  1.00  0.00     0.106 A 
HETATM    7  N2  UNL     1      43.175  -2.016  91.848  1.00  0.00    -0.352 N 
HETATM    8  C3  UNL     1      42.966  -2.909  92.841  1.00  0.00     0.089 A 
ATOM      9  H2  UNL     1      44.132  -1.810  91.562  1.00  0.00     0.166 HD
HETATM   10  C4  UNL     1      41.674  -3.187  93.226  1.00  0.00     0.018 A 
HETATM   11  C5  UNL     1      40.595  -2.578  92.624  1.00  0.00     0.012 A 
BRANCH   6  12
HETATM   12  N1  UNL     1      42.313  -0.540  90.265  1.00  0.00    -0.380 N 
HETATM   13  C1  UNL     1      43.645  -0.093  89.959  1.00  0.00     0.147 C 
ATOM     14  H1  UNL     1      41.516  -0.192  89.733  1.00  0.00     0.160 HD
ENDBRANCH   6  12
ENDBRANCH   4   5
ENDBRANCH   3   4
ENDBRANCH   1   3
BRANCH   1  15
HETATM   15  C9  UNL     1      39.532   1.824  92.383  1.00  0.00     0.679 A 
HETATM   16  N4  UNL     1      39.356   2.555  93.516  1.00  0.00    -0.190 N 
HETATM   17  C10 UNL     1      40.450   3.315  93.734  1.00  0.00     0.077 A 
ATOM     18  H4  UNL     1      38.527   2.532  94.108  1.00  0.00     0.184 HD
HETATM   19  C11 UNL     1      40.840   4.234  94.698  1.00  0.00     0.035 A 
HETATM   20  C16 UNL     1      41.345   3.062  92.711  1.00  0.00     0.085 A 
HETATM   21  C12 UNL     1      42.045   4.885  94.683  1.00  0.00     0.045 A 
HETATM   22  C13 UNL     1      42.931   4.619  93.650  1.00  0.00     0.124 A 
HETATM   23  F1  UNL     1      44.141   5.251  93.606  1.00  0.00    -0.205 F 
HETATM   24  C14 UNL     1      42.564   3.708  92.680  1.00  0.00     0.006 A 
HETATM   25  C15 UNL     1      43.513   3.424  91.574  1.00  0.00     0.054 C 
HETATM   26  N5  UNL     1      40.745   2.150  91.914  1.00  0.00    -0.189 N 
ATOM     27  H5  UNL     1      41.160   1.761  91.067  1.00  0.00     0.184 HD
ENDBRANCH   1  15
TORSDOF 5
ENDMDL
MODEL 2
REMARK VINA RESULT: -8.778984417      0.574      1.678
REMARK  5 active torsions:
REMARK  status: ('A' for Active; 'I' for Inactive)
REMARK    1  A    between atoms: N1_2  and  C2_4 
REMARK    2  A    between atoms: C6_10  and  C7_11 
REMARK    3  A    between atoms: C7_11  and  C8_12 
REMARK    4  A    between atoms: C8_12  and  N3_13 
REMARK    5  A    between atoms: N3_13  and  C9_15 
ROOT
HETATM    1  N3  UNL     1      38.859   1.134  92.169  1.00  0.00    -0.226 N 
ATOM      2  H3  UNL     1      37.973   1.579  91.930  1.00  0.00     0.177 HD
ENDROOT
BRANCH   1   3
HETATM    3  C8  UNL     1      38.915  -0.290  92.247  1.00  0.00     0.142 C 
BRANCH   3   4
HETATM    4  C7  UNL     1      39.715  -0.918  91.097  1.00  0.00     0.062 C 
BRANCH   4   5
HETATM    5  C6  UNL     1      40.837  -1.690  91.680  1.00  0.00    -0.013 A 
HETATM    6  C2  UNL     1      42.120  -1.503  91.223  1.00  0.00     0.106 A 
HETATM    7  N2  UNL     1      43.140  -2.215  91.782  1.00  0.00    -0.352 N 
HETATM    8  C3  UNL     1      42.926  -3.103  92.777  1.00  0.00     0.089 A 
ATOM      9  H2  UNL     1      44.089  -2.072  91.440  1.00  0.00     0.166 HD
HETATM   10  C4  UNL     1      41.643  -3.295  93.237  1.00  0.00     0.018 A 
HETATM   11  C5  UNL     1      40.577  -2.602  92.707  1.00  0.00     0.012 A 
BRANCH   6  12
HETATM   12  N1  UNL     1      42.292  -0.659  90.268  1.00  0.00    -0.380 N 
HETATM   13  C1  UNL     1      43.616  -0.164  90.007  1.00  0.00     0.147 C 
ATOM     14  H1  UNL     1      41.502  -0.347  89.703  1.00  0.00     0.160 HD
ENDBRANCH   6  12
ENDBRANCH   4   5
ENDBRANCH   3   4
ENDBRANCH   1   3
BRANCH   1  15
HETATM   15  C9  UNL     1      39.875   1.867  92.386  1.00  0.00     0.679 A 
HETATM   16  N4  UNL     1      40.896   1.994  91.498  1.00  0.00    -0.190 N 
HETATM   17  C10 UNL     1      41.826   2.833  91.999  1.00  0.00     0.077 A 
ATOM     18  H4  UNL     1      40.950   1.528  90.593  1.00  0.00     0.184 HD
HETATM   19  C11 UNL     1      43.047   3.331  91.565  1.00  0.00     0.035 A 
HETATM   20  C16 UNL     1      41.386   3.250  93.242  1.00  0.00     0.085 A 
HETATM   21  C12 UNL     1      43.816   4.199  92.294  1.00  0.00     0.045 A 
HETATM   22  C13 UNL     1      43.359   4.606  93.538  1.00  0.00     0.124 A 
HETATM   23  F1  UNL     1      44.102   5.471  94.291  1.00  0.00    -0.205 F 
HETATM   24  C14 UNL     1      42.147   4.124  93.990  1.00  0.00     0.006 A 
HETATM   25  C15 UNL     1      41.659   4.563  95.322  1.00  0.00     0.054 C 
HETATM   26  N5  UNL     1      40.197   2.638  93.435  1.00  0.00    -0.189 N 
ATOM     27  H5  UNL     1      39.620   2.748  94.269  1.00  0.00     0.184 HD
ENDBRANCH   1  15
TORSDOF 5
ENDMDL
MODEL 3
REMARK VINA RESULT: -8.716195724      2.730      6.125
REMARK  5 active torsions:
REMARK  status: ('A' for Active; 'I' for Inactive)
REMARK    1  A    between atoms: N1_2  and  C2_4 
REMARK    2  A    between atoms: C6_10  and  C7_11 
REMARK    3  A    between atoms: C7_11  and  C8_12 
REMARK    4  A    between atoms: C8_12  and  N3_13 
REMARK    5  A    between atoms: N3_13  and  C9_15 
ROOT
HETATM    1  N3  UNL     1      44.637  -0.028  89.486  1.00  0.00    -0.226 N 
ATOM      2  H3  UNL     1      45.403  -0.596  89.125  1.00  0.00     0.177 HD
ENDROOT
BRANCH   1   3
HETATM    3  C8  UNL     1      44.602   1.363  89.171  1.00  0.00     0.142 C 
BRANCH   3   4
HETATM    4  C7  UNL     1      45.150   2.244  90.303  1.00  0.00     0.062 C 
BRANCH   4   5
HETATM    5  C6  UNL     1      44.068   2.451  91.293  1.00  0.00    -0.013 A 
HETATM    6  C2  UNL     1      44.242   2.070  92.603  1.00  0.00     0.106 A 
HETATM    7  N2  UNL     1      43.238   2.282  93.500  1.00  0.00    -0.352 N 
HETATM    8  C3  UNL     1      42.070   2.858  93.140  1.00  0.00     0.089 A 
ATOM      9  H2  UNL     1      43.372   1.998  94.470  1.00  0.00     0.166 HD
HETATM   10  C4  UNL     1      41.891   3.240  91.829  1.00  0.00     0.018 A 
HETATM   11  C5  UNL     1      42.873   3.049  90.882  1.00  0.00     0.012 A 
BRANCH   6  12
HETATM   12  N1  UNL     1      45.359   1.514  92.915  1.00  0.00    -0.380 N 
HETATM   13  C1  UNL     1      45.340   0.260  93.617  1.00  0.00     0.147 C 
ATOM     14  H1  UNL     1      46.245   1.956  92.668  1.00  0.00     0.160 HD
ENDBRANCH   6  12
ENDBRANCH   4   5
ENDBRANCH   3   4
ENDBRANCH   1   3
BRANCH   1  15
HETATM   15  C9  UNL     1      43.745  -0.585  90.203  1.00  0.00     0.679 A 
HETATM   16  N4  UNL     1      44.022  -1.587  91.078  1.00  0.00    -0.190 N 
HETATM   17  C10 UNL     1      42.885  -1.975  91.692  1.00  0.00     0.077 A 
ATOM     18  H4  UNL     1      44.947  -1.984  91.245  1.00  0.00     0.184 HD
HETATM   19  C11 UNL     1      42.551  -2.922  92.650  1.00  0.00     0.035 A 
HETATM   20  C16 UNL     1      41.855  -1.200  91.192  1.00  0.00     0.085 A 
HETATM   21  C12 UNL     1      41.277  -3.117  93.114  1.00  0.00     0.045 A 
HETATM   22  C13 UNL     1      40.256  -2.331  92.602  1.00  0.00     0.124 A 
HETATM   23  F1  UNL     1      38.974  -2.500  93.042  1.00  0.00    -0.205 F 
HETATM   24  C14 UNL     1      40.566  -1.382  91.647  1.00  0.00     0.006 A 
HETATM   25  C15 UNL     1      39.472  -0.540  91.100  1.00  0.00     0.054 C 
HETATM   26  N5  UNL     1      42.424  -0.370  90.290  1.00  0.00    -0.189 N 
ATOM     27  H5  UNL     1      41.916   0.329  89.748  1.00  0.00     0.184 HD
ENDBRANCH   1  15
TORSDOF 5
ENDMDL
MODEL 4
REMARK VINA RESULT: -8.635358876      1.348      1.686
REMARK  5 active torsions:
REMARK  status: ('A' for Active; 'I' for Inactive)
REMARK    1  A    between atoms: N1_2  and  C2_4 
REMARK    2  A    between atoms: C6_10  and  C7_11 
REMARK    3  A    between atoms: C7_11  and  C8_12 
REMARK    4  A    between atoms: C8_12  and  N3_13 
REMARK    5  A    between atoms: N3_13  and  C9_15 
ROOT
HETATM    1  N3  UNL     1      39.017   0.270  91.527  1.00  0.00    -0.226 N 
ATOM      2  H3  UNL     1      38.069   0.460  91.200  1.00  0.00     0.177 HD
ENDROOT
BRANCH   1   3
HETATM    3  C8  UNL     1      39.549  -1.045  91.372  1.00  0.00     0.142 C 
BRANCH   3   4
HETATM    4  C7  UNL     1      40.199  -1.580  92.656  1.00  0.00     0.062 C 
BRANCH   4   5
HETATM    5  C6  UNL     1      41.617  -1.891  92.363  1.00  0.00    -0.013 A 
HETATM    6  C2  UNL     1      42.623  -1.256  93.052  1.00  0.00     0.106 A 
HETATM    7  N2  UNL     1      43.922  -1.567  92.775  1.00  0.00    -0.352 N 
HETATM    8  C3  UNL     1      44.251  -2.483  91.839  1.00  0.00     0.089 A 
ATOM      9  H2  UNL     1      44.665  -1.094  93.289  1.00  0.00     0.166 HD
HETATM   10  C4  UNL     1      43.246  -3.120  91.146  1.00  0.00     0.018 A 
HETATM   11  C5  UNL     1      41.919  -2.844  91.386  1.00  0.00     0.012 A 
BRANCH   6  12
HETATM   12  N1  UNL     1      42.281  -0.381  93.929  1.00  0.00    -0.380 N 
HETATM   13  C1  UNL     1      43.247   0.597  94.351  1.00  0.00     0.147 C 
ATOM     14  H1  UNL     1      41.339  -0.379  94.320  1.00  0.00     0.160 HD
ENDBRANCH   6  12
ENDBRANCH   4   5
ENDBRANCH   3   4
ENDBRANCH   1   3
BRANCH   1  15
HETATM   15  C9  UNL     1      39.682   1.214  92.061  1.00  0.00     0.679 A 
HETATM   16  N4  UNL     1      39.271   1.864  93.182  1.00  0.00    -0.190 N 
HETATM   17  C10 UNL     1      40.176   2.809  93.511  1.00  0.00     0.077 A 
ATOM     18  H4  UNL     1      38.412   1.668  93.694  1.00  0.00     0.184 HD
HETATM   19  C11 UNL     1      40.297   3.755  94.519  1.00  0.00     0.035 A 
HETATM   20  C16 UNL     1      41.191   2.760  92.572  1.00  0.00     0.085 A 
HETATM   21  C12 UNL     1      41.353   4.621  94.625  1.00  0.00     0.045 A 
HETATM   22  C13 UNL     1      42.362   4.558  93.676  1.00  0.00     0.124 A 
HETATM   23  F1  UNL     1      43.429   5.408  93.752  1.00  0.00    -0.205 F 
HETATM   24  C14 UNL     1      42.262   3.624  92.664  1.00  0.00     0.006 A 
HETATM   25  C15 UNL     1      43.344   3.557  91.648  1.00  0.00     0.054 C 
HETATM   26  N5  UNL     1      40.849   1.776  91.712  1.00  0.00    -0.189 N 
ATOM     27  H5  UNL     1      41.404   1.498  90.902  1.00  0.00     0.184 HD
ENDBRANCH   1  15
TORSDOF 5
ENDMDL
MODEL 5
REMARK VINA RESULT: -8.633004311      3.457      6.321
REMARK  5 active torsions:
REMARK  status: ('A' for Active; 'I' for Inactive)
REMARK    1  A    between atoms: N1_2  and  C2_4 
REMARK    2  A    between atoms: C6_10  and  C7_11 
REMARK    3  A    between atoms: C7_11  and  C8_12 
REMARK    4  A    between atoms: C8_12  and  N3_13 
REMARK    5  A    between atoms: N3_13  and  C9_15 
ROOT
HETATM    1  N3  UNL     1      44.619  -0.162  89.489  1.00  0.00    -0.226 N 
ATOM      2  H3  UNL     1      44.945  -0.666  88.665  1.00  0.00     0.177 HD
ENDROOT
BRANCH   1   3
HETATM    3  C8  UNL     1      45.223   1.089  89.816  1.00  0.00     0.142 C 
BRANCH   3   4
HETATM    4  C7  UNL     1      44.971   1.510  91.271  1.00  0.00     0.062 C 
BRANCH   4   5
HETATM    5  C6  UNL     1      46.123   1.066  92.089  1.00  0.00    -0.013 A 
HETATM    6  C2  UNL     1      45.925   0.282  93.201  1.00  0.00     0.106 A 
HETATM    7  N2  UNL     1      47.001  -0.126  93.932  1.00  0.00    -0.352 N 
HETATM    8  C3  UNL     1      48.264   0.218  93.595  1.00  0.00     0.089 A 
ATOM      9  H2  UNL     1      46.849  -0.707  94.756  1.00  0.00     0.166 HD
HETATM   10  C4  UNL     1      48.466   1.004  92.483  1.00  0.00     0.018 A 
HETATM   11  C5  UNL     1      47.415   1.444  91.710  1.00  0.00     0.012 A 
BRANCH   6  12
HETATM   12  N1  UNL     1      44.713  -0.021  93.504  1.00  0.00    -0.380 N 
HETATM   13  C1  UNL     1      43.928   0.919  94.258  1.00  0.00     0.147 C 
ATOM     14  H1  UNL     1      44.313  -0.913  93.214  1.00  0.00     0.160 HD
ENDBRANCH   6  12
ENDBRANCH   4   5
ENDBRANCH   3   4
ENDBRANCH   1   3
BRANCH   1  15
HETATM   15  C9  UNL     1      43.687  -0.670  90.191  1.00  0.00     0.679 A 
HETATM   16  N4  UNL     1      43.876  -1.749  90.996  1.00  0.00    -0.190 N 
HETATM   17  C10 UNL     1      42.716  -2.059  91.612  1.00  0.00     0.077 A 
ATOM     18  H4  UNL     1      44.757  -2.247  91.116  1.00  0.00     0.184 HD
HETATM   19  C11 UNL     1      42.302  -3.026  92.517  1.00  0.00     0.035 A 
HETATM   20  C16 UNL     1      41.762  -1.152  91.185  1.00  0.00     0.085 A 
HETATM   21  C12 UNL     1      41.023  -3.120  92.998  1.00  0.00     0.045 A 
HETATM   22  C13 UNL     1      40.080  -2.203  92.560  1.00  0.00     0.124 A 
HETATM   23  F1  UNL     1      38.796  -2.269  93.020  1.00  0.00    -0.205 F 
HETATM   24  C14 UNL     1      40.469  -1.232  91.659  1.00  0.00     0.006 A 
HETATM   25  C15 UNL     1      39.458  -0.250  91.192  1.00  0.00     0.054 C 
HETATM   26  N5  UNL     1      42.397  -0.328  90.324  1.00  0.00    -0.189 N 
ATOM     27  H5  UNL     1      41.954   0.452  89.838  1.00  0.00     0.184 HD
ENDBRANCH   1  15
TORSDOF 5
ENDMDL
