MODEL 1
REMARK VINA RESULT: -9.636953240      0.000      0.000
REMARK  4 active torsions:
REMARK  status: ('A' for Active; 'I' for Inactive)
REMARK    1  A    between atoms: N1_10  and  C9_12 
REMARK    2  A    between atoms: C9_12  and  C10_13 
REMARK    3  A    between atoms: C10_13  and  C11_14 
REMARK    4  A    between atoms: C11_14  and  N2_15 
ROOT
HETATM    1  C1  UNL     1      39.066  -1.789  92.673  1.00  0.00     0.051 C 
HETATM    2  C2  UNL     1      40.400  -1.094  92.708  1.00  0.00    -0.023 A 
HETATM    3  C3  UNL     1      40.482   0.275  92.793  1.00  0.00     0.018 A 
HETATM    4  C4  UNL     1      41.718   0.903  92.825  1.00  0.00    -0.041 A 
HETATM    5  C5  UNL     1      42.900   0.214  92.775  1.00  0.00     0.017 A 
HETATM    6  C6  UNL     1      42.797  -1.177  92.690  1.00  0.00     0.058 A 
HETATM    7  C7  UNL     1      41.576  -1.811  92.657  1.00  0.00     0.123 A 
HETATM    8  F1  UNL     1      41.519  -3.172  92.574  1.00  0.00    -0.206 F 
HETATM    9  C8  UNL     1      44.185   0.883  92.809  1.00  0.00     0.108 C 
HETATM   10  N1  UNL     1      45.283   0.207  92.762  1.00  0.00    -0.376 N 
ATOM     11  H1  UNL     1      45.209  -0.809  92.700  1.00  0.00     0.161 HD
HETATM   12  N5  UNL     1      44.190   2.299  92.896  1.00  0.00    -0.367 N 
ATOM     13  H5  UNL     1      45.002   2.801  93.254  1.00  0.00     0.162 HD
HETATM   14  C13 UNL     1      43.012   3.005  92.461  1.00  0.00     0.028 C 
HETATM   15  C14 UNL     1      43.084   3.081  90.938  1.00  0.00     0.038 C 
HETATM   16  C15 UNL     1      43.036   4.450  92.975  1.00  0.00     0.038 C 
HETATM   17  C16 UNL     1      41.741   2.383  92.916  1.00  0.00     0.069 C 
ENDROOT
BRANCH  10  18
HETATM   18  C9  UNL     1      46.589   0.774  92.789  1.00  0.00     0.123 C 
BRANCH  18  19
HETATM   19  C10 UNL     1      47.583  -0.022  93.587  1.00  0.00     0.039 C 
BRANCH  19  20
HETATM   20  C11 UNL     1      48.965   0.582  93.328  1.00  0.00     0.123 C 
BRANCH  20  21
HETATM   21  N2  UNL     1      49.869  -0.412  92.816  1.00  0.00    -0.367 N 
HETATM   22  C12 UNL     1      50.112  -0.448  91.554  1.00  0.00     0.196 C 
HETATM   23  N3  UNL     1      49.535   0.444  90.638  1.00  0.00    -0.067 NA
HETATM   24  N4  UNL     1      51.012  -1.445  91.079  1.00  0.00    -0.067 NA
ATOM     25  H2  UNL     1      50.312  -1.081  93.446  1.00  0.00     0.161 HD
ENDBRANCH  20  21
ENDBRANCH  19  20
ENDBRANCH  18  19
ENDBRANCH  10  18
TORSDOF 4
ENDMDL
MODEL 2
REMARK VINA RESULT: -9.229073340      3.320      5.174
REMARK  4 active torsions:
REMARK  status: ('A' for Active; 'I' for Inactive)
REMARK    1  A    between atoms: N1_10  and  C9_12 
REMARK    2  A    between atoms: C9_12  and  C10_13 
REMARK    3  A    between atoms: C10_13  and  C11_14 
REMARK    4  A    between atoms: C11_14  and  N2_15 
ROOT
HETATM    1  C1  UNL     1      41.604   5.718  94.816  1.00  0.00     0.051 C 
HETATM    2  C2  UNL     1      41.800   4.450  94.031  1.00  0.00    -0.023 A 
HETATM    3  C3  UNL     1      43.002   4.172  93.425  1.00  0.00     0.018 A 
HETATM    4  C4  UNL     1      43.170   2.998  92.704  1.00  0.00    -0.041 A 
HETATM    5  C5  UNL     1      42.173   2.071  92.558  1.00  0.00     0.017 A 
HETATM    6  C6  UNL     1      40.959   2.370  93.181  1.00  0.00     0.058 A 
HETATM    7  C7  UNL     1      40.781   3.532  93.899  1.00  0.00     0.123 A 
HETATM    8  F1  UNL     1      39.579   3.787  94.492  1.00  0.00    -0.206 F 
HETATM    9  C8  UNL     1      42.362   0.850  91.802  1.00  0.00     0.108 C 
HETATM   10  N1  UNL     1      41.404  -0.007  91.682  1.00  0.00    -0.376 N 
ATOM     11  H1  UNL     1      40.517   0.210  92.137  1.00  0.00     0.161 HD
HETATM   12  N5  UNL     1      43.629   0.632  91.204  1.00  0.00    -0.367 N 
ATOM     13  H5  UNL     1      43.941  -0.308  90.960  1.00  0.00     0.162 HD
HETATM   14  C13 UNL     1      44.462   1.781  90.952  1.00  0.00     0.028 C 
HETATM   15  C14 UNL     1      43.945   2.421  89.666  1.00  0.00     0.038 C 
HETATM   16  C15 UNL     1      45.905   1.342  90.677  1.00  0.00     0.038 C 
HETATM   17  C16 UNL     1      44.490   2.756  92.074  1.00  0.00     0.069 C 
ENDROOT
BRANCH  10  18
HETATM   18  C9  UNL     1      41.494  -1.232  90.961  1.00  0.00     0.123 C 
BRANCH  18  19
HETATM   19  C10 UNL     1      41.789  -2.426  91.823  1.00  0.00     0.039 C 
BRANCH  19  20
HETATM   20  C11 UNL     1      42.987  -3.152  91.205  1.00  0.00     0.123 C 
BRANCH  20  21
HETATM   21  N2  UNL     1      43.770  -3.801  92.221  1.00  0.00    -0.367 N 
HETATM   22  C12 UNL     1      44.814  -3.209  92.682  1.00  0.00     0.196 C 
HETATM   23  N3  UNL     1      45.236  -1.946  92.240  1.00  0.00    -0.067 NA
HETATM   24  N4  UNL     1      45.568  -3.879  93.689  1.00  0.00    -0.067 NA
ATOM     25  H2  UNL     1      43.501  -4.720  92.572  1.00  0.00     0.161 HD
ENDBRANCH  20  21
ENDBRANCH  19  20
ENDBRANCH  18  19
ENDBRANCH  10  18
TORSDOF 4
ENDMDL
MODEL 3
REMARK VINA RESULT: -9.207917058      2.346      2.786
REMARK  4 active torsions:
REMARK  status: ('A' for Active; 'I' for Inactive)
REMARK    1  A    between atoms: N1_10  and  C9_12 
REMARK    2  A    between atoms: C9_12  and  C10_13 
REMARK    3  A    between atoms: C10_13  and  C11_14 
REMARK    4  A    between atoms: C11_14  and  N2_15 
ROOT
HETATM    1  C1  UNL     1      38.246  -1.047  92.318  1.00  0.00     0.051 C 
HETATM    2  C2  UNL     1      39.650  -0.556  92.548  1.00  0.00    -0.023 A 
HETATM    3  C3  UNL     1      39.930   0.789  92.595  1.00  0.00     0.018 A 
HETATM    4  C4  UNL     1      41.229   1.227  92.808  1.00  0.00    -0.041 A 
HETATM    5  C5  UNL     1      42.281   0.368  92.979  1.00  0.00     0.017 A 
HETATM    6  C6  UNL     1      41.977  -0.994  92.928  1.00  0.00     0.058 A 
HETATM    7  C7  UNL     1      40.692  -1.441  92.717  1.00  0.00     0.123 A 
HETATM    8  F1  UNL     1      40.437  -2.781  92.674  1.00  0.00    -0.206 F 
HETATM    9  C8  UNL     1      43.633   0.841  93.200  1.00  0.00     0.108 C 
HETATM   10  N1  UNL     1      44.605   0.007  93.358  1.00  0.00    -0.376 N 
ATOM     11  H1  UNL     1      44.385  -0.988  93.322  1.00  0.00     0.161 HD
HETATM   12  N5  UNL     1      43.845   2.243  93.235  1.00  0.00    -0.367 N 
ATOM     13  H5  UNL     1      44.659   2.639  93.705  1.00  0.00     0.162 HD
HETATM   14  C13 UNL     1      42.875   3.088  92.587  1.00  0.00     0.028 C 
HETATM   15  C14 UNL     1      43.197   3.060  91.095  1.00  0.00     0.038 C 
HETATM   16  C15 UNL     1      43.044   4.541  93.047  1.00  0.00     0.038 C 
HETATM   17  C16 UNL     1      41.467   2.691  92.849  1.00  0.00     0.069 C 
ENDROOT
BRANCH  10  18
HETATM   18  C9  UNL     1      45.964   0.376  93.580  1.00  0.00     0.123 C 
BRANCH  18  19
HETATM   19  C10 UNL     1      46.790  -0.703  94.221  1.00  0.00     0.039 C 
BRANCH  19  20
HETATM   20  C11 UNL     1      46.868  -1.868  93.230  1.00  0.00     0.123 C 
BRANCH  20  21
HETATM   21  N2  UNL     1      45.886  -2.870  93.543  1.00  0.00    -0.367 N 
HETATM   22  C12 UNL     1      44.935  -3.099  92.708  1.00  0.00     0.196 C 
HETATM   23  N3  UNL     1      44.804  -2.414  91.492  1.00  0.00    -0.067 NA
HETATM   24  N4  UNL     1      43.979  -4.099  93.049  1.00  0.00    -0.067 NA
ATOM     25  H2  UNL     1      45.942  -3.393  94.417  1.00  0.00     0.161 HD
ENDBRANCH  20  21
ENDBRANCH  19  20
ENDBRANCH  18  19
ENDBRANCH  10  18
TORSDOF 4
ENDMDL
MODEL 4
REMARK VINA RESULT: -9.203800293      1.862      2.300
REMARK  4 active torsions:
REMARK  status: ('A' for Active; 'I' for Inactive)
REMARK    1  A    between atoms: N1_10  and  C9_12 
REMARK    2  A    between atoms: C9_12  and  C10_13 
REMARK    3  A    between atoms: C10_13  and  C11_14 
REMARK    4  A    between atoms: C11_14  and  N2_15 
ROOT
HETATM    1  C1  UNL     1      38.240  -1.062  92.140  1.00  0.00     0.051 C 
HETATM    2  C2  UNL     1      39.601  -0.565  92.546  1.00  0.00    -0.023 A 
HETATM    3  C3  UNL     1      39.808   0.758  92.854  1.00  0.00     0.018 A 
HETATM    4  C4  UNL     1      41.068   1.203  93.227  1.00  0.00    -0.041 A 
HETATM    5  C5  UNL     1      42.152   0.370  93.309  1.00  0.00     0.017 A 
HETATM    6  C6  UNL     1      41.922  -0.971  92.992  1.00  0.00     0.058 A 
HETATM    7  C7  UNL     1      40.677  -1.423  92.620  1.00  0.00     0.123 A 
HETATM    8  F1  UNL     1      40.495  -2.742  92.319  1.00  0.00    -0.206 F 
HETATM    9  C8  UNL     1      43.463   0.849  93.699  1.00  0.00     0.108 C 
HETATM   10  N1  UNL     1      44.467   0.041  93.768  1.00  0.00    -0.376 N 
ATOM     11  H1  UNL     1      44.301  -0.939  93.538  1.00  0.00     0.161 HD
HETATM   12  N5  UNL     1      43.599   2.228  94.001  1.00  0.00    -0.367 N 
ATOM     13  H5  UNL     1      44.364   2.564  94.587  1.00  0.00     0.162 HD
HETATM   14  C13 UNL     1      42.625   3.138  93.455  1.00  0.00     0.028 C 
HETATM   15  C14 UNL     1      43.033   3.397  92.007  1.00  0.00     0.038 C 
HETATM   16  C15 UNL     1      42.692   4.487  94.180  1.00  0.00     0.038 C 
HETATM   17  C16 UNL     1      41.227   2.642  93.548  1.00  0.00     0.069 C 
ENDROOT
BRANCH  10  18
HETATM   18  C9  UNL     1      45.789   0.417  94.141  1.00  0.00     0.123 C 
BRANCH  18  19
HETATM   19  C10 UNL     1      46.852  -0.080  93.202  1.00  0.00     0.039 C 
BRANCH  19  20
HETATM   20  C11 UNL     1      47.398   1.136  92.447  1.00  0.00     0.123 C 
BRANCH  20  21
HETATM   21  N2  UNL     1      46.358   1.775  91.689  1.00  0.00    -0.367 N 
HETATM   22  C12 UNL     1      46.449   1.813  90.407  1.00  0.00     0.196 C 
HETATM   23  N3  UNL     1      47.524   1.256  89.699  1.00  0.00    -0.067 NA
HETATM   24  N4  UNL     1      45.401   2.454  89.685  1.00  0.00    -0.067 NA
ATOM     25  H2  UNL     1      45.557   2.194  92.162  1.00  0.00     0.161 HD
ENDBRANCH  20  21
ENDBRANCH  19  20
ENDBRANCH  18  19
ENDBRANCH  10  18
TORSDOF 4
ENDMDL
MODEL 5
REMARK VINA RESULT: -9.168673042      3.895      5.362
REMARK  4 active torsions:
REMARK  status: ('A' for Active; 'I' for Inactive)
REMARK    1  A    between atoms: N1_10  and  C9_12 
REMARK    2  A    between atoms: C9_12  and  C10_13 
REMARK    3  A    between atoms: C10_13  and  C11_14 
REMARK    4  A    between atoms: C11_14  and  N2_15 
ROOT
HETATM    1  C1  UNL     1      41.739   5.468  94.831  1.00  0.00     0.051 C 
HETATM    2  C2  UNL     1      41.888   4.307  93.885  1.00  0.00    -0.023 A 
HETATM    3  C3  UNL     1      40.965   3.289  93.865  1.00  0.00     0.018 A 
HETATM    4  C4  UNL     1      41.114   2.225  92.987  1.00  0.00    -0.041 A 
HETATM    5  C5  UNL     1      42.162   2.129  92.111  1.00  0.00     0.017 A 
HETATM    6  C6  UNL     1      43.089   3.173  92.146  1.00  0.00     0.058 A 
HETATM    7  C7  UNL     1      42.952   4.234  93.012  1.00  0.00     0.123 A 
HETATM    8  F1  UNL     1      43.880   5.234  93.015  1.00  0.00    -0.206 F 
HETATM    9  C8  UNL     1      42.305   1.011  91.201  1.00  0.00     0.108 C 
HETATM   10  N1  UNL     1      43.304   0.948  90.385  1.00  0.00    -0.376 N 
ATOM     11  H1  UNL     1      43.981   1.710  90.409  1.00  0.00     0.161 HD
HETATM   12  N5  UNL     1      41.314  -0.003  91.238  1.00  0.00    -0.367 N 
ATOM     13  H5  UNL     1      41.158  -0.615  90.437  1.00  0.00     0.162 HD
HETATM   14  C13 UNL     1      40.535  -0.140  92.442  1.00  0.00     0.028 C 
HETATM   15  C14 UNL     1      41.396  -0.920  93.433  1.00  0.00     0.038 C 
HETATM   16  C15 UNL     1      39.288  -0.991  92.176  1.00  0.00     0.038 C 
HETATM   17  C16 UNL     1      40.085   1.157  93.013  1.00  0.00     0.069 C 
ENDROOT
BRANCH  10  18
HETATM   18  C9  UNL     1      43.529  -0.108  89.455  1.00  0.00     0.123 C 
BRANCH  18  19
HETATM   19  C10 UNL     1      44.549  -1.113  89.910  1.00  0.00     0.039 C 
BRANCH  19  20
HETATM   20  C11 UNL     1      43.810  -2.176  90.727  1.00  0.00     0.123 C 
BRANCH  20  21
HETATM   21  N2  UNL     1      44.452  -2.382  91.997  1.00  0.00    -0.367 N 
HETATM   22  C12 UNL     1      44.632  -3.582  92.421  1.00  0.00     0.196 C 
HETATM   23  N3  UNL     1      44.228  -4.716  91.702  1.00  0.00    -0.067 NA
HETATM   24  N4  UNL     1      45.272  -3.751  93.683  1.00  0.00    -0.067 NA
ATOM     25  H2  UNL     1      44.763  -1.585  92.554  1.00  0.00     0.161 HD
ENDBRANCH  20  21
ENDBRANCH  19  20
ENDBRANCH  18  19
ENDBRANCH  10  18
TORSDOF 4
ENDMDL
