MODEL 1
REMARK VINA RESULT: -7.420042062      0.000      0.000
REMARK  4 active torsions:
REMARK  status: ('A' for Active; 'I' for Inactive)
REMARK    1  A    between atoms: C2_2  and  N1_3 
REMARK       I    between atoms: C3_5  and  N2_6 
REMARK       I    between atoms: C3_5  and  N5_21 
REMARK    2  A    between atoms: N2_6  and  C4_8 
REMARK    3  A    between atoms: C6_12  and  S1_13 
REMARK    4  A    between atoms: S1_13  and  C7_16 
ROOT
HETATM    1  C4  UNL     1      43.562   2.042  90.501  1.00  0.00     0.697 A 
HETATM    2  N3  UNL     1      44.061   1.666  89.315  1.00  0.00    -0.198 N 
ATOM      3  H3  UNL     1      44.337   2.284  88.551  1.00  0.00     0.183 HD
HETATM    4  C5  UNL     1      44.129   0.340  89.320  1.00  0.00     0.148 A 
HETATM    5  C6  UNL     1      43.663  -0.120  90.535  1.00  0.00     0.160 A 
HETATM    6  N4  UNL     1      43.313   0.970  91.259  1.00  0.00    -0.179 N 
ATOM      7  H4  UNL     1      42.931   0.972  92.205  1.00  0.00     0.185 HD
ENDROOT
BRANCH   1   8
HETATM    8  N2  UNL     1      43.362   3.273  90.840  1.00  0.00    -0.022 N 
HETATM    9  C3  UNL     1      42.910   3.669  92.111  1.00  0.00     0.688 C 
HETATM   10  N1  UNL     1      41.673   3.611  92.455  1.00  0.00    -0.226 N 
HETATM   11  N5  UNL     1      43.866   4.147  93.041  1.00  0.00    -0.230 N 
ATOM     12  H1  UNL     1      40.979   3.266  91.791  1.00  0.00     0.177 HD
HETATM   13  C10 UNL     1      44.204   5.551  93.049  1.00  0.00     0.165 C 
ATOM     14  H5  UNL     1      44.311   3.507  93.699  1.00  0.00     0.177 HD
ATOM     15  H2  UNL     1      43.542   3.999  90.145  1.00  0.00     0.203 HD
BRANCH  10  16
HETATM   16  C2  UNL     1      41.261   4.027  93.763  1.00  0.00     0.133 C 
HETATM   17  C1  UNL     1      40.623   2.862  94.481  1.00  0.00     0.027 C 
ENDBRANCH  10  16
ENDBRANCH   1   8
BRANCH   5  18
HETATM   18  S1  UNL     1      43.515  -1.724  91.112  1.00  0.00     0.196 S 
HETATM   19  O1  UNL     1      44.168  -2.655  90.103  1.00  0.00    -0.221 OA
HETATM   20  O2  UNL     1      44.295  -1.882  92.386  1.00  0.00    -0.221 OA
BRANCH  18  21
HETATM   21  C7  UNL     1      41.881  -2.276  91.391  1.00  0.00     0.107 C 
HETATM   22  C8  UNL     1      40.810  -1.358  90.922  1.00  0.00     0.026 C 
HETATM   23  C9  UNL     1      41.722  -2.597  92.881  1.00  0.00     0.026 C 
ENDBRANCH  18  21
ENDBRANCH   5  18
TORSDOF 4
ENDMDL
MODEL 2
REMARK VINA RESULT: -7.065261296      1.359      1.629
REMARK  4 active torsions:
REMARK  status: ('A' for Active; 'I' for Inactive)
REMARK    1  A    between atoms: C2_2  and  N1_3 
REMARK       I    between atoms: C3_5  and  N2_6 
REMARK       I    between atoms: C3_5  and  N5_21 
REMARK    2  A    between atoms: N2_6  and  C4_8 
REMARK    3  A    between atoms: C6_12  and  S1_13 
REMARK    4  A    between atoms: S1_13  and  C7_16 
ROOT
HETATM    1  C4  UNL     1      44.302   2.780  91.806  1.00  0.00     0.697 A 
HETATM    2  N3  UNL     1      45.463   2.632  91.151  1.00  0.00    -0.198 N 
ATOM      3  H3  UNL     1      46.101   3.378  90.875  1.00  0.00     0.183 HD
HETATM    4  C5  UNL     1      45.627   1.333  90.930  1.00  0.00     0.148 A 
HETATM    5  C6  UNL     1      44.545   0.656  91.458  1.00  0.00     0.160 A 
HETATM    6  N4  UNL     1      43.728   1.589  92.003  1.00  0.00    -0.179 N 
ATOM      7  H4  UNL     1      42.840   1.416  92.474  1.00  0.00     0.185 HD
ENDROOT
BRANCH   1   8
HETATM    8  N2  UNL     1      43.829   3.922  92.183  1.00  0.00    -0.022 N 
HETATM    9  C3  UNL     1      42.860   4.071  93.191  1.00  0.00     0.688 C 
HETATM   10  N1  UNL     1      41.607   3.878  92.980  1.00  0.00    -0.226 N 
HETATM   11  N5  UNL     1      43.295   4.447  94.486  1.00  0.00    -0.230 N 
ATOM     12  H1  UNL     1      41.286   3.605  92.051  1.00  0.00     0.177 HD
HETATM   13  C10 UNL     1      43.421   5.848  94.809  1.00  0.00     0.165 C 
ATOM     14  H5  UNL     1      43.517   3.735  95.182  1.00  0.00     0.177 HD
ATOM     15  H2  UNL     1      44.179   4.763  91.723  1.00  0.00     0.203 HD
BRANCH  10  16
HETATM   16  C2  UNL     1      40.657   4.043  94.040  1.00  0.00     0.133 C 
HETATM   17  C1  UNL     1      39.906   2.749  94.246  1.00  0.00     0.027 C 
ENDBRANCH  10  16
ENDBRANCH   1   8
BRANCH   5  18
HETATM   18  S1  UNL     1      44.207  -1.021  91.476  1.00  0.00     0.196 S 
HETATM   19  O1  UNL     1      44.431  -1.565  90.074  1.00  0.00    -0.221 OA
HETATM   20  O2  UNL     1      45.195  -1.731  92.358  1.00  0.00    -0.221 OA
BRANCH  18  21
HETATM   21  C7  UNL     1      42.595  -1.459  91.984  1.00  0.00     0.107 C 
HETATM   22  C8  UNL     1      42.414  -2.881  92.375  1.00  0.00     0.026 C 
HETATM   23  C9  UNL     1      41.610  -1.057  90.881  1.00  0.00     0.026 C 
ENDBRANCH  18  21
ENDBRANCH   5  18
TORSDOF 4
ENDMDL
MODEL 3
REMARK VINA RESULT: -7.032818779      3.259      5.887
REMARK  4 active torsions:
REMARK  status: ('A' for Active; 'I' for Inactive)
REMARK    1  A    between atoms: C2_2  and  N1_3 
REMARK       I    between atoms: C3_5  and  N2_6 
REMARK       I    between atoms: C3_5  and  N5_21 
REMARK    2  A    between atoms: N2_6  and  C4_8 
REMARK    3  A    between atoms: C6_12  and  S1_13 
REMARK    4  A    between atoms: S1_13  and  C7_16 
ROOT
HETATM    1  C4  UNL     1      44.471   0.285  92.142  1.00  0.00     0.697 A 
HETATM    2  N3  UNL     1      45.402   0.887  91.389  1.00  0.00    -0.198 N 
ATOM      3  H3  UNL     1      46.168   0.430  90.893  1.00  0.00     0.183 HD
HETATM    4  C5  UNL     1      45.142   2.189  91.408  1.00  0.00     0.148 A 
HETATM    5  C6  UNL     1      44.025   2.404  92.191  1.00  0.00     0.160 A 
HETATM    6  N4  UNL     1      43.623   1.191  92.639  1.00  0.00    -0.179 N 
ATOM      7  H4  UNL     1      42.823   1.003  93.244  1.00  0.00     0.185 HD
ENDROOT
BRANCH   1   8
HETATM    8  N2  UNL     1      44.421  -0.990  92.341  1.00  0.00    -0.022 N 
HETATM    9  C3  UNL     1      43.265  -1.767  92.144  1.00  0.00     0.688 C 
HETATM   10  N1  UNL     1      42.315  -1.824  93.008  1.00  0.00    -0.226 N 
HETATM   11  N5  UNL     1      43.155  -2.508  90.942  1.00  0.00    -0.230 N 
ATOM     12  H1  UNL     1      42.386  -1.292  93.875  1.00  0.00     0.177 HD
HETATM   13  C10 UNL     1      43.705  -3.842  90.883  1.00  0.00     0.165 C 
ATOM     14  H5  UNL     1      42.693  -2.104  90.127  1.00  0.00     0.177 HD
ATOM     15  H2  UNL     1      45.269  -1.461  92.660  1.00  0.00     0.203 HD
BRANCH  10  16
HETATM   16  C2  UNL     1      41.156  -2.631  92.762  1.00  0.00     0.133 C 
HETATM   17  C1  UNL     1      39.977  -1.736  92.465  1.00  0.00     0.027 C 
ENDBRANCH  10  16
ENDBRANCH   1   8
BRANCH   5  18
HETATM   18  S1  UNL     1      43.228   3.867  92.580  1.00  0.00     0.196 S 
HETATM   19  O1  UNL     1      44.174   5.018  92.279  1.00  0.00    -0.221 OA
HETATM   20  O2  UNL     1      42.043   4.058  91.675  1.00  0.00    -0.221 OA
BRANCH  18  21
HETATM   21  C7  UNL     1      42.690   4.014  94.235  1.00  0.00     0.107 C 
HETATM   22  C8  UNL     1      41.219   3.945  94.436  1.00  0.00     0.026 C 
HETATM   23  C9  UNL     1      43.270   5.305  94.823  1.00  0.00     0.026 C 
ENDBRANCH  18  21
ENDBRANCH   5  18
TORSDOF 4
ENDMDL
MODEL 4
REMARK VINA RESULT: -7.010861941      1.274      1.554
REMARK  4 active torsions:
REMARK  status: ('A' for Active; 'I' for Inactive)
REMARK    1  A    between atoms: C2_2  and  N1_3 
REMARK       I    between atoms: C3_5  and  N2_6 
REMARK       I    between atoms: C3_5  and  N5_21 
REMARK    2  A    between atoms: N2_6  and  C4_8 
REMARK    3  A    between atoms: C6_12  and  S1_13 
REMARK    4  A    between atoms: S1_13  and  C7_16 
ROOT
HETATM    1  C4  UNL     1      43.254   2.159  91.068  1.00  0.00     0.697 A 
HETATM    2  N3  UNL     1      44.184   2.151  90.102  1.00  0.00    -0.198 N 
ATOM      3  H3  UNL     1      44.560   2.966  89.616  1.00  0.00     0.183 HD
HETATM    4  C5  UNL     1      44.526   0.884  89.896  1.00  0.00     0.148 A 
HETATM    5  C6  UNL     1      43.793   0.086  90.752  1.00  0.00     0.160 A 
HETATM    6  N4  UNL     1      43.002   0.912  91.477  1.00  0.00    -0.179 N 
ATOM      7  H4  UNL     1      42.337   0.635  92.199  1.00  0.00     0.185 HD
ENDROOT
BRANCH   1   8
HETATM    8  N2  UNL     1      42.698   3.233  91.521  1.00  0.00    -0.022 N 
HETATM    9  C3  UNL     1      41.472   3.246  92.210  1.00  0.00     0.688 C 
HETATM   10  N1  UNL     1      40.338   3.186  91.607  1.00  0.00    -0.226 N 
HETATM   11  N5  UNL     1      41.501   3.327  93.624  1.00  0.00    -0.230 N 
ATOM     12  H1  UNL     1      40.309   3.126  90.589  1.00  0.00     0.177 HD
HETATM   13  C10 UNL     1      41.534   4.624  94.257  1.00  0.00     0.165 C 
ATOM     14  H5  UNL     1      41.499   2.478  94.190  1.00  0.00     0.177 HD
ATOM     15  H2  UNL     1      43.174   4.123  91.370  1.00  0.00     0.203 HD
BRANCH  10  16
HETATM   16  C2  UNL     1      39.115   3.202  92.354  1.00  0.00     0.133 C 
HETATM   17  C1  UNL     1      38.467   1.840  92.284  1.00  0.00     0.027 C 
ENDBRANCH  10  16
ENDBRANCH   1   8
BRANCH   5  18
HETATM   18  S1  UNL     1      43.806  -1.615  90.939  1.00  0.00     0.196 S 
HETATM   19  O1  UNL     1      44.361  -2.229  89.664  1.00  0.00    -0.221 OA
HETATM   20  O2  UNL     1      44.759  -2.000  92.034  1.00  0.00    -0.221 OA
BRANCH  18  21
HETATM   21  C7  UNL     1      42.255  -2.347  91.271  1.00  0.00     0.107 C 
HETATM   22  C8  UNL     1      41.071  -1.519  90.918  1.00  0.00     0.026 C 
HETATM   23  C9  UNL     1      42.218  -2.766  92.744  1.00  0.00     0.026 C 
ENDBRANCH  18  21
ENDBRANCH   5  18
TORSDOF 4
ENDMDL
MODEL 5
REMARK VINA RESULT: -6.760045599      3.634      6.321
REMARK  4 active torsions:
REMARK  status: ('A' for Active; 'I' for Inactive)
REMARK    1  A    between atoms: C2_2  and  N1_3 
REMARK       I    between atoms: C3_5  and  N2_6 
REMARK       I    between atoms: C3_5  and  N5_21 
REMARK    2  A    between atoms: N2_6  and  C4_8 
REMARK    3  A    between atoms: C6_12  and  S1_13 
REMARK    4  A    between atoms: S1_13  and  C7_16 
ROOT
HETATM    1  C4  UNL     1      40.207   0.389  91.689  1.00  0.00     0.697 A 
HETATM    2  N3  UNL     1      38.984   0.831  91.360  1.00  0.00    -0.198 N 
ATOM      3  H3  UNL     1      38.349   0.408  90.684  1.00  0.00     0.183 HD
HETATM    4  C5  UNL     1      38.755   1.923  92.081  1.00  0.00     0.148 A 
HETATM    5  C6  UNL     1      39.858   2.166  92.875  1.00  0.00     0.160 A 
HETATM    6  N4  UNL     1      40.755   1.187  92.609  1.00  0.00    -0.179 N 
ATOM      7  H4  UNL     1      41.678   1.079  93.032  1.00  0.00     0.185 HD
ENDROOT
BRANCH   1   8
HETATM    8  N2  UNL     1      40.752  -0.663  91.175  1.00  0.00    -0.022 N 
HETATM    9  C3  UNL     1      42.136  -0.801  90.966  1.00  0.00     0.688 C 
HETATM   10  N1  UNL     1      42.740  -0.275  89.960  1.00  0.00    -0.226 N 
HETATM   11  N5  UNL     1      42.883  -1.551  91.908  1.00  0.00    -0.230 N 
ATOM     12  H1  UNL     1      42.210   0.267  89.278  1.00  0.00     0.177 HD
HETATM   13  C10 UNL     1      43.013  -2.978  91.732  1.00  0.00     0.165 C 
ATOM     14  H5  UNL     1      43.325  -1.087  92.702  1.00  0.00     0.177 HD
ATOM     15  H2  UNL     1      40.145  -1.438  90.905  1.00  0.00     0.203 HD
BRANCH  10  16
HETATM   16  C2  UNL     1      44.153  -0.444  89.790  1.00  0.00     0.133 C 
HETATM   17  C1  UNL     1      44.740   0.815  89.199  1.00  0.00     0.027 C 
ENDBRANCH  10  16
ENDBRANCH   1   8
BRANCH   5  18
HETATM   18  S1  UNL     1      40.138   3.423  94.002  1.00  0.00     0.196 S 
HETATM   19  O1  UNL     1      38.877   4.268  94.094  1.00  0.00    -0.221 OA
HETATM   20  O2  UNL     1      40.346   2.842  95.372  1.00  0.00    -0.221 OA
BRANCH  18  21
HETATM   21  C7  UNL     1      41.481   4.477  93.637  1.00  0.00     0.107 C 
HETATM   22  C8  UNL     1      42.474   3.933  92.672  1.00  0.00     0.026 C 
HETATM   23  C9  UNL     1      42.153   4.886  94.951  1.00  0.00     0.026 C 
ENDBRANCH  18  21
ENDBRANCH   5  18
TORSDOF 4
ENDMDL
