MODEL 1
REMARK VINA RESULT: -7.154748571      0.000      0.000
REMARK  1 active torsions:
REMARK  status: ('A' for Active; 'I' for Inactive)
REMARK    1  A    between atoms: C2_2  and  N1_4 
REMARK       I    between atoms: C4_6  and  N3_8 
REMARK       I    between atoms: N3_8  and  C5_10 
REMARK       I    between atoms: C5_10  and  N5_14 
ROOT
HETATM    1  N1  UNL     1     -40.787  -3.199   3.329  1.00  0.00    -0.360 N 
ATOM      2  H1  UNL     1     -41.380  -3.763   2.720  1.00  0.00     0.162 HD
HETATM    3  C4  UNL     1     -40.185  -2.192   2.821  1.00  0.00     0.203 C 
HETATM    4  N2  UNL     1     -39.359  -1.395   3.651  1.00  0.00    -0.063 NA
HETATM    5  N3  UNL     1     -40.306  -1.833   1.452  1.00  0.00    -0.164 N 
ATOM      6  H3  UNL     1     -39.452  -1.658   0.922  1.00  0.00     0.187 HD
HETATM    7  C5  UNL     1     -41.543  -1.704   0.786  1.00  0.00     0.676 C 
HETATM    8  N4  UNL     1     -42.582  -1.406   1.521  1.00  0.00    -0.234 N 
ATOM      9  H41 UNL     1     -43.477  -1.312   1.040  1.00  0.00     0.174 HD
ATOM     10  H42 UNL     1     -42.479  -1.276   2.527  1.00  0.00     0.174 HD
HETATM   11  N5  UNL     1     -41.687  -1.885  -0.617  1.00  0.00    -0.211 N 
HETATM   12  C6  UNL     1     -42.806  -2.662  -1.131  1.00  0.00     0.148 C 
HETATM   13  C7  UNL     1     -42.689  -2.858  -2.611  1.00  0.00     0.080 C 
HETATM   14  C8  UNL     1     -41.290  -3.115  -3.047  1.00  0.00     0.044 A 
HETATM   15  N6  UNL     1     -40.682  -3.956  -3.887  1.00  0.00    -0.332 N 
ATOM     16  H6  UNL     1     -41.142  -4.668  -4.454  1.00  0.00     0.168 HD
HETATM   17  C9  UNL     1     -39.368  -3.709  -3.861  1.00  0.00     0.196 A 
HETATM   18 BR1  UNL     1     -37.976  -4.593  -4.856  1.00  0.00    -0.002 Br
HETATM   19  O1  UNL     1     -39.182  -2.731  -3.017  1.00  0.00    -0.288 OA
HETATM   20  C10 UNL     1     -40.297  -2.328  -2.493  1.00  0.00     0.097 A 
HETATM   21  C11 UNL     1     -40.721  -1.296  -1.510  1.00  0.00     0.208 C 
ENDROOT
BRANCH   1  22
HETATM   22  C2  UNL     1     -40.677  -3.580   4.713  1.00  0.00     0.076 C 
HETATM   23  C1  UNL     1     -39.804  -4.781   4.876  1.00  0.00     0.032 C 
HETATM   24  C3  UNL     1     -42.066  -3.939   5.249  1.00  0.00     0.032 C 
ENDBRANCH   1  22
TORSDOF 1
ENDMDL
MODEL 2
REMARK VINA RESULT: -6.686006348      3.849      7.237
REMARK  1 active torsions:
REMARK  status: ('A' for Active; 'I' for Inactive)
REMARK    1  A    between atoms: C2_2  and  N1_4 
REMARK       I    between atoms: C4_6  and  N3_8 
REMARK       I    between atoms: N3_8  and  C5_10 
REMARK       I    between atoms: C5_10  and  N5_14 
ROOT
HETATM    1  N1  UNL     1     -40.372  -2.992  -1.551  1.00  0.00    -0.360 N 
ATOM      2  H1  UNL     1     -40.365  -3.882  -1.054  1.00  0.00     0.162 HD
HETATM    3  C4  UNL     1     -40.091  -1.931  -0.893  1.00  0.00     0.203 C 
HETATM    4  N2  UNL     1     -40.093  -0.685  -1.567  1.00  0.00    -0.063 NA
HETATM    5  N3  UNL     1     -39.773  -1.946   0.490  1.00  0.00    -0.164 N 
ATOM      6  H3  UNL     1     -40.259  -1.291   1.104  1.00  0.00     0.187 HD
HETATM    7  C5  UNL     1     -38.820  -2.815   1.063  1.00  0.00     0.676 C 
HETATM    8  N4  UNL     1     -37.865  -3.243   0.281  1.00  0.00    -0.234 N 
ATOM      9  H41 UNL     1     -37.176  -3.871   0.695  1.00  0.00     0.174 HD
ATOM     10  H42 UNL     1     -37.829  -2.948  -0.694  1.00  0.00     0.174 HD
HETATM   11  N5  UNL     1     -38.870  -3.226   2.424  1.00  0.00    -0.211 N 
HETATM   12  C6  UNL     1     -38.641  -4.624   2.762  1.00  0.00     0.148 C 
HETATM   13  C7  UNL     1     -38.887  -4.871   4.218  1.00  0.00     0.080 C 
HETATM   14  C8  UNL     1     -40.062  -4.122   4.737  1.00  0.00     0.044 A 
HETATM   15  N6  UNL     1     -41.101  -4.389   5.532  1.00  0.00    -0.332 N 
ATOM     16  H6  UNL     1     -41.291  -5.284   5.983  1.00  0.00     0.168 HD
HETATM   17  C9  UNL     1     -41.851  -3.287   5.639  1.00  0.00     0.196 A 
HETATM   18 BR1  UNL     1     -43.475  -3.052   6.647  1.00  0.00    -0.002 Br
HETATM   19  O1  UNL     1     -41.275  -2.364   4.920  1.00  0.00    -0.288 OA
HETATM   20  C10 UNL     1     -40.195  -2.800   4.351  1.00  0.00     0.097 A 
HETATM   21  C11 UNL     1     -39.148  -2.251   3.449  1.00  0.00     0.208 C 
ENDROOT
BRANCH   1  22
HETATM   22  C2  UNL     1     -40.698  -2.999  -2.953  1.00  0.00     0.076 C 
HETATM   23  C1  UNL     1     -42.165  -3.177  -3.167  1.00  0.00     0.032 C 
HETATM   24  C3  UNL     1     -39.984  -4.173  -3.630  1.00  0.00     0.032 C 
ENDBRANCH   1  22
TORSDOF 1
ENDMDL
MODEL 3
REMARK VINA RESULT: -6.158079022      4.439      5.732
REMARK  1 active torsions:
REMARK  status: ('A' for Active; 'I' for Inactive)
REMARK    1  A    between atoms: C2_2  and  N1_4 
REMARK       I    between atoms: C4_6  and  N3_8 
REMARK       I    between atoms: N3_8  and  C5_10 
REMARK       I    between atoms: C5_10  and  N5_14 
ROOT
HETATM    1  N1  UNL     1     -43.942  -2.308   3.705  1.00  0.00    -0.360 N 
ATOM      2  H1  UNL     1     -43.567  -2.866   2.939  1.00  0.00     0.162 HD
HETATM    3  C4  UNL     1     -43.119  -1.658   4.437  1.00  0.00     0.203 C 
HETATM    4  N2  UNL     1     -43.621  -0.874   5.505  1.00  0.00    -0.063 NA
HETATM    5  N3  UNL     1     -41.715  -1.685   4.227  1.00  0.00    -0.164 N 
ATOM      6  H3  UNL     1     -41.111  -1.873   5.027  1.00  0.00     0.187 HD
HETATM    7  C5  UNL     1     -41.110  -1.464   2.972  1.00  0.00     0.676 C 
HETATM    8  N4  UNL     1     -41.774  -0.734   2.115  1.00  0.00    -0.234 N 
ATOM      9  H41 UNL     1     -41.337  -0.574   1.208  1.00  0.00     0.174 HD
ATOM     10  H42 UNL     1     -42.686  -0.351   2.365  1.00  0.00     0.174 HD
HETATM   11  N5  UNL     1     -39.838  -1.997   2.623  1.00  0.00    -0.211 N 
HETATM   12  C6  UNL     1     -39.647  -2.603   1.313  1.00  0.00     0.148 C 
HETATM   13  C7  UNL     1     -38.293  -3.234   1.205  1.00  0.00     0.080 C 
HETATM   14  C8  UNL     1     -37.881  -3.925   2.456  1.00  0.00     0.044 A 
HETATM   15  N6  UNL     1     -37.305  -5.089   2.769  1.00  0.00    -0.332 N 
ATOM     16  H6  UNL     1     -37.008  -5.804   2.106  1.00  0.00     0.168 HD
HETATM   17  C9  UNL     1     -37.183  -5.160   4.099  1.00  0.00     0.196 A 
HETATM   18 BR1  UNL     1     -36.431  -6.591   5.145  1.00  0.00    -0.002 Br
HETATM   19  O1  UNL     1     -37.677  -4.055   4.586  1.00  0.00    -0.288 OA
HETATM   20  C10 UNL     1     -38.114  -3.270   3.651  1.00  0.00     0.097 A 
HETATM   21  C11 UNL     1     -38.757  -1.931   3.574  1.00  0.00     0.208 C 
ENDROOT
BRANCH   1  22
HETATM   22  C2  UNL     1     -45.368  -2.294   3.901  1.00  0.00     0.076 C 
HETATM   23  C1  UNL     1     -45.829  -3.528   4.606  1.00  0.00     0.032 C 
HETATM   24  C3  UNL     1     -46.064  -2.251   2.538  1.00  0.00     0.032 C 
ENDBRANCH   1  22
TORSDOF 1
ENDMDL
MODEL 4
REMARK VINA RESULT: -6.095923243      4.303      5.874
REMARK  1 active torsions:
REMARK  status: ('A' for Active; 'I' for Inactive)
REMARK    1  A    between atoms: C2_2  and  N1_4 
REMARK       I    between atoms: C4_6  and  N3_8 
REMARK       I    between atoms: N3_8  and  C5_10 
REMARK       I    between atoms: C5_10  and  N5_14 
ROOT
HETATM    1  N1  UNL     1     -46.135  -0.394   5.155  1.00  0.00    -0.360 N 
ATOM      2  H1  UNL     1     -45.388   0.193   4.785  1.00  0.00     0.162 HD
HETATM    3  C4  UNL     1     -46.055  -1.658   4.976  1.00  0.00     0.203 C 
HETATM    4  N2  UNL     1     -47.083  -2.489   5.485  1.00  0.00    -0.063 NA
HETATM    5  N3  UNL     1     -44.976  -2.271   4.286  1.00  0.00    -0.164 N 
ATOM      6  H3  UNL     1     -45.194  -2.940   3.547  1.00  0.00     0.187 HD
HETATM    7  C5  UNL     1     -43.619  -2.006   4.567  1.00  0.00     0.676 C 
HETATM    8  N4  UNL     1     -43.333  -1.606   5.778  1.00  0.00    -0.234 N 
ATOM      9  H41 UNL     1     -42.353  -1.415   5.982  1.00  0.00     0.174 HD
ATOM     10  H42 UNL     1     -44.074  -1.499   6.472  1.00  0.00     0.174 HD
HETATM   11  N5  UNL     1     -42.587  -2.156   3.601  1.00  0.00    -0.211 N 
HETATM   12  C6  UNL     1     -41.563  -1.128   3.477  1.00  0.00     0.148 C 
HETATM   13  C7  UNL     1     -40.667  -1.401   2.308  1.00  0.00     0.080 C 
HETATM   14  C8  UNL     1     -41.407  -1.917   1.126  1.00  0.00     0.044 A 
HETATM   15  N6  UNL     1     -41.401  -1.688  -0.190  1.00  0.00    -0.332 N 
ATOM     16  H6  UNL     1     -40.800  -1.023  -0.676  1.00  0.00     0.168 HD
HETATM   17  C9  UNL     1     -42.315  -2.478  -0.764  1.00  0.00     0.196 A 
HETATM   18 BR1  UNL     1     -42.768  -2.601  -2.631  1.00  0.00    -0.002 Br
HETATM   19  O1  UNL     1     -42.867  -3.177   0.189  1.00  0.00    -0.288 OA
HETATM   20  C10 UNL     1     -42.366  -2.887   1.350  1.00  0.00     0.097 A 
HETATM   21  C11 UNL     1     -42.570  -3.324   2.756  1.00  0.00     0.208 C 
ENDROOT
BRANCH   1  22
HETATM   22  C2  UNL     1     -47.220   0.247   5.851  1.00  0.00     0.076 C 
HETATM   23  C1  UNL     1     -48.094   1.007   4.908  1.00  0.00     0.032 C 
HETATM   24  C3  UNL     1     -46.650   1.245   6.863  1.00  0.00     0.032 C 
ENDBRANCH   1  22
TORSDOF 1
ENDMDL
MODEL 5
REMARK VINA RESULT: -5.827703892      2.836      4.373
REMARK  1 active torsions:
REMARK  status: ('A' for Active; 'I' for Inactive)
REMARK    1  A    between atoms: C2_2  and  N1_4 
REMARK       I    between atoms: C4_6  and  N3_8 
REMARK       I    between atoms: N3_8  and  C5_10 
REMARK       I    between atoms: C5_10  and  N5_14 
ROOT
HETATM    1  N1  UNL     1     -37.066  -4.262   4.293  1.00  0.00    -0.360 N 
ATOM      2  H1  UNL     1     -37.922  -4.804   4.178  1.00  0.00     0.162 HD
HETATM    3  C4  UNL     1     -37.086  -3.026   3.966  1.00  0.00     0.203 C 
HETATM    4  N2  UNL     1     -35.908  -2.255   4.121  1.00  0.00    -0.063 NA
HETATM    5  N3  UNL     1     -38.244  -2.384   3.452  1.00  0.00    -0.164 N 
ATOM      6  H3  UNL     1     -38.151  -1.831   2.600  1.00  0.00     0.187 HD
HETATM    7  C5  UNL     1     -39.517  -2.470   4.057  1.00  0.00     0.676 C 
HETATM    8  N4  UNL     1     -39.546  -2.696   5.344  1.00  0.00    -0.234 N 
ATOM      9  H41 UNL     1     -40.465  -2.758   5.781  1.00  0.00     0.174 HD
ATOM     10  H42 UNL     1     -38.676  -2.801   5.866  1.00  0.00     0.174 HD
HETATM   11  N5  UNL     1     -40.729  -2.323   3.328  1.00  0.00    -0.211 N 
HETATM   12  C6  UNL     1     -41.831  -3.244   3.571  1.00  0.00     0.148 C 
HETATM   13  C7  UNL     1     -42.948  -3.012   2.601  1.00  0.00     0.080 C 
HETATM   14  C8  UNL     1     -42.462  -2.716   1.226  1.00  0.00     0.044 A 
HETATM   15  N6  UNL     1     -42.789  -3.092  -0.013  1.00  0.00    -0.332 N 
ATOM     16  H6  UNL     1     -43.535  -3.741  -0.261  1.00  0.00     0.168 HD
HETATM   17  C9  UNL     1     -41.973  -2.474  -0.874  1.00  0.00     0.196 A 
HETATM   18 BR1  UNL     1     -41.953  -2.614  -2.795  1.00  0.00    -0.002 Br
HETATM   19  O1  UNL     1     -41.163  -1.734  -0.168  1.00  0.00    -0.288 OA
HETATM   20  C10 UNL     1     -41.405  -1.834   1.102  1.00  0.00     0.097 A 
HETATM   21  C11 UNL     1     -40.849  -1.263   2.358  1.00  0.00     0.208 C 
ENDROOT
BRANCH   1  22
HETATM   22  C2  UNL     1     -35.903  -4.931   4.815  1.00  0.00     0.076 C 
HETATM   23  C1  UNL     1     -35.695  -6.252   4.150  1.00  0.00     0.032 C 
HETATM   24  C3  UNL     1     -36.099  -5.189   6.311  1.00  0.00     0.032 C 
ENDBRANCH   1  22
TORSDOF 1
ENDMDL
