MODEL 1
REMARK VINA RESULT: -9.639569809      0.000      0.000
REMARK  11 active torsions:
REMARK  status: ('A' for Active; 'I' for Inactive)
REMARK    1  A    between atoms: C2_2  and  O1_3 
REMARK    2  A    between atoms: C2_2  and  C3_5 
REMARK    3  A    between atoms: N1_7  and  C5_8 
REMARK    4  A    between atoms: N2_10  and  C7_11 
REMARK    5  A    between atoms: C8_12  and  N3_13 
REMARK    6  A    between atoms: N3_13  and  C9_15 
REMARK    7  A    between atoms: C9_15  and  O2_16 
REMARK    8  A    between atoms: C9_15  and  O3_18 
REMARK    9  A    between atoms: C11_21  and  C12_22 
REMARK   10  A    between atoms: C12_22  and  O4_23 
REMARK   11  A    between atoms: C16_36  and  N9_37 
ROOT
HETATM    1  C12 UNL     1     -28.351 -64.761 -14.636  1.00  0.00     0.282 C 
HETATM    2  C13 UNL     1     -28.606 -66.026 -15.316  1.00  0.00     0.120 C 
HETATM    3  N4  UNL     1     -28.831 -67.043 -15.859  1.00  0.00    -0.192 NA
HETATM    4  C14 UNL     1     -26.981 -64.591 -14.181  1.00  0.00     0.120 C 
HETATM    5  N5  UNL     1     -25.884 -64.440 -13.801  1.00  0.00    -0.192 NA
ENDROOT
BRANCH   1   6
HETATM    6  C11 UNL     1     -29.405 -64.257 -13.773  1.00  0.00     0.119 A 
HETATM    7  C10 UNL     1     -29.150 -63.932 -12.429  1.00  0.00     0.066 A 
HETATM    8  C8  UNL     1     -30.065 -63.458 -11.547  1.00  0.00     0.081 A 
HETATM    9  C7  UNL     1     -31.370 -63.272 -11.997  1.00  0.00     0.173 A 
HETATM   10  N10 UNL     1     -31.620 -63.575 -13.261  1.00  0.00    -0.046 N 
HETATM   11  N6  UNL     1     -30.692 -64.048 -14.129  1.00  0.00    -0.062 N 
HETATM   12  C16 UNL     1     -32.809 -63.462 -13.910  1.00  0.00     0.714 A 
HETATM   13  C15 UNL     1     -31.297 -64.232 -15.310  1.00  0.00     0.713 A 
HETATM   14  N7  UNL     1     -30.793 -64.662 -16.396  1.00  0.00    -0.232 N 
HETATM   15  N8  UNL     1     -32.584 -63.874 -15.173  1.00  0.00    -0.019 N 
ATOM     16  H72 UNL     1     -29.816 -64.934 -16.499  1.00  0.00     0.174 HD
ATOM     17  H71 UNL     1     -31.254 -64.802 -17.295  1.00  0.00     0.174 HD
ATOM     18  H8  UNL     1     -33.285 -63.909 -15.913  1.00  0.00     0.203 HD
BRANCH   8  19
HETATM   19  N3  UNL     1     -29.751 -63.127 -10.201  1.00  0.00    -0.339 N 
ATOM     20  H3  UNL     1     -29.798 -63.838  -9.472  1.00  0.00     0.164 HD
BRANCH  19  21
HETATM   21  C9  UNL     1     -29.363 -61.773  -9.877  1.00  0.00     0.365 C 
BRANCH  21  22
HETATM   22  O2  UNL     1     -27.977 -61.668  -9.740  1.00  0.00    -0.355 OA
ATOM     23  H2  UNL     1     -27.599 -61.188 -10.467  1.00  0.00     0.214 HD
ENDBRANCH  21  22
BRANCH  21  24
HETATM   24  O3  UNL     1     -29.914 -61.347  -8.673  1.00  0.00    -0.355 OA
ATOM     25  H3  UNL     1     -29.363 -61.567  -7.931  1.00  0.00     0.214 HD
ENDBRANCH  21  24
ENDBRANCH  19  21
ENDBRANCH   8  19
BRANCH   9  26
HETATM   26  N2  UNL     1     -32.291 -62.783 -11.034  1.00  0.00    -0.335 N 
HETATM   27  C5  UNL     1     -33.147 -62.972  -9.898  1.00  0.00     0.228 A 
HETATM   28  C6  UNL     1     -33.064 -61.603 -10.489  1.00  0.00     0.175 A 
BRANCH  27  29
HETATM   29  N1  UNL     1     -34.437 -63.612  -9.995  1.00  0.00    -0.262 N 
HETATM   30  C4  UNL     1     -35.629 -63.160  -9.569  1.00  0.00     0.143 A 
HETATM   31  C3  UNL     1     -36.623 -64.071  -9.853  1.00  0.00     0.072 A 
HETATM   32  N12 UNL     1     -35.977 -65.096 -10.472  1.00  0.00    -0.286 N 
HETATM   33  N11 UNL     1     -34.682 -64.786 -10.538  1.00  0.00    -0.239 N 
ATOM     34  H12 UNL     1     -36.407 -65.951 -10.824  1.00  0.00     0.188 HD
ATOM     35  H11 UNL     1     -33.970 -65.384 -10.957  1.00  0.00     0.208 HD
BRANCH  31  36
HETATM   36  C2  UNL     1     -38.078 -63.938  -9.541  1.00  0.00     0.166 C 
HETATM   37  C1  UNL     1     -38.208 -62.826  -8.524  1.00  0.00     0.046 C 
BRANCH  36  38
HETATM   38  O1  UNL     1     -38.490 -65.119  -8.935  1.00  0.00    -0.390 OA
ATOM     39  H1  UNL     1     -37.760 -65.456  -8.427  1.00  0.00     0.210 HD
ENDBRANCH  36  38
ENDBRANCH  31  36
ENDBRANCH  27  29
ENDBRANCH   9  26
BRANCH  12  40
HETATM   40  N9  UNL     1     -33.948 -63.045 -13.478  1.00  0.00    -0.232 N 
ATOM     41  H92 UNL     1     -34.396 -63.189 -12.573  1.00  0.00     0.174 HD
ATOM     42  H91 UNL     1     -34.590 -62.467 -14.022  1.00  0.00     0.174 HD
ENDBRANCH  12  40
ENDBRANCH   1   6
BRANCH   1  43
HETATM   43  O4  UNL     1     -28.347 -63.872 -15.773  1.00  0.00    -0.359 OA
ATOM     44  H4  UNL     1     -29.223 -63.936 -16.134  1.00  0.00     0.213 HD
ENDBRANCH   1  43
TORSDOF 11
ENDMDL
MODEL 2
REMARK VINA RESULT: -9.481042377      3.099      5.854
REMARK  11 active torsions:
REMARK  status: ('A' for Active; 'I' for Inactive)
REMARK    1  A    between atoms: C2_2  and  O1_3 
REMARK    2  A    between atoms: C2_2  and  C3_5 
REMARK    3  A    between atoms: N1_7  and  C5_8 
REMARK    4  A    between atoms: N2_10  and  C7_11 
REMARK    5  A    between atoms: C8_12  and  N3_13 
REMARK    6  A    between atoms: N3_13  and  C9_15 
REMARK    7  A    between atoms: C9_15  and  O2_16 
REMARK    8  A    between atoms: C9_15  and  O3_18 
REMARK    9  A    between atoms: C11_21  and  C12_22 
REMARK   10  A    between atoms: C12_22  and  O4_23 
REMARK   11  A    between atoms: C16_36  and  N9_37 
ROOT
HETATM    1  C12 UNL     1     -28.881 -63.060 -10.583  1.00  0.00     0.282 C 
HETATM    2  C13 UNL     1     -28.002 -63.968  -9.858  1.00  0.00     0.120 C 
HETATM    3  N4  UNL     1     -27.290 -64.712  -9.290  1.00  0.00    -0.192 NA
HETATM    4  C14 UNL     1     -29.771 -62.283  -9.736  1.00  0.00     0.120 C 
HETATM    5  N5  UNL     1     -30.501 -61.655  -9.069  1.00  0.00    -0.192 NA
ENDROOT
BRANCH   1   6
HETATM    6  C11 UNL     1     -29.415 -63.534 -11.849  1.00  0.00     0.119 A 
HETATM    7  C10 UNL     1     -30.801 -63.592 -12.075  1.00  0.00     0.066 A 
HETATM    8  C8  UNL     1     -31.393 -64.020 -13.217  1.00  0.00     0.081 A 
HETATM    9  C7  UNL     1     -30.573 -64.440 -14.261  1.00  0.00     0.173 A 
HETATM   10  N10 UNL     1     -29.266 -64.388 -14.058  1.00  0.00    -0.046 N 
HETATM   11  N6  UNL     1     -28.691 -63.957 -12.908  1.00  0.00    -0.062 N 
HETATM   12  C16 UNL     1     -28.286 -64.735 -14.934  1.00  0.00     0.714 A 
HETATM   13  C15 UNL     1     -27.363 -64.036 -13.064  1.00  0.00     0.713 A 
HETATM   14  N7  UNL     1     -26.451 -63.731 -12.231  1.00  0.00    -0.232 N 
HETATM   15  N8  UNL     1     -27.120 -64.509 -14.297  1.00  0.00    -0.019 N 
ATOM     16  H72 UNL     1     -26.635 -63.372 -11.294  1.00  0.00     0.174 HD
ATOM     17  H71 UNL     1     -25.439 -63.791 -12.349  1.00  0.00     0.174 HD
ATOM     18  H8  UNL     1     -26.194 -64.672 -14.692  1.00  0.00     0.203 HD
BRANCH   8  19
HETATM   19  N3  UNL     1     -32.802 -64.042 -13.404  1.00  0.00    -0.339 N 
ATOM     20  H3  UNL     1     -33.289 -64.926 -13.546  1.00  0.00     0.164 HD
BRANCH  19  21
HETATM   21  C9  UNL     1     -33.538 -62.798 -13.390  1.00  0.00     0.365 C 
BRANCH  21  22
HETATM   22  O2  UNL     1     -34.892 -63.014 -13.660  1.00  0.00    -0.355 OA
ATOM     23  H2  UNL     1     -35.408 -62.977 -12.864  1.00  0.00     0.214 HD
ENDBRANCH  21  22
BRANCH  21  24
HETATM   24  O3  UNL     1     -33.078 -61.908 -14.355  1.00  0.00    -0.355 OA
ATOM     25  H3  UNL     1     -33.759 -61.313 -14.645  1.00  0.00     0.214 HD
ENDBRANCH  21  24
ENDBRANCH  19  21
ENDBRANCH   8  19
BRANCH   9  26
HETATM   26  N2  UNL     1     -31.241 -64.886 -15.432  1.00  0.00    -0.335 N 
HETATM   27  C5  UNL     1     -31.953 -64.632 -16.651  1.00  0.00     0.228 A 
HETATM   28  C6  UNL     1     -31.693 -66.054 -16.278  1.00  0.00     0.175 A 
BRANCH  27  29
HETATM   29  N1  UNL     1     -33.342 -64.240 -16.675  1.00  0.00    -0.262 N 
HETATM   30  C4  UNL     1     -34.429 -65.003 -16.470  1.00  0.00     0.143 A 
HETATM   31  C3  UNL     1     -35.577 -64.249 -16.575  1.00  0.00     0.072 A 
HETATM   32  N12 UNL     1     -35.134 -62.993 -16.855  1.00  0.00    -0.286 N 
HETATM   33  N11 UNL     1     -33.802 -63.028 -16.905  1.00  0.00    -0.239 N 
ATOM     34  H12 UNL     1     -35.717 -62.170 -17.000  1.00  0.00     0.188 HD
ATOM     35  H11 UNL     1     -33.213 -62.218 -17.097  1.00  0.00     0.208 HD
BRANCH  31  36
HETATM   36  C2  UNL     1     -36.983 -64.728 -16.415  1.00  0.00     0.166 C 
HETATM   37  C1  UNL     1     -37.815 -63.996 -17.443  1.00  0.00     0.046 C 
BRANCH  36  38
HETATM   38  O1  UNL     1     -37.422 -64.336 -15.155  1.00  0.00    -0.390 OA
ATOM     39  H1  UNL     1     -37.969 -65.031 -14.807  1.00  0.00     0.210 HD
ENDBRANCH  36  38
ENDBRANCH  31  36
ENDBRANCH  27  29
ENDBRANCH   9  26
BRANCH  12  40
HETATM   40  N9  UNL     1     -28.376 -65.180 -16.139  1.00  0.00    -0.232 N 
ATOM     41  H92 UNL     1     -27.891 -65.958 -16.586  1.00  0.00     0.174 HD
ATOM     42  H91 UNL     1     -28.997 -64.789 -16.848  1.00  0.00     0.174 HD
ENDBRANCH  12  40
ENDBRANCH   1   6
BRANCH   1  43
HETATM   43  O4  UNL     1     -27.928 -62.038 -10.945  1.00  0.00    -0.359 OA
ATOM     44  H4  UNL     1     -28.242 -61.250 -10.518  1.00  0.00     0.213 HD
ENDBRANCH   1  43
TORSDOF 11
ENDMDL
MODEL 3
REMARK VINA RESULT: -9.427375550      3.152      5.682
REMARK  11 active torsions:
REMARK  status: ('A' for Active; 'I' for Inactive)
REMARK    1  A    between atoms: C2_2  and  O1_3 
REMARK    2  A    between atoms: C2_2  and  C3_5 
REMARK    3  A    between atoms: N1_7  and  C5_8 
REMARK    4  A    between atoms: N2_10  and  C7_11 
REMARK    5  A    between atoms: C8_12  and  N3_13 
REMARK    6  A    between atoms: N3_13  and  C9_15 
REMARK    7  A    between atoms: C9_15  and  O2_16 
REMARK    8  A    between atoms: C9_15  and  O3_18 
REMARK    9  A    between atoms: C11_21  and  C12_22 
REMARK   10  A    between atoms: C12_22  and  O4_23 
REMARK   11  A    between atoms: C16_36  and  N9_37 
ROOT
HETATM    1  C12 UNL     1     -28.825 -62.860 -10.482  1.00  0.00     0.282 C 
HETATM    2  C13 UNL     1     -27.924 -63.863  -9.927  1.00  0.00     0.120 C 
HETATM    3  N4  UNL     1     -27.199 -64.682  -9.499  1.00  0.00    -0.192 NA
HETATM    4  C14 UNL     1     -29.514 -62.057  -9.484  1.00  0.00     0.120 C 
HETATM    5  N5  UNL     1     -30.084 -61.406  -8.695  1.00  0.00    -0.192 NA
ENDROOT
BRANCH   1   6
HETATM    6  C11 UNL     1     -29.576 -63.236 -11.667  1.00  0.00     0.119 A 
HETATM    7  C10 UNL     1     -30.972 -63.395 -11.621  1.00  0.00     0.066 A 
HETATM    8  C8  UNL     1     -31.758 -63.745 -12.669  1.00  0.00     0.081 A 
HETATM    9  C7  UNL     1     -31.145 -63.968 -13.899  1.00  0.00     0.173 A 
HETATM   10  N10 UNL     1     -29.831 -63.819 -13.953  1.00  0.00    -0.046 N 
HETATM   11  N6  UNL     1     -29.060 -63.469 -12.894  1.00  0.00    -0.062 N 
HETATM   12  C16 UNL     1     -29.033 -63.974 -15.043  1.00  0.00     0.714 A 
HETATM   13  C15 UNL     1     -27.791 -63.407 -13.318  1.00  0.00     0.713 A 
HETATM   14  N7  UNL     1     -26.749 -63.115 -12.649  1.00  0.00    -0.232 N 
HETATM   15  N8  UNL     1     -27.778 -63.714 -14.625  1.00  0.00    -0.019 N 
ATOM     16  H72 UNL     1     -26.759 -62.882 -11.656  1.00  0.00     0.174 HD
ATOM     17  H71 UNL     1     -25.783 -63.068 -12.972  1.00  0.00     0.174 HD
ATOM     18  H8  UNL     1     -26.945 -63.746 -15.213  1.00  0.00     0.203 HD
BRANCH   8  19
HETATM   19  N3  UNL     1     -33.170 -63.875 -12.574  1.00  0.00    -0.339 N 
ATOM     20  H3  UNL     1     -33.629 -64.736 -12.870  1.00  0.00     0.164 HD
BRANCH  19  21
HETATM   21  C9  UNL     1     -33.950 -62.775 -12.055  1.00  0.00     0.365 C 
BRANCH  21  22
HETATM   22  O2  UNL     1     -35.310 -62.956 -12.318  1.00  0.00    -0.355 OA
ATOM     23  H2  UNL     1     -35.842 -62.402 -11.760  1.00  0.00     0.214 HD
ENDBRANCH  21  22
BRANCH  21  24
HETATM   24  O3  UNL     1     -33.593 -61.562 -12.635  1.00  0.00    -0.355 OA
ATOM     25  H3  UNL     1     -34.334 -61.127 -13.039  1.00  0.00     0.214 HD
ENDBRANCH  21  24
ENDBRANCH  19  21
ENDBRANCH   8  19
BRANCH   9  26
HETATM   26  N2  UNL     1     -32.010 -64.339 -14.962  1.00  0.00    -0.335 N 
HETATM   27  C5  UNL     1     -32.788 -64.020 -16.125  1.00  0.00     0.228 A 
HETATM   28  C6  UNL     1     -32.767 -65.441 -15.668  1.00  0.00     0.175 A 
BRANCH  27  29
HETATM   29  N1  UNL     1     -34.070 -63.362 -16.046  1.00  0.00    -0.262 N 
HETATM   30  C4  UNL     1     -35.142 -63.522 -16.841  1.00  0.00     0.143 A 
HETATM   31  C3  UNL     1     -36.176 -62.709 -16.430  1.00  0.00     0.072 A 
HETATM   32  N12 UNL     1     -35.679 -62.049 -15.349  1.00  0.00    -0.286 N 
HETATM   33  N11 UNL     1     -34.428 -62.464 -15.152  1.00  0.00    -0.239 N 
ATOM     34  H12 UNL     1     -36.177 -61.357 -14.788  1.00  0.00     0.188 HD
ATOM     35  H11 UNL     1     -33.823 -62.127 -14.403  1.00  0.00     0.208 HD
BRANCH  31  36
HETATM   36  C2  UNL     1     -37.531 -62.597 -17.051  1.00  0.00     0.166 C 
HETATM   37  C1  UNL     1     -37.353 -62.828 -18.535  1.00  0.00     0.046 C 
BRANCH  36  38
HETATM   38  O1  UNL     1     -37.970 -61.290 -16.873  1.00  0.00    -0.390 OA
ATOM     39  H1  UNL     1     -37.410 -60.722 -17.389  1.00  0.00     0.210 HD
ENDBRANCH  36  38
ENDBRANCH  31  36
ENDBRANCH  27  29
ENDBRANCH   9  26
BRANCH  12  40
HETATM   40  N9  UNL     1     -29.341 -64.287 -16.253  1.00  0.00    -0.232 N 
ATOM     41  H92 UNL     1     -30.137 -64.817 -16.608  1.00  0.00     0.174 HD
ATOM     42  H91 UNL     1     -28.794 -64.016 -17.071  1.00  0.00     0.174 HD
ENDBRANCH  12  40
ENDBRANCH   1   6
BRANCH   1  43
HETATM   43  O4  UNL     1     -27.856 -61.896 -10.949  1.00  0.00    -0.359 OA
ATOM     44  H4  UNL     1     -28.321 -61.375 -11.592  1.00  0.00     0.213 HD
ENDBRANCH   1  43
TORSDOF 11
ENDMDL
MODEL 4
REMARK VINA RESULT: -9.383410237      3.182      5.914
REMARK  11 active torsions:
REMARK  status: ('A' for Active; 'I' for Inactive)
REMARK    1  A    between atoms: C2_2  and  O1_3 
REMARK    2  A    between atoms: C2_2  and  C3_5 
REMARK    3  A    between atoms: N1_7  and  C5_8 
REMARK    4  A    between atoms: N2_10  and  C7_11 
REMARK    5  A    between atoms: C8_12  and  N3_13 
REMARK    6  A    between atoms: N3_13  and  C9_15 
REMARK    7  A    between atoms: C9_15  and  O2_16 
REMARK    8  A    between atoms: C9_15  and  O3_18 
REMARK    9  A    between atoms: C11_21  and  C12_22 
REMARK   10  A    between atoms: C12_22  and  O4_23 
REMARK   11  A    between atoms: C16_36  and  N9_37 
ROOT
HETATM    1  C12 UNL     1     -28.861 -63.218 -10.656  1.00  0.00     0.282 C 
HETATM    2  C13 UNL     1     -28.420 -61.832 -10.560  1.00  0.00     0.120 C 
HETATM    3  N4  UNL     1     -28.074 -60.710 -10.500  1.00  0.00    -0.192 NA
HETATM    4  C14 UNL     1     -28.041 -64.161  -9.912  1.00  0.00     0.120 C 
HETATM    5  N5  UNL     1     -27.387 -64.935  -9.325  1.00  0.00    -0.192 NA
ENDROOT
BRANCH   1   6
HETATM    6  C11 UNL     1     -29.375 -63.655 -11.942  1.00  0.00     0.119 A 
HETATM    7  C10 UNL     1     -30.758 -63.726 -12.184  1.00  0.00     0.066 A 
HETATM    8  C8  UNL     1     -31.333 -64.122 -13.346  1.00  0.00     0.081 A 
HETATM    9  C7  UNL     1     -30.497 -64.492 -14.397  1.00  0.00     0.173 A 
HETATM   10  N10 UNL     1     -29.193 -64.428 -14.178  1.00  0.00    -0.046 N 
HETATM   11  N6  UNL     1     -28.635 -64.030 -13.009  1.00  0.00    -0.062 N 
HETATM   12  C16 UNL     1     -28.200 -64.729 -15.057  1.00  0.00     0.714 A 
HETATM   13  C15 UNL     1     -27.304 -64.083 -13.154  1.00  0.00     0.713 A 
HETATM   14  N7  UNL     1     -26.405 -63.794 -12.302  1.00  0.00    -0.232 N 
HETATM   15  N8  UNL     1     -27.043 -64.508 -14.401  1.00  0.00    -0.019 N 
ATOM     16  H72 UNL     1     -26.603 -63.472 -11.355  1.00  0.00     0.174 HD
ATOM     17  H71 UNL     1     -25.392 -63.835 -12.413  1.00  0.00     0.174 HD
ATOM     18  H8  UNL     1     -26.111 -64.643 -14.793  1.00  0.00     0.203 HD
BRANCH   8  19
HETATM   19  N3  UNL     1     -32.740 -64.158 -13.547  1.00  0.00    -0.339 N 
ATOM     20  H3  UNL     1     -33.212 -65.044 -13.727  1.00  0.00     0.164 HD
BRANCH  19  21
HETATM   21  C9  UNL     1     -33.495 -62.927 -13.493  1.00  0.00     0.365 C 
BRANCH  21  22
HETATM   22  O2  UNL     1     -34.847 -63.157 -13.759  1.00  0.00    -0.355 OA
ATOM     23  H2  UNL     1     -35.098 -64.037 -13.507  1.00  0.00     0.214 HD
ENDBRANCH  21  22
BRANCH  21  24
HETATM   24  O3  UNL     1     -33.057 -62.004 -14.437  1.00  0.00    -0.355 OA
ATOM     25  H3  UNL     1     -33.518 -61.176 -14.368  1.00  0.00     0.214 HD
ENDBRANCH  21  24
ENDBRANCH  19  21
ENDBRANCH   8  19
BRANCH   9  26
HETATM   26  N2  UNL     1     -31.148 -64.906 -15.588  1.00  0.00    -0.335 N 
HETATM   27  C5  UNL     1     -31.869 -64.621 -16.795  1.00  0.00     0.228 A 
HETATM   28  C6  UNL     1     -31.553 -66.048 -16.492  1.00  0.00     0.175 A 
BRANCH  27  29
HETATM   29  N1  UNL     1     -33.273 -64.284 -16.801  1.00  0.00    -0.262 N 
HETATM   30  C4  UNL     1     -34.328 -65.097 -16.629  1.00  0.00     0.143 A 
HETATM   31  C3  UNL     1     -35.506 -64.385 -16.701  1.00  0.00     0.072 A 
HETATM   32  N12 UNL     1     -35.113 -63.102 -16.926  1.00  0.00    -0.286 N 
HETATM   33  N11 UNL     1     -33.781 -63.082 -16.978  1.00  0.00    -0.239 N 
ATOM     34  H12 UNL     1     -35.729 -62.297 -17.036  1.00  0.00     0.188 HD
ATOM     35  H11 UNL     1     -33.226 -62.241 -17.135  1.00  0.00     0.208 HD
BRANCH  31  36
HETATM   36  C2  UNL     1     -36.892 -64.926 -16.561  1.00  0.00     0.166 C 
HETATM   37  C1  UNL     1     -37.746 -64.212 -17.584  1.00  0.00     0.046 C 
BRANCH  36  38
HETATM   38  O1  UNL     1     -37.356 -64.576 -15.299  1.00  0.00    -0.390 OA
ATOM     39  H1  UNL     1     -37.129 -65.278 -14.699  1.00  0.00     0.210 HD
ENDBRANCH  36  38
ENDBRANCH  31  36
ENDBRANCH  27  29
ENDBRANCH   9  26
BRANCH  12  40
HETATM   40  N9  UNL     1     -28.272 -65.132 -16.277  1.00  0.00    -0.232 N 
ATOM     41  H92 UNL     1     -27.528 -65.385 -16.927  1.00  0.00     0.174 HD
ATOM     42  H91 UNL     1     -29.148 -65.269 -16.784  1.00  0.00     0.174 HD
ENDBRANCH  12  40
ENDBRANCH   1   6
BRANCH   1  43
HETATM   43  O4  UNL     1     -30.018 -63.163  -9.795  1.00  0.00    -0.359 OA
ATOM     44  H4  UNL     1     -29.691 -62.830  -8.968  1.00  0.00     0.213 HD
ENDBRANCH   1  43
TORSDOF 11
ENDMDL
MODEL 5
REMARK VINA RESULT: -9.173711182      1.048      1.253
REMARK  11 active torsions:
REMARK  status: ('A' for Active; 'I' for Inactive)
REMARK    1  A    between atoms: C2_2  and  O1_3 
REMARK    2  A    between atoms: C2_2  and  C3_5 
REMARK    3  A    between atoms: N1_7  and  C5_8 
REMARK    4  A    between atoms: N2_10  and  C7_11 
REMARK    5  A    between atoms: C8_12  and  N3_13 
REMARK    6  A    between atoms: N3_13  and  C9_15 
REMARK    7  A    between atoms: C9_15  and  O2_16 
REMARK    8  A    between atoms: C9_15  and  O3_18 
REMARK    9  A    between atoms: C11_21  and  C12_22 
REMARK   10  A    between atoms: C12_22  and  O4_23 
REMARK   11  A    between atoms: C16_36  and  N9_37 
ROOT
HETATM    1  C12 UNL     1     -28.623 -64.709 -14.454  1.00  0.00     0.282 C 
HETATM    2  C13 UNL     1     -28.883 -65.978 -15.123  1.00  0.00     0.120 C 
HETATM    3  N4  UNL     1     -29.112 -66.999 -15.659  1.00  0.00    -0.192 NA
HETATM    4  C14 UNL     1     -27.277 -64.577 -13.921  1.00  0.00     0.120 C 
HETATM    5  N5  UNL     1     -26.200 -64.457 -13.478  1.00  0.00    -0.192 NA
ENDROOT
BRANCH   1   6
HETATM    6  C11 UNL     1     -29.708 -64.149 -13.667  1.00  0.00     0.119 A 
HETATM    7  C10 UNL     1     -29.529 -63.829 -12.310  1.00  0.00     0.066 A 
HETATM    8  C8  UNL     1     -30.478 -63.305 -11.494  1.00  0.00     0.081 A 
HETATM    9  C7  UNL     1     -31.738 -63.059 -12.032  1.00  0.00     0.173 A 
HETATM   10  N10 UNL     1     -31.916 -63.356 -13.310  1.00  0.00    -0.046 N 
HETATM   11  N6  UNL     1     -30.955 -63.880 -14.111  1.00  0.00    -0.062 N 
HETATM   12  C16 UNL     1     -33.051 -63.190 -14.039  1.00  0.00     0.714 A 
HETATM   13  C15 UNL     1     -31.487 -64.041 -15.330  1.00  0.00     0.713 A 
HETATM   14  N7  UNL     1     -30.931 -64.502 -16.377  1.00  0.00    -0.232 N 
HETATM   15  N8  UNL     1     -32.761 -63.621 -15.283  1.00  0.00    -0.019 N 
ATOM     16  H72 UNL     1     -29.964 -64.822 -16.413  1.00  0.00     0.174 HD
ATOM     17  H71 UNL     1     -31.336 -64.626 -17.306  1.00  0.00     0.174 HD
ATOM     18  H8  UNL     1     -33.411 -63.626 -16.069  1.00  0.00     0.203 HD
BRANCH   8  19
HETATM   19  N3  UNL     1     -30.241 -62.981 -10.131  1.00  0.00    -0.339 N 
ATOM     20  H3  UNL     1     -30.455 -63.656  -9.397  1.00  0.00     0.164 HD
BRANCH  19  21
HETATM   21  C9  UNL     1     -29.692 -61.687  -9.795  1.00  0.00     0.365 C 
BRANCH  21  22
HETATM   22  O2  UNL     1     -28.296 -61.731  -9.749  1.00  0.00    -0.355 OA
ATOM     23  H2  UNL     1     -27.917 -61.031 -10.268  1.00  0.00     0.214 HD
ENDBRANCH  21  22
BRANCH  21  24
HETATM   24  O3  UNL     1     -30.116 -61.249  -8.545  1.00  0.00    -0.355 OA
ATOM     25  H3  UNL     1     -30.194 -61.963  -7.924  1.00  0.00     0.214 HD
ENDBRANCH  21  24
ENDBRANCH  19  21
ENDBRANCH   8  19
BRANCH   9  26
HETATM   26  N2  UNL     1     -32.698 -62.519 -11.136  1.00  0.00    -0.335 N 
HETATM   27  C5  UNL     1     -33.684 -62.669 -10.104  1.00  0.00     0.228 A 
HETATM   28  C6  UNL     1     -33.395 -61.290 -10.598  1.00  0.00     0.175 A 
BRANCH  27  29
HETATM   29  N1  UNL     1     -35.017 -63.155 -10.367  1.00  0.00    -0.262 N 
HETATM   30  C4  UNL     1     -35.532 -64.368 -10.102  1.00  0.00     0.143 A 
HETATM   31  C3  UNL     1     -36.848 -64.435 -10.505  1.00  0.00     0.072 A 
HETATM   32  N12 UNL     1     -37.105 -63.205 -11.027  1.00  0.00    -0.286 N 
HETATM   33  N11 UNL     1     -35.995 -62.474 -10.927  1.00  0.00    -0.239 N 
ATOM     34  H12 UNL     1     -37.992 -62.897 -11.426  1.00  0.00     0.188 HD
ATOM     35  H11 UNL     1     -35.913 -61.508 -11.244  1.00  0.00     0.208 HD
BRANCH  31  36
HETATM   36  C2  UNL     1     -37.765 -65.608 -10.384  1.00  0.00     0.166 C 
HETATM   37  C1  UNL     1     -36.910 -66.794  -9.999  1.00  0.00     0.046 C 
BRANCH  36  38
HETATM   38  O1  UNL     1     -38.299 -65.859 -11.643  1.00  0.00    -0.390 OA
ATOM     39  H1  UNL     1     -37.664 -65.573 -12.290  1.00  0.00     0.210 HD
ENDBRANCH  36  38
ENDBRANCH  31  36
ENDBRANCH  27  29
ENDBRANCH   9  26
BRANCH  12  40
HETATM   40  N9  UNL     1     -34.195 -62.716 -13.688  1.00  0.00    -0.232 N 
ATOM     41  H92 UNL     1     -34.974 -63.173 -13.212  1.00  0.00     0.174 HD
ATOM     42  H91 UNL     1     -34.486 -61.750 -13.842  1.00  0.00     0.174 HD
ENDBRANCH  12  40
ENDBRANCH   1   6
BRANCH   1  43
HETATM   43  O4  UNL     1     -28.519 -63.846 -15.607  1.00  0.00    -0.359 OA
ATOM     44  H4  UNL     1     -27.586 -63.759 -15.762  1.00  0.00     0.213 HD
ENDBRANCH   1  43
TORSDOF 11
ENDMDL
