MODEL 1
REMARK VINA RESULT: -8.401889077      0.000      0.000
REMARK  11 active torsions:
REMARK  status: ('A' for Active; 'I' for Inactive)
REMARK    1  A    between atoms: C3_4  and  C4_5 
REMARK    2  A    between atoms: C4_5  and  N2_6 
REMARK    3  A    between atoms: N2_6  and  C5_7 
REMARK    4  A    between atoms: N5_12  and  C6_13 
REMARK    5  A    between atoms: C6_13  and  N6_14 
REMARK    6  A    between atoms: C9_17  and  N7_18 
REMARK    7  A    between atoms: N7_18  and  C10_21 
REMARK    8  A    between atoms: C10_21  and  C11_22 
REMARK    9  A    between atoms: N9_33  and  C19_34 
REMARK   10  A    between atoms: C20_35  and  O2_36 
REMARK   11  A    between atoms: C20_35  and  C21_38 
ROOT
HETATM    1  C5  UNL     1      -2.263   4.075  12.695  1.00  0.00     0.285 A 
HETATM    2  N3  UNL     1      -0.954   4.416  13.000  1.00  0.00    -0.243 N 
ATOM      3  H3  UNL     1      -0.703   4.503  13.984  1.00  0.00     0.192 HD
HETATM    4  N4  UNL     1      -0.028   4.631  12.120  1.00  0.00    -0.228 N 
ATOM      5  H4  UNL     1       0.918   4.879  12.409  1.00  0.00     0.209 HD
HETATM    6  N5  UNL     1      -0.342   4.520  10.806  1.00  0.00    -0.185 N 
HETATM    7  C18 UNL     1      -1.569   4.201  10.495  1.00  0.00     0.357 A 
HETATM    8  O1  UNL     1      -1.885   4.095   9.253  1.00  0.00    -0.244 OA
HETATM    9  N9  UNL     1      -2.584   3.960  11.394  1.00  0.00    -0.228 N 
ENDROOT
BRANCH   6  10
HETATM   10  C6  UNL     1       0.755   4.826   9.915  1.00  0.00     0.215 C 
BRANCH  10  11
HETATM   11  N6  UNL     1       1.185   6.158  10.054  1.00  0.00    -0.355 N 
HETATM   12  C7  UNL     1       0.351   7.230   9.744  1.00  0.00     0.067 C 
HETATM   13  C8  UNL     1       0.792   8.548  10.361  1.00  0.00     0.077 C 
HETATM   14  C9  UNL     1       1.613   8.446  11.572  1.00  0.00     0.192 C 
HETATM   15  C16 UNL     1       2.660   7.344  11.592  1.00  0.00     0.053 C 
HETATM   16  C17 UNL     1       2.528   6.415  10.417  1.00  0.00     0.131 C 
BRANCH  14  17
HETATM   17  N7  UNL     1       0.976   8.555  12.868  1.00  0.00    -0.067 N 
ATOM     18  H72 UNL     1       0.694   7.647  13.238  1.00  0.00     0.277 HD
ATOM     19  H71 UNL     1       1.636   8.812  13.602  1.00  0.00     0.277 HD
BRANCH  17  20
HETATM   20  C10 UNL     1      -0.139   9.485  12.778  1.00  0.00     0.272 C 
BRANCH  20  21
HETATM   21  C11 UNL     1      -1.328   8.884  13.450  1.00  0.00    -0.017 A 
HETATM   22  C12 UNL     1      -1.604   9.268  14.777  1.00  0.00     0.011 A 
HETATM   23  C13 UNL     1      -2.627   8.673  15.443  1.00  0.00     0.018 A 
HETATM   24  C14 UNL     1      -3.386   7.714  14.851  1.00  0.00     0.087 A 
HETATM   25  N8  UNL     1      -3.122   7.341  13.562  1.00  0.00    -0.375 N 
HETATM   26  C15 UNL     1      -2.107   7.928  12.892  1.00  0.00     0.096 A 
ATOM     27  H8  UNL     1      -3.688   6.623  13.108  1.00  0.00     0.164 HD
ENDBRANCH  20  21
ENDBRANCH  17  20
ENDBRANCH  14  17
ENDBRANCH  10  11
ENDBRANCH   6  10
BRANCH   9  28
HETATM   28  C19 UNL     1      -3.833   3.566  10.838  1.00  0.00     0.143 C 
HETATM   29  C20 UNL     1      -4.348   2.257  10.827  1.00  0.00     0.092 C 
BRANCH  29  30
HETATM   30  O2  UNL     1      -5.684   2.249  10.717  1.00  0.00    -0.358 OA
ATOM     31  H2  UNL     1      -5.981   1.619  10.071  1.00  0.00     0.217 HD
ENDBRANCH  29  30
BRANCH  29  32
HETATM   32  C21 UNL     1      -3.845   0.910  10.903  1.00  0.00    -0.002 A 
HETATM   33  C22 UNL     1      -2.472   0.625  10.610  1.00  0.00     0.014 A 
HETATM   34  C23 UNL     1      -1.990  -0.663  10.723  1.00  0.00     0.001 A 
HETATM   35  C24 UNL     1      -2.758  -1.731  11.110  1.00  0.00     0.000 A 
HETATM   36  C25 UNL     1      -4.088  -1.486  11.398  1.00  0.00     0.001 A 
HETATM   37  C26 UNL     1      -4.559  -0.192  11.282  1.00  0.00     0.014 A 
ENDBRANCH  29  32
ENDBRANCH   9  28
BRANCH   1  38
HETATM   38  N2  UNL     1      -3.013   3.959  13.641  1.00  0.00    -0.380 NA
BRANCH  38  39
HETATM   39  C4  UNL     1      -4.045   4.060  14.474  1.00  0.00     0.219 C 
BRANCH  39  40
HETATM   40  C3  UNL     1      -4.523   2.811  15.184  1.00  0.00     0.095 A 
HETATM   41  C2  UNL     1      -5.745   2.593  15.722  1.00  0.00     0.144 A 
HETATM   42  N1  UNL     1      -5.707   1.368  16.295  1.00  0.00    -0.291 N 
HETATM   43  C1  UNL     1      -6.773   0.706  17.043  1.00  0.00     0.178 C 
HETATM   44  N11 UNL     1      -4.519   0.872  16.107  1.00  0.00    -0.241 N 
HETATM   45  N10 UNL     1      -3.773   1.730  15.431  1.00  0.00    -0.283 N 
ATOM     46  H11 UNL     1      -4.209  -0.043  16.434  1.00  0.00     0.208 HD
ATOM     47  H10 UNL     1      -2.803   1.592  15.149  1.00  0.00     0.188 HD
ENDBRANCH  39  40
ENDBRANCH  38  39
ENDBRANCH   1  38
TORSDOF 11
ENDMDL
MODEL 2
REMARK VINA RESULT: -8.182668551      1.401      1.803
REMARK  11 active torsions:
REMARK  status: ('A' for Active; 'I' for Inactive)
REMARK    1  A    between atoms: C3_4  and  C4_5 
REMARK    2  A    between atoms: C4_5  and  N2_6 
REMARK    3  A    between atoms: N2_6  and  C5_7 
REMARK    4  A    between atoms: N5_12  and  C6_13 
REMARK    5  A    between atoms: C6_13  and  N6_14 
REMARK    6  A    between atoms: C9_17  and  N7_18 
REMARK    7  A    between atoms: N7_18  and  C10_21 
REMARK    8  A    between atoms: C10_21  and  C11_22 
REMARK    9  A    between atoms: N9_33  and  C19_34 
REMARK   10  A    between atoms: C20_35  and  O2_36 
REMARK   11  A    between atoms: C20_35  and  C21_38 
ROOT
HETATM    1  C5  UNL     1      -2.268   4.001  12.641  1.00  0.00     0.285 A 
HETATM    2  N3  UNL     1      -0.959   4.356  12.932  1.00  0.00    -0.243 N 
ATOM      3  H3  UNL     1      -0.698   4.443  13.914  1.00  0.00     0.192 HD
HETATM    4  N4  UNL     1      -0.046   4.584  12.042  1.00  0.00    -0.228 N 
ATOM      5  H4  UNL     1       0.900   4.842  12.321  1.00  0.00     0.209 HD
HETATM    6  N5  UNL     1      -0.374   4.473  10.731  1.00  0.00    -0.185 N 
HETATM    7  C18 UNL     1      -1.602   4.141  10.434  1.00  0.00     0.357 A 
HETATM    8  O1  UNL     1      -1.931   4.036   9.196  1.00  0.00    -0.244 OA
HETATM    9  N9  UNL     1      -2.603   3.887  11.345  1.00  0.00    -0.228 N 
ENDROOT
BRANCH   6  10
HETATM   10  C6  UNL     1       0.709   4.793   9.828  1.00  0.00     0.215 C 
BRANCH  10  11
HETATM   11  N6  UNL     1       0.812   6.179   9.607  1.00  0.00    -0.355 N 
HETATM   12  C7  UNL     1       0.175   6.795   8.533  1.00  0.00     0.067 C 
HETATM   13  C8  UNL     1       0.017   8.300   8.695  1.00  0.00     0.077 C 
HETATM   14  C9  UNL     1       0.010   8.798  10.075  1.00  0.00     0.192 C 
HETATM   15  C16 UNL     1       0.988   8.146  11.039  1.00  0.00     0.053 C 
HETATM   16  C17 UNL     1       1.665   6.947  10.434  1.00  0.00     0.131 C 
BRANCH  14  17
HETATM   17  N7  UNL     1      -1.259   9.035  10.732  1.00  0.00    -0.067 N 
ATOM     18  H72 UNL     1      -1.256   9.896  11.279  1.00  0.00     0.277 HD
ATOM     19  H71 UNL     1      -1.996   9.285  10.073  1.00  0.00     0.277 HD
BRANCH  17  20
HETATM   20  C10 UNL     1      -1.608   7.873  11.535  1.00  0.00     0.272 C 
BRANCH  20  21
HETATM   21  C11 UNL     1      -3.024   7.497  11.256  1.00  0.00    -0.017 A 
HETATM   22  C12 UNL     1      -3.869   7.235  12.353  1.00  0.00     0.011 A 
HETATM   23  C13 UNL     1      -5.138   6.806  12.129  1.00  0.00     0.018 A 
HETATM   24  C14 UNL     1      -5.604   6.625  10.865  1.00  0.00     0.087 A 
HETATM   25  N8  UNL     1      -4.787   6.881   9.798  1.00  0.00    -0.375 N 
HETATM   26  C15 UNL     1      -3.524   7.309  10.013  1.00  0.00     0.096 A 
ATOM     27  H8  UNL     1      -5.129   6.750   8.846  1.00  0.00     0.164 HD
ENDBRANCH  20  21
ENDBRANCH  17  20
ENDBRANCH  14  17
ENDBRANCH  10  11
ENDBRANCH   6  10
BRANCH   9  28
HETATM   28  C19 UNL     1      -3.854   3.481  10.802  1.00  0.00     0.143 C 
HETATM   29  C20 UNL     1      -4.362   2.169  10.808  1.00  0.00     0.092 C 
BRANCH  29  30
HETATM   30  O2  UNL     1      -5.699   2.152  10.708  1.00  0.00    -0.358 OA
ATOM     31  H2  UNL     1      -5.999   1.492  10.094  1.00  0.00     0.217 HD
ENDBRANCH  29  30
BRANCH  29  32
HETATM   32  C21 UNL     1      -3.851   0.826  10.892  1.00  0.00    -0.002 A 
HETATM   33  C22 UNL     1      -2.475   0.548  10.607  1.00  0.00     0.014 A 
HETATM   34  C23 UNL     1      -1.985  -0.736  10.728  1.00  0.00     0.001 A 
HETATM   35  C24 UNL     1      -2.748  -1.808  11.116  1.00  0.00     0.000 A 
HETATM   36  C25 UNL     1      -4.081  -1.570  11.395  1.00  0.00     0.001 A 
HETATM   37  C26 UNL     1      -4.560  -0.279  11.271  1.00  0.00     0.014 A 
ENDBRANCH  29  32
ENDBRANCH   9  28
BRANCH   1  38
HETATM   38  N2  UNL     1      -3.006   3.874  13.597  1.00  0.00    -0.380 NA
BRANCH  38  39
HETATM   39  C4  UNL     1      -3.990   4.018  14.478  1.00  0.00     0.219 C 
BRANCH  39  40
HETATM   40  C3  UNL     1      -4.519   2.782  15.175  1.00  0.00     0.095 A 
HETATM   41  C2  UNL     1      -5.745   2.614  15.722  1.00  0.00     0.144 A 
HETATM   42  N1  UNL     1      -5.759   1.380  16.276  1.00  0.00    -0.291 N 
HETATM   43  C1  UNL     1      -6.848   0.757  17.025  1.00  0.00     0.178 C 
HETATM   44  N11 UNL     1      -4.598   0.832  16.069  1.00  0.00    -0.241 N 
HETATM   45  N10 UNL     1      -3.819   1.663  15.398  1.00  0.00    -0.283 N 
ATOM     46  H11 UNL     1      -4.328  -0.103  16.379  1.00  0.00     0.208 HD
ATOM     47  H10 UNL     1      -2.859   1.484  15.104  1.00  0.00     0.188 HD
ENDBRANCH  39  40
ENDBRANCH  38  39
ENDBRANCH   1  38
TORSDOF 11
ENDMDL
MODEL 3
REMARK VINA RESULT: -8.121179587      2.540      7.656
REMARK  11 active torsions:
REMARK  status: ('A' for Active; 'I' for Inactive)
REMARK    1  A    between atoms: C3_4  and  C4_5 
REMARK    2  A    between atoms: C4_5  and  N2_6 
REMARK    3  A    between atoms: N2_6  and  C5_7 
REMARK    4  A    between atoms: N5_12  and  C6_13 
REMARK    5  A    between atoms: C6_13  and  N6_14 
REMARK    6  A    between atoms: C9_17  and  N7_18 
REMARK    7  A    between atoms: N7_18  and  C10_21 
REMARK    8  A    between atoms: C10_21  and  C11_22 
REMARK    9  A    between atoms: N9_33  and  C19_34 
REMARK   10  A    between atoms: C20_35  and  O2_36 
REMARK   11  A    between atoms: C20_35  and  C21_38 
ROOT
HETATM    1  C5  UNL     1      -1.368   6.530  13.393  1.00  0.00     0.285 A 
HETATM    2  N3  UNL     1      -1.243   5.228  13.855  1.00  0.00    -0.243 N 
ATOM      3  H3  UNL     1      -1.316   5.072  14.860  1.00  0.00     0.192 HD
HETATM    4  N4  UNL     1      -1.040   4.197  13.097  1.00  0.00    -0.228 N 
ATOM      5  H4  UNL     1      -0.957   3.264  13.500  1.00  0.00     0.209 HD
HETATM    6  N5  UNL     1      -0.939   4.384  11.759  1.00  0.00    -0.185 N 
HETATM    7  C18 UNL     1      -1.053   5.602  11.301  1.00  0.00     0.357 A 
HETATM    8  O1  UNL     1      -0.956   5.798  10.034  1.00  0.00    -0.244 OA
HETATM    9  N9  UNL     1      -1.271   6.726  12.066  1.00  0.00    -0.228 N 
ENDROOT
BRANCH   6  10
HETATM   10  C6  UNL     1      -0.668   3.173  11.018  1.00  0.00     0.215 C 
BRANCH  10  11
HETATM   11  N6  UNL     1      -1.836   2.417  10.806  1.00  0.00    -0.355 N 
HETATM   12  C7  UNL     1      -1.800   1.028  10.720  1.00  0.00     0.067 C 
HETATM   13  C8  UNL     1      -3.152   0.365  10.940  1.00  0.00     0.077 C 
HETATM   14  C9  UNL     1      -4.121   1.134  11.729  1.00  0.00     0.192 C 
HETATM   15  C16 UNL     1      -4.173   2.631  11.471  1.00  0.00     0.053 C 
HETATM   16  C17 UNL     1      -3.059   3.090  10.571  1.00  0.00     0.131 C 
BRANCH  14  17
HETATM   17  N7  UNL     1      -4.249   0.865  13.146  1.00  0.00    -0.067 N 
ATOM     18  H72 UNL     1      -5.005   0.211  13.349  1.00  0.00     0.277 HD
ATOM     19  H71 UNL     1      -3.475   0.306  13.505  1.00  0.00     0.277 HD
BRANCH  17  20
HETATM   20  C10 UNL     1      -4.400   2.122  13.862  1.00  0.00     0.272 C 
BRANCH  20  21
HETATM   21  C11 UNL     1      -5.135   1.871  15.136  1.00  0.00    -0.017 A 
HETATM   22  C12 UNL     1      -6.063   2.840  15.568  1.00  0.00     0.011 A 
HETATM   23  C13 UNL     1      -6.682   2.681  16.766  1.00  0.00     0.018 A 
HETATM   24  C14 UNL     1      -6.420   1.605  17.554  1.00  0.00     0.087 A 
HETATM   25  N8  UNL     1      -5.521   0.662  17.136  1.00  0.00    -0.375 N 
HETATM   26  C15 UNL     1      -4.902   0.812  15.945  1.00  0.00     0.096 A 
ATOM     27  H8  UNL     1      -5.319  -0.150  17.720  1.00  0.00     0.164 HD
ENDBRANCH  20  21
ENDBRANCH  17  20
ENDBRANCH  14  17
ENDBRANCH  10  11
ENDBRANCH   6  10
BRANCH   9  28
HETATM   28  C19 UNL     1      -1.424   7.948  11.354  1.00  0.00     0.143 C 
HETATM   29  C20 UNL     1      -2.637   8.630  11.148  1.00  0.00     0.092 C 
BRANCH  29  30
HETATM   30  O2  UNL     1      -2.441   9.935  10.912  1.00  0.00    -0.358 OA
ATOM     31  H2  UNL     1      -3.243  10.371  10.652  1.00  0.00     0.217 HD
ENDBRANCH  29  30
BRANCH  29  32
HETATM   32  C21 UNL     1      -4.043   8.323  11.118  1.00  0.00    -0.002 A 
HETATM   33  C22 UNL     1      -4.950   9.123  10.352  1.00  0.00     0.014 A 
HETATM   34  C23 UNL     1      -6.290   8.798  10.298  1.00  0.00     0.001 A 
HETATM   35  C24 UNL     1      -6.838   7.724  10.952  1.00  0.00     0.000 A 
HETATM   36  C25 UNL     1      -5.987   6.934  11.701  1.00  0.00     0.001 A 
HETATM   37  C26 UNL     1      -4.646   7.269  11.746  1.00  0.00     0.014 A 
ENDBRANCH  29  32
ENDBRANCH   9  28
BRANCH   1  38
HETATM   38  N2  UNL     1      -1.505   7.383  14.245  1.00  0.00    -0.380 NA
BRANCH  38  39
HETATM   39  C4  UNL     1      -1.899   8.450  14.933  1.00  0.00     0.219 C 
BRANCH  39  40
HETATM   40  C3  UNL     1      -1.277   9.790  14.601  1.00  0.00     0.095 A 
HETATM   41  C2  UNL     1      -0.066  10.248  14.991  1.00  0.00     0.144 A 
HETATM   42  N1  UNL     1       0.050  11.507  14.509  1.00  0.00    -0.291 N 
HETATM   43  C1  UNL     1       1.163  12.432  14.705  1.00  0.00     0.178 C 
HETATM   44  N11 UNL     1      -1.039  11.790  13.857  1.00  0.00    -0.241 N 
HETATM   45  N10 UNL     1      -1.869  10.761  13.895  1.00  0.00    -0.283 N 
ATOM     46  H11 UNL     1      -1.226  12.676  13.386  1.00  0.00     0.208 HD
ATOM     47  H10 UNL     1      -2.792  10.716  13.464  1.00  0.00     0.188 HD
ENDBRANCH  39  40
ENDBRANCH  38  39
ENDBRANCH   1  38
TORSDOF 11
ENDMDL
MODEL 4
REMARK VINA RESULT: -8.111116633      2.293      2.912
REMARK  11 active torsions:
REMARK  status: ('A' for Active; 'I' for Inactive)
REMARK    1  A    between atoms: C3_4  and  C4_5 
REMARK    2  A    between atoms: C4_5  and  N2_6 
REMARK    3  A    between atoms: N2_6  and  C5_7 
REMARK    4  A    between atoms: N5_12  and  C6_13 
REMARK    5  A    between atoms: C6_13  and  N6_14 
REMARK    6  A    between atoms: C9_17  and  N7_18 
REMARK    7  A    between atoms: N7_18  and  C10_21 
REMARK    8  A    between atoms: C10_21  and  C11_22 
REMARK    9  A    between atoms: N9_33  and  C19_34 
REMARK   10  A    between atoms: C20_35  and  O2_36 
REMARK   11  A    between atoms: C20_35  and  C21_38 
ROOT
HETATM    1  C5  UNL     1      -2.301   4.061  12.656  1.00  0.00     0.285 A 
HETATM    2  N3  UNL     1      -0.992   4.432  12.920  1.00  0.00    -0.243 N 
ATOM      3  H3  UNL     1      -0.711   4.521  13.897  1.00  0.00     0.192 HD
HETATM    4  N4  UNL     1      -0.100   4.674  12.012  1.00  0.00    -0.228 N 
ATOM      5  H4  UNL     1       0.848   4.944  12.272  1.00  0.00     0.209 HD
HETATM    6  N5  UNL     1      -0.454   4.562  10.708  1.00  0.00    -0.185 N 
HETATM    7  C18 UNL     1      -1.683   4.214  10.436  1.00  0.00     0.357 A 
HETATM    8  O1  UNL     1      -2.036   4.107   9.204  1.00  0.00    -0.244 OA
HETATM    9  N9  UNL     1      -2.662   3.945  11.366  1.00  0.00    -0.228 N 
ENDROOT
BRANCH   6  10
HETATM   10  C6  UNL     1       0.606   4.898   9.784  1.00  0.00     0.215 C 
BRANCH  10  11
HETATM   11  N6  UNL     1       0.377   6.136   9.156  1.00  0.00    -0.355 N 
HETATM   12  C7  UNL     1       0.271   6.243   7.771  1.00  0.00     0.067 C 
HETATM   13  C8  UNL     1      -0.406   7.523   7.305  1.00  0.00     0.077 C 
HETATM   14  C9  UNL     1      -1.314   8.155   8.269  1.00  0.00     0.192 C 
HETATM   15  C16 UNL     1      -0.870   8.154   9.723  1.00  0.00     0.053 C 
HETATM   16  C17 UNL     1       0.358   7.314   9.940  1.00  0.00     0.131 C 
BRANCH  14  17
HETATM   17  N7  UNL     1      -2.735   7.889   8.179  1.00  0.00    -0.067 N 
ATOM     18  H72 UNL     1      -3.249   8.669   7.769  1.00  0.00     0.277 HD
ATOM     19  H71 UNL     1      -2.952   7.186   7.473  1.00  0.00     0.277 HD
BRANCH  17  20
HETATM   20  C10 UNL     1      -3.239   7.526   9.494  1.00  0.00     0.272 C 
BRANCH  20  21
HETATM   21  C11 UNL     1      -4.720   7.709   9.514  1.00  0.00    -0.017 A 
HETATM   22  C12 UNL     1      -5.250   8.726  10.333  1.00  0.00     0.011 A 
HETATM   23  C13 UNL     1      -6.598   8.860  10.439  1.00  0.00     0.018 A 
HETATM   24  C14 UNL     1      -7.440   8.029   9.770  1.00  0.00     0.087 A 
HETATM   25  N8  UNL     1      -6.928   7.043   8.973  1.00  0.00    -0.375 N 
HETATM   26  C15 UNL     1      -5.589   6.904   8.861  1.00  0.00     0.096 A 
ATOM     27  H8  UNL     1      -7.553   6.416   8.466  1.00  0.00     0.164 HD
ENDBRANCH  20  21
ENDBRANCH  17  20
ENDBRANCH  14  17
ENDBRANCH  10  11
ENDBRANCH   6  10
BRANCH   9  28
HETATM   28  C19 UNL     1      -3.918   3.523  10.848  1.00  0.00     0.143 C 
HETATM   29  C20 UNL     1      -4.405   2.203  10.855  1.00  0.00     0.092 C 
BRANCH  29  30
HETATM   30  O2  UNL     1      -5.743   2.166  10.785  1.00  0.00    -0.358 OA
ATOM     31  H2  UNL     1      -6.117   1.611  11.459  1.00  0.00     0.217 HD
ENDBRANCH  29  30
BRANCH  29  32
HETATM   32  C21 UNL     1      -3.871   0.868  10.916  1.00  0.00    -0.002 A 
HETATM   33  C22 UNL     1      -2.491   0.618  10.624  1.00  0.00     0.014 A 
HETATM   34  C23 UNL     1      -1.979  -0.659  10.723  1.00  0.00     0.001 A 
HETATM   35  C24 UNL     1      -2.724  -1.750  11.095  1.00  0.00     0.000 A 
HETATM   36  C25 UNL     1      -4.060  -1.540  11.381  1.00  0.00     0.001 A 
HETATM   37  C26 UNL     1      -4.561  -0.255  11.279  1.00  0.00     0.014 A 
ENDBRANCH  29  32
ENDBRANCH   9  28
BRANCH   1  38
HETATM   38  N2  UNL     1      -3.017   3.922  13.626  1.00  0.00    -0.380 NA
BRANCH  38  39
HETATM   39  C4  UNL     1      -4.001   4.030  14.513  1.00  0.00     0.219 C 
BRANCH  39  40
HETATM   40  C3  UNL     1      -4.502   2.771  15.190  1.00  0.00     0.095 A 
HETATM   41  C2  UNL     1      -5.715   2.575  15.756  1.00  0.00     0.144 A 
HETATM   42  N1  UNL     1      -5.703   1.327  16.281  1.00  0.00    -0.291 N 
HETATM   43  C1  UNL     1      -6.770   0.674  17.035  1.00  0.00     0.178 C 
HETATM   44  N11 UNL     1      -4.540   0.799  16.038  1.00  0.00    -0.241 N 
HETATM   45  N10 UNL     1      -3.785   1.656  15.372  1.00  0.00    -0.283 N 
ATOM     46  H11 UNL     1      -4.253  -0.139  16.320  1.00  0.00     0.208 HD
ATOM     47  H10 UNL     1      -2.828   1.496  15.055  1.00  0.00     0.188 HD
ENDBRANCH  39  40
ENDBRANCH  38  39
ENDBRANCH   1  38
TORSDOF 11
ENDMDL
MODEL 5
REMARK VINA RESULT: -7.962024794      3.537      7.089
REMARK  11 active torsions:
REMARK  status: ('A' for Active; 'I' for Inactive)
REMARK    1  A    between atoms: C3_4  and  C4_5 
REMARK    2  A    between atoms: C4_5  and  N2_6 
REMARK    3  A    between atoms: N2_6  and  C5_7 
REMARK    4  A    between atoms: N5_12  and  C6_13 
REMARK    5  A    between atoms: C6_13  and  N6_14 
REMARK    6  A    between atoms: C9_17  and  N7_18 
REMARK    7  A    between atoms: N7_18  and  C10_21 
REMARK    8  A    between atoms: C10_21  and  C11_22 
REMARK    9  A    between atoms: N9_33  and  C19_34 
REMARK   10  A    between atoms: C20_35  and  O2_36 
REMARK   11  A    between atoms: C20_35  and  C21_38 
ROOT
HETATM    1  C5  UNL     1      -2.560   4.841  13.282  1.00  0.00     0.285 A 
HETATM    2  N3  UNL     1      -1.181   4.728  13.190  1.00  0.00    -0.243 N 
ATOM      3  H3  UNL     1      -0.617   5.219  13.884  1.00  0.00     0.192 HD
HETATM    4  N4  UNL     1      -0.560   4.041  12.284  1.00  0.00    -0.228 N 
ATOM      5  H4  UNL     1       0.459   3.997  12.271  1.00  0.00     0.209 HD
HETATM    6  N5  UNL     1      -1.292   3.381  11.354  1.00  0.00    -0.185 N 
HETATM    7  C18 UNL     1      -2.592   3.474  11.420  1.00  0.00     0.357 A 
HETATM    8  O1  UNL     1      -3.302   2.858  10.542  1.00  0.00    -0.244 OA
HETATM    9  N9  UNL     1      -3.295   4.189  12.364  1.00  0.00    -0.228 N 
ENDROOT
BRANCH   6  10
HETATM   10  C6  UNL     1      -0.495   2.686  10.367  1.00  0.00     0.215 C 
BRANCH  10  11
HETATM   11  N6  UNL     1       0.224   3.580   9.552  1.00  0.00    -0.355 N 
HETATM   12  C7  UNL     1       1.603   3.471   9.389  1.00  0.00     0.067 C 
HETATM   13  C8  UNL     1       2.135   4.201   8.166  1.00  0.00     0.077 C 
HETATM   14  C9  UNL     1       1.174   4.412   7.077  1.00  0.00     0.192 C 
HETATM   15  C16 UNL     1      -0.243   4.785   7.484  1.00  0.00     0.053 C 
HETATM   16  C17 UNL     1      -0.453   4.677   8.969  1.00  0.00     0.131 C 
BRANCH  14  17
HETATM   17  N7  UNL     1       1.148   3.481   5.969  1.00  0.00    -0.067 N 
ATOM     18  H72 UNL     1       1.588   2.590   6.202  1.00  0.00     0.277 HD
ATOM     19  H71 UNL     1       0.208   3.132   5.778  1.00  0.00     0.277 HD
BRANCH  17  20
HETATM   20  C10 UNL     1       1.751   4.105   4.802  1.00  0.00     0.272 C 
BRANCH  20  21
HETATM   21  C11 UNL     1       0.731   4.197   3.717  1.00  0.00    -0.017 A 
HETATM   22  C12 UNL     1      -0.337   5.099   3.887  1.00  0.00     0.011 A 
HETATM   23  C13 UNL     1      -1.327   5.142   2.958  1.00  0.00     0.018 A 
HETATM   24  C14 UNL     1      -1.302   4.328   1.869  1.00  0.00     0.087 A 
HETATM   25  N8  UNL     1      -0.265   3.453   1.701  1.00  0.00    -0.375 N 
HETATM   26  C15 UNL     1       0.724   3.405   2.620  1.00  0.00     0.096 A 
ATOM     27  H8  UNL     1      -0.237   2.840   0.886  1.00  0.00     0.164 HD
ENDBRANCH  20  21
ENDBRANCH  17  20
ENDBRANCH  14  17
ENDBRANCH  10  11
ENDBRANCH   6  10
BRANCH   9  28
HETATM   28  C19 UNL     1      -4.714   4.103  12.286  1.00  0.00     0.143 C 
HETATM   29  C20 UNL     1      -5.571   3.734  13.338  1.00  0.00     0.092 C 
BRANCH  29  30
HETATM   30  O2  UNL     1      -6.811   4.209  13.160  1.00  0.00    -0.358 OA
ATOM     31  H2  UNL     1      -7.222   4.442  13.984  1.00  0.00     0.217 HD
ENDBRANCH  29  30
BRANCH  29  32
HETATM   32  C21 UNL     1      -5.495   2.983  14.565  1.00  0.00    -0.002 A 
HETATM   33  C22 UNL     1      -6.485   3.149  15.586  1.00  0.00     0.014 A 
HETATM   34  C23 UNL     1      -6.425   2.397  16.741  1.00  0.00     0.001 A 
HETATM   35  C24 UNL     1      -5.449   1.467  16.994  1.00  0.00     0.000 A 
HETATM   36  C25 UNL     1      -4.478   1.287  16.026  1.00  0.00     0.001 A 
HETATM   37  C26 UNL     1      -4.549   2.045  14.873  1.00  0.00     0.014 A 
ENDBRANCH  29  32
ENDBRANCH   9  28
BRANCH   1  38
HETATM   38  N2  UNL     1      -2.974   5.566  14.163  1.00  0.00    -0.380 NA
BRANCH  38  39
HETATM   39  C4  UNL     1      -3.407   6.613  14.856  1.00  0.00     0.219 C 
BRANCH  39  40
HETATM   40  C3  UNL     1      -2.796   7.970  14.571  1.00  0.00     0.095 A 
HETATM   41  C2  UNL     1      -2.427   8.462  13.366  1.00  0.00     0.144 A 
HETATM   42  N1  UNL     1      -1.885   9.681  13.593  1.00  0.00    -0.291 N 
HETATM   43  C1  UNL     1      -1.299  10.587  12.608  1.00  0.00     0.178 C 
HETATM   44  N11 UNL     1      -1.929   9.910  14.872  1.00  0.00    -0.241 N 
HETATM   45  N10 UNL     1      -2.481   8.884  15.496  1.00  0.00    -0.283 N 
ATOM     46  H11 UNL     1      -1.588  10.758  15.327  1.00  0.00     0.208 HD
ATOM     47  H10 UNL     1      -2.638   8.803  16.501  1.00  0.00     0.188 HD
ENDBRANCH  39  40
ENDBRANCH  38  39
ENDBRANCH   1  38
TORSDOF 11
ENDMDL
