MODEL 1
REMARK VINA RESULT: -7.755895327      0.000      0.000
REMARK  11 active torsions:
REMARK  status: ('A' for Active; 'I' for Inactive)
REMARK    1  A    between atoms: C3_3  and  C4_4 
REMARK    2  A    between atoms: C4_4  and  O1_5 
REMARK    3  A    between atoms: O1_5  and  C5_6 
REMARK    4  A    between atoms: C8_9  and  C9_10 
REMARK    5  A    between atoms: C9_10  and  N1_11 
REMARK    6  A    between atoms: N1_11  and  C10_13 
REMARK    7  A    between atoms: N4_21  and  C13_22 
REMARK    8  A    between atoms: C13_22  and  C14_23 
REMARK    9  A    between atoms: N5_25  and  C16_26 
REMARK   10  A    between atoms: C16_26  and  C17_27 
REMARK   11  A    between atoms: C24_42  and  O5_43 
ROOT
HETATM    1  C1  UNL     1      -1.449   1.465  10.690  1.00  0.00     0.012 C 
HETATM    2  C2  UNL     1      -2.237   0.555  10.691  1.00  0.00    -0.115 C 
HETATM    3  C3  UNL     1      -3.224  -0.561  10.671  1.00  0.00     0.119 C 
ENDROOT
BRANCH   3   4
HETATM    4  C4  UNL     1      -4.523   0.006  11.145  1.00  0.00     0.188 C 
BRANCH   4   5
HETATM    5  O1  UNL     1      -4.540   0.570  12.402  1.00  0.00    -0.347 OA
BRANCH   5   6
HETATM    6  C5  UNL     1      -4.588   1.893  12.729  1.00  0.00     0.102 A 
HETATM    7  C6  UNL     1      -4.829   2.945  11.877  1.00  0.00     0.040 A 
HETATM    8  C7  UNL     1      -4.848   4.263  12.339  1.00  0.00     0.012 A 
HETATM    9  C8  UNL     1      -4.625   4.549  13.668  1.00  0.00    -0.038 A 
HETATM   10  C23 UNL     1      -4.387   3.515  14.520  1.00  0.00     0.048 A 
HETATM   11  C24 UNL     1      -4.364   2.214  14.085  1.00  0.00     0.102 A 
BRANCH   9  12
HETATM   12  C9  UNL     1      -4.666   5.988  14.055  1.00  0.00     0.161 C 
BRANCH  12  13
HETATM   13  N1  UNL     1      -3.339   6.367  14.472  1.00  0.00    -0.351 N 
ATOM     14  H1  UNL     1      -3.147   6.538  15.459  1.00  0.00     0.163 HD
BRANCH  13  15
HETATM   15  C10 UNL     1      -2.385   6.493  13.598  1.00  0.00     0.231 A 
HETATM   16  N2  UNL     1      -2.029   7.660  13.040  1.00  0.00    -0.273 N 
HETATM   17  C11 UNL     1      -1.018   7.722  12.131  1.00  0.00     0.341 A 
ATOM     18  H2  UNL     1      -2.523   8.513  13.301  1.00  0.00     0.174 HD
HETATM   19  O2  UNL     1      -0.709   8.829  11.626  1.00  0.00    -0.246 OA
HETATM   20  N3  UNL     1      -0.353   6.616  11.770  1.00  0.00    -0.175 N 
HETATM   21  C12 UNL     1       0.660   6.351  10.926  1.00  0.00     0.355 A 
HETATM   22  C22 UNL     1      -0.728   5.461  12.342  1.00  0.00     0.261 A 
HETATM   23  O3  UNL     1       1.244   7.228  10.226  1.00  0.00    -0.244 OA
HETATM   24  N4  UNL     1       0.937   5.029  10.954  1.00  0.00    -0.233 N 
HETATM   25  N9  UNL     1       0.094   4.507  11.811  1.00  0.00    -0.257 N 
ATOM     26  H9  UNL     1       0.056   3.516  12.051  1.00  0.00     0.191 HD
HETATM   27  O4  UNL     1      -1.702   5.418  13.215  1.00  0.00    -0.244 OA
BRANCH  24  28
HETATM   28  C13 UNL     1       1.978   4.403  10.162  1.00  0.00     0.213 C 
BRANCH  28  29
HETATM   29  C14 UNL     1       1.515   4.142   8.768  1.00  0.00     0.060 A 
HETATM   30  C15 UNL     1       2.226   4.344   7.602  1.00  0.00     0.136 A 
HETATM   31  N5  UNL     1       1.460   3.988   6.544  1.00  0.00    -0.281 N 
HETATM   32  N7  UNL     1       0.299   3.572   7.032  1.00  0.00    -0.020 NA
HETATM   33  N8  UNL     1       0.317   3.660   8.364  1.00  0.00    -0.285 N 
ATOM     34  H8  UNL     1      -0.453   3.403   8.981  1.00  0.00     0.184 HD
BRANCH  31  35
HETATM   35  C16 UNL     1       1.832   4.045   5.144  1.00  0.00     0.185 C 
BRANCH  35  36
HETATM   36  C17 UNL     1       0.691   4.399   4.282  1.00  0.00    -0.023 A 
HETATM   37  C18 UNL     1      -0.247   5.349   4.568  1.00  0.00     0.011 A 
HETATM   38  C19 UNL     1      -1.252   5.560   3.657  1.00  0.00     0.018 A 
HETATM   39  C20 UNL     1      -1.379   4.876   2.469  1.00  0.00     0.087 A 
HETATM   40  N6  UNL     1      -0.432   3.943   2.217  1.00  0.00    -0.375 N 
HETATM   41  C21 UNL     1       0.560   3.712   3.082  1.00  0.00     0.096 A 
ATOM     42  H6  UNL     1      -0.476   3.408   1.350  1.00  0.00     0.164 HD
ENDBRANCH  35  36
ENDBRANCH  31  35
ENDBRANCH  28  29
ENDBRANCH  24  28
ENDBRANCH  13  15
ENDBRANCH  12  13
ENDBRANCH   9  12
BRANCH  11  43
HETATM   43  O5  UNL     1      -4.120   1.158  14.963  1.00  0.00    -0.353 OA
HETATM   44  C25 UNL     1      -4.853   1.119  16.168  1.00  0.00     0.210 C 
ENDBRANCH  11  43
ENDBRANCH   5   6
ENDBRANCH   4   5
ENDBRANCH   3   4
TORSDOF 11
ENDMDL
MODEL 2
REMARK VINA RESULT: -7.753998846      1.375      1.692
REMARK  11 active torsions:
REMARK  status: ('A' for Active; 'I' for Inactive)
REMARK    1  A    between atoms: C3_3  and  C4_4 
REMARK    2  A    between atoms: C4_4  and  O1_5 
REMARK    3  A    between atoms: O1_5  and  C5_6 
REMARK    4  A    between atoms: C8_9  and  C9_10 
REMARK    5  A    between atoms: C9_10  and  N1_11 
REMARK    6  A    between atoms: N1_11  and  C10_13 
REMARK    7  A    between atoms: N4_21  and  C13_22 
REMARK    8  A    between atoms: C13_22  and  C14_23 
REMARK    9  A    between atoms: N5_25  and  C16_26 
REMARK   10  A    between atoms: C16_26  and  C17_27 
REMARK   11  A    between atoms: C24_42  and  O5_43 
ROOT
HETATM    1  C1  UNL     1      -1.341   1.646  10.681  1.00  0.00     0.012 C 
HETATM    2  C2  UNL     1      -2.094   0.705  10.684  1.00  0.00    -0.115 C 
HETATM    3  C3  UNL     1      -3.036  -0.448  10.665  1.00  0.00     0.119 C 
ENDROOT
BRANCH   3   4
HETATM    4  C4  UNL     1      -4.355   0.068  11.143  1.00  0.00     0.188 C 
BRANCH   4   5
HETATM    5  O1  UNL     1      -4.380   0.677  12.379  1.00  0.00    -0.347 OA
BRANCH   5   6
HETATM    6  C5  UNL     1      -4.577   1.995  12.663  1.00  0.00     0.102 A 
HETATM    7  C6  UNL     1      -4.885   2.994  11.769  1.00  0.00     0.040 A 
HETATM    8  C7  UNL     1      -5.059   4.315  12.189  1.00  0.00     0.012 A 
HETATM    9  C8  UNL     1      -4.928   4.657  13.517  1.00  0.00    -0.038 A 
HETATM   10  C23 UNL     1      -4.625   3.676  14.411  1.00  0.00     0.048 A 
HETATM   11  C24 UNL     1      -4.450   2.373  14.017  1.00  0.00     0.102 A 
BRANCH   9  12
HETATM   12  C9  UNL     1      -5.134   6.094  13.858  1.00  0.00     0.161 C 
BRANCH  12  13
HETATM   13  N1  UNL     1      -4.038   6.505  14.700  1.00  0.00    -0.351 N 
ATOM     14  H1  UNL     1      -4.131   6.456  15.714  1.00  0.00     0.163 HD
BRANCH  13  15
HETATM   15  C10 UNL     1      -2.931   6.938  14.173  1.00  0.00     0.231 A 
HETATM   16  N2  UNL     1      -2.587   8.234  14.114  1.00  0.00    -0.273 N 
HETATM   17  C11 UNL     1      -1.410   8.620  13.550  1.00  0.00     0.341 A 
ATOM     18  H2  UNL     1      -3.216   8.939  14.497  1.00  0.00     0.174 HD
HETATM   19  O2  UNL     1      -1.116   9.840  13.509  1.00  0.00    -0.246 OA
HETATM   20  N3  UNL     1      -0.565   7.714  13.039  1.00  0.00    -0.175 N 
HETATM   21  C12 UNL     1       0.634   7.771  12.433  1.00  0.00     0.355 A 
HETATM   22  C22 UNL     1      -0.933   6.425  13.111  1.00  0.00     0.261 A 
HETATM   23  O3  UNL     1       1.263   8.845  12.210  1.00  0.00    -0.244 OA
HETATM   24  N4  UNL     1       1.039   6.521  12.116  1.00  0.00    -0.233 N 
HETATM   25  N9  UNL     1       0.086   5.722  12.530  1.00  0.00    -0.257 N 
ATOM     26  H9  UNL     1       0.102   4.707  12.432  1.00  0.00     0.191 HD
HETATM   27  O4  UNL     1      -2.067   6.069  13.656  1.00  0.00    -0.244 OA
BRANCH  24  28
HETATM   28  C13 UNL     1       2.293   6.221  11.452  1.00  0.00     0.213 C 
BRANCH  28  29
HETATM   29  C14 UNL     1       2.107   5.203  10.377  1.00  0.00     0.060 A 
HETATM   30  C15 UNL     1       1.978   5.435   9.022  1.00  0.00     0.136 A 
HETATM   31  N5  UNL     1       1.827   4.253   8.379  1.00  0.00    -0.281 N 
HETATM   32  N7  UNL     1       1.860   3.305   9.304  1.00  0.00    -0.020 NA
HETATM   33  N8  UNL     1       2.027   3.859  10.507  1.00  0.00    -0.285 N 
ATOM     34  H8  UNL     1       2.085   3.347  11.388  1.00  0.00     0.184 HD
BRANCH  31  35
HETATM   35  C16 UNL     1       1.661   4.057   6.952  1.00  0.00     0.185 C 
BRANCH  35  36
HETATM   36  C17 UNL     1       0.393   4.622   6.459  1.00  0.00    -0.023 A 
HETATM   37  C18 UNL     1      -0.705   4.881   7.228  1.00  0.00     0.011 A 
HETATM   38  C19 UNL     1      -1.814   5.408   6.614  1.00  0.00     0.018 A 
HETATM   39  C20 UNL     1      -1.893   5.697   5.270  1.00  0.00     0.087 A 
HETATM   40  N6  UNL     1      -0.788   5.429   4.538  1.00  0.00    -0.375 N 
HETATM   41  C21 UNL     1       0.309   4.914   5.103  1.00  0.00     0.096 A 
ATOM     42  H6  UNL     1      -0.791   5.624   3.537  1.00  0.00     0.164 HD
ENDBRANCH  35  36
ENDBRANCH  31  35
ENDBRANCH  28  29
ENDBRANCH  24  28
ENDBRANCH  13  15
ENDBRANCH  12  13
ENDBRANCH   9  12
BRANCH  11  43
HETATM   43  O5  UNL     1      -4.140   1.371  14.937  1.00  0.00    -0.353 OA
HETATM   44  C25 UNL     1      -4.549   1.555  16.275  1.00  0.00     0.210 C 
ENDBRANCH  11  43
ENDBRANCH   5   6
ENDBRANCH   4   5
ENDBRANCH   3   4
TORSDOF 11
ENDMDL
MODEL 3
REMARK VINA RESULT: -7.696991207      1.397      1.875
REMARK  11 active torsions:
REMARK  status: ('A' for Active; 'I' for Inactive)
REMARK    1  A    between atoms: C3_3  and  C4_4 
REMARK    2  A    between atoms: C4_4  and  O1_5 
REMARK    3  A    between atoms: O1_5  and  C5_6 
REMARK    4  A    between atoms: C8_9  and  C9_10 
REMARK    5  A    between atoms: C9_10  and  N1_11 
REMARK    6  A    between atoms: N1_11  and  C10_13 
REMARK    7  A    between atoms: N4_21  and  C13_22 
REMARK    8  A    between atoms: C13_22  and  C14_23 
REMARK    9  A    between atoms: N5_25  and  C16_26 
REMARK   10  A    between atoms: C16_26  and  C17_27 
REMARK   11  A    between atoms: C24_42  and  O5_43 
ROOT
HETATM    1  C1  UNL     1      -1.367   1.652  10.720  1.00  0.00     0.012 C 
HETATM    2  C2  UNL     1      -2.118   0.710  10.692  1.00  0.00    -0.115 C 
HETATM    3  C3  UNL     1      -3.058  -0.443  10.637  1.00  0.00     0.119 C 
ENDROOT
BRANCH   3   4
HETATM    4  C4  UNL     1      -4.357   0.034  11.201  1.00  0.00     0.188 C 
BRANCH   4   5
HETATM    5  O1  UNL     1      -4.322   0.621  12.447  1.00  0.00    -0.347 OA
BRANCH   5   6
HETATM    6  C5  UNL     1      -4.569   1.921  12.772  1.00  0.00     0.102 A 
HETATM    7  C6  UNL     1      -4.861   2.946  11.904  1.00  0.00     0.040 A 
HETATM    8  C7  UNL     1      -5.092   4.245  12.366  1.00  0.00     0.012 A 
HETATM    9  C8  UNL     1      -5.034   4.537  13.711  1.00  0.00    -0.038 A 
HETATM   10  C23 UNL     1      -4.746   3.529  14.579  1.00  0.00     0.048 A 
HETATM   11  C24 UNL     1      -4.517   2.248  14.145  1.00  0.00     0.102 A 
BRANCH   9  12
HETATM   12  C9  UNL     1      -5.294   5.953  14.096  1.00  0.00     0.161 C 
BRANCH  12  13
HETATM   13  N1  UNL     1      -4.032   6.546  14.464  1.00  0.00    -0.351 N 
ATOM     14  H1  UNL     1      -3.845   6.776  15.439  1.00  0.00     0.163 HD
BRANCH  13  15
HETATM   15  C10 UNL     1      -3.132   6.791  13.558  1.00  0.00     0.231 A 
HETATM   16  N2  UNL     1      -3.360   7.518  12.453  1.00  0.00    -0.273 N 
HETATM   17  C11 UNL     1      -2.371   7.738  11.544  1.00  0.00     0.341 A 
ATOM     18  H2  UNL     1      -4.287   7.911  12.293  1.00  0.00     0.174 HD
HETATM   19  O2  UNL     1      -2.615   8.422  10.520  1.00  0.00    -0.246 OA
HETATM   20  N3  UNL     1      -1.144   7.233  11.731  1.00  0.00    -0.175 N 
HETATM   21  C12 UNL     1       0.011   7.268  11.044  1.00  0.00     0.355 A 
HETATM   22  C22 UNL     1      -0.942   6.509  12.844  1.00  0.00     0.261 A 
HETATM   23  O3  UNL     1       0.160   7.872   9.942  1.00  0.00    -0.244 OA
HETATM   24  N4  UNL     1       0.955   6.568  11.712  1.00  0.00    -0.233 N 
HETATM   25  N9  UNL     1       0.367   6.119  12.793  1.00  0.00    -0.257 N 
ATOM     26  H9  UNL     1       0.826   5.550  13.505  1.00  0.00     0.191 HD
HETATM   27  O4  UNL     1      -1.903   6.306  13.708  1.00  0.00    -0.244 OA
BRANCH  24  28
HETATM   28  C13 UNL     1       2.320   6.404  11.248  1.00  0.00     0.213 C 
BRANCH  28  29
HETATM   29  C14 UNL     1       2.438   5.254  10.307  1.00  0.00     0.060 A 
HETATM   30  C15 UNL     1       3.213   5.185   9.167  1.00  0.00     0.136 A 
HETATM   31  N5  UNL     1       3.047   3.974   8.586  1.00  0.00    -0.281 N 
HETATM   32  N7  UNL     1       2.192   3.299   9.340  1.00  0.00    -0.020 NA
HETATM   33  N8  UNL     1       1.817   4.054  10.375  1.00  0.00    -0.285 N 
ATOM     34  H8  UNL     1       1.163   3.769  11.105  1.00  0.00     0.184 HD
BRANCH  31  35
HETATM   35  C16 UNL     1       3.683   3.499   7.372  1.00  0.00     0.185 C 
BRANCH  35  36
HETATM   36  C17 UNL     1       2.923   3.872   6.167  1.00  0.00    -0.023 A 
HETATM   37  C18 UNL     1       3.418   4.583   5.111  1.00  0.00     0.011 A 
HETATM   38  C19 UNL     1       2.577   4.851   4.061  1.00  0.00     0.018 A 
HETATM   39  C20 UNL     1       1.262   4.450   3.998  1.00  0.00     0.087 A 
HETATM   40  N6  UNL     1       0.803   3.747   5.059  1.00  0.00    -0.375 N 
HETATM   41  C21 UNL     1       1.595   3.469   6.100  1.00  0.00     0.096 A 
ATOM     42  H6  UNL     1      -0.164   3.424   5.065  1.00  0.00     0.164 HD
ENDBRANCH  35  36
ENDBRANCH  31  35
ENDBRANCH  28  29
ENDBRANCH  24  28
ENDBRANCH  13  15
ENDBRANCH  12  13
ENDBRANCH   9  12
BRANCH  11  43
HETATM   43  O5  UNL     1      -4.223   1.218  15.039  1.00  0.00    -0.353 OA
HETATM   44  C25 UNL     1      -4.890   1.215  16.283  1.00  0.00     0.210 C 
ENDBRANCH  11  43
ENDBRANCH   5   6
ENDBRANCH   4   5
ENDBRANCH   3   4
TORSDOF 11
ENDMDL
MODEL 4
REMARK VINA RESULT: -7.653164329      1.946      3.764
REMARK  11 active torsions:
REMARK  status: ('A' for Active; 'I' for Inactive)
REMARK    1  A    between atoms: C3_3  and  C4_4 
REMARK    2  A    between atoms: C4_4  and  O1_5 
REMARK    3  A    between atoms: O1_5  and  C5_6 
REMARK    4  A    between atoms: C8_9  and  C9_10 
REMARK    5  A    between atoms: C9_10  and  N1_11 
REMARK    6  A    between atoms: N1_11  and  C10_13 
REMARK    7  A    between atoms: N4_21  and  C13_22 
REMARK    8  A    between atoms: C13_22  and  C14_23 
REMARK    9  A    between atoms: N5_25  and  C16_26 
REMARK   10  A    between atoms: C16_26  and  C17_27 
REMARK   11  A    between atoms: C24_42  and  O5_43 
ROOT
HETATM    1  C1  UNL     1      -7.044   3.200  16.802  1.00  0.00     0.012 C 
HETATM    2  C2  UNL     1      -6.532   2.117  16.933  1.00  0.00    -0.115 C 
HETATM    3  C3  UNL     1      -5.880   0.790  17.107  1.00  0.00     0.119 C 
ENDROOT
BRANCH   3   4
HETATM    4  C4  UNL     1      -4.754   0.732  16.125  1.00  0.00     0.188 C 
BRANCH   4   5
HETATM    5  O1  UNL     1      -5.061   0.985  14.805  1.00  0.00    -0.347 OA
BRANCH   5   6
HETATM    6  C5  UNL     1      -4.461   1.868  13.958  1.00  0.00     0.102 A 
HETATM    7  C6  UNL     1      -4.129   3.175  14.227  1.00  0.00     0.040 A 
HETATM    8  C7  UNL     1      -3.517   3.982  13.265  1.00  0.00     0.012 A 
HETATM    9  C8  UNL     1      -3.226   3.489  12.012  1.00  0.00    -0.038 A 
HETATM   10  C23 UNL     1      -3.549   2.196  11.734  1.00  0.00     0.048 A 
HETATM   11  C24 UNL     1      -4.150   1.389  12.667  1.00  0.00     0.102 A 
BRANCH   9  12
HETATM   12  C9  UNL     1      -2.574   4.434  11.060  1.00  0.00     0.161 C 
BRANCH  12  13
HETATM   13  N1  UNL     1      -1.571   5.168  11.791  1.00  0.00    -0.351 N 
ATOM     14  H1  UNL     1      -1.843   5.743  12.587  1.00  0.00     0.163 HD
BRANCH  13  15
HETATM   15  C10 UNL     1      -0.321   5.101  11.439  1.00  0.00     0.231 A 
HETATM   16  N2  UNL     1       0.690   5.597  12.170  1.00  0.00    -0.273 N 
HETATM   17  C11 UNL     1       1.978   5.490  11.745  1.00  0.00     0.341 A 
ATOM     18  H2  UNL     1       0.489   6.060  13.056  1.00  0.00     0.174 HD
HETATM   19  O2  UNL     1       2.902   5.965  12.450  1.00  0.00    -0.246 OA
HETATM   20  N3  UNL     1       2.270   4.886  10.584  1.00  0.00    -0.175 N 
HETATM   21  C12 UNL     1       3.402   4.628   9.907  1.00  0.00     0.355 A 
HETATM   22  C22 UNL     1       1.240   4.399   9.872  1.00  0.00     0.261 A 
HETATM   23  O3  UNL     1       4.555   4.958  10.307  1.00  0.00    -0.244 OA
HETATM   24  N4  UNL     1       3.104   3.976   8.762  1.00  0.00    -0.233 N 
HETATM   25  N9  UNL     1       1.800   3.845   8.755  1.00  0.00    -0.257 N 
ATOM     26  H9  UNL     1       1.271   3.388   8.013  1.00  0.00     0.191 HD
HETATM   27  O4  UNL     1       0.007   4.509  10.295  1.00  0.00    -0.244 OA
BRANCH  24  28
HETATM   28  C13 UNL     1       4.095   3.545   7.794  1.00  0.00     0.213 C 
BRANCH  28  29
HETATM   29  C14 UNL     1       3.972   4.305   6.517  1.00  0.00     0.060 A 
HETATM   30  C15 UNL     1       3.492   3.836   5.310  1.00  0.00     0.136 A 
HETATM   31  N5  UNL     1       3.541   4.830   4.394  1.00  0.00    -0.281 N 
HETATM   32  N7  UNL     1       4.036   5.895   5.006  1.00  0.00    -0.020 NA
HETATM   33  N8  UNL     1       4.300   5.595   6.280  1.00  0.00    -0.285 N 
ATOM     34  H8  UNL     1       4.690   6.240   6.968  1.00  0.00     0.184 HD
BRANCH  31  35
HETATM   35  C16 UNL     1       3.129   4.751   3.005  1.00  0.00     0.185 C 
BRANCH  35  36
HETATM   36  C17 UNL     1       1.665   4.670   2.866  1.00  0.00    -0.023 A 
HETATM   37  C18 UNL     1       0.767   5.472   3.510  1.00  0.00     0.011 A 
HETATM   38  C19 UNL     1      -0.570   5.268   3.272  1.00  0.00     0.018 A 
HETATM   39  C20 UNL     1      -1.068   4.305   2.423  1.00  0.00     0.087 A 
HETATM   40  N6  UNL     1      -0.152   3.529   1.801  1.00  0.00    -0.375 N 
HETATM   41  C21 UNL     1       1.157   3.700   2.010  1.00  0.00     0.096 A 
ATOM     42  H6  UNL     1      -0.465   2.800   1.160  1.00  0.00     0.164 HD
ENDBRANCH  35  36
ENDBRANCH  31  35
ENDBRANCH  28  29
ENDBRANCH  24  28
ENDBRANCH  13  15
ENDBRANCH  12  13
ENDBRANCH   9  12
BRANCH  11  43
HETATM   43  O5  UNL     1      -4.479   0.064  12.378  1.00  0.00    -0.353 OA
HETATM   44  C25 UNL     1      -4.140  -0.436  11.102  1.00  0.00     0.210 C 
ENDBRANCH  11  43
ENDBRANCH   5   6
ENDBRANCH   4   5
ENDBRANCH   3   4
TORSDOF 11
ENDMDL
MODEL 5
REMARK VINA RESULT: -7.576444823      3.321      5.817
REMARK  11 active torsions:
REMARK  status: ('A' for Active; 'I' for Inactive)
REMARK    1  A    between atoms: C3_3  and  C4_4 
REMARK    2  A    between atoms: C4_4  and  O1_5 
REMARK    3  A    between atoms: O1_5  and  C5_6 
REMARK    4  A    between atoms: C8_9  and  C9_10 
REMARK    5  A    between atoms: C9_10  and  N1_11 
REMARK    6  A    between atoms: N1_11  and  C10_13 
REMARK    7  A    between atoms: N4_21  and  C13_22 
REMARK    8  A    between atoms: C13_22  and  C14_23 
REMARK    9  A    between atoms: N5_25  and  C16_26 
REMARK   10  A    between atoms: C16_26  and  C17_27 
REMARK   11  A    between atoms: C24_42  and  O5_43 
ROOT
HETATM    1  C1  UNL     1      -3.176   7.083  14.416  1.00  0.00     0.012 C 
HETATM    2  C2  UNL     1      -4.330   6.761  14.290  1.00  0.00    -0.115 C 
HETATM    3  C3  UNL     1      -5.763   6.378  14.155  1.00  0.00     0.119 C 
ENDROOT
BRANCH   3   4
HETATM    4  C4  UNL     1      -6.047   5.389  15.239  1.00  0.00     0.188 C 
BRANCH   4   5
HETATM    5  O1  UNL     1      -6.301   4.091  14.852  1.00  0.00    -0.347 OA
BRANCH   5   6
HETATM    6  C5  UNL     1      -5.645   3.350  13.916  1.00  0.00     0.102 A 
HETATM    7  C6  UNL     1      -5.677   3.527  12.553  1.00  0.00     0.040 A 
HETATM    8  C7  UNL     1      -4.958   2.691  11.695  1.00  0.00     0.012 A 
HETATM    9  C8  UNL     1      -4.192   1.660  12.192  1.00  0.00    -0.038 A 
HETATM   10  C23 UNL     1      -4.152   1.475  13.540  1.00  0.00     0.048 A 
HETATM   11  C24 UNL     1      -4.851   2.286  14.398  1.00  0.00     0.102 A 
BRANCH   9  12
HETATM   12  C9  UNL     1      -3.466   0.827  11.190  1.00  0.00     0.161 C 
BRANCH  12  13
HETATM   13  N1  UNL     1      -2.055   0.953  11.457  1.00  0.00    -0.351 N 
ATOM     14  H1  UNL     1      -1.548   0.179  11.884  1.00  0.00     0.163 HD
BRANCH  13  15
HETATM   15  C10 UNL     1      -1.424   2.049  11.154  1.00  0.00     0.231 A 
HETATM   16  N2  UNL     1      -0.767   2.241  10.000  1.00  0.00    -0.273 N 
HETATM   17  C11 UNL     1      -0.128   3.415   9.745  1.00  0.00     0.341 A 
ATOM     18  H2  UNL     1      -0.745   1.495   9.304  1.00  0.00     0.174 HD
HETATM   19  O2  UNL     1       0.478   3.564   8.656  1.00  0.00    -0.246 OA
HETATM   20  N3  UNL     1      -0.141   4.411  10.642  1.00  0.00    -0.175 N 
HETATM   21  C12 UNL     1       0.376   5.651  10.690  1.00  0.00     0.355 A 
HETATM   22  C22 UNL     1      -0.805   4.194  11.789  1.00  0.00     0.261 A 
HETATM   23  O3  UNL     1       1.063   6.167   9.761  1.00  0.00    -0.244 OA
HETATM   24  N4  UNL     1       0.046   6.233  11.864  1.00  0.00    -0.233 N 
HETATM   25  N9  UNL     1      -0.665   5.344  12.514  1.00  0.00    -0.257 N 
ATOM     26  H9  UNL     1      -1.064   5.491  13.442  1.00  0.00     0.191 HD
HETATM   27  O4  UNL     1      -1.414   3.059  12.019  1.00  0.00    -0.244 OA
BRANCH  24  28
HETATM   28  C13 UNL     1       0.442   7.576  12.242  1.00  0.00     0.213 C 
BRANCH  28  29
HETATM   29  C14 UNL     1      -0.657   8.554  11.998  1.00  0.00     0.060 A 
HETATM   30  C15 UNL     1      -1.564   8.547  10.958  1.00  0.00     0.136 A 
HETATM   31  N5  UNL     1      -2.403   9.600  11.089  1.00  0.00    -0.281 N 
HETATM   32  N7  UNL     1      -2.035  10.253  12.182  1.00  0.00    -0.020 NA
HETATM   33  N8  UNL     1      -0.988   9.637  12.738  1.00  0.00    -0.285 N 
ATOM     34  H8  UNL     1      -0.512   9.938  13.589  1.00  0.00     0.184 HD
BRANCH  31  35
HETATM   35  C16 UNL     1      -3.499   9.953  10.206  1.00  0.00     0.185 C 
BRANCH  35  36
HETATM   36  C17 UNL     1      -4.390   8.809   9.947  1.00  0.00    -0.023 A 
HETATM   37  C18 UNL     1      -5.107   8.138  10.895  1.00  0.00     0.011 A 
HETATM   38  C19 UNL     1      -5.894   7.089  10.489  1.00  0.00     0.018 A 
HETATM   39  C20 UNL     1      -6.011   6.667   9.184  1.00  0.00     0.087 A 
HETATM   40  N6  UNL     1      -5.288   7.354   8.270  1.00  0.00    -0.375 N 
HETATM   41  C21 UNL     1      -4.511   8.380   8.631  1.00  0.00     0.096 A 
ATOM     42  H6  UNL     1      -5.337   7.085   7.288  1.00  0.00     0.164 HD
ENDBRANCH  35  36
ENDBRANCH  31  35
ENDBRANCH  28  29
ENDBRANCH  24  28
ENDBRANCH  13  15
ENDBRANCH  12  13
ENDBRANCH   9  12
BRANCH  11  43
HETATM   43  O5  UNL     1      -4.807   2.094  15.779  1.00  0.00    -0.353 OA
HETATM   44  C25 UNL     1      -5.625   1.084  16.331  1.00  0.00     0.210 C 
ENDBRANCH  11  43
ENDBRANCH   5   6
ENDBRANCH   4   5
ENDBRANCH   3   4
TORSDOF 11
ENDMDL
