MODEL 1
REMARK VINA RESULT: -6.554848048      0.000      0.000
REMARK  7 active torsions:
REMARK  status: ('A' for Active; 'I' for Inactive)
REMARK    1  A    between atoms: N1_1  and  C1_4 
REMARK    2  A    between atoms: C2_7  and  C3_8 
REMARK    3  A    between atoms: N3_9  and  C4_11 
REMARK    4  A    between atoms: C4_11  and  C5_12 
REMARK    5  A    between atoms: C5_12  and  S1_13 
REMARK    6  A    between atoms: S1_13  and  C6_14 
REMARK    7  A    between atoms: C6_14  and  N4_15 
ROOT
HETATM    1  C1  UNL     1     -30.665  36.793 -18.583  1.00  0.00     0.679 A 
HETATM    2  N2  UNL     1     -29.895  36.516 -17.518  1.00  0.00    -0.191 N 
ATOM      3  H2  UNL     1     -30.320  36.554 -16.591  1.00  0.00     0.184 HD
HETATM    4  C2  UNL     1     -28.596  36.194 -17.608  1.00  0.00     0.069 A 
HETATM    5  C8  UNL     1     -28.008  36.140 -18.853  1.00  0.00     0.106 A 
HETATM    6  C9  UNL     1     -28.800  36.424 -19.944  1.00  0.00     0.261 A 
HETATM    7  O1  UNL     1     -28.284  36.380 -21.090  1.00  0.00    -0.268 OA
HETATM    8  N6  UNL     1     -30.085  36.738 -19.796  1.00  0.00    -0.156 N 
ATOM      9  H6  UNL     1     -30.644  36.943 -20.623  1.00  0.00     0.187 HD
ENDROOT
BRANCH   4  10
HETATM   10  C3  UNL     1     -27.815  35.904 -16.418  1.00  0.00     0.113 C 
HETATM   11  N3  UNL     1     -26.740  35.203 -16.556  1.00  0.00    -0.396 N 
ATOM     12  H3  UNL     1     -26.437  34.856 -17.466  1.00  0.00     0.158 HD
BRANCH  11  13
HETATM   13  C4  UNL     1     -25.981  34.934 -15.333  1.00  0.00     0.129 C 
BRANCH  13  14
HETATM   14  C5  UNL     1     -25.921  33.418 -15.224  1.00  0.00     0.095 C 
BRANCH  14  15
HETATM   15  S1  UNL     1     -24.258  32.770 -15.261  1.00  0.00    -0.148 SA
BRANCH  15  16
HETATM   16  C6  UNL     1     -24.288  31.050 -15.820  1.00  0.00     0.194 C 
BRANCH  16  17
HETATM   17  N4  UNL     1     -24.417  30.192 -14.665  1.00  0.00    -0.379 N 
HETATM   18  C7  UNL     1     -25.512  29.553 -14.453  1.00  0.00     0.185 C 
HETATM   19  N5  UNL     1     -26.619  29.656 -15.319  1.00  0.00    -0.097 NA
ATOM     20  H4  UNL     1     -23.636  30.093 -14.016  1.00  0.00     0.160 HD
ENDBRANCH  16  17
ENDBRANCH  15  16
ENDBRANCH  14  15
ENDBRANCH  13  14
ENDBRANCH  11  13
ENDBRANCH   4  10
BRANCH   1  21
HETATM   21  N1  UNL     1     -31.915  37.103 -18.486  1.00  0.00    -0.234 N 
ATOM     22  H12 UNL     1     -32.200  38.080 -18.556  1.00  0.00     0.174 HD
ATOM     23  H11 UNL     1     -32.650  36.411 -18.340  1.00  0.00     0.174 HD
ENDBRANCH   1  21
TORSDOF 7
ENDMDL
MODEL 2
REMARK VINA RESULT: -6.553110685      3.655      8.020
REMARK  7 active torsions:
REMARK  status: ('A' for Active; 'I' for Inactive)
REMARK    1  A    between atoms: N1_1  and  C1_4 
REMARK    2  A    between atoms: C2_7  and  C3_8 
REMARK    3  A    between atoms: N3_9  and  C4_11 
REMARK    4  A    between atoms: C4_11  and  C5_12 
REMARK    5  A    between atoms: C5_12  and  S1_13 
REMARK    6  A    between atoms: S1_13  and  C6_14 
REMARK    7  A    between atoms: C6_14  and  N4_15 
ROOT
HETATM    1  C1  UNL     1     -25.789  29.530 -13.793  1.00  0.00     0.679 A 
HETATM    2  N2  UNL     1     -26.173  30.812 -13.909  1.00  0.00    -0.191 N 
ATOM      3  H2  UNL     1     -25.459  31.515 -14.103  1.00  0.00     0.184 HD
HETATM    4  C2  UNL     1     -27.446  31.217 -13.783  1.00  0.00     0.069 A 
HETATM    5  C8  UNL     1     -28.420  30.279 -13.520  1.00  0.00     0.106 A 
HETATM    6  C9  UNL     1     -28.024  28.965 -13.401  1.00  0.00     0.261 A 
HETATM    7  O1  UNL     1     -28.897  28.093 -13.161  1.00  0.00    -0.268 OA
HETATM    8  N6  UNL     1     -26.746  28.620 -13.536  1.00  0.00    -0.156 N 
ATOM      9  H6  UNL     1     -26.484  27.638 -13.442  1.00  0.00     0.187 HD
ENDROOT
BRANCH   4  10
HETATM   10  C3  UNL     1     -27.800  32.619 -13.920  1.00  0.00     0.113 C 
HETATM   11  N3  UNL     1     -26.986  33.389 -14.561  1.00  0.00    -0.396 N 
ATOM     12  H3  UNL     1     -26.117  33.037 -14.963  1.00  0.00     0.158 HD
BRANCH  11  13
HETATM   13  C4  UNL     1     -27.379  34.795 -14.677  1.00  0.00     0.129 C 
BRANCH  13  14
HETATM   14  C5  UNL     1     -26.959  35.214 -16.077  1.00  0.00     0.095 C 
BRANCH  14  15
HETATM   15  S1  UNL     1     -28.000  36.484 -16.778  1.00  0.00    -0.148 SA
BRANCH  15  16
HETATM   16  C6  UNL     1     -27.298  37.048 -18.347  1.00  0.00     0.194 C 
BRANCH  16  17
HETATM   17  N4  UNL     1     -28.370  37.195 -19.304  1.00  0.00    -0.379 N 
HETATM   18  C7  UNL     1     -28.526  36.325 -20.237  1.00  0.00     0.185 C 
HETATM   19  N5  UNL     1     -27.677  35.208 -20.370  1.00  0.00    -0.097 NA
ATOM     20  H4  UNL     1     -29.004  37.991 -19.239  1.00  0.00     0.160 HD
ENDBRANCH  16  17
ENDBRANCH  15  16
ENDBRANCH  14  15
ENDBRANCH  13  14
ENDBRANCH  11  13
ENDBRANCH   4  10
BRANCH   1  21
HETATM   21  N1  UNL     1     -24.561  29.150 -13.916  1.00  0.00    -0.234 N 
ATOM     22  H12 UNL     1     -23.834  29.602 -13.361  1.00  0.00     0.174 HD
ATOM     23  H11 UNL     1     -24.271  28.406 -14.551  1.00  0.00     0.174 HD
ENDBRANCH   1  21
TORSDOF 7
ENDMDL
MODEL 3
REMARK VINA RESULT: -6.450843326      6.844     10.164
REMARK  7 active torsions:
REMARK  status: ('A' for Active; 'I' for Inactive)
REMARK    1  A    between atoms: N1_1  and  C1_4 
REMARK    2  A    between atoms: C2_7  and  C3_8 
REMARK    3  A    between atoms: N3_9  and  C4_11 
REMARK    4  A    between atoms: C4_11  and  C5_12 
REMARK    5  A    between atoms: C5_12  and  S1_13 
REMARK    6  A    between atoms: S1_13  and  C6_14 
REMARK    7  A    between atoms: C6_14  and  N4_15 
ROOT
HETATM    1  C1  UNL     1     -19.151  32.655  -9.420  1.00  0.00     0.679 A 
HETATM    2  N2  UNL     1     -20.284  32.967 -10.070  1.00  0.00    -0.191 N 
ATOM      3  H2  UNL     1     -21.157  32.551  -9.745  1.00  0.00     0.184 HD
HETATM    4  C2  UNL     1     -20.328  33.796 -11.124  1.00  0.00     0.069 A 
HETATM    5  C8  UNL     1     -19.156  34.363 -11.574  1.00  0.00     0.106 A 
HETATM    6  C9  UNL     1     -17.995  34.042 -10.906  1.00  0.00     0.261 A 
HETATM    7  O1  UNL     1     -16.914  34.548 -11.300  1.00  0.00    -0.268 OA
HETATM    8  N6  UNL     1     -18.010  33.213  -9.865  1.00  0.00    -0.156 N 
ATOM      9  H6  UNL     1     -17.134  32.995  -9.391  1.00  0.00     0.187 HD
ENDROOT
BRANCH   4  10
HETATM   10  C3  UNL     1     -21.586  34.095 -11.786  1.00  0.00     0.113 C 
HETATM   11  N3  UNL     1     -21.766  33.635 -12.978  1.00  0.00    -0.396 N 
ATOM     12  H3  UNL     1     -21.056  33.078 -13.453  1.00  0.00     0.158 HD
BRANCH  11  13
HETATM   13  C4  UNL     1     -23.048  33.959 -13.610  1.00  0.00     0.129 C 
BRANCH  13  14
HETATM   14  C5  UNL     1     -22.899  33.525 -15.061  1.00  0.00     0.095 C 
BRANCH  14  15
HETATM   15  S1  UNL     1     -22.556  31.783 -15.246  1.00  0.00    -0.148 SA
BRANCH  15  16
HETATM   16  C6  UNL     1     -24.089  30.898 -15.621  1.00  0.00     0.194 C 
BRANCH  16  17
HETATM   17  N4  UNL     1     -24.404  30.031 -14.509  1.00  0.00    -0.379 N 
HETATM   18  C7  UNL     1     -25.567  29.490 -14.421  1.00  0.00     0.185 C 
HETATM   19  N5  UNL     1     -26.571  29.712 -15.384  1.00  0.00    -0.097 NA
ATOM     20  H4  UNL     1     -23.702  29.848 -13.792  1.00  0.00     0.160 HD
ENDBRANCH  16  17
ENDBRANCH  15  16
ENDBRANCH  14  15
ENDBRANCH  13  14
ENDBRANCH  11  13
ENDBRANCH   4  10
BRANCH   1  21
HETATM   21  N1  UNL     1     -19.118  31.856  -8.406  1.00  0.00    -0.234 N 
ATOM     22  H12 UNL     1     -19.813  31.113  -8.326  1.00  0.00     0.174 HD
ATOM     23  H11 UNL     1     -18.422  31.928  -7.664  1.00  0.00     0.174 HD
ENDBRANCH   1  21
TORSDOF 7
ENDMDL
MODEL 4
REMARK VINA RESULT: -6.410365255      5.661      6.362
REMARK  7 active torsions:
REMARK  status: ('A' for Active; 'I' for Inactive)
REMARK    1  A    between atoms: N1_1  and  C1_4 
REMARK    2  A    between atoms: C2_7  and  C3_8 
REMARK    3  A    between atoms: N3_9  and  C4_11 
REMARK    4  A    between atoms: C4_11  and  C5_12 
REMARK    5  A    between atoms: C5_12  and  S1_13 
REMARK    6  A    between atoms: S1_13  and  C6_14 
REMARK    7  A    between atoms: C6_14  and  N4_15 
ROOT
HETATM    1  C1  UNL     1     -29.254  31.158 -13.113  1.00  0.00     0.679 A 
HETATM    2  N2  UNL     1     -28.340  32.005 -13.615  1.00  0.00    -0.191 N 
ATOM      3  H2  UNL     1     -28.509  32.409 -14.536  1.00  0.00     0.184 HD
HETATM    4  C2  UNL     1     -27.216  32.348 -12.967  1.00  0.00     0.069 A 
HETATM    5  C8  UNL     1     -26.973  31.810 -11.722  1.00  0.00     0.106 A 
HETATM    6  C9  UNL     1     -27.912  30.941 -11.210  1.00  0.00     0.261 A 
HETATM    7  O1  UNL     1     -27.712  30.438 -10.076  1.00  0.00    -0.268 OA
HETATM    8  N6  UNL     1     -29.011  30.637 -11.897  1.00  0.00    -0.156 N 
ATOM      9  H6  UNL     1     -29.688  29.991 -11.491  1.00  0.00     0.187 HD
ENDROOT
BRANCH   4  10
HETATM   10  C3  UNL     1     -26.264  33.270 -13.562  1.00  0.00     0.113 C 
HETATM   11  N3  UNL     1     -25.048  33.244 -13.133  1.00  0.00    -0.396 N 
ATOM     12  H3  UNL     1     -24.750  32.601 -12.399  1.00  0.00     0.158 HD
BRANCH  11  13
HETATM   13  C4  UNL     1     -24.119  34.189 -13.758  1.00  0.00     0.129 C 
BRANCH  13  14
HETATM   14  C5  UNL     1     -23.938  33.690 -15.183  1.00  0.00     0.095 C 
BRANCH  14  15
HETATM   15  S1  UNL     1     -23.061  32.139 -15.283  1.00  0.00    -0.148 SA
BRANCH  15  16
HETATM   16  C6  UNL     1     -24.214  30.816 -15.723  1.00  0.00     0.194 C 
BRANCH  16  17
HETATM   17  N4  UNL     1     -24.443  29.997 -14.554  1.00  0.00    -0.379 N 
HETATM   18  C7  UNL     1     -25.597  29.468 -14.352  1.00  0.00     0.185 C 
HETATM   19  N5  UNL     1     -26.673  29.656 -15.242  1.00  0.00    -0.097 NA
ATOM     20  H4  UNL     1     -23.687  29.839 -13.888  1.00  0.00     0.160 HD
ENDBRANCH  16  17
ENDBRANCH  15  16
ENDBRANCH  14  15
ENDBRANCH  13  14
ENDBRANCH  11  13
ENDBRANCH   4  10
BRANCH   1  21
HETATM   21  N1  UNL     1     -30.333  30.835 -13.744  1.00  0.00    -0.234 N 
ATOM     22  H12 UNL     1     -31.073  31.526 -13.868  1.00  0.00     0.174 HD
ATOM     23  H11 UNL     1     -30.492  29.905 -14.133  1.00  0.00     0.174 HD
ENDBRANCH   1  21
TORSDOF 7
ENDMDL
MODEL 5
REMARK VINA RESULT: -6.400885890      4.882      6.776
REMARK  7 active torsions:
REMARK  status: ('A' for Active; 'I' for Inactive)
REMARK    1  A    between atoms: N1_1  and  C1_4 
REMARK    2  A    between atoms: C2_7  and  C3_8 
REMARK    3  A    between atoms: N3_9  and  C4_11 
REMARK    4  A    between atoms: C4_11  and  C5_12 
REMARK    5  A    between atoms: C5_12  and  S1_13 
REMARK    6  A    between atoms: S1_13  and  C6_14 
REMARK    7  A    between atoms: C6_14  and  N4_15 
ROOT
HETATM    1  C1  UNL     1     -27.755  30.462 -11.348  1.00  0.00     0.679 A 
HETATM    2  N2  UNL     1     -27.649  31.518 -12.171  1.00  0.00    -0.191 N 
ATOM      3  H2  UNL     1     -27.554  32.446 -11.757  1.00  0.00     0.184 HD
HETATM    4  C2  UNL     1     -27.662  31.417 -13.508  1.00  0.00     0.069 A 
HETATM    5  C8  UNL     1     -27.791  30.171 -14.081  1.00  0.00     0.106 A 
HETATM    6  C9  UNL     1     -27.899  29.089 -13.235  1.00  0.00     0.261 A 
HETATM    7  O1  UNL     1     -28.017  27.943 -13.737  1.00  0.00    -0.268 OA
HETATM    8  N6  UNL     1     -27.880  29.248 -11.914  1.00  0.00    -0.156 N 
ATOM      9  H6  UNL     1     -27.962  28.427 -11.314  1.00  0.00     0.187 HD
ENDROOT
BRANCH   4  10
HETATM   10  C3  UNL     1     -27.543  32.598 -14.347  1.00  0.00     0.113 C 
HETATM   11  N3  UNL     1     -26.375  33.130 -14.480  1.00  0.00    -0.396 N 
ATOM     12  H3  UNL     1     -25.552  32.745 -14.016  1.00  0.00     0.158 HD
BRANCH  11  13
HETATM   13  C4  UNL     1     -26.298  34.319 -15.333  1.00  0.00     0.129 C 
BRANCH  13  14
HETATM   14  C5  UNL     1     -24.815  34.644 -15.432  1.00  0.00     0.095 C 
BRANCH  14  15
HETATM   15  S1  UNL     1     -23.797  33.637 -14.368  1.00  0.00    -0.148 SA
BRANCH  15  16
HETATM   16  C6  UNL     1     -22.960  32.368 -15.350  1.00  0.00     0.194 C 
BRANCH  16  17
HETATM   17  N4  UNL     1     -23.327  31.070 -14.833  1.00  0.00    -0.379 N 
HETATM   18  C7  UNL     1     -24.312  30.424 -15.348  1.00  0.00     0.185 C 
HETATM   19  N5  UNL     1     -25.067  30.940 -16.421  1.00  0.00    -0.097 NA
ATOM     20  H4  UNL     1     -22.803  30.664 -14.057  1.00  0.00     0.160 HD
ENDBRANCH  16  17
ENDBRANCH  15  16
ENDBRANCH  14  15
ENDBRANCH  13  14
ENDBRANCH  11  13
ENDBRANCH   4  10
BRANCH   1  21
HETATM   21  N1  UNL     1     -27.742  30.569 -10.061  1.00  0.00    -0.234 N 
ATOM     22  H12 UNL     1     -28.489  31.078  -9.589  1.00  0.00     0.174 HD
ATOM     23  H11 UNL     1     -27.009  30.165  -9.477  1.00  0.00     0.174 HD
ENDBRANCH   1  21
TORSDOF 7
ENDMDL
