MODEL 1
REMARK VINA RESULT: -9.131619070      0.000      0.000
REMARK  15 active torsions:
REMARK  status: ('A' for Active; 'I' for Inactive)
REMARK    1  A    between atoms: C3_6  and  N3_7 
REMARK    2  A    between atoms: N3_7  and  C4_9 
REMARK    3  A    between atoms: C9_14  and  N4_15 
REMARK    4  A    between atoms: N4_15  and  C10_16 
REMARK    5  A    between atoms: N4_15  and  C12_20 
REMARK    6  A    between atoms: C10_16  and  C11_17 
REMARK    7  A    between atoms: C11_17  and  O1_18 
REMARK    8  A    between atoms: C12_20  and  C13_21 
REMARK    9  A    between atoms: C13_21  and  O2_22 
REMARK   10  A    between atoms: C14_24  and  O3_25 
REMARK   11  A    between atoms: C16_31  and  N7_32 
REMARK   12  A    between atoms: C18_40  and  N10_41 
REMARK   13  A    between atoms: N10_41  and  C19_43 
REMARK   14  A    between atoms: C19_43  and  C20_44 
REMARK   15  A    between atoms: C20_44  and  O4_45 
ROOT
HETATM    1  N1  UNL     1     -12.444  66.912 102.704  1.00  0.00    -0.188 NA
HETATM    2  C1  UNL     1     -11.840  66.233 103.391  1.00  0.00     0.138 C 
HETATM    3  C2  UNL     1     -11.064  65.364 104.240  1.00  0.00     0.217 A 
HETATM    4  N2  UNL     1     -11.653  64.358 104.895  1.00  0.00    -0.166 N 
ATOM      5  H2  UNL     1     -12.659  64.233 104.782  1.00  0.00     0.186 HD
HETATM    6  C3  UNL     1     -10.997  63.507 105.690  1.00  0.00     0.695 A 
HETATM    7  N9  UNL     1      -9.664  63.727 105.798  1.00  0.00    -0.022 N 
ATOM      8  H9  UNL     1      -9.116  63.104 106.392  1.00  0.00     0.203 HD
HETATM    9  C18 UNL     1      -9.024  64.731 105.155  1.00  0.00     0.694 A 
HETATM   10  N11 UNL     1      -9.732  65.557 104.369  1.00  0.00    -0.166 N 
ATOM     11  H11 UNL     1      -9.271  66.321 103.875  1.00  0.00     0.186 HD
ENDROOT
BRANCH   6  12
HETATM   12  N3  UNL     1     -11.514  62.580 106.328  1.00  0.00    -0.210 N 
ATOM     13  H3  UNL     1     -11.035  61.697 106.155  1.00  0.00     0.179 HD
BRANCH  12  14
HETATM   14  C4  UNL     1     -12.576  62.416 107.223  1.00  0.00     0.207 A 
HETATM   15  C5  UNL     1     -13.192  63.696 107.645  1.00  0.00     0.037 A 
HETATM   16  C6  UNL     1     -14.543  63.560 107.498  1.00  0.00     0.070 A 
HETATM   17  C14 UNL     1     -12.698  64.887 108.111  1.00  0.00     0.103 A 
HETATM   18  C7  UNL     1     -15.430  64.590 107.806  1.00  0.00     0.034 A 
HETATM   19  N5  UNL     1     -14.841  62.257 107.005  1.00  0.00    -0.241 N 
HETATM   20  C8  UNL     1     -14.897  65.768 108.270  1.00  0.00     0.034 A 
HETATM   21  C9  UNL     1     -13.539  65.949 108.434  1.00  0.00     0.064 A 
HETATM   22  N6  UNL     1     -16.038  61.701 106.722  1.00  0.00    -0.300 N 
HETATM   23  C17 UNL     1     -13.706  61.579 106.838  1.00  0.00     0.133 A 
HETATM   24  C15 UNL     1     -16.152  60.448 106.263  1.00  0.00     0.155 A 
ATOM     25  H6  UNL     1     -16.883  62.253 106.864  1.00  0.00     0.186 HD
HETATM   26  C16 UNL     1     -15.001  59.719 106.078  1.00  0.00     0.117 A 
HETATM   27  N8  UNL     1     -13.832  60.301 106.369  1.00  0.00    -0.328 N 
ATOM     28  H8  UNL     1     -12.980  59.757 106.231  1.00  0.00     0.169 HD
BRANCH  21  29
HETATM   29  N4  UNL     1     -13.019  67.167 108.945  1.00  0.00    -0.375 N 
BRANCH  29  30
HETATM   30  C10 UNL     1     -12.793  67.358 110.360  1.00  0.00     0.149 C 
BRANCH  30  31
HETATM   31  C11 UNL     1     -13.563  68.557 110.816  1.00  0.00     0.183 C 
BRANCH  31  32
HETATM   32  O1  UNL     1     -12.813  69.366 111.687  1.00  0.00    -0.399 OA
ATOM     33  H1  UNL     1     -12.002  69.660 111.291  1.00  0.00     0.209 HD
ENDBRANCH  31  32
ENDBRANCH  30  31
ENDBRANCH  29  30
BRANCH  29  34
HETATM   34  C12 UNL     1     -12.660  68.202 108.014  1.00  0.00     0.149 C 
BRANCH  34  35
HETATM   35  C13 UNL     1     -11.182  68.452 107.910  1.00  0.00     0.183 C 
BRANCH  35  36
HETATM   36  O2  UNL     1     -10.703  67.622 106.865  1.00  0.00    -0.399 OA
ATOM     37  H2  UNL     1     -10.793  66.726 107.168  1.00  0.00     0.209 HD
ENDBRANCH  35  36
ENDBRANCH  34  35
ENDBRANCH  29  34
ENDBRANCH  21  29
BRANCH  26  38
HETATM   38  N7  UNL     1     -15.051  58.484 105.633  1.00  0.00    -0.384 N 
ATOM     39  H72 UNL     1     -15.047  57.692 106.275  1.00  0.00     0.157 HD
ATOM     40  H71 UNL     1     -15.097  58.291 104.632  1.00  0.00     0.157 HD
ENDBRANCH  26  38
BRANCH  17  41
HETATM   41  O3  UNL     1     -11.333  65.074 108.275  1.00  0.00    -0.358 OA
ATOM     42  H3  UNL     1     -11.001  65.717 108.891  1.00  0.00     0.217 HD
ENDBRANCH  17  41
ENDBRANCH  12  14
ENDBRANCH   6  12
BRANCH   9  43
HETATM   43  N10 UNL     1      -7.763  64.890 105.307  1.00  0.00    -0.223 N 
ATOM     44  H10 UNL     1      -7.413  64.892 106.266  1.00  0.00     0.177 HD
BRANCH  43  45
HETATM   45  C19 UNL     1      -6.805  65.063 104.278  1.00  0.00     0.164 C 
BRANCH  45  46
HETATM   46  C20 UNL     1      -5.750  63.965 104.418  1.00  0.00     0.184 C 
BRANCH  46  47
HETATM   47  O4  UNL     1      -6.315  62.737 104.095  1.00  0.00    -0.399 OA
ATOM     48  H4  UNL     1      -6.064  62.092 104.746  1.00  0.00     0.209 HD
ENDBRANCH  46  47
ENDBRANCH  45  46
ENDBRANCH  43  45
ENDBRANCH   9  43
TORSDOF 15
ENDMDL
MODEL 2
REMARK VINA RESULT: -8.927575647      2.264      5.728
REMARK  15 active torsions:
REMARK  status: ('A' for Active; 'I' for Inactive)
REMARK    1  A    between atoms: C3_6  and  N3_7 
REMARK    2  A    between atoms: N3_7  and  C4_9 
REMARK    3  A    between atoms: C9_14  and  N4_15 
REMARK    4  A    between atoms: N4_15  and  C10_16 
REMARK    5  A    between atoms: N4_15  and  C12_20 
REMARK    6  A    between atoms: C10_16  and  C11_17 
REMARK    7  A    between atoms: C11_17  and  O1_18 
REMARK    8  A    between atoms: C12_20  and  C13_21 
REMARK    9  A    between atoms: C13_21  and  O2_22 
REMARK   10  A    between atoms: C14_24  and  O3_25 
REMARK   11  A    between atoms: C16_31  and  N7_32 
REMARK   12  A    between atoms: C18_40  and  N10_41 
REMARK   13  A    between atoms: N10_41  and  C19_43 
REMARK   14  A    between atoms: C19_43  and  C20_44 
REMARK   15  A    between atoms: C20_44  and  O4_45 
ROOT
HETATM    1  N1  UNL     1     -14.773  68.711 106.011  1.00  0.00    -0.188 NA
HETATM    2  C1  UNL     1     -15.035  67.706 106.481  1.00  0.00     0.138 C 
HETATM    3  C2  UNL     1     -15.341  66.434 107.084  1.00  0.00     0.217 A 
HETATM    4  N2  UNL     1     -15.603  65.370 106.318  1.00  0.00    -0.166 N 
ATOM      5  H2  UNL     1     -15.587  65.490 105.305  1.00  0.00     0.186 HD
HETATM    6  C3  UNL     1     -15.884  64.156 106.804  1.00  0.00     0.695 A 
HETATM    7  N9  UNL     1     -15.889  64.063 108.156  1.00  0.00    -0.022 N 
ATOM      8  H9  UNL     1     -16.097  63.159 108.580  1.00  0.00     0.203 HD
HETATM    9  C18 UNL     1     -15.630  65.111 108.973  1.00  0.00     0.694 A 
HETATM   10  N11 UNL     1     -15.354  66.307 108.430  1.00  0.00    -0.166 N 
ATOM     11  H11 UNL     1     -15.157  67.112 109.025  1.00  0.00     0.186 HD
ENDROOT
BRANCH   6  12
HETATM   12  N3  UNL     1     -16.153  63.157 106.125  1.00  0.00    -0.210 N 
ATOM     13  H3  UNL     1     -17.122  63.175 105.805  1.00  0.00     0.179 HD
BRANCH  12  14
HETATM   14  C4  UNL     1     -15.491  62.011 105.676  1.00  0.00     0.207 A 
HETATM   15  C5  UNL     1     -14.015  62.136 105.704  1.00  0.00     0.037 A 
HETATM   16  C6  UNL     1     -13.528  61.019 106.321  1.00  0.00     0.070 A 
HETATM   17  C14 UNL     1     -13.127  63.085 105.266  1.00  0.00     0.103 A 
HETATM   18  C7  UNL     1     -12.164  60.816 106.519  1.00  0.00     0.034 A 
HETATM   19  N5  UNL     1     -14.610  60.170 106.695  1.00  0.00    -0.241 N 
HETATM   20  C8  UNL     1     -11.306  61.789 106.067  1.00  0.00     0.034 A 
HETATM   21  C9  UNL     1     -11.753  62.932 105.437  1.00  0.00     0.064 A 
HETATM   22  N6  UNL     1     -14.583  58.974 107.319  1.00  0.00    -0.300 N 
HETATM   23  C17 UNL     1     -15.760  60.735 106.327  1.00  0.00     0.133 A 
HETATM   24  C15 UNL     1     -15.701  58.291 107.601  1.00  0.00     0.155 A 
ATOM     25  H6  UNL     1     -13.683  58.576 107.584  1.00  0.00     0.186 HD
HETATM   26  C16 UNL     1     -16.906  58.844 107.236  1.00  0.00     0.117 A 
HETATM   27  N8  UNL     1     -16.895  60.031 106.619  1.00  0.00    -0.328 N 
ATOM     28  H8  UNL     1     -17.790  60.437 106.349  1.00  0.00     0.169 HD
BRANCH  21  29
HETATM   29  N4  UNL     1     -10.841  63.906 104.953  1.00  0.00    -0.375 N 
BRANCH  29  30
HETATM   30  C10 UNL     1     -11.121  64.677 103.762  1.00  0.00     0.149 C 
BRANCH  30  31
HETATM   31  C11 UNL     1     -10.971  66.131 104.080  1.00  0.00     0.183 C 
BRANCH  31  32
HETATM   32  O1  UNL     1     -12.189  66.715 104.469  1.00  0.00    -0.399 OA
ATOM     33  H1  UNL     1     -12.515  66.352 105.283  1.00  0.00     0.209 HD
ENDBRANCH  31  32
ENDBRANCH  30  31
ENDBRANCH  29  30
BRANCH  29  34
HETATM   34  C12 UNL     1      -9.645  64.160 105.709  1.00  0.00     0.149 C 
BRANCH  34  35
HETATM   35  C13 UNL     1      -8.372  63.929 104.945  1.00  0.00     0.183 C 
BRANCH  35  36
HETATM   36  O2  UNL     1      -7.555  65.065 105.165  1.00  0.00    -0.399 OA
ATOM     37  H2  UNL     1      -6.725  64.743 105.496  1.00  0.00     0.209 HD
ENDBRANCH  35  36
ENDBRANCH  34  35
ENDBRANCH  29  34
ENDBRANCH  21  29
BRANCH  26  38
HETATM   38  N7  UNL     1     -18.035  58.219 107.483  1.00  0.00    -0.384 N 
ATOM     39  H72 UNL     1     -18.064  57.409 108.102  1.00  0.00     0.157 HD
ATOM     40  H71 UNL     1     -18.909  58.533 107.062  1.00  0.00     0.157 HD
ENDBRANCH  26  38
BRANCH  17  41
HETATM   41  O3  UNL     1     -13.573  64.237 104.635  1.00  0.00    -0.358 OA
ATOM     42  H3  UNL     1     -13.843  64.995 105.142  1.00  0.00     0.217 HD
ENDBRANCH  17  41
ENDBRANCH  12  14
ENDBRANCH   6  12
BRANCH   9  43
HETATM   43  N10 UNL     1     -15.660  64.958 110.243  1.00  0.00    -0.223 N 
ATOM     44  H10 UNL     1     -16.476  64.482 110.629  1.00  0.00     0.177 HD
BRANCH  43  45
HETATM   45  C19 UNL     1     -14.674  65.384 111.166  1.00  0.00     0.164 C 
BRANCH  45  46
HETATM   46  C20 UNL     1     -13.308  64.932 110.648  1.00  0.00     0.184 C 
BRANCH  46  47
HETATM   47  O4  UNL     1     -12.646  66.016 110.083  1.00  0.00    -0.399 OA
ATOM     48  H4  UNL     1     -11.867  65.711 109.631  1.00  0.00     0.209 HD
ENDBRANCH  46  47
ENDBRANCH  45  46
ENDBRANCH  43  45
ENDBRANCH   9  43
TORSDOF 15
ENDMDL
MODEL 3
REMARK VINA RESULT: -8.869479257      2.302      5.813
REMARK  15 active torsions:
REMARK  status: ('A' for Active; 'I' for Inactive)
REMARK    1  A    between atoms: C3_6  and  N3_7 
REMARK    2  A    between atoms: N3_7  and  C4_9 
REMARK    3  A    between atoms: C9_14  and  N4_15 
REMARK    4  A    between atoms: N4_15  and  C10_16 
REMARK    5  A    between atoms: N4_15  and  C12_20 
REMARK    6  A    between atoms: C10_16  and  C11_17 
REMARK    7  A    between atoms: C11_17  and  O1_18 
REMARK    8  A    between atoms: C12_20  and  C13_21 
REMARK    9  A    between atoms: C13_21  and  O2_22 
REMARK   10  A    between atoms: C14_24  and  O3_25 
REMARK   11  A    between atoms: C16_31  and  N7_32 
REMARK   12  A    between atoms: C18_40  and  N10_41 
REMARK   13  A    between atoms: N10_41  and  C19_43 
REMARK   14  A    between atoms: C19_43  and  C20_44 
REMARK   15  A    between atoms: C20_44  and  O4_45 
ROOT
HETATM    1  N1  UNL     1     -14.755  68.715 106.119  1.00  0.00    -0.188 NA
HETATM    2  C1  UNL     1     -15.017  67.706 106.579  1.00  0.00     0.138 C 
HETATM    3  C2  UNL     1     -15.322  66.428 107.171  1.00  0.00     0.217 A 
HETATM    4  N2  UNL     1     -15.598  65.374 106.395  1.00  0.00    -0.166 N 
ATOM      5  H2  UNL     1     -15.592  65.506 105.383  1.00  0.00     0.186 HD
HETATM    6  C3  UNL     1     -15.879  64.156 106.870  1.00  0.00     0.695 A 
HETATM    7  N9  UNL     1     -15.871  64.047 108.221  1.00  0.00    -0.022 N 
ATOM      8  H9  UNL     1     -16.079  63.139 108.635  1.00  0.00     0.203 HD
HETATM    9  C18 UNL     1     -15.599  65.084 109.047  1.00  0.00     0.694 A 
HETATM   10  N11 UNL     1     -15.322  66.286 108.515  1.00  0.00    -0.166 N 
ATOM     11  H11 UNL     1     -15.115  67.082 109.118  1.00  0.00     0.186 HD
ENDROOT
BRANCH   6  12
HETATM   12  N3  UNL     1     -16.161  63.166 106.181  1.00  0.00    -0.210 N 
ATOM     13  H3  UNL     1     -17.134  63.190 105.877  1.00  0.00     0.179 HD
BRANCH  12  14
HETATM   14  C4  UNL     1     -15.507  62.025 105.708  1.00  0.00     0.207 A 
HETATM   15  C5  UNL     1     -14.030  62.142 105.732  1.00  0.00     0.037 A 
HETATM   16  C6  UNL     1     -13.547  61.010 106.325  1.00  0.00     0.070 A 
HETATM   17  C14 UNL     1     -13.138  63.093 105.309  1.00  0.00     0.103 A 
HETATM   18  C7  UNL     1     -12.183  60.795 106.513  1.00  0.00     0.034 A 
HETATM   19  N5  UNL     1     -14.632  60.160 106.687  1.00  0.00    -0.241 N 
HETATM   20  C8  UNL     1     -11.322  61.772 106.076  1.00  0.00     0.034 A 
HETATM   21  C9  UNL     1     -11.765  62.930 105.471  1.00  0.00     0.064 A 
HETATM   22  N6  UNL     1     -14.611  58.952 107.287  1.00  0.00    -0.300 N 
HETATM   23  C17 UNL     1     -15.781  60.738 106.335  1.00  0.00     0.133 A 
HETATM   24  C15 UNL     1     -15.731  58.270 107.561  1.00  0.00     0.155 A 
ATOM     25  H6  UNL     1     -13.711  58.543 107.541  1.00  0.00     0.186 HD
HETATM   26  C16 UNL     1     -16.935  58.837 107.211  1.00  0.00     0.117 A 
HETATM   27  N8  UNL     1     -16.919  60.036 106.618  1.00  0.00    -0.328 N 
ATOM     28  H8  UNL     1     -17.813  60.453 106.359  1.00  0.00     0.169 HD
BRANCH  21  29
HETATM   29  N4  UNL     1     -10.849  63.908 105.001  1.00  0.00    -0.375 N 
BRANCH  29  30
HETATM   30  C10 UNL     1      -9.680  64.277 105.766  1.00  0.00     0.149 C 
BRANCH  30  31
HETATM   31  C11 UNL     1      -8.456  63.937 104.974  1.00  0.00     0.183 C 
BRANCH  31  32
HETATM   32  O1  UNL     1      -7.495  64.962 105.023  1.00  0.00    -0.399 OA
ATOM     33  H1  UNL     1      -6.609  64.622 104.972  1.00  0.00     0.209 HD
ENDBRANCH  31  32
ENDBRANCH  30  31
ENDBRANCH  29  30
BRANCH  29  34
HETATM   34  C12 UNL     1     -11.075  64.491 103.707  1.00  0.00     0.149 C 
BRANCH  34  35
HETATM   35  C13 UNL     1     -11.136  65.992 103.709  1.00  0.00     0.183 C 
BRANCH  35  36
HETATM   36  O2  UNL     1     -12.367  66.349 103.104  1.00  0.00    -0.399 OA
ATOM     37  H2  UNL     1     -12.304  67.271 102.884  1.00  0.00     0.209 HD
ENDBRANCH  35  36
ENDBRANCH  34  35
ENDBRANCH  29  34
ENDBRANCH  21  29
BRANCH  26  38
HETATM   38  N7  UNL     1     -18.066  58.214 107.451  1.00  0.00    -0.384 N 
ATOM     39  H72 UNL     1     -18.309  57.908 108.393  1.00  0.00     0.157 HD
ATOM     40  H71 UNL     1     -18.728  58.025 106.699  1.00  0.00     0.157 HD
ENDBRANCH  26  38
BRANCH  17  41
HETATM   41  O3  UNL     1     -13.581  64.260 104.702  1.00  0.00    -0.358 OA
ATOM     42  H3  UNL     1     -14.332  64.250 104.120  1.00  0.00     0.217 HD
ENDBRANCH  17  41
ENDBRANCH  12  14
ENDBRANCH   6  12
BRANCH   9  43
HETATM   43  N10 UNL     1     -15.617  64.916 110.315  1.00  0.00    -0.223 N 
ATOM     44  H10 UNL     1     -16.424  64.427 110.703  1.00  0.00     0.177 HD
BRANCH  43  45
HETATM   45  C19 UNL     1     -14.627  65.342 111.235  1.00  0.00     0.164 C 
BRANCH  45  46
HETATM   46  C20 UNL     1     -13.259  64.925 110.693  1.00  0.00     0.184 C 
BRANCH  46  47
HETATM   47  O4  UNL     1     -12.636  66.025 110.114  1.00  0.00    -0.399 OA
ATOM     48  H4  UNL     1     -11.701  65.977 110.270  1.00  0.00     0.209 HD
ENDBRANCH  46  47
ENDBRANCH  45  46
ENDBRANCH  43  45
ENDBRANCH   9  43
TORSDOF 15
ENDMDL
MODEL 4
REMARK VINA RESULT: -8.866948479      0.768      1.611
REMARK  15 active torsions:
REMARK  status: ('A' for Active; 'I' for Inactive)
REMARK    1  A    between atoms: C3_6  and  N3_7 
REMARK    2  A    between atoms: N3_7  and  C4_9 
REMARK    3  A    between atoms: C9_14  and  N4_15 
REMARK    4  A    between atoms: N4_15  and  C10_16 
REMARK    5  A    between atoms: N4_15  and  C12_20 
REMARK    6  A    between atoms: C10_16  and  C11_17 
REMARK    7  A    between atoms: C11_17  and  O1_18 
REMARK    8  A    between atoms: C12_20  and  C13_21 
REMARK    9  A    between atoms: C13_21  and  O2_22 
REMARK   10  A    between atoms: C14_24  and  O3_25 
REMARK   11  A    between atoms: C16_31  and  N7_32 
REMARK   12  A    between atoms: C18_40  and  N10_41 
REMARK   13  A    between atoms: N10_41  and  C19_43 
REMARK   14  A    between atoms: C19_43  and  C20_44 
REMARK   15  A    between atoms: C20_44  and  O4_45 
ROOT
HETATM    1  N1  UNL     1     -12.350  66.882 102.706  1.00  0.00    -0.188 NA
HETATM    2  C1  UNL     1     -11.758  66.189 103.388  1.00  0.00     0.138 C 
HETATM    3  C2  UNL     1     -10.996  65.301 104.230  1.00  0.00     0.217 A 
HETATM    4  N2  UNL     1     -11.612  64.343 104.931  1.00  0.00    -0.166 N 
ATOM      5  H2  UNL     1     -12.626  64.268 104.857  1.00  0.00     0.186 HD
HETATM    6  C3  UNL     1     -10.972  63.477 105.724  1.00  0.00     0.695 A 
HETATM    7  N9  UNL     1      -9.627  63.629 105.779  1.00  0.00    -0.022 N 
ATOM      8  H9  UNL     1      -9.090  62.993 106.369  1.00  0.00     0.203 HD
HETATM    9  C18 UNL     1      -8.959  64.583 105.089  1.00  0.00     0.694 A 
HETATM   10  N11 UNL     1      -9.652  65.427 104.307  1.00  0.00    -0.166 N 
ATOM     11  H11 UNL     1      -9.171  66.154 103.779  1.00  0.00     0.186 HD
ENDROOT
BRANCH   6  12
HETATM   12  N3  UNL     1     -11.513  62.594 106.403  1.00  0.00    -0.210 N 
ATOM     13  H3  UNL     1     -11.000  61.714 106.345  1.00  0.00     0.179 HD
BRANCH  12  14
HETATM   14  C4  UNL     1     -12.634  62.476 107.229  1.00  0.00     0.207 A 
HETATM   15  C5  UNL     1     -13.213  63.781 107.625  1.00  0.00     0.037 A 
HETATM   16  C6  UNL     1     -14.558  63.710 107.394  1.00  0.00     0.070 A 
HETATM   17  C14 UNL     1     -12.693  64.944 108.131  1.00  0.00     0.103 A 
HETATM   18  C7  UNL     1     -15.412  64.780 107.657  1.00  0.00     0.034 A 
HETATM   19  N5  UNL     1     -14.886  62.426 106.871  1.00  0.00    -0.241 N 
HETATM   20  C8  UNL     1     -14.853  65.928 108.162  1.00  0.00     0.034 A 
HETATM   21  C9  UNL     1     -13.501  66.043 108.412  1.00  0.00     0.064 A 
HETATM   22  N6  UNL     1     -16.088  61.930 106.511  1.00  0.00    -0.300 N 
HETATM   23  C17 UNL     1     -13.776  61.696 106.769  1.00  0.00     0.133 A 
HETATM   24  C15 UNL     1     -16.234  60.687 106.033  1.00  0.00     0.155 A 
ATOM     25  H6  UNL     1     -16.914  62.521 106.605  1.00  0.00     0.186 HD
HETATM   26  C16 UNL     1     -15.108  59.904 105.913  1.00  0.00     0.117 A 
HETATM   27  N8  UNL     1     -13.933  60.429 106.280  1.00  0.00    -0.328 N 
ATOM     28  H8  UNL     1     -13.102  59.845 106.191  1.00  0.00     0.169 HD
BRANCH  21  29
HETATM   29  N4  UNL     1     -12.957  67.231 108.965  1.00  0.00    -0.375 N 
BRANCH  29  30
HETATM   30  C10 UNL     1     -12.519  68.323 108.126  1.00  0.00     0.149 C 
BRANCH  30  31
HETATM   31  C11 UNL     1     -11.079  68.611 108.416  1.00  0.00     0.183 C 
BRANCH  31  32
HETATM   32  O1  UNL     1     -10.920  69.753 109.220  1.00  0.00    -0.399 OA
ATOM     33  H1  UNL     1     -11.740  70.030 109.612  1.00  0.00     0.209 HD
ENDBRANCH  31  32
ENDBRANCH  30  31
ENDBRANCH  29  30
BRANCH  29  34
HETATM   34  C12 UNL     1     -12.902  67.358 110.396  1.00  0.00     0.149 C 
BRANCH  34  35
HETATM   35  C13 UNL     1     -13.728  68.485 110.948  1.00  0.00     0.183 C 
BRANCH  35  36
HETATM   36  O2  UNL     1     -12.828  69.371 111.590  1.00  0.00    -0.399 OA
ATOM     37  H2  UNL     1     -13.354  70.067 111.965  1.00  0.00     0.209 HD
ENDBRANCH  35  36
ENDBRANCH  34  35
ENDBRANCH  29  34
ENDBRANCH  21  29
BRANCH  26  38
HETATM   38  N7  UNL     1     -15.190  58.676 105.454  1.00  0.00    -0.384 N 
ATOM     39  H72 UNL     1     -14.917  58.453 104.497  1.00  0.00     0.157 HD
ATOM     40  H71 UNL     1     -15.526  57.918 106.048  1.00  0.00     0.157 HD
ENDBRANCH  26  38
BRANCH  17  41
HETATM   41  O3  UNL     1     -11.334  65.064 108.380  1.00  0.00    -0.358 OA
ATOM     42  H3  UNL     1     -11.020  65.495 109.167  1.00  0.00     0.217 HD
ENDBRANCH  17  41
ENDBRANCH  12  14
ENDBRANCH   6  12
BRANCH   9  43
HETATM   43  N10 UNL     1      -7.688  64.679 105.192  1.00  0.00    -0.223 N 
ATOM     44  H10 UNL     1      -7.330  65.433 105.780  1.00  0.00     0.177 HD
BRANCH  43  45
HETATM   45  C19 UNL     1      -6.726  63.845 104.572  1.00  0.00     0.164 C 
BRANCH  45  46
HETATM   46  C20 UNL     1      -5.340  64.438 104.829  1.00  0.00     0.184 C 
BRANCH  46  47
HETATM   47  O4  UNL     1      -4.953  64.161 106.135  1.00  0.00    -0.399 OA
ATOM     48  H4  UNL     1      -4.180  64.668 106.351  1.00  0.00     0.209 HD
ENDBRANCH  46  47
ENDBRANCH  45  46
ENDBRANCH  43  45
ENDBRANCH   9  43
TORSDOF 15
ENDMDL
MODEL 5
REMARK VINA RESULT: -8.741504923      2.457      6.721
REMARK  15 active torsions:
REMARK  status: ('A' for Active; 'I' for Inactive)
REMARK    1  A    between atoms: C3_6  and  N3_7 
REMARK    2  A    between atoms: N3_7  and  C4_9 
REMARK    3  A    between atoms: C9_14  and  N4_15 
REMARK    4  A    between atoms: N4_15  and  C10_16 
REMARK    5  A    between atoms: N4_15  and  C12_20 
REMARK    6  A    between atoms: C10_16  and  C11_17 
REMARK    7  A    between atoms: C11_17  and  O1_18 
REMARK    8  A    between atoms: C12_20  and  C13_21 
REMARK    9  A    between atoms: C13_21  and  O2_22 
REMARK   10  A    between atoms: C14_24  and  O3_25 
REMARK   11  A    between atoms: C16_31  and  N7_32 
REMARK   12  A    between atoms: C18_40  and  N10_41 
REMARK   13  A    between atoms: N10_41  and  C19_43 
REMARK   14  A    between atoms: C19_43  and  C20_44 
REMARK   15  A    between atoms: C20_44  and  O4_45 
ROOT
HETATM    1  N1  UNL     1     -12.108  64.298 110.963  1.00  0.00    -0.188 NA
HETATM    2  C1  UNL     1     -13.080  64.444 110.386  1.00  0.00     0.138 C 
HETATM    3  C2  UNL     1     -14.323  64.619 109.677  1.00  0.00     0.217 A 
HETATM    4  N2  UNL     1     -14.568  63.920 108.565  1.00  0.00    -0.166 N 
ATOM      5  H2  UNL     1     -13.852  63.273 108.234  1.00  0.00     0.186 HD
HETATM    6  C3  UNL     1     -15.700  64.020 107.860  1.00  0.00     0.695 A 
HETATM    7  N9  UNL     1     -16.610  64.896 108.351  1.00  0.00    -0.022 N 
ATOM      8  H9  UNL     1     -17.492  65.010 107.852  1.00  0.00     0.203 HD
HETATM    9  C18 UNL     1     -16.407  65.626 109.473  1.00  0.00     0.694 A 
HETATM   10  N11 UNL     1     -15.251  65.485 110.141  1.00  0.00    -0.166 N 
ATOM     11  H11 UNL     1     -15.075  66.025 110.988  1.00  0.00     0.186 HD
ENDROOT
BRANCH   6  12
HETATM   12  N3  UNL     1     -15.950  63.405 106.815  1.00  0.00    -0.210 N 
ATOM     13  H3  UNL     1     -16.786  63.771 106.359  1.00  0.00     0.179 HD
BRANCH  12  14
HETATM   14  C4  UNL     1     -15.397  62.346 106.089  1.00  0.00     0.207 A 
HETATM   15  C5  UNL     1     -13.936  62.474 105.883  1.00  0.00     0.037 A 
HETATM   16  C6  UNL     1     -13.376  61.277 106.229  1.00  0.00     0.070 A 
HETATM   17  C14 UNL     1     -13.115  63.483 105.451  1.00  0.00     0.103 A 
HETATM   18  C7  UNL     1     -12.002  61.053 106.157  1.00  0.00     0.034 A 
HETATM   19  N5  UNL     1     -14.396  60.375 106.647  1.00  0.00    -0.241 N 
HETATM   20  C8  UNL     1     -11.213  62.089 105.721  1.00  0.00     0.034 A 
HETATM   21  C9  UNL     1     -11.736  63.314 105.360  1.00  0.00     0.064 A 
HETATM   22  N6  UNL     1     -14.290  59.096 107.066  1.00  0.00    -0.300 N 
HETATM   23  C17 UNL     1     -15.580  60.983 106.572  1.00  0.00     0.133 A 
HETATM   24  C15 UNL     1     -15.358  58.372 107.426  1.00  0.00     0.155 A 
ATOM     25  H6  UNL     1     -13.366  58.666 107.109  1.00  0.00     0.186 HD
HETATM   26  C16 UNL     1     -16.596  58.968 107.361  1.00  0.00     0.117 A 
HETATM   27  N8  UNL     1     -16.664  60.237 106.941  1.00  0.00    -0.328 N 
ATOM     28  H8  UNL     1     -17.583  60.675 106.894  1.00  0.00     0.169 HD
BRANCH  21  29
HETATM   29  N4  UNL     1     -10.899  64.356 104.883  1.00  0.00    -0.375 N 
BRANCH  29  30
HETATM   30  C10 UNL     1      -9.811  64.877 105.679  1.00  0.00     0.149 C 
BRANCH  30  31
HETATM   31  C11 UNL     1      -8.530  64.697 104.927  1.00  0.00     0.183 C 
BRANCH  31  32
HETATM   32  O1  UNL     1      -8.061  63.373 104.992  1.00  0.00    -0.399 OA
ATOM     33  H1  UNL     1      -7.124  63.320 104.851  1.00  0.00     0.209 HD
ENDBRANCH  31  32
ENDBRANCH  30  31
ENDBRANCH  29  30
BRANCH  29  34
HETATM   34  C12 UNL     1     -11.116  64.852 103.551  1.00  0.00     0.149 C 
BRANCH  34  35
HETATM   35  C13 UNL     1     -11.414  66.323 103.481  1.00  0.00     0.183 C 
BRANCH  35  36
HETATM   36  O2  UNL     1     -12.651  66.454 102.803  1.00  0.00    -0.399 OA
ATOM     37  H2  UNL     1     -13.193  67.025 103.335  1.00  0.00     0.209 HD
ENDBRANCH  35  36
ENDBRANCH  34  35
ENDBRANCH  29  34
ENDBRANCH  21  29
BRANCH  26  38
HETATM   38  N7  UNL     1     -17.679  58.307 107.698  1.00  0.00    -0.384 N 
ATOM     39  H72 UNL     1     -17.958  58.216 108.675  1.00  0.00     0.157 HD
ATOM     40  H71 UNL     1     -18.267  57.870 106.988  1.00  0.00     0.157 HD
ENDBRANCH  26  38
BRANCH  17  41
HETATM   41  O3  UNL     1     -13.637  64.717 105.091  1.00  0.00    -0.358 OA
ATOM     42  H3  UNL     1     -13.502  65.065 104.217  1.00  0.00     0.217 HD
ENDBRANCH  17  41
ENDBRANCH  12  14
ENDBRANCH   6  12
BRANCH   9  43
HETATM   43  N10 UNL     1     -17.304  66.443 109.878  1.00  0.00    -0.223 N 
ATOM     44  H10 UNL     1     -18.234  66.345 109.469  1.00  0.00     0.177 HD
BRANCH  43  45
HETATM   45  C19 UNL     1     -17.136  67.471 110.839  1.00  0.00     0.164 C 
BRANCH  45  46
HETATM   46  C20 UNL     1     -17.584  68.791 110.210  1.00  0.00     0.184 C 
BRANCH  46  47
HETATM   47  O4  UNL     1     -16.468  69.513 109.804  1.00  0.00    -0.399 OA
ATOM     48  H4  UNL     1     -16.593  69.816 108.913  1.00  0.00     0.209 HD
ENDBRANCH  46  47
ENDBRANCH  45  46
ENDBRANCH  43  45
ENDBRANCH   9  43
TORSDOF 15
ENDMDL
