MODEL 1
REMARK VINA RESULT: -7.094504302      0.000      0.000
REMARK  6 active torsions:
REMARK  status: ('A' for Active; 'I' for Inactive)
REMARK    1  A    between atoms: C2_2  and  N1_3 
REMARK    2  A    between atoms: C2_2  and  C4_8 
REMARK       I    between atoms: N1_3  and  C3_5 
REMARK       I    between atoms: C4_8  and  N3_10 
REMARK    3  A    between atoms: N3_10  and  C5_12 
REMARK    4  A    between atoms: C5_12  and  C6_13 
REMARK    5  A    between atoms: C6_13  and  N4_14 
REMARK    6  A    between atoms: C6_13  and  C7_18 
ROOT
HETATM    1  C5  UNL     1      15.262  12.176  59.789  1.00  0.00     0.069 A 
HETATM    2  C8  UNL     1      16.678  12.222  60.306  1.00  0.00     0.036 A 
HETATM    3  C9  UNL     1      15.681  11.359  60.940  1.00  0.00     0.036 A 
ENDROOT
BRANCH   1   4
HETATM    4  N3  UNL     1      14.444  13.353  59.914  1.00  0.00    -0.348 N 
HETATM    5  C4  UNL     1      13.085  13.393  60.285  1.00  0.00     0.240 C 
HETATM    6  O2  UNL     1      12.493  12.322  60.535  1.00  0.00    -0.271 OA
ATOM      7  H3  UNL     1      14.893  14.246  59.715  1.00  0.00     0.163 HD
BRANCH   5   8
HETATM    8  C2  UNL     1      12.299  14.645  60.399  1.00  0.00     0.174 C 
HETATM    9  C1  UNL     1      10.890  14.328  59.952  1.00  0.00     0.042 C 
BRANCH   8  10
HETATM   10  N1  UNL     1      12.240  15.154  61.729  1.00  0.00    -0.333 N 
HETATM   11  C3  UNL     1      12.581  16.487  62.022  1.00  0.00     0.329 C 
HETATM   12  N2  UNL     1      12.516  16.982  63.366  1.00  0.00    -0.040 NA
HETATM   13  O1  UNL     1      12.945  17.245  61.096  1.00  0.00    -0.251 OA
ATOM     14  H1  UNL     1      11.944  14.538  62.487  1.00  0.00     0.164 HD
ENDBRANCH   8  10
ENDBRANCH   5   8
ENDBRANCH   1   4
BRANCH   1  15
HETATM   15  C6  UNL     1      15.039  11.401  58.483  1.00  0.00     0.299 C 
BRANCH  15  16
HETATM   16  N4  UNL     1      14.078  10.359  58.751  1.00  0.00    -0.064 N 
ATOM     17  H43 UNL     1      14.429   9.653  59.397  1.00  0.00     0.275 HD
ATOM     18  H42 UNL     1      13.293  10.680  59.316  1.00  0.00     0.275 HD
ATOM     19  H41 UNL     1      13.789   9.968  57.854  1.00  0.00     0.275 HD
ENDBRANCH  15  16
BRANCH  15  20
HETATM   20  C7  UNL     1      14.577  12.302  57.399  1.00  0.00     0.264 C 
HETATM   21  N5  UNL     1      15.514  13.195  56.826  1.00  0.00    -0.060 NA
HETATM   22  O3  UNL     1      13.399  12.306  56.971  1.00  0.00    -0.274 OA
ENDBRANCH  15  20
ENDBRANCH   1  15
TORSDOF 6
ENDMDL
MODEL 2
REMARK VINA RESULT: -6.570679322      1.936      2.763
REMARK  6 active torsions:
REMARK  status: ('A' for Active; 'I' for Inactive)
REMARK    1  A    between atoms: C2_2  and  N1_3 
REMARK    2  A    between atoms: C2_2  and  C4_8 
REMARK       I    between atoms: N1_3  and  C3_5 
REMARK       I    between atoms: C4_8  and  N3_10 
REMARK    3  A    between atoms: N3_10  and  C5_12 
REMARK    4  A    between atoms: C5_12  and  C6_13 
REMARK    5  A    between atoms: C6_13  and  N4_14 
REMARK    6  A    between atoms: C6_13  and  C7_18 
ROOT
HETATM    1  C5  UNL     1      14.852  12.644  58.486  1.00  0.00     0.069 A 
HETATM    2  C8  UNL     1      14.557  12.084  57.117  1.00  0.00     0.036 A 
HETATM    3  C9  UNL     1      15.406  13.266  57.271  1.00  0.00     0.036 A 
ENDROOT
BRANCH   1   4
HETATM    4  N3  UNL     1      13.771  13.219  59.242  1.00  0.00    -0.348 N 
HETATM    5  C4  UNL     1      13.831  14.379  60.040  1.00  0.00     0.240 C 
HETATM    6  O2  UNL     1      14.912  14.998  60.129  1.00  0.00    -0.271 OA
ATOM      7  H3  UNL     1      12.873  12.739  59.195  1.00  0.00     0.163 HD
BRANCH   5   8
HETATM    8  C2  UNL     1      12.675  14.922  60.792  1.00  0.00     0.174 C 
HETATM    9  C1  UNL     1      11.812  13.746  61.192  1.00  0.00     0.042 C 
BRANCH   8  10
HETATM   10  N1  UNL     1      13.050  15.621  61.977  1.00  0.00    -0.333 N 
HETATM   11  C3  UNL     1      12.239  16.632  62.522  1.00  0.00     0.329 C 
HETATM   12  N2  UNL     1      12.633  17.324  63.714  1.00  0.00    -0.040 NA
HETATM   13  O1  UNL     1      11.162  16.927  61.957  1.00  0.00    -0.251 OA
ATOM     14  H1  UNL     1      13.928  15.383  62.439  1.00  0.00     0.164 HD
ENDBRANCH   8  10
ENDBRANCH   5   8
ENDBRANCH   1   4
BRANCH   1  15
HETATM   15  C6  UNL     1      15.859  11.862  59.340  1.00  0.00     0.299 C 
BRANCH  15  16
HETATM   16  N4  UNL     1      16.791  12.812  59.896  1.00  0.00    -0.064 N 
ATOM     17  H43 UNL     1      16.384  13.376  60.642  1.00  0.00     0.275 HD
ATOM     18  H42 UNL     1      17.525  12.370  60.448  1.00  0.00     0.275 HD
ATOM     19  H41 UNL     1      17.156  13.373  59.127  1.00  0.00     0.275 HD
ENDBRANCH  15  16
BRANCH  15  20
HETATM   20  C7  UNL     1      15.172  11.087  60.401  1.00  0.00     0.264 C 
HETATM   21  N5  UNL     1      14.872  11.741  61.620  1.00  0.00    -0.060 NA
HETATM   22  O3  UNL     1      14.848   9.884  60.265  1.00  0.00    -0.274 OA
ENDBRANCH  15  20
ENDBRANCH   1  15
TORSDOF 6
ENDMDL
MODEL 3
REMARK VINA RESULT: -6.557038239      1.805      2.103
REMARK  6 active torsions:
REMARK  status: ('A' for Active; 'I' for Inactive)
REMARK    1  A    between atoms: C2_2  and  N1_3 
REMARK    2  A    between atoms: C2_2  and  C4_8 
REMARK       I    between atoms: N1_3  and  C3_5 
REMARK       I    between atoms: C4_8  and  N3_10 
REMARK    3  A    between atoms: N3_10  and  C5_12 
REMARK    4  A    between atoms: C5_12  and  C6_13 
REMARK    5  A    between atoms: C6_13  and  N4_14 
REMARK    6  A    between atoms: C6_13  and  C7_18 
ROOT
HETATM    1  C5  UNL     1      16.040  11.933  60.083  1.00  0.00     0.069 A 
HETATM    2  C8  UNL     1      17.538  11.877  59.919  1.00  0.00     0.036 A 
HETATM    3  C9  UNL     1      16.834  10.850  60.687  1.00  0.00     0.036 A 
ENDROOT
BRANCH   1   4
HETATM    4  N3  UNL     1      15.470  13.012  60.846  1.00  0.00    -0.348 N 
HETATM    5  C4  UNL     1      14.537  12.895  61.896  1.00  0.00     0.240 C 
HETATM    6  O2  UNL     1      14.137  11.759  62.226  1.00  0.00    -0.271 OA
ATOM      7  H3  UNL     1      15.771  13.955  60.602  1.00  0.00     0.163 HD
BRANCH   5   8
HETATM    8  C2  UNL     1      13.991  14.051  62.646  1.00  0.00     0.174 C 
HETATM    9  C1  UNL     1      14.916  14.298  63.816  1.00  0.00     0.042 C 
BRANCH   8  10
HETATM   10  N1  UNL     1      13.925  15.246  61.871  1.00  0.00    -0.333 N 
HETATM   11  C3  UNL     1      12.791  16.077  61.898  1.00  0.00     0.329 C 
HETATM   12  N2  UNL     1      12.742  17.276  61.112  1.00  0.00    -0.040 NA
HETATM   13  O1  UNL     1      11.817  15.764  62.617  1.00  0.00    -0.251 OA
ATOM     14  H1  UNL     1      14.718  15.504  61.283  1.00  0.00     0.164 HD
ENDBRANCH   8  10
ENDBRANCH   5   8
ENDBRANCH   1   4
BRANCH   1  15
HETATM   15  C6  UNL     1      15.205  11.530  58.860  1.00  0.00     0.299 C 
BRANCH  15  16
HETATM   16  N4  UNL     1      14.251  10.538  59.289  1.00  0.00    -0.064 N 
ATOM     17  H43 UNL     1      14.207  10.443  60.304  1.00  0.00     0.275 HD
ATOM     18  H42 UNL     1      13.284  10.826  59.140  1.00  0.00     0.275 HD
ATOM     19  H41 UNL     1      14.481   9.663  58.818  1.00  0.00     0.275 HD
ENDBRANCH  15  16
BRANCH  15  20
HETATM   20  C7  UNL     1      14.533  12.707  58.259  1.00  0.00     0.264 C 
HETATM   21  N5  UNL     1      15.153  13.339  57.154  1.00  0.00    -0.060 NA
HETATM   22  O3  UNL     1      13.447  13.164  58.684  1.00  0.00    -0.274 OA
ENDBRANCH  15  20
ENDBRANCH   1  15
TORSDOF 6
ENDMDL
MODEL 4
REMARK VINA RESULT: -6.491170141      1.692      5.650
REMARK  6 active torsions:
REMARK  status: ('A' for Active; 'I' for Inactive)
REMARK    1  A    between atoms: C2_2  and  N1_3 
REMARK    2  A    between atoms: C2_2  and  C4_8 
REMARK       I    between atoms: N1_3  and  C3_5 
REMARK       I    between atoms: C4_8  and  N3_10 
REMARK    3  A    between atoms: N3_10  and  C5_12 
REMARK    4  A    between atoms: C5_12  and  C6_13 
REMARK    5  A    between atoms: C6_13  and  N4_14 
REMARK    6  A    between atoms: C6_13  and  C7_18 
ROOT
HETATM    1  C5  UNL     1      12.942  13.680  61.493  1.00  0.00     0.069 A 
HETATM    2  C8  UNL     1      11.490  13.396  61.200  1.00  0.00     0.036 A 
HETATM    3  C9  UNL     1      12.239  12.559  62.138  1.00  0.00     0.036 A 
ENDROOT
BRANCH   1   4
HETATM    4  N3  UNL     1      13.904  13.503  60.437  1.00  0.00    -0.348 N 
HETATM    5  C4  UNL     1      15.036  12.665  60.467  1.00  0.00     0.240 C 
HETATM    6  O2  UNL     1      15.265  11.993  61.494  1.00  0.00    -0.271 OA
ATOM      7  H3  UNL     1      13.751  14.038  59.583  1.00  0.00     0.163 HD
BRANCH   5   8
HETATM    8  C2  UNL     1      15.988  12.525  59.339  1.00  0.00     0.174 C 
HETATM    9  C1  UNL     1      17.232  11.862  59.887  1.00  0.00     0.042 C 
BRANCH   8  10
HETATM   10  N1  UNL     1      15.487  11.721  58.274  1.00  0.00    -0.333 N 
HETATM   11  C3  UNL     1      15.323  12.238  56.977  1.00  0.00     0.329 C 
HETATM   12  N2  UNL     1      14.818  11.414  55.918  1.00  0.00    -0.040 NA
HETATM   13  O1  UNL     1      15.622  13.432  56.749  1.00  0.00    -0.251 OA
ATOM     14  H1  UNL     1      15.242  10.747  58.457  1.00  0.00     0.164 HD
ENDBRANCH   8  10
ENDBRANCH   5   8
ENDBRANCH   1   4
BRANCH   1  15
HETATM   15  C6  UNL     1      13.232  14.883  62.401  1.00  0.00     0.299 C 
BRANCH  15  16
HETATM   16  N4  UNL     1      14.625  14.826  62.770  1.00  0.00    -0.064 N 
ATOM     17  H43 UNL     1      14.766  14.771  63.779  1.00  0.00     0.275 HD
ATOM     18  H42 UNL     1      15.065  13.939  62.525  1.00  0.00     0.275 HD
ATOM     19  H41 UNL     1      15.089  15.630  62.347  1.00  0.00     0.275 HD
ENDBRANCH  15  16
BRANCH  15  20
HETATM   20  C7  UNL     1      12.900  16.159  61.722  1.00  0.00     0.264 C 
HETATM   21  N5  UNL     1      12.153  17.123  62.439  1.00  0.00    -0.060 NA
HETATM   22  O3  UNL     1      13.252  16.418  60.547  1.00  0.00    -0.274 OA
ENDBRANCH  15  20
ENDBRANCH   1  15
TORSDOF 6
ENDMDL
MODEL 5
REMARK VINA RESULT: -6.474679523      1.985      3.202
REMARK  6 active torsions:
REMARK  status: ('A' for Active; 'I' for Inactive)
REMARK    1  A    between atoms: C2_2  and  N1_3 
REMARK    2  A    between atoms: C2_2  and  C4_8 
REMARK       I    between atoms: N1_3  and  C3_5 
REMARK       I    between atoms: C4_8  and  N3_10 
REMARK    3  A    between atoms: N3_10  and  C5_12 
REMARK    4  A    between atoms: C5_12  and  C6_13 
REMARK    5  A    between atoms: C6_13  and  N4_14 
REMARK    6  A    between atoms: C6_13  and  C7_18 
ROOT
HETATM    1  C5  UNL     1      15.110  12.025  60.750  1.00  0.00     0.069 A 
HETATM    2  C8  UNL     1      15.036  10.531  60.562  1.00  0.00     0.036 A 
HETATM    3  C9  UNL     1      15.565  11.390  59.502  1.00  0.00     0.036 A 
ENDROOT
BRANCH   1   4
HETATM    4  N3  UNL     1      13.883  12.768  60.854  1.00  0.00    -0.348 N 
HETATM    5  C4  UNL     1      13.616  14.030  60.286  1.00  0.00     0.240 C 
HETATM    6  O2  UNL     1      14.509  14.595  59.620  1.00  0.00    -0.271 OA
ATOM      7  H3  UNL     1      13.131  12.339  61.393  1.00  0.00     0.163 HD
BRANCH   5   8
HETATM    8  C2  UNL     1      12.323  14.741  60.428  1.00  0.00     0.174 C 
HETATM    9  C1  UNL     1      11.228  13.724  60.201  1.00  0.00     0.042 C 
BRANCH   8  10
HETATM   10  N1  UNL     1      12.135  15.317  61.718  1.00  0.00    -0.333 N 
HETATM   11  C3  UNL     1      12.519  16.641  61.996  1.00  0.00     0.329 C 
HETATM   12  N2  UNL     1      12.322  17.203  63.300  1.00  0.00    -0.040 NA
HETATM   13  O1  UNL     1      13.039  17.332  61.091  1.00  0.00    -0.251 OA
ATOM     14  H1  UNL     1      11.712  14.755  62.458  1.00  0.00     0.164 HD
ENDBRANCH   8  10
ENDBRANCH   5   8
ENDBRANCH   1   4
BRANCH   1  15
HETATM   15  C6  UNL     1      16.227  12.541  61.667  1.00  0.00     0.299 C 
BRANCH  15  16
HETATM   16  N4  UNL     1      17.139  13.310  60.857  1.00  0.00    -0.064 N 
ATOM     17  H43 UNL     1      16.661  13.945  60.218  1.00  0.00     0.275 HD
ATOM     18  H42 UNL     1      17.648  14.014  61.391  1.00  0.00     0.275 HD
ATOM     19  H41 UNL     1      17.755  12.654  60.377  1.00  0.00     0.275 HD
ENDBRANCH  15  16
BRANCH  15  20
HETATM   20  C7  UNL     1      15.675  13.349  62.781  1.00  0.00     0.264 C 
HETATM   21  N5  UNL     1      16.242  14.622  63.030  1.00  0.00    -0.060 NA
HETATM   22  O3  UNL     1      14.732  12.956  63.508  1.00  0.00    -0.274 OA
ENDBRANCH  15  20
ENDBRANCH   1  15
TORSDOF 6
ENDMDL
