MODEL 1
REMARK VINA RESULT: -6.655997003      0.000      0.000
REMARK  4 active torsions:
REMARK  status: ('A' for Active; 'I' for Inactive)
REMARK    1  A    between atoms: C2_2  and  C3_3 
REMARK    2  A    between atoms: C3_3  and  C6_6 
REMARK    3  A    between atoms: C8_9  and  N1_10 
REMARK    4  A    between atoms: N1_10  and  C9_12 
ROOT
HETATM    1  C6  UNL     1      67.484  75.693  25.759  1.00  0.00     0.025 A 
HETATM    2  C7  UNL     1      66.282  76.025  26.345  1.00  0.00     0.079 A 
HETATM    3  S1  UNL     1      65.542  76.969  25.141  1.00  0.00    -0.064 SA
HETATM    4  C8  UNL     1      66.772  76.900  23.967  1.00  0.00     0.150 A 
HETATM    5  N3  UNL     1      67.706  76.153  24.551  1.00  0.00    -0.339 N 
ATOM      6  H3  UNL     1      68.578  75.941  24.068  1.00  0.00     0.168 HD
ENDROOT
BRANCH   4   7
HETATM    7  N1  UNL     1      66.825  77.442  22.762  1.00  0.00    -0.323 N 
ATOM      8  H1  UNL     1      66.258  77.074  21.999  1.00  0.00     0.169 HD
BRANCH   7   9
HETATM    9  C9  UNL     1      67.688  78.548  22.555  1.00  0.00     0.106 A 
HETATM   10  C10 UNL     1      67.271  79.532  21.663  1.00  0.00     0.050 A 
HETATM   11  C11 UNL     1      68.073  80.645  21.414  1.00  0.00     0.024 A 
HETATM   12  C12 UNL     1      69.282  80.775  22.050  1.00  0.00     0.026 A 
HETATM   13 BR1  UNL     1      70.445  82.258  21.776  1.00  0.00    -0.050 Br
HETATM   14  C13 UNL     1      69.659  79.780  22.923  1.00  0.00     0.108 A 
HETATM   15  N2  UNL     1      68.874  78.692  23.168  1.00  0.00    -0.351 N 
ATOM     16  H2  UNL     1      69.191  77.978  23.824  1.00  0.00     0.166 HD
ENDBRANCH   7   9
ENDBRANCH   4   7
BRANCH   1  17
HETATM   17  C3  UNL     1      68.451  74.826  26.553  1.00  0.00    -0.005 C 
HETATM   18  C4  UNL     1      67.983  74.706  27.968  1.00  0.00     0.021 C 
HETATM   19  C5  UNL     1      69.789  75.598  26.632  1.00  0.00     0.021 C 
BRANCH  17  20
HETATM   20  C2  UNL     1      68.784  73.547  25.873  1.00  0.00     0.010 C 
HETATM   21  C1  UNL     1      70.050  73.510  25.093  1.00  0.00     0.006 C 
ENDBRANCH  17  20
ENDBRANCH   1  17
TORSDOF 4
ENDMDL
MODEL 2
REMARK VINA RESULT: -6.605745560      0.831      1.747
REMARK  4 active torsions:
REMARK  status: ('A' for Active; 'I' for Inactive)
REMARK    1  A    between atoms: C2_2  and  C3_3 
REMARK    2  A    between atoms: C3_3  and  C6_6 
REMARK    3  A    between atoms: C8_9  and  N1_10 
REMARK    4  A    between atoms: N1_10  and  C9_12 
ROOT
HETATM    1  C6  UNL     1      67.872  75.691  25.618  1.00  0.00     0.025 A 
HETATM    2  C7  UNL     1      66.789  76.031  26.398  1.00  0.00     0.079 A 
HETATM    3  S1  UNL     1      65.849  76.956  25.325  1.00  0.00    -0.064 SA
HETATM    4  C8  UNL     1      66.857  76.869  23.958  1.00  0.00     0.150 A 
HETATM    5  N3  UNL     1      67.880  76.131  24.383  1.00  0.00    -0.339 N 
ATOM      6  H3  UNL     1      68.657  75.912  23.759  1.00  0.00     0.168 HD
ENDROOT
BRANCH   4   7
HETATM    7  N1  UNL     1      66.699  77.392  22.754  1.00  0.00    -0.323 N 
ATOM      8  H1  UNL     1      66.002  77.017  22.110  1.00  0.00     0.169 HD
BRANCH   7   9
HETATM    9  C9  UNL     1      67.520  78.485  22.377  1.00  0.00     0.106 A 
HETATM   10  C10 UNL     1      68.650  78.737  23.151  1.00  0.00     0.050 A 
HETATM   11  C11 UNL     1      69.499  79.797  22.835  1.00  0.00     0.024 A 
HETATM   12  C12 UNL     1      69.223  80.599  21.756  1.00  0.00     0.026 A 
HETATM   13 BR1  UNL     1      70.323  82.066  21.246  1.00  0.00    -0.050 Br
HETATM   14  C13 UNL     1      68.097  80.317  21.017  1.00  0.00     0.108 A 
HETATM   15  N2  UNL     1      67.266  79.279  21.326  1.00  0.00    -0.351 N 
ATOM     16  H2  UNL     1      66.442  79.105  20.751  1.00  0.00     0.166 HD
ENDBRANCH   7   9
ENDBRANCH   4   7
BRANCH   1  17
HETATM   17  C3  UNL     1      68.965  74.837  26.246  1.00  0.00    -0.005 C 
HETATM   18  C4  UNL     1      69.124  73.566  25.473  1.00  0.00     0.021 C 
HETATM   19  C5  UNL     1      68.453  74.402  27.639  1.00  0.00     0.021 C 
BRANCH  17  20
HETATM   20  C2  UNL     1      70.218  75.591  26.515  1.00  0.00     0.010 C 
HETATM   21  C1  UNL     1      70.449  76.821  25.711  1.00  0.00     0.006 C 
ENDBRANCH  17  20
ENDBRANCH   1  17
TORSDOF 4
ENDMDL
MODEL 3
REMARK VINA RESULT: -6.487304497      1.618      1.660
REMARK  4 active torsions:
REMARK  status: ('A' for Active; 'I' for Inactive)
REMARK    1  A    between atoms: C2_2  and  C3_3 
REMARK    2  A    between atoms: C3_3  and  C6_6 
REMARK    3  A    between atoms: C8_9  and  N1_10 
REMARK    4  A    between atoms: N1_10  and  C9_12 
ROOT
HETATM    1  C6  UNL     1      67.617  75.816  25.802  1.00  0.00     0.025 A 
HETATM    2  C7  UNL     1      66.282  75.824  26.141  1.00  0.00     0.079 A 
HETATM    3  S1  UNL     1      65.647  76.990  25.079  1.00  0.00    -0.064 SA
HETATM    4  C8  UNL     1      67.081  77.406  24.265  1.00  0.00     0.150 A 
HETATM    5  N3  UNL     1      67.995  76.631  24.846  1.00  0.00    -0.339 N 
ATOM      6  H3  UNL     1      68.970  76.670  24.552  1.00  0.00     0.168 HD
ENDROOT
BRANCH   4   7
HETATM    7  N1  UNL     1      67.281  78.280  23.293  1.00  0.00    -0.323 N 
ATOM      8  H1  UNL     1      67.179  78.004  22.316  1.00  0.00     0.169 HD
BRANCH   7   9
HETATM    9  C9  UNL     1      67.640  79.607  23.639  1.00  0.00     0.106 A 
HETATM   10  C10 UNL     1      68.179  80.409  22.637  1.00  0.00     0.050 A 
HETATM   11  C11 UNL     1      68.554  81.725  22.911  1.00  0.00     0.024 A 
HETATM   12  C12 UNL     1      68.391  82.234  24.174  1.00  0.00     0.026 A 
HETATM   13 BR1  UNL     1      68.870  84.017  24.643  1.00  0.00    -0.050 Br
HETATM   14  C13 UNL     1      67.855  81.410  25.136  1.00  0.00     0.108 A 
HETATM   15  N2  UNL     1      67.488  80.123  24.868  1.00  0.00    -0.351 N 
ATOM     16  H2  UNL     1      67.094  79.546  25.611  1.00  0.00     0.166 HD
ENDBRANCH   7   9
ENDBRANCH   4   7
BRANCH   1  17
HETATM   17  C3  UNL     1      68.541  74.869  26.554  1.00  0.00    -0.005 C 
HETATM   18  C4  UNL     1      68.081  74.729  27.971  1.00  0.00     0.021 C 
HETATM   19  C5  UNL     1      69.922  75.561  26.643  1.00  0.00     0.021 C 
BRANCH  17  20
HETATM   20  C2  UNL     1      68.794  73.597  25.829  1.00  0.00     0.010 C 
HETATM   21  C1  UNL     1      70.058  73.507  25.049  1.00  0.00     0.006 C 
ENDBRANCH  17  20
ENDBRANCH   1  17
TORSDOF 4
ENDMDL
MODEL 4
REMARK VINA RESULT: -6.484487211      1.360      1.362
REMARK  4 active torsions:
REMARK  status: ('A' for Active; 'I' for Inactive)
REMARK    1  A    between atoms: C2_2  and  C3_3 
REMARK    2  A    between atoms: C3_3  and  C6_6 
REMARK    3  A    between atoms: C8_9  and  N1_10 
REMARK    4  A    between atoms: N1_10  and  C9_12 
ROOT
HETATM    1  C6  UNL     1      67.767  76.121  25.965  1.00  0.00     0.025 A 
HETATM    2  C7  UNL     1      66.473  75.823  25.596  1.00  0.00     0.079 A 
HETATM    3  S1  UNL     1      65.919  77.313  24.991  1.00  0.00    -0.064 SA
HETATM    4  C8  UNL     1      67.333  78.230  25.229  1.00  0.00     0.150 A 
HETATM    5  N3  UNL     1      68.176  77.351  25.768  1.00  0.00    -0.339 N 
ATOM      6  H3  UNL     1      69.123  77.630  26.022  1.00  0.00     0.168 HD
ENDROOT
BRANCH   4   7
HETATM    7  N1  UNL     1      67.573  79.502  24.961  1.00  0.00    -0.323 N 
ATOM      8  H1  UNL     1      67.352  80.229  25.641  1.00  0.00     0.169 HD
BRANCH   7   9
HETATM    9  C9  UNL     1      68.145  79.832  23.706  1.00  0.00     0.106 A 
HETATM   10  C10 UNL     1      67.439  80.711  22.889  1.00  0.00     0.050 A 
HETATM   11  C11 UNL     1      67.945  81.076  21.642  1.00  0.00     0.024 A 
HETATM   12  C12 UNL     1      69.146  80.568  21.214  1.00  0.00     0.026 A 
HETATM   13 BR1  UNL     1      69.918  81.009  19.531  1.00  0.00    -0.050 Br
HETATM   14  C13 UNL     1      69.812  79.702  22.050  1.00  0.00     0.108 A 
HETATM   15  N2  UNL     1      69.317  79.345  23.271  1.00  0.00    -0.351 N 
ATOM     16  H2  UNL     1      69.844  78.700  23.860  1.00  0.00     0.166 HD
ENDBRANCH   7   9
ENDBRANCH   4   7
BRANCH   1  17
HETATM   17  C3  UNL     1      68.613  75.007  26.565  1.00  0.00    -0.005 C 
HETATM   18  C4  UNL     1      68.200  74.761  27.981  1.00  0.00     0.021 C 
HETATM   19  C5  UNL     1      70.063  75.539  26.652  1.00  0.00     0.021 C 
BRANCH  17  20
HETATM   20  C2  UNL     1      68.697  73.802  25.699  1.00  0.00     0.010 C 
HETATM   21  C1  UNL     1      70.021  73.503  25.089  1.00  0.00     0.006 C 
ENDBRANCH  17  20
ENDBRANCH   1  17
TORSDOF 4
ENDMDL
MODEL 5
REMARK VINA RESULT: -6.389585454      3.435      6.278
REMARK  4 active torsions:
REMARK  status: ('A' for Active; 'I' for Inactive)
REMARK    1  A    between atoms: C2_2  and  C3_3 
REMARK    2  A    between atoms: C3_3  and  C6_6 
REMARK    3  A    between atoms: C8_9  and  N1_10 
REMARK    4  A    between atoms: N1_10  and  C9_12 
ROOT
HETATM    1  C6  UNL     1      68.145  80.522  23.676  1.00  0.00     0.025 A 
HETATM    2  C7  UNL     1      67.980  80.968  22.383  1.00  0.00     0.079 A 
HETATM    3  S1  UNL     1      67.389  79.580  21.597  1.00  0.00    -0.064 SA
HETATM    4  C8  UNL     1      67.379  78.516  22.924  1.00  0.00     0.150 A 
HETATM    5  N3  UNL     1      67.832  79.273  23.922  1.00  0.00    -0.339 N 
ATOM      6  H3  UNL     1      67.935  78.887  24.860  1.00  0.00     0.168 HD
ENDROOT
BRANCH   4   7
HETATM    7  N1  UNL     1      67.018  77.246  22.990  1.00  0.00    -0.323 N 
ATOM      8  H1  UNL     1      66.889  76.696  22.140  1.00  0.00     0.169 HD
BRANCH   7   9
HETATM    9  C9  UNL     1      66.813  76.666  24.267  1.00  0.00     0.106 A 
HETATM   10  C10 UNL     1      67.858  75.925  24.812  1.00  0.00     0.050 A 
HETATM   11  C11 UNL     1      67.721  75.326  26.065  1.00  0.00     0.024 A 
HETATM   12  C12 UNL     1      66.550  75.467  26.767  1.00  0.00     0.026 A 
HETATM   13 BR1  UNL     1      66.270  74.691  28.483  1.00  0.00    -0.050 Br
HETATM   14  C13 UNL     1      65.541  76.206  26.193  1.00  0.00     0.108 A 
HETATM   15  N2  UNL     1      65.676  76.792  24.968  1.00  0.00    -0.351 N 
ATOM     16  H2  UNL     1      64.902  77.333  24.580  1.00  0.00     0.166 HD
ENDBRANCH   7   9
ENDBRANCH   4   7
BRANCH   1  17
HETATM   17  C3  UNL     1      68.671  81.508  24.709  1.00  0.00    -0.005 C 
HETATM   18  C4  UNL     1      68.136  82.876  24.426  1.00  0.00     0.021 C 
HETATM   19  C5  UNL     1      70.199  81.618  24.491  1.00  0.00     0.021 C 
BRANCH  17  20
HETATM   20  C2  UNL     1      68.515  81.031  26.108  1.00  0.00     0.010 C 
HETATM   21  C1  UNL     1      69.724  81.079  26.974  1.00  0.00     0.006 C 
ENDBRANCH  17  20
ENDBRANCH   1  17
TORSDOF 4
ENDMDL
