MODEL 1
REMARK VINA RESULT: -6.795649930      0.000      0.000
REMARK  5 active torsions:
REMARK  status: ('A' for Active; 'I' for Inactive)
REMARK    1  A    between atoms: N1_2  and  C2_5 
REMARK    2  A    between atoms: C5_8  and  N2_9 
REMARK    3  A    between atoms: N2_9  and  C6_11 
REMARK    4  A    between atoms: C12_22  and  N6_23 
REMARK    5  A    between atoms: N6_23  and  C13_25 
ROOT
HETATM    1  C6  UNL     1      18.345  59.810  17.030  1.00  0.00     0.080 A 
HETATM    2  C7  UNL     1      16.980  59.735  17.335  1.00  0.00     0.088 A 
HETATM    3  C8  UNL     1      16.526  58.724  18.245  1.00  0.00     0.103 C 
HETATM    4  N3  UNL     1      16.155  57.896  18.963  1.00  0.00    -0.191 NA
HETATM    5  C9  UNL     1      16.063  60.590  16.796  1.00  0.00     0.113 A 
HETATM    6  N4  UNL     1      16.461  61.547  15.940  1.00  0.00    -0.361 N 
ATOM      7  H4  UNL     1      15.778  62.188  15.536  1.00  0.00     0.165 HD
HETATM    8  C10 UNL     1      17.767  61.658  15.617  1.00  0.00     0.078 A 
HETATM    9  C11 UNL     1      18.171  62.624  14.750  1.00  0.00     0.138 A 
HETATM   10  N5  UNL     1      19.464  62.745  14.419  1.00  0.00    -0.200 N 
ATOM     11  H5  UNL     1      19.765  63.470  13.769  1.00  0.00     0.183 HD
HETATM   12  C12 UNL     1      20.355  61.900  14.954  1.00  0.00     0.678 A 
HETATM   13  N7  UNL     1      20.026  60.924  15.815  1.00  0.00    -0.187 N 
ATOM     14  H7  UNL     1      20.736  60.301  16.200  1.00  0.00     0.184 HD
HETATM   15  C16 UNL     1      18.732  60.793  16.155  1.00  0.00     0.105 A 
ENDROOT
BRANCH   1  16
HETATM   16  N2  UNL     1      19.091  58.983  17.574  1.00  0.00    -0.382 N 
ATOM     17  H2  UNL     1      19.092  58.088  17.085  1.00  0.00     0.160 HD
BRANCH  16  18
HETATM   18  C5  UNL     1      19.936  58.971  18.698  1.00  0.00     0.083 C 
HETATM   19  C4  UNL     1      20.255  57.496  19.001  1.00  0.00     0.027 C 
HETATM   20  C3  UNL     1      21.667  57.479  19.549  1.00  0.00     0.035 C 
HETATM   21  C2  UNL     1      22.317  58.487  18.596  1.00  0.00     0.187 C 
HETATM   22  C17 UNL     1      21.311  59.587  18.430  1.00  0.00     0.058 C 
BRANCH  21  23
HETATM   23  N1  UNL     1      23.555  58.924  19.163  1.00  0.00    -0.075 N 
HETATM   24  C1  UNL     1      23.601  60.364  19.321  1.00  0.00     0.267 C 
ATOM     25  H12 UNL     1      24.350  58.585  18.621  1.00  0.00     0.277 HD
ATOM     26  H11 UNL     1      23.746  58.449  20.045  1.00  0.00     0.277 HD
ENDBRANCH  21  23
ENDBRANCH  16  18
ENDBRANCH   1  16
BRANCH  12  27
HETATM   27  N6  UNL     1      21.607  62.030  14.621  1.00  0.00    -0.222 N 
ATOM     28  H6  UNL     1      21.892  62.864  14.108  1.00  0.00     0.178 HD
BRANCH  27  29
HETATM   29  C13 UNL     1      22.597  61.057  14.943  1.00  0.00     0.091 C 
HETATM   30  C14 UNL     1      23.831  61.623  15.597  1.00  0.00     0.032 C 
HETATM   31  C15 UNL     1      23.062  60.447  13.614  1.00  0.00     0.032 C 
ENDBRANCH  27  29
ENDBRANCH  12  27
TORSDOF 5
ENDMDL
MODEL 2
REMARK VINA RESULT: -6.634122128      1.603      2.361
REMARK  5 active torsions:
REMARK  status: ('A' for Active; 'I' for Inactive)
REMARK    1  A    between atoms: N1_2  and  C2_5 
REMARK    2  A    between atoms: C5_8  and  N2_9 
REMARK    3  A    between atoms: N2_9  and  C6_11 
REMARK    4  A    between atoms: C12_22  and  N6_23 
REMARK    5  A    between atoms: N6_23  and  C13_25 
ROOT
HETATM    1  C6  UNL     1      18.789  59.178  17.616  1.00  0.00     0.080 A 
HETATM    2  C7  UNL     1      17.951  58.386  18.412  1.00  0.00     0.088 A 
HETATM    3  C8  UNL     1      18.529  57.330  19.192  1.00  0.00     0.103 C 
HETATM    4  N3  UNL     1      18.990  56.465  19.806  1.00  0.00    -0.191 NA
HETATM    5  C9  UNL     1      16.602  58.583  18.474  1.00  0.00     0.113 A 
HETATM    6  N4  UNL     1      16.034  59.566  17.752  1.00  0.00    -0.361 N 
ATOM      7  H4  UNL     1      15.027  59.715  17.796  1.00  0.00     0.165 HD
HETATM    8  C10 UNL     1      16.802  60.354  16.971  1.00  0.00     0.078 A 
HETATM    9  C11 UNL     1      16.230  61.347  16.240  1.00  0.00     0.138 A 
HETATM   10  N5  UNL     1      16.980  62.137  15.459  1.00  0.00    -0.200 N 
ATOM     11  H5  UNL     1      16.549  62.881  14.911  1.00  0.00     0.183 HD
HETATM   12  C12 UNL     1      18.303  61.935  15.406  1.00  0.00     0.678 A 
HETATM   13  N7  UNL     1      18.933  60.973  16.101  1.00  0.00    -0.187 N 
ATOM     14  H7  UNL     1      19.944  60.852  16.033  1.00  0.00     0.184 HD
HETATM   15  C16 UNL     1      18.192  60.175  16.888  1.00  0.00     0.105 A 
ENDROOT
BRANCH   1  16
HETATM   16  N2  UNL     1      20.000  58.912  17.634  1.00  0.00    -0.382 N 
ATOM     17  H2  UNL     1      20.185  57.951  17.346  1.00  0.00     0.160 HD
BRANCH  16  18
HETATM   18  C5  UNL     1      21.181  59.605  17.951  1.00  0.00     0.083 C 
HETATM   19  C4  UNL     1      21.901  58.787  19.037  1.00  0.00     0.027 C 
HETATM   20  C3  UNL     1      23.383  58.982  18.793  1.00  0.00     0.035 C 
HETATM   21  C2  UNL     1      23.399  58.884  17.264  1.00  0.00     0.187 C 
HETATM   22  C17 UNL     1      22.191  59.641  16.801  1.00  0.00     0.058 C 
BRANCH  21  23
HETATM   23  N1  UNL     1      24.633  59.424  16.782  1.00  0.00    -0.075 N 
HETATM   24  C1  UNL     1      25.617  59.557  17.838  1.00  0.00     0.267 C 
ATOM     25  H12 UNL     1      24.485  60.310  16.299  1.00  0.00     0.277 HD
ATOM     26  H11 UNL     1      24.998  58.875  16.003  1.00  0.00     0.277 HD
ENDBRANCH  21  23
ENDBRANCH  16  18
ENDBRANCH   1  16
BRANCH  12  27
HETATM   27  N6  UNL     1      19.017  62.709  14.642  1.00  0.00    -0.222 N 
ATOM     28  H6  UNL     1      18.550  63.464  14.138  1.00  0.00     0.178 HD
BRANCH  27  29
HETATM   29  C13 UNL     1      20.423  62.549  14.477  1.00  0.00     0.091 C 
HETATM   30  C14 UNL     1      21.252  63.591  15.183  1.00  0.00     0.032 C 
HETATM   31  C15 UNL     1      20.712  62.719  12.979  1.00  0.00     0.032 C 
ENDBRANCH  27  29
ENDBRANCH  12  27
TORSDOF 5
ENDMDL
MODEL 3
REMARK VINA RESULT: -6.603869720      1.990      5.407
REMARK  5 active torsions:
REMARK  status: ('A' for Active; 'I' for Inactive)
REMARK    1  A    between atoms: N1_2  and  C2_5 
REMARK    2  A    between atoms: C5_8  and  N2_9 
REMARK    3  A    between atoms: N2_9  and  C6_11 
REMARK    4  A    between atoms: C12_22  and  N6_23 
REMARK    5  A    between atoms: N6_23  and  C13_25 
ROOT
HETATM    1  C6  UNL     1      17.907  59.794  16.981  1.00  0.00     0.080 A 
HETATM    2  C7  UNL     1      16.634  59.343  17.350  1.00  0.00     0.088 A 
HETATM    3  C8  UNL     1      15.483  59.903  16.701  1.00  0.00     0.103 C 
HETATM    4  N3  UNL     1      14.554  60.368  16.193  1.00  0.00    -0.191 NA
HETATM    5  C9  UNL     1      16.445  58.387  18.305  1.00  0.00     0.113 A 
HETATM    6  N4  UNL     1      17.506  57.845  18.930  1.00  0.00    -0.361 N 
ATOM      7  H4  UNL     1      17.368  57.131  19.644  1.00  0.00     0.165 HD
HETATM    8  C10 UNL     1      18.753  58.249  18.608  1.00  0.00     0.078 A 
HETATM    9  C11 UNL     1      19.826  57.704  19.239  1.00  0.00     0.138 A 
HETATM   10  N5  UNL     1      21.070  58.096  18.930  1.00  0.00    -0.200 N 
ATOM     11  H5  UNL     1      21.874  57.685  19.404  1.00  0.00     0.183 HD
HETATM   12  C12 UNL     1      21.243  59.034  17.990  1.00  0.00     0.678 A 
HETATM   13  N7  UNL     1      20.229  59.614  17.328  1.00  0.00    -0.187 N 
ATOM     14  H7  UNL     1      20.403  60.326  16.618  1.00  0.00     0.184 HD
HETATM   15  C16 UNL     1      18.977  59.229  17.629  1.00  0.00     0.105 A 
ENDROOT
BRANCH   1  16
HETATM   16  N2  UNL     1      17.964  60.666  16.102  1.00  0.00    -0.382 N 
ATOM     17  H2  UNL     1      17.667  60.313  15.193  1.00  0.00     0.160 HD
BRANCH  16  18
HETATM   18  C5  UNL     1      18.336  62.021  16.046  1.00  0.00     0.083 C 
HETATM   19  C4  UNL     1      19.344  62.160  14.892  1.00  0.00     0.027 C 
HETATM   20  C3  UNL     1      19.112  63.534  14.299  1.00  0.00     0.035 C 
HETATM   21  C2  UNL     1      17.580  63.562  14.324  1.00  0.00     0.187 C 
HETATM   22  C17 UNL     1      17.190  62.948  15.636  1.00  0.00     0.058 C 
BRANCH  21  23
HETATM   23  N1  UNL     1      17.142  64.915  14.172  1.00  0.00    -0.075 N 
HETATM   24  C1  UNL     1      16.202  65.301  15.206  1.00  0.00     0.267 C 
ATOM     25  H12 UNL     1      16.756  65.077  13.241  1.00  0.00     0.277 HD
ATOM     26  H11 UNL     1      17.933  65.558  14.132  1.00  0.00     0.277 HD
ENDBRANCH  21  23
ENDBRANCH  16  18
ENDBRANCH   1  16
BRANCH  12  27
HETATM   27  N6  UNL     1      22.457  59.405  17.703  1.00  0.00    -0.222 N 
ATOM     28  H6  UNL     1      22.658  59.728  16.756  1.00  0.00     0.178 HD
BRANCH  27  29
HETATM   29  C13 UNL     1      23.518  59.379  18.653  1.00  0.00     0.091 C 
HETATM   30  C14 UNL     1      23.661  60.646  19.456  1.00  0.00     0.032 C 
HETATM   31  C15 UNL     1      24.820  59.232  17.854  1.00  0.00     0.032 C 
ENDBRANCH  27  29
ENDBRANCH  12  27
TORSDOF 5
ENDMDL
MODEL 4
REMARK VINA RESULT: -6.589386647      1.941      6.380
REMARK  5 active torsions:
REMARK  status: ('A' for Active; 'I' for Inactive)
REMARK    1  A    between atoms: N1_2  and  C2_5 
REMARK    2  A    between atoms: C5_8  and  N2_9 
REMARK    3  A    between atoms: N2_9  and  C6_11 
REMARK    4  A    between atoms: C12_22  and  N6_23 
REMARK    5  A    between atoms: N6_23  and  C13_25 
ROOT
HETATM    1  C6  UNL     1      21.867  59.618  16.672  1.00  0.00     0.080 A 
HETATM    2  C7  UNL     1      22.856  59.203  17.574  1.00  0.00     0.088 A 
HETATM    3  C8  UNL     1      24.235  59.380  17.221  1.00  0.00     0.103 C 
HETATM    4  N3  UNL     1      25.348  59.503  16.930  1.00  0.00    -0.191 NA
HETATM    5  C9  UNL     1      22.556  58.635  18.778  1.00  0.00     0.113 A 
HETATM    6  N4  UNL     1      21.271  58.457  19.133  1.00  0.00    -0.361 N 
ATOM      7  H4  UNL     1      21.044  58.033  20.032  1.00  0.00     0.165 HD
HETATM    8  C10 UNL     1      20.284  58.842  18.297  1.00  0.00     0.078 A 
HETATM    9  C11 UNL     1      18.985  58.661  18.654  1.00  0.00     0.138 A 
HETATM   10  N5  UNL     1      17.994  59.038  17.833  1.00  0.00    -0.200 N 
ATOM     11  H5  UNL     1      17.021  58.902  18.102  1.00  0.00     0.183 HD
HETATM   12  C12 UNL     1      18.301  59.594  16.654  1.00  0.00     0.678 A 
HETATM   13  N7  UNL     1      19.561  59.802  16.238  1.00  0.00    -0.187 N 
ATOM     14  H7  UNL     1      19.752  60.229  15.332  1.00  0.00     0.184 HD
HETATM   15  C16 UNL     1      20.563  59.429  17.053  1.00  0.00     0.105 A 
ENDROOT
BRANCH   1  16
HETATM   16  N2  UNL     1      22.251  60.121  15.606  1.00  0.00    -0.382 N 
ATOM     17  H2  UNL     1      22.787  60.975  15.757  1.00  0.00     0.160 HD
BRANCH  16  18
HETATM   18  C5  UNL     1      22.130  59.807  14.241  1.00  0.00     0.083 C 
HETATM   19  C4  UNL     1      21.630  61.079  13.533  1.00  0.00     0.027 C 
HETATM   20  C3  UNL     1      22.260  61.065  12.156  1.00  0.00     0.035 C 
HETATM   21  C2  UNL     1      23.669  60.594  12.531  1.00  0.00     0.187 C 
HETATM   22  C17 UNL     1      23.473  59.524  13.563  1.00  0.00     0.058 C 
BRANCH  21  23
HETATM   23  N1  UNL     1      24.330  60.136  11.349  1.00  0.00    -0.075 N 
HETATM   24  C1  UNL     1      23.699  60.638  10.144  1.00  0.00     0.267 C 
ATOM     25  H12 UNL     1      24.399  59.117  11.334  1.00  0.00     0.277 HD
ATOM     26  H11 UNL     1      25.324  60.363  11.368  1.00  0.00     0.277 HD
ENDBRANCH  21  23
ENDBRANCH  16  18
ENDBRANCH   1  16
BRANCH  12  27
HETATM   27  N6  UNL     1      17.327  59.953  15.868  1.00  0.00    -0.222 N 
ATOM     28  H6  UNL     1      17.456  59.866  14.860  1.00  0.00     0.178 HD
BRANCH  27  29
HETATM   29  C13 UNL     1      16.088  60.462  16.354  1.00  0.00     0.091 C 
HETATM   30  C14 UNL     1      14.960  59.464  16.335  1.00  0.00     0.032 C 
HETATM   31  C15 UNL     1      15.674  61.591  15.403  1.00  0.00     0.032 C 
ENDBRANCH  27  29
ENDBRANCH  12  27
TORSDOF 5
ENDMDL
MODEL 5
REMARK VINA RESULT: -6.534243841      1.428      6.229
REMARK  5 active torsions:
REMARK  status: ('A' for Active; 'I' for Inactive)
REMARK    1  A    between atoms: N1_2  and  C2_5 
REMARK    2  A    between atoms: C5_8  and  N2_9 
REMARK    3  A    between atoms: N2_9  and  C6_11 
REMARK    4  A    between atoms: C12_22  and  N6_23 
REMARK    5  A    between atoms: N6_23  and  C13_25 
ROOT
HETATM    1  C6  UNL     1      20.955  60.603  15.797  1.00  0.00     0.080 A 
HETATM    2  C7  UNL     1      21.625  61.352  14.822  1.00  0.00     0.088 A 
HETATM    3  C8  UNL     1      20.860  61.991  13.790  1.00  0.00     0.103 C 
HETATM    4  N3  UNL     1      20.246  62.490  12.946  1.00  0.00    -0.191 NA
HETATM    5  C9  UNL     1      22.981  61.497  14.815  1.00  0.00     0.113 A 
HETATM    6  N4  UNL     1      23.723  60.909  15.770  1.00  0.00    -0.361 N 
ATOM      7  H4  UNL     1      24.737  61.015  15.769  1.00  0.00     0.165 HD
HETATM    8  C10 UNL     1      23.121  60.177  16.731  1.00  0.00     0.078 A 
HETATM    9  C11 UNL     1      23.869  59.579  17.697  1.00  0.00     0.138 A 
HETATM   10  N5  UNL     1      23.285  58.849  18.657  1.00  0.00    -0.200 N 
ATOM     11  H5  UNL     1      23.848  58.402  19.380  1.00  0.00     0.183 HD
HETATM   12  C12 UNL     1      21.953  58.713  18.653  1.00  0.00     0.678 A 
HETATM   13  N7  UNL     1      21.154  59.275  17.731  1.00  0.00    -0.187 N 
ATOM     14  H7  UNL     1      20.143  59.147  17.764  1.00  0.00     0.184 HD
HETATM   15  C16 UNL     1      21.728  60.010  16.764  1.00  0.00     0.105 A 
ENDROOT
BRANCH   1  16
HETATM   16  N2  UNL     1      19.720  60.535  15.708  1.00  0.00    -0.382 N 
ATOM     17  H2  UNL     1      19.421  60.194  14.795  1.00  0.00     0.160 HD
BRANCH  16  18
HETATM   18  C5  UNL     1      18.630  60.812  16.552  1.00  0.00     0.083 C 
HETATM   19  C4  UNL     1      17.514  61.392  15.665  1.00  0.00     0.027 C 
HETATM   20  C3  UNL     1      16.210  60.924  16.277  1.00  0.00     0.035 C 
HETATM   21  C2  UNL     1      16.596  59.481  16.615  1.00  0.00     0.187 C 
HETATM   22  C17 UNL     1      17.994  59.556  17.153  1.00  0.00     0.058 C 
BRANCH  21  23
HETATM   23  N1  UNL     1      15.650  58.959  17.552  1.00  0.00    -0.075 N 
HETATM   24  C1  UNL     1      16.278  58.571  18.799  1.00  0.00     0.267 C 
ATOM     25  H12 UNL     1      15.117  58.188  17.150  1.00  0.00     0.277 HD
ATOM     26  H11 UNL     1      14.886  59.616  17.712  1.00  0.00     0.277 HD
ENDBRANCH  21  23
ENDBRANCH  16  18
ENDBRANCH   1  16
BRANCH  12  27
HETATM   27  N6  UNL     1      21.402  57.999  19.592  1.00  0.00    -0.222 N 
ATOM     28  H6  UNL     1      21.345  58.389  20.532  1.00  0.00     0.178 HD
BRANCH  27  29
HETATM   29  C13 UNL     1      20.873  56.696  19.361  1.00  0.00     0.091 C 
HETATM   30  C14 UNL     1      19.381  56.593  19.545  1.00  0.00     0.032 C 
HETATM   31  C15 UNL     1      21.497  55.776  20.419  1.00  0.00     0.032 C 
ENDBRANCH  27  29
ENDBRANCH  12  27
TORSDOF 5
ENDMDL
