MODEL 1
REMARK VINA RESULT: -6.823151308      0.000      0.000
REMARK  13 active torsions:
REMARK  status: ('A' for Active; 'I' for Inactive)
REMARK    1  A    between atoms: N1_2  and  C3_4 
REMARK    2  A    between atoms: C3_4  and  C4_5 
REMARK    3  A    between atoms: C5_6  and  C6_7 
REMARK    4  A    between atoms: C6_7  and  N2_8 
REMARK       I    between atoms: N2_8  and  C7_10 
REMARK    5  A    between atoms: C7_10  and  C8_12 
REMARK    6  A    between atoms: C8_12  and  C9_13 
REMARK    7  A    between atoms: C14_18  and  O2_19 
REMARK    8  A    between atoms: N3_32  and  C25_33 
REMARK    9  A    between atoms: C25_33  and  C26_34 
REMARK   10  A    between atoms: C33_41  and  C34_42 
REMARK   11  A    between atoms: C34_42  and  C35_43 
REMARK   12  A    between atoms: C35_43  and  N4_44 
REMARK   13  A    between atoms: C36_49  and  O4_50 
ROOT
HETATM    1  C9  UNL     1      15.864  20.918  19.281  1.00  0.00     0.073 C 
HETATM    2  C10 UNL     1      14.888  20.090  20.051  1.00  0.00     0.052 C 
HETATM    3  C11 UNL     1      13.894  19.271  19.303  1.00  0.00    -0.054 A 
HETATM    4  C12 UNL     1      14.166  17.890  19.489  1.00  0.00     0.010 A 
HETATM    5  C13 UNL     1      13.467  16.871  18.906  1.00  0.00     0.040 A 
HETATM    6  C14 UNL     1      12.438  17.261  18.088  1.00  0.00     0.099 A 
HETATM    7  C15 UNL     1      12.115  18.612  17.858  1.00  0.00     0.102 A 
HETATM    8  C16 UNL     1      12.856  19.601  18.480  1.00  0.00     0.046 A 
HETATM    9  O3  UNL     1      11.045  18.721  16.994  1.00  0.00    -0.348 OA
HETATM   10  C17 UNL     1      10.785  19.451  15.825  1.00  0.00     0.178 C 
HETATM   11  C18 UNL     1      11.820  19.287  14.792  1.00  0.00     0.060 C 
HETATM   12  C19 UNL     1      12.443  20.492  14.204  1.00  0.00     0.190 C 
HETATM   13  C20 UNL     1      12.632  21.678  15.057  1.00  0.00     0.066 C 
HETATM   14  C21 UNL     1      14.070  21.742  14.591  1.00  0.00     0.190 C 
HETATM   15  C22 UNL     1      15.063  21.552  15.719  1.00  0.00     0.060 C 
HETATM   16  C23 UNL     1      15.725  22.767  16.222  1.00  0.00     0.106 C 
HETATM   17  C24 UNL     1      17.139  22.945  15.650  1.00  0.00     0.147 C 
HETATM   18  N3  UNL     1      17.473  24.313  15.897  1.00  0.00    -0.389 N 
HETATM   19  C32 UNL     1      17.463  24.591  17.296  1.00  0.00     0.147 C 
HETATM   20  C33 UNL     1      16.080  24.433  17.877  1.00  0.00     0.106 C 
HETATM   21  N5  UNL     1      15.698  23.008  17.652  1.00  0.00    -0.352 N 
HETATM   22  C36 UNL     1      15.361  22.161  18.711  1.00  0.00     0.119 C 
HETATM   23  N6  UNL     1      13.865  20.404  14.012  1.00  0.00    -0.066 N 
ATOM     24  H61 UNL     1      14.231  20.202  13.082  1.00  0.00     0.278 HD
ATOM     25  H62 UNL     1      14.372  19.609  14.401  1.00  0.00     0.278 HD
ENDROOT
BRANCH   1  26
HETATM   26  C8  UNL     1      16.690  20.038  18.399  1.00  0.00     0.115 C 
BRANCH  26  27
HETATM   27  C7  UNL     1      17.985  20.605  17.958  1.00  0.00     0.218 C 
HETATM   28  N2  UNL     1      18.593  21.649  18.733  1.00  0.00    -0.358 N 
ATOM     29  H2  UNL     1      18.112  21.973  19.573  1.00  0.00     0.162 HD
HETATM   30  O1  UNL     1      18.637  20.266  16.947  1.00  0.00    -0.274 OA
BRANCH  28  31
HETATM   31  C6  UNL     1      19.842  22.259  18.385  1.00  0.00     0.149 C 
BRANCH  31  32
HETATM   32  C5  UNL     1      20.468  22.863  19.597  1.00  0.00    -0.010 C 
HETATM   33  C4  UNL     1      20.986  24.086  19.547  1.00  0.00     0.000 C 
BRANCH  33  34
HETATM   34  C3  UNL     1      21.622  24.765  20.683  1.00  0.00     0.298 C 
BRANCH  34  35
HETATM   35  N1  UNL     1      21.309  26.176  20.759  1.00  0.00     0.083 N 
HETATM   36  C1  UNL     1      21.701  26.706  22.069  1.00  0.00     0.309 C 
HETATM   37  C2  UNL     1      22.123  26.899  19.767  1.00  0.00     0.309 C 
ENDBRANCH  34  35
ENDBRANCH  33  34
ENDBRANCH  31  32
ENDBRANCH  28  31
ENDBRANCH  26  27
ENDBRANCH   1  26
BRANCH  22  38
HETATM   38  O4  UNL     1      14.317  22.594  19.378  1.00  0.00    -0.349 OA
ATOM     39  H4  UNL     1      14.253  22.165  20.223  1.00  0.00     0.219 HD
ENDBRANCH  22  38
BRANCH  20  40
HETATM   40  C34 UNL     1      16.004  24.940  19.224  1.00  0.00     0.054 C 
BRANCH  40  41
HETATM   41  C35 UNL     1      17.375  24.938  19.861  1.00  0.00     0.231 C 
BRANCH  41  42
HETATM   42  N4  UNL     1      17.408  23.887  20.903  1.00  0.00    -0.079 N 
ATOM     43  H43 UNL     1      18.321  23.441  20.982  1.00  0.00     0.274 HD
ATOM     44  H42 UNL     1      17.358  24.269  21.847  1.00  0.00     0.274 HD
ATOM     45  H41 UNL     1      16.661  23.218  20.711  1.00  0.00     0.274 HD
ENDBRANCH  41  42
ENDBRANCH  40  41
ENDBRANCH  20  40
BRANCH   6  46
HETATM   46  O2  UNL     1      11.736  16.183  17.502  1.00  0.00    -0.358 OA
ATOM     47  H2  UNL     1      11.457  16.348  16.609  1.00  0.00     0.217 HD
ENDBRANCH   6  46
BRANCH  18  48
HETATM   48  C25 UNL     1      18.503  24.884  15.156  1.00  0.00     0.063 C 
BRANCH  48  49
HETATM   49  C26 UNL     1      19.763  24.978  15.990  1.00  0.00     0.024 C 
HETATM   50  C27 UNL     1      20.944  24.399  15.260  1.00  0.00     0.010 C 
HETATM   51  C28 UNL     1      21.369  25.229  14.091  1.00  0.00     0.001 C 
HETATM   52  C29 UNL     1      21.553  26.681  14.416  1.00  0.00     0.000 C 
HETATM   53  C30 UNL     1      20.374  27.230  15.192  1.00  0.00     0.001 C 
HETATM   54  C31 UNL     1      20.075  26.403  16.401  1.00  0.00     0.010 C 
ENDBRANCH  48  49
ENDBRANCH  18  48
TORSDOF 13
ENDMDL
MODEL 2
REMARK VINA RESULT: -6.182243119      5.563      9.669
REMARK  13 active torsions:
REMARK  status: ('A' for Active; 'I' for Inactive)
REMARK    1  A    between atoms: N1_2  and  C3_4 
REMARK    2  A    between atoms: C3_4  and  C4_5 
REMARK    3  A    between atoms: C5_6  and  C6_7 
REMARK    4  A    between atoms: C6_7  and  N2_8 
REMARK       I    between atoms: N2_8  and  C7_10 
REMARK    5  A    between atoms: C7_10  and  C8_12 
REMARK    6  A    between atoms: C8_12  and  C9_13 
REMARK    7  A    between atoms: C14_18  and  O2_19 
REMARK    8  A    between atoms: N3_32  and  C25_33 
REMARK    9  A    between atoms: C25_33  and  C26_34 
REMARK   10  A    between atoms: C33_41  and  C34_42 
REMARK   11  A    between atoms: C34_42  and  C35_43 
REMARK   12  A    between atoms: C35_43  and  N4_44 
REMARK   13  A    between atoms: C36_49  and  O4_50 
ROOT
HETATM    1  C9  UNL     1       9.624  15.481  14.123  1.00  0.00     0.073 C 
HETATM    2  C10 UNL     1       8.459  14.598  13.818  1.00  0.00     0.052 C 
HETATM    3  C11 UNL     1       8.522  13.713  12.622  1.00  0.00    -0.054 A 
HETATM    4  C12 UNL     1       8.571  12.353  13.028  1.00  0.00     0.010 A 
HETATM    5  C13 UNL     1       8.676  11.288  12.178  1.00  0.00     0.040 A 
HETATM    6  C14 UNL     1       8.738  11.607  10.846  1.00  0.00     0.099 A 
HETATM    7  C15 UNL     1       8.696  12.933  10.375  1.00  0.00     0.102 A 
HETATM    8  C16 UNL     1       8.585  13.972  11.283  1.00  0.00     0.046 A 
HETATM    9  O3  UNL     1       8.781  12.969   8.999  1.00  0.00    -0.348 OA
HETATM   10  C17 UNL     1       9.562  13.674   8.071  1.00  0.00     0.178 C 
HETATM   11  C18 UNL     1      11.007  13.570   8.326  1.00  0.00     0.060 C 
HETATM   12  C19 UNL     1      11.808  14.808   8.427  1.00  0.00     0.190 C 
HETATM   13  C20 UNL     1      11.184  16.009   9.008  1.00  0.00     0.066 C 
HETATM   14  C21 UNL     1      12.390  16.161   9.907  1.00  0.00     0.190 C 
HETATM   15  C22 UNL     1      12.049  16.042  11.378  1.00  0.00     0.060 C 
HETATM   16  C23 UNL     1      11.982  17.299  12.140  1.00  0.00     0.106 C 
HETATM   17  C24 UNL     1      13.258  17.563  12.951  1.00  0.00     0.147 C 
HETATM   18  N3  UNL     1      13.206  18.952  13.289  1.00  0.00    -0.389 N 
HETATM   19  C32 UNL     1      12.050  19.237  14.075  1.00  0.00     0.147 C 
HETATM   20  C33 UNL     1      10.782  18.995  13.293  1.00  0.00     0.106 C 
HETATM   21  N5  UNL     1      10.791  17.548  12.931  1.00  0.00    -0.352 N 
HETATM   22  C36 UNL     1       9.759  16.687  13.314  1.00  0.00     0.119 C 
HETATM   23  N6  UNL     1      12.788  14.810   9.479  1.00  0.00    -0.066 N 
ATOM     24  H61 UNL     1      13.765  14.626   9.251  1.00  0.00     0.278 HD
ATOM     25  H62 UNL     1      12.788  14.051  10.161  1.00  0.00     0.278 HD
ENDROOT
BRANCH   1  26
HETATM   26  C8  UNL     1      10.848  14.651  14.335  1.00  0.00     0.115 C 
BRANCH  26  27
HETATM   27  C7  UNL     1      10.935  13.957  15.640  1.00  0.00     0.218 C 
HETATM   28  N2  UNL     1      10.326  14.555  16.794  1.00  0.00    -0.358 N 
ATOM     29  H2  UNL     1       9.846  15.449  16.680  1.00  0.00     0.162 HD
HETATM   30  O1  UNL     1      11.500  12.864  15.862  1.00  0.00    -0.274 OA
BRANCH  28  31
HETATM   31  C6  UNL     1      10.358  13.959  18.096  1.00  0.00     0.149 C 
BRANCH  31  32
HETATM   32  C5  UNL     1      10.268  15.019  19.142  1.00  0.00    -0.010 C 
HETATM   33  C4  UNL     1      11.064  16.082  19.092  1.00  0.00     0.000 C 
BRANCH  33  34
HETATM   34  C3  UNL     1      11.053  17.176  20.071  1.00  0.00     0.298 C 
BRANCH  34  35
HETATM   35  N1  UNL     1      12.141  18.115  19.898  1.00  0.00     0.083 N 
HETATM   36  C1  UNL     1      13.423  17.402  19.914  1.00  0.00     0.309 C 
HETATM   37  C2  UNL     1      12.032  18.728  18.563  1.00  0.00     0.309 C 
ENDBRANCH  34  35
ENDBRANCH  33  34
ENDBRANCH  31  32
ENDBRANCH  28  31
ENDBRANCH  26  27
ENDBRANCH   1  26
BRANCH  22  38
HETATM   38  O4  UNL     1       8.599  17.056  12.826  1.00  0.00    -0.349 OA
ATOM     39  H4  UNL     1       8.340  16.493  12.105  1.00  0.00     0.219 HD
ENDBRANCH  22  38
BRANCH  20  40
HETATM   40  C34 UNL     1       9.623  19.504  13.981  1.00  0.00     0.054 C 
BRANCH  40  41
HETATM   41  C35 UNL     1      10.006  20.678  14.852  1.00  0.00     0.231 C 
BRANCH  41  42
HETATM   42  N4  UNL     1       9.667  20.351  16.256  1.00  0.00    -0.079 N 
ATOM     43  H43 UNL     1       9.137  19.484  16.340  1.00  0.00     0.274 HD
ATOM     44  H42 UNL     1      10.482  20.069  16.801  1.00  0.00     0.274 HD
ATOM     45  H41 UNL     1       9.180  21.149  16.665  1.00  0.00     0.274 HD
ENDBRANCH  41  42
ENDBRANCH  40  41
ENDBRANCH  20  40
BRANCH   6  46
HETATM   46  O2  UNL     1       8.845  10.483   9.996  1.00  0.00    -0.358 OA
ATOM     47  H2  UNL     1       8.748  10.690   9.074  1.00  0.00     0.217 HD
ENDBRANCH   6  46
BRANCH  18  48
HETATM   48  C25 UNL     1      14.386  19.582  13.669  1.00  0.00     0.063 C 
BRANCH  48  49
HETATM   49  C26 UNL     1      14.409  21.010  13.164  1.00  0.00     0.024 C 
HETATM   50  C27 UNL     1      13.362  21.846  13.846  1.00  0.00     0.010 C 
HETATM   51  C28 UNL     1      13.669  22.099  15.288  1.00  0.00     0.001 C 
HETATM   52  C29 UNL     1      15.057  22.610  15.530  1.00  0.00     0.000 C 
HETATM   53  C30 UNL     1      16.090  21.782  14.795  1.00  0.00     0.001 C 
HETATM   54  C31 UNL     1      15.767  21.660  13.341  1.00  0.00     0.010 C 
ENDBRANCH  48  49
ENDBRANCH  18  48
TORSDOF 13
ENDMDL
MODEL 3
REMARK VINA RESULT: -6.088297399      4.709      9.469
REMARK  13 active torsions:
REMARK  status: ('A' for Active; 'I' for Inactive)
REMARK    1  A    between atoms: N1_2  and  C3_4 
REMARK    2  A    between atoms: C3_4  and  C4_5 
REMARK    3  A    between atoms: C5_6  and  C6_7 
REMARK    4  A    between atoms: C6_7  and  N2_8 
REMARK       I    between atoms: N2_8  and  C7_10 
REMARK    5  A    between atoms: C7_10  and  C8_12 
REMARK    6  A    between atoms: C8_12  and  C9_13 
REMARK    7  A    between atoms: C14_18  and  O2_19 
REMARK    8  A    between atoms: N3_32  and  C25_33 
REMARK    9  A    between atoms: C25_33  and  C26_34 
REMARK   10  A    between atoms: C33_41  and  C34_42 
REMARK   11  A    between atoms: C34_42  and  C35_43 
REMARK   12  A    between atoms: C35_43  and  N4_44 
REMARK   13  A    between atoms: C36_49  and  O4_50 
ROOT
HETATM    1  C9  UNL     1      11.428  19.341  14.092  1.00  0.00     0.073 C 
HETATM    2  C10 UNL     1      11.165  20.016  15.398  1.00  0.00     0.052 C 
HETATM    3  C11 UNL     1      11.188  19.202  16.645  1.00  0.00    -0.054 A 
HETATM    4  C12 UNL     1      12.292  19.584  17.452  1.00  0.00     0.010 A 
HETATM    5  C13 UNL     1      12.626  19.003  18.643  1.00  0.00     0.040 A 
HETATM    6  C14 UNL     1      11.805  17.981  19.046  1.00  0.00     0.099 A 
HETATM    7  C15 UNL     1      10.695  17.552  18.294  1.00  0.00     0.102 A 
HETATM    8  C16 UNL     1      10.404  18.180  17.096  1.00  0.00     0.046 A 
HETATM    9  O3  UNL     1      10.049  16.508  18.924  1.00  0.00    -0.348 OA
HETATM   10  C17 UNL     1       9.599  15.239  18.532  1.00  0.00     0.178 C 
HETATM   11  C18 UNL     1      10.640  14.425  17.884  1.00  0.00     0.060 C 
HETATM   12  C19 UNL     1      10.361  13.826  16.562  1.00  0.00     0.190 C 
HETATM   13  C20 UNL     1       9.504  14.562  15.617  1.00  0.00     0.066 C 
HETATM   14  C21 UNL     1      10.554  14.350  14.550  1.00  0.00     0.190 C 
HETATM   15  C22 UNL     1      11.150  15.647  14.042  1.00  0.00     0.060 C 
HETATM   16  C23 UNL     1      10.672  16.120  12.733  1.00  0.00     0.106 C 
HETATM   17  C24 UNL     1      11.648  15.787  11.596  1.00  0.00     0.147 C 
HETATM   18  N3  UNL     1      10.887  15.935  10.394  1.00  0.00    -0.389 N 
HETATM   19  C32 UNL     1      10.408  17.272  10.262  1.00  0.00     0.147 C 
HETATM   20  C33 UNL     1       9.437  17.618  11.364  1.00  0.00     0.106 C 
HETATM   21  N5  UNL     1      10.199  17.488  12.640  1.00  0.00    -0.352 N 
HETATM   22  C36 UNL     1      10.335  18.559  13.528  1.00  0.00     0.119 C 
HETATM   23  N6  UNL     1      11.450  13.895  15.626  1.00  0.00    -0.066 N 
ATOM     24  H61 UNL     1      12.031  13.070  15.475  1.00  0.00     0.278 HD
ATOM     25  H62 UNL     1      12.273  14.451  15.858  1.00  0.00     0.278 HD
ENDROOT
BRANCH   1  26
HETATM   26  C8  UNL     1      12.787  18.719  14.108  1.00  0.00     0.115 C 
BRANCH  26  27
HETATM   27  C7  UNL     1      13.908  19.614  13.742  1.00  0.00     0.218 C 
HETATM   28  N2  UNL     1      14.425  20.525  14.723  1.00  0.00    -0.358 N 
ATOM     29  H2  UNL     1      14.002  20.530  15.652  1.00  0.00     0.162 HD
HETATM   30  O1  UNL     1      14.481  19.669  12.633  1.00  0.00    -0.274 OA
BRANCH  28  31
HETATM   31  C6  UNL     1      15.506  21.429  14.462  1.00  0.00     0.149 C 
BRANCH  31  32
HETATM   32  C5  UNL     1      16.037  21.970  15.747  1.00  0.00    -0.010 C 
HETATM   33  C4  UNL     1      15.464  21.644  16.901  1.00  0.00     0.000 C 
BRANCH  33  34
HETATM   34  C3  UNL     1      15.911  22.124  18.215  1.00  0.00     0.298 C 
BRANCH  34  35
HETATM   35  N1  UNL     1      16.409  21.071  19.073  1.00  0.00     0.083 N 
HETATM   36  C1  UNL     1      17.666  21.490  19.702  1.00  0.00     0.309 C 
HETATM   37  C2  UNL     1      15.453  20.862  20.175  1.00  0.00     0.309 C 
ENDBRANCH  34  35
ENDBRANCH  33  34
ENDBRANCH  31  32
ENDBRANCH  28  31
ENDBRANCH  26  27
ENDBRANCH   1  26
BRANCH  22  38
HETATM   38  O4  UNL     1       9.177  18.983  13.974  1.00  0.00    -0.349 OA
ATOM     39  H4  UNL     1       8.507  18.317  13.866  1.00  0.00     0.219 HD
ENDBRANCH  22  38
BRANCH  20  40
HETATM   40  C34 UNL     1       8.764  18.867  11.113  1.00  0.00     0.054 C 
BRANCH  40  41
HETATM   41  C35 UNL     1       7.906  18.758   9.873  1.00  0.00     0.231 C 
BRANCH  41  42
HETATM   42  N4  UNL     1       7.613  20.125   9.382  1.00  0.00    -0.079 N 
ATOM     43  H43 UNL     1       6.692  20.198   8.951  1.00  0.00     0.274 HD
ATOM     44  H42 UNL     1       7.464  20.789  10.141  1.00  0.00     0.274 HD
ATOM     45  H41 UNL     1       8.364  20.409   8.753  1.00  0.00     0.274 HD
ENDBRANCH  41  42
ENDBRANCH  40  41
ENDBRANCH  20  40
BRANCH   6  46
HETATM   46  O2  UNL     1      12.177  17.405  20.282  1.00  0.00    -0.358 OA
ATOM     47  H2  UNL     1      11.445  17.055  20.777  1.00  0.00     0.217 HD
ENDBRANCH   6  46
BRANCH  18  48
HETATM   48  C25 UNL     1      11.359  15.326   9.236  1.00  0.00     0.063 C 
BRANCH  48  49
HETATM   49  C26 UNL     1      12.398  14.278   9.576  1.00  0.00     0.024 C 
HETATM   50  C27 UNL     1      12.064  12.956   8.942  1.00  0.00     0.010 C 
HETATM   51  C28 UNL     1      12.218  12.969   7.454  1.00  0.00     0.001 C 
HETATM   52  C29 UNL     1      13.536  13.512   6.988  1.00  0.00     0.000 C 
HETATM   53  C30 UNL     1      13.872  14.819   7.675  1.00  0.00     0.001 C 
HETATM   54  C31 UNL     1      13.794  14.697   9.163  1.00  0.00     0.010 C 
ENDBRANCH  48  49
ENDBRANCH  18  48
TORSDOF 13
ENDMDL
MODEL 4
REMARK VINA RESULT: -6.018126525      4.716      9.397
REMARK  13 active torsions:
REMARK  status: ('A' for Active; 'I' for Inactive)
REMARK    1  A    between atoms: N1_2  and  C3_4 
REMARK    2  A    between atoms: C3_4  and  C4_5 
REMARK    3  A    between atoms: C5_6  and  C6_7 
REMARK    4  A    between atoms: C6_7  and  N2_8 
REMARK       I    between atoms: N2_8  and  C7_10 
REMARK    5  A    between atoms: C7_10  and  C8_12 
REMARK    6  A    between atoms: C8_12  and  C9_13 
REMARK    7  A    between atoms: C14_18  and  O2_19 
REMARK    8  A    between atoms: N3_32  and  C25_33 
REMARK    9  A    between atoms: C25_33  and  C26_34 
REMARK   10  A    between atoms: C33_41  and  C34_42 
REMARK   11  A    between atoms: C34_42  and  C35_43 
REMARK   12  A    between atoms: C35_43  and  N4_44 
REMARK   13  A    between atoms: C36_49  and  O4_50 
ROOT
HETATM    1  C9  UNL     1      11.443  19.350  14.096  1.00  0.00     0.073 C 
HETATM    2  C10 UNL     1      11.160  20.016  15.403  1.00  0.00     0.052 C 
HETATM    3  C11 UNL     1      11.181  19.196  16.646  1.00  0.00    -0.054 A 
HETATM    4  C12 UNL     1      12.273  19.586  17.465  1.00  0.00     0.010 A 
HETATM    5  C13 UNL     1      12.602  19.004  18.657  1.00  0.00     0.040 A 
HETATM    6  C14 UNL     1      11.789  17.971  19.047  1.00  0.00     0.099 A 
HETATM    7  C15 UNL     1      10.690  17.533  18.283  1.00  0.00     0.102 A 
HETATM    8  C16 UNL     1      10.403  18.164  17.085  1.00  0.00     0.046 A 
HETATM    9  O3  UNL     1      10.050  16.480  18.903  1.00  0.00    -0.348 OA
HETATM   10  C17 UNL     1       9.618  15.208  18.501  1.00  0.00     0.178 C 
HETATM   11  C18 UNL     1      10.673  14.409  17.859  1.00  0.00     0.060 C 
HETATM   12  C19 UNL     1      10.413  13.812  16.532  1.00  0.00     0.190 C 
HETATM   13  C20 UNL     1       9.556  14.544  15.582  1.00  0.00     0.066 C 
HETATM   14  C21 UNL     1      10.619  14.347  14.524  1.00  0.00     0.190 C 
HETATM   15  C22 UNL     1      11.205  15.652  14.027  1.00  0.00     0.060 C 
HETATM   16  C23 UNL     1      10.734  16.126  12.716  1.00  0.00     0.106 C 
HETATM   17  C24 UNL     1      11.724  15.809  11.586  1.00  0.00     0.147 C 
HETATM   18  N3  UNL     1      10.972  15.954  10.378  1.00  0.00    -0.389 N 
HETATM   19  C32 UNL     1      10.480  17.287  10.248  1.00  0.00     0.147 C 
HETATM   20  C33 UNL     1       9.496  17.617  11.342  1.00  0.00     0.106 C 
HETATM   21  N5  UNL     1      10.247  17.490  12.625  1.00  0.00    -0.352 N 
HETATM   22  C36 UNL     1      10.364  18.558  13.518  1.00  0.00     0.119 C 
HETATM   23  N6  UNL     1      11.509  13.897  15.606  1.00  0.00    -0.066 N 
ATOM     24  H61 UNL     1      12.101  13.079  15.457  1.00  0.00     0.278 HD
ATOM     25  H62 UNL     1      12.324  14.460  15.848  1.00  0.00     0.278 HD
ENDROOT
BRANCH   1  26
HETATM   26  C8  UNL     1      12.808  18.742  14.122  1.00  0.00     0.115 C 
BRANCH  26  27
HETATM   27  C7  UNL     1      13.926  19.658  13.802  1.00  0.00     0.218 C 
HETATM   28  N2  UNL     1      14.462  20.496  14.837  1.00  0.00    -0.358 N 
ATOM     29  H2  UNL     1      14.055  20.435  15.771  1.00  0.00     0.162 HD
HETATM   30  O1  UNL     1      14.480  19.792  12.690  1.00  0.00    -0.274 OA
BRANCH  28  31
HETATM   31  C6  UNL     1      15.542  21.414  14.623  1.00  0.00     0.149 C 
BRANCH  31  32
HETATM   32  C5  UNL     1      15.812  22.180  15.874  1.00  0.00    -0.010 C 
HETATM   33  C4  UNL     1      16.747  23.125  15.894  1.00  0.00     0.000 C 
BRANCH  33  34
HETATM   34  C3  UNL     1      17.088  23.932  17.073  1.00  0.00     0.298 C 
BRANCH  34  35
HETATM   35  N1  UNL     1      17.905  25.085  16.763  1.00  0.00     0.083 N 
HETATM   36  C1  UNL     1      19.226  24.943  17.386  1.00  0.00     0.309 C 
HETATM   37  C2  UNL     1      18.143  25.125  15.311  1.00  0.00     0.309 C 
ENDBRANCH  34  35
ENDBRANCH  33  34
ENDBRANCH  31  32
ENDBRANCH  28  31
ENDBRANCH  26  27
ENDBRANCH   1  26
BRANCH  22  38
HETATM   38  O4  UNL     1       9.196  18.968  13.956  1.00  0.00    -0.349 OA
ATOM     39  H4  UNL     1       8.543  18.283  13.871  1.00  0.00     0.219 HD
ENDBRANCH  22  38
BRANCH  20  40
HETATM   40  C34 UNL     1       8.812  18.860  11.090  1.00  0.00     0.054 C 
BRANCH  40  41
HETATM   41  C35 UNL     1       7.798  18.684   9.982  1.00  0.00     0.231 C 
BRANCH  41  42
HETATM   42  N4  UNL     1       7.713  19.949   9.218  1.00  0.00    -0.079 N 
ATOM     43  H43 UNL     1       8.098  19.866   8.277  1.00  0.00     0.274 HD
ATOM     44  H42 UNL     1       6.756  20.185   8.955  1.00  0.00     0.274 HD
ATOM     45  H41 UNL     1       8.162  20.686   9.762  1.00  0.00     0.274 HD
ENDBRANCH  41  42
ENDBRANCH  40  41
ENDBRANCH  20  40
BRANCH   6  46
HETATM   46  O2  UNL     1      12.155  17.394  20.284  1.00  0.00    -0.358 OA
ATOM     47  H2  UNL     1      12.733  17.939  20.805  1.00  0.00     0.217 HD
ENDBRANCH   6  46
BRANCH  18  48
HETATM   48  C25 UNL     1      11.462  15.356   9.222  1.00  0.00     0.063 C 
BRANCH  48  49
HETATM   49  C26 UNL     1      12.451  14.263   9.571  1.00  0.00     0.024 C 
HETATM   50  C27 UNL     1      11.928  12.910   9.175  1.00  0.00     0.010 C 
HETATM   51  C28 UNL     1      11.874  12.717   7.693  1.00  0.00     0.001 C 
HETATM   52  C29 UNL     1      13.152  13.065   6.992  1.00  0.00     0.000 C 
HETATM   53  C30 UNL     1      13.684  14.410   7.440  1.00  0.00     0.001 C 
HETATM   54  C31 UNL     1      13.805  14.488   8.928  1.00  0.00     0.010 C 
ENDBRANCH  48  49
ENDBRANCH  18  48
TORSDOF 13
ENDMDL
MODEL 5
REMARK VINA RESULT: -5.919608622      4.754      9.759
REMARK  13 active torsions:
REMARK  status: ('A' for Active; 'I' for Inactive)
REMARK    1  A    between atoms: N1_2  and  C3_4 
REMARK    2  A    between atoms: C3_4  and  C4_5 
REMARK    3  A    between atoms: C5_6  and  C6_7 
REMARK    4  A    between atoms: C6_7  and  N2_8 
REMARK       I    between atoms: N2_8  and  C7_10 
REMARK    5  A    between atoms: C7_10  and  C8_12 
REMARK    6  A    between atoms: C8_12  and  C9_13 
REMARK    7  A    between atoms: C14_18  and  O2_19 
REMARK    8  A    between atoms: N3_32  and  C25_33 
REMARK    9  A    between atoms: C25_33  and  C26_34 
REMARK   10  A    between atoms: C33_41  and  C34_42 
REMARK   11  A    between atoms: C34_42  and  C35_43 
REMARK   12  A    between atoms: C35_43  and  N4_44 
REMARK   13  A    between atoms: C36_49  and  O4_50 
ROOT
HETATM    1  C9  UNL     1      11.382  19.400  13.982  1.00  0.00     0.073 C 
HETATM    2  C10 UNL     1      11.105  20.072  15.287  1.00  0.00     0.052 C 
HETATM    3  C11 UNL     1      11.158  19.263  16.537  1.00  0.00    -0.054 A 
HETATM    4  C12 UNL     1      12.254  19.680  17.336  1.00  0.00     0.010 A 
HETATM    5  C13 UNL     1      12.611  19.115  18.528  1.00  0.00     0.040 A 
HETATM    6  C14 UNL     1      11.823  18.070  18.939  1.00  0.00     0.099 A 
HETATM    7  C15 UNL     1      10.722  17.605  18.194  1.00  0.00     0.102 A 
HETATM    8  C16 UNL     1      10.407  18.220  16.995  1.00  0.00     0.046 A 
HETATM    9  O3  UNL     1      10.110  16.546  18.831  1.00  0.00    -0.348 OA
HETATM   10  C17 UNL     1       9.697  15.262  18.446  1.00  0.00     0.178 C 
HETATM   11  C18 UNL     1      10.758  14.477  17.796  1.00  0.00     0.060 C 
HETATM   12  C19 UNL     1      10.490  13.865  16.477  1.00  0.00     0.190 C 
HETATM   13  C20 UNL     1       9.607  14.572  15.534  1.00  0.00     0.066 C 
HETATM   14  C21 UNL     1      10.658  14.387  14.463  1.00  0.00     0.190 C 
HETATM   15  C22 UNL     1      11.212  15.698  13.947  1.00  0.00     0.060 C 
HETATM   16  C23 UNL     1      10.714  16.152  12.638  1.00  0.00     0.106 C 
HETATM   17  C24 UNL     1      11.694  15.844  11.498  1.00  0.00     0.147 C 
HETATM   18  N3  UNL     1      10.923  15.965  10.299  1.00  0.00    -0.389 N 
HETATM   19  C32 UNL     1      10.404  17.287  10.165  1.00  0.00     0.147 C 
HETATM   20  C33 UNL     1       9.429  17.608  11.270  1.00  0.00     0.106 C 
HETATM   21  N5  UNL     1      10.200  17.506  12.543  1.00  0.00    -0.352 N 
HETATM   22  C36 UNL     1      10.309  18.583  13.426  1.00  0.00     0.119 C 
HETATM   23  N6  UNL     1      11.572  13.962  15.535  1.00  0.00    -0.066 N 
ATOM     24  H61 UNL     1      12.177  13.154  15.385  1.00  0.00     0.278 HD
ATOM     25  H62 UNL     1      12.380  14.543  15.761  1.00  0.00     0.278 HD
ENDROOT
BRANCH   1  26
HETATM   26  C8  UNL     1      12.758  18.818  13.993  1.00  0.00     0.115 C 
BRANCH  26  27
HETATM   27  C7  UNL     1      13.857  19.761  13.684  1.00  0.00     0.218 C 
HETATM   28  N2  UNL     1      14.513  20.448  14.760  1.00  0.00    -0.358 N 
ATOM     29  H2  UNL     1      14.201  20.266  15.715  1.00  0.00     0.162 HD
HETATM   30  O1  UNL     1      14.298  20.038  12.549  1.00  0.00    -0.274 OA
BRANCH  28  31
HETATM   31  C6  UNL     1      15.584  21.379  14.560  1.00  0.00     0.149 C 
BRANCH  31  32
HETATM   32  C5  UNL     1      15.975  21.991  15.862  1.00  0.00    -0.010 C 
HETATM   33  C4  UNL     1      15.146  21.951  16.900  1.00  0.00     0.000 C 
BRANCH  33  34
HETATM   34  C3  UNL     1      15.438  22.524  18.220  1.00  0.00     0.298 C 
BRANCH  34  35
HETATM   35  N1  UNL     1      16.788  23.032  18.341  1.00  0.00     0.083 N 
HETATM   36  C1  UNL     1      16.758  24.478  18.586  1.00  0.00     0.309 C 
HETATM   37  C2  UNL     1      17.418  22.431  19.529  1.00  0.00     0.309 C 
ENDBRANCH  34  35
ENDBRANCH  33  34
ENDBRANCH  31  32
ENDBRANCH  28  31
ENDBRANCH  26  27
ENDBRANCH   1  26
BRANCH  22  38
HETATM   38  O4  UNL     1       9.141  18.975  13.877  1.00  0.00    -0.349 OA
ATOM     39  H4  UNL     1       8.655  18.243  14.239  1.00  0.00     0.219 HD
ENDBRANCH  22  38
BRANCH  20  40
HETATM   40  C34 UNL     1       8.718  18.836  11.018  1.00  0.00     0.054 C 
BRANCH  40  41
HETATM   41  C35 UNL     1       8.124  18.819   9.627  1.00  0.00     0.231 C 
BRANCH  41  42
HETATM   42  N4  UNL     1       7.779  20.209   9.247  1.00  0.00    -0.079 N 
ATOM     43  H43 UNL     1       8.482  20.635   8.644  1.00  0.00     0.274 HD
ATOM     44  H42 UNL     1       6.993  20.254   8.600  1.00  0.00     0.274 HD
ATOM     45  H41 UNL     1       7.617  20.745  10.099  1.00  0.00     0.274 HD
ENDBRANCH  41  42
ENDBRANCH  40  41
ENDBRANCH  20  40
BRANCH   6  46
HETATM   46  O2  UNL     1      12.217  17.510  20.175  1.00  0.00    -0.358 OA
ATOM     47  H2  UNL     1      11.616  17.692  20.887  1.00  0.00     0.217 HD
ENDBRANCH   6  46
BRANCH  18  48
HETATM   48  C25 UNL     1      11.408  15.367   9.141  1.00  0.00     0.063 C 
BRANCH  48  49
HETATM   49  C26 UNL     1      10.373  14.426   8.559  1.00  0.00     0.024 C 
HETATM   50  C27 UNL     1      10.914  13.695   7.362  1.00  0.00     0.010 C 
HETATM   51  C28 UNL     1      11.969  12.697   7.718  1.00  0.00     0.001 C 
HETATM   52  C29 UNL     1      11.572  11.768   8.825  1.00  0.00     0.000 C 
HETATM   53  C30 UNL     1      10.987  12.522  10.000  1.00  0.00     0.001 C 
HETATM   54  C31 UNL     1       9.872  13.423   9.579  1.00  0.00     0.010 C 
ENDBRANCH  48  49
ENDBRANCH  18  48
TORSDOF 13
ENDMDL
