MODEL 1
REMARK VINA RESULT: -5.837327894      0.000      0.000
REMARK  11 active torsions:
REMARK  status: ('A' for Active; 'I' for Inactive)
REMARK    1  A    between atoms: C2_2  and  C3_3 
REMARK    2  A    between atoms: C3_3  and  C4_4 
REMARK    3  A    between atoms: C4_4  and  C5_5 
REMARK    4  A    between atoms: C5_5  and  C7_7 
REMARK    5  A    between atoms: C11_13  and  C12_14 
REMARK       I    between atoms: C12_14  and  N1_16 
REMARK    6  A    between atoms: N1_16  and  C13_18 
REMARK    7  A    between atoms: C13_18  and  C14_19 
REMARK    8  A    between atoms: C14_19  and  C15_20 
REMARK    9  A    between atoms: C18_23  and  O4_24 
REMARK   10  A    between atoms: C23_33  and  N3_34 
REMARK   11  A    between atoms: C34_48  and  O7_49 
ROOT
HETATM    1  C7  UNL     1      10.802  18.050  13.986  1.00  0.00     0.141 C 
HETATM    2  O1  UNL     1      10.217  16.880  14.366  1.00  0.00    -0.315 OA
HETATM    3  C8  UNL     1       9.674  16.243  15.392  1.00  0.00     0.264 C 
HETATM    4  O2  UNL     1       8.585  16.495  16.031  1.00  0.00    -0.265 OA
HETATM    5  C9  UNL     1      10.358  15.037  15.959  1.00  0.00     0.097 C 
HETATM    6  C10 UNL     1      10.856  14.095  14.930  1.00  0.00     0.021 C 
HETATM    7  C11 UNL     1       9.664  14.325  17.047  1.00  0.00     0.121 C 
HETATM    8  C18 UNL     1       8.449  13.562  16.823  1.00  0.00     0.152 C 
HETATM    9  C20 UNL     1       8.089  13.171  15.412  1.00  0.00     0.155 C 
HETATM   10  N2  UNL     1       6.662  12.798  15.341  1.00  0.00    -0.352 N 
ATOM     11  H2  UNL     1       6.390  11.852  15.612  1.00  0.00     0.162 HD
HETATM   12  C21 UNL     1       5.648  13.701  14.913  1.00  0.00     0.289 C 
HETATM   13  O5  UNL     1       4.592  13.811  15.632  1.00  0.00    -0.264 OA
HETATM   14  C22 UNL     1       5.717  14.516  13.711  1.00  0.00     0.239 C 
HETATM   15  O6  UNL     1       5.358  15.719  13.787  1.00  0.00    -0.285 OA
HETATM   16  C23 UNL     1       6.199  13.959  12.401  1.00  0.00     0.166 C 
HETATM   17  C25 UNL     1       6.783  14.986  11.508  1.00  0.00     0.088 C 
HETATM   18  C26 UNL     1       5.830  15.894  10.811  1.00  0.00     0.019 C 
HETATM   19  C27 UNL     1       7.581  14.263  10.421  1.00  0.00     0.267 C 
HETATM   20  F1  UNL     1       6.784  13.229   9.880  1.00  0.00    -0.201 F 
HETATM   21  F2  UNL     1       8.675  13.604  10.941  1.00  0.00    -0.201 F 
HETATM   22  C28 UNL     1       7.892  15.135   9.272  1.00  0.00     0.051 C 
HETATM   23  C29 UNL     1       9.082  15.465   8.809  1.00  0.00     0.002 C 
HETATM   24  C30 UNL     1      10.391  15.076   9.288  1.00  0.00    -0.004 C 
HETATM   25  C31 UNL     1      11.074  15.532  10.315  1.00  0.00    -0.020 C 
HETATM   26  C32 UNL     1      10.716  16.584  11.292  1.00  0.00     0.033 C 
HETATM   27  C33 UNL     1       9.957  17.728  10.689  1.00  0.00     0.017 C 
HETATM   28  C34 UNL     1      11.980  17.046  11.938  1.00  0.00     0.131 C 
HETATM   29  C35 UNL     1      11.973  17.968  13.051  1.00  0.00     0.041 C 
HETATM   30  C36 UNL     1      12.370  19.357  12.581  1.00  0.00     0.015 C 
ENDROOT
BRANCH   7  31
HETATM   31  C12 UNL     1       9.448  15.250  18.228  1.00  0.00     0.225 C 
HETATM   32  O3  UNL     1       8.350  15.331  18.831  1.00  0.00    -0.273 OA
HETATM   33  N1  UNL     1      10.521  16.058  18.678  1.00  0.00    -0.361 N 
ATOM     34  H1  UNL     1      11.409  15.988  18.180  1.00  0.00     0.162 HD
BRANCH  33  35
HETATM   35  C13 UNL     1      10.446  16.963  19.781  1.00  0.00     0.123 C 
BRANCH  35  36
HETATM   36  C14 UNL     1      11.624  16.869  20.718  1.00  0.00     0.023 C 
BRANCH  36  37
HETATM   37  C15 UNL     1      12.689  17.880  20.339  1.00  0.00    -0.021 C 
HETATM   38  C16 UNL     1      13.238  18.548  21.575  1.00  0.00     0.009 C 
HETATM   39  C17 UNL     1      13.825  17.280  19.571  1.00  0.00     0.009 C 
ENDBRANCH  36  37
ENDBRANCH  35  36
ENDBRANCH  33  35
ENDBRANCH   7  31
BRANCH   8  40
HETATM   40  O4  UNL     1       8.563  12.316  17.493  1.00  0.00    -0.388 OA
HETATM   41  C19 UNL     1       9.050  11.313  16.698  1.00  0.00     0.202 C 
ENDBRANCH   8  40
BRANCH   1  42
HETATM   42  C5  UNL     1      11.185  19.011  15.096  1.00  0.00     0.012 C 
HETATM   43  C6  UNL     1      10.087  20.015  15.400  1.00  0.00     0.012 C 
BRANCH  42  44
HETATM   44  C4  UNL     1      11.673  18.385  16.348  1.00  0.00     0.010 C 
BRANCH  44  45
HETATM   45  C3  UNL     1      11.938  19.404  17.449  1.00  0.00     0.027 C 
BRANCH  45  46
HETATM   46  C2  UNL     1      13.242  20.073  17.283  1.00  0.00    -0.037 C 
HETATM   47  C1  UNL     1      13.856  20.765  18.213  1.00  0.00     0.007 C 
ENDBRANCH  45  46
ENDBRANCH  44  45
ENDBRANCH  42  44
ENDBRANCH   1  42
BRANCH  28  48
HETATM   48  O7  UNL     1      12.839  15.929  12.181  1.00  0.00    -0.394 OA
ATOM     49  H7  UNL     1      12.961  15.811  13.116  1.00  0.00     0.210 HD
ENDBRANCH  28  48
BRANCH  16  50
HETATM   50  N3  UNL     1       5.259  13.073  11.810  1.00  0.00    -0.414 N 
HETATM   51  C24 UNL     1       5.355  11.696  12.130  1.00  0.00     0.140 C 
ATOM     52  H3  UNL     1       4.539  13.417  11.176  1.00  0.00     0.153 HD
ENDBRANCH  16  50
TORSDOF 11
ENDMDL
MODEL 2
REMARK VINA RESULT: -5.716470577      2.755      4.887
REMARK  11 active torsions:
REMARK  status: ('A' for Active; 'I' for Inactive)
REMARK    1  A    between atoms: C2_2  and  C3_3 
REMARK    2  A    between atoms: C3_3  and  C4_4 
REMARK    3  A    between atoms: C4_4  and  C5_5 
REMARK    4  A    between atoms: C5_5  and  C7_7 
REMARK    5  A    between atoms: C11_13  and  C12_14 
REMARK       I    between atoms: C12_14  and  N1_16 
REMARK    6  A    between atoms: N1_16  and  C13_18 
REMARK    7  A    between atoms: C13_18  and  C14_19 
REMARK    8  A    between atoms: C14_19  and  C15_20 
REMARK    9  A    between atoms: C18_23  and  O4_24 
REMARK   10  A    between atoms: C23_33  and  N3_34 
REMARK   11  A    between atoms: C34_48  and  O7_49 
ROOT
HETATM    1  C7  UNL     1       9.273  15.389  10.343  1.00  0.00     0.141 C 
HETATM    2  O1  UNL     1       9.067  15.139  11.667  1.00  0.00    -0.315 OA
HETATM    3  C8  UNL     1       9.109  15.683  12.873  1.00  0.00     0.264 C 
HETATM    4  O2  UNL     1       8.382  16.619  13.378  1.00  0.00    -0.265 OA
HETATM    5  C9  UNL     1      10.120  15.198  13.867  1.00  0.00     0.097 C 
HETATM    6  C10 UNL     1      10.239  13.723  13.925  1.00  0.00     0.021 C 
HETATM    7  C11 UNL     1      10.065  15.786  15.217  1.00  0.00     0.121 C 
HETATM    8  C18 UNL     1       8.982  15.502  16.142  1.00  0.00     0.152 C 
HETATM    9  C20 UNL     1       8.100  14.307  15.880  1.00  0.00     0.155 C 
HETATM   10  N2  UNL     1       6.844  14.432  16.647  1.00  0.00    -0.352 N 
ATOM     11  H2  UNL     1       6.840  14.147  17.627  1.00  0.00     0.162 HD
HETATM   12  C21 UNL     1       5.638  14.932  16.081  1.00  0.00     0.289 C 
HETATM   13  O5  UNL     1       4.993  15.834  16.725  1.00  0.00    -0.264 OA
HETATM   14  C22 UNL     1       5.073  14.495  14.814  1.00  0.00     0.239 C 
HETATM   15  O6  UNL     1       4.631  15.370  14.026  1.00  0.00    -0.285 OA
HETATM   16  C23 UNL     1       5.006  13.042  14.434  1.00  0.00     0.166 C 
HETATM   17  C25 UNL     1       5.007  12.821  12.969  1.00  0.00     0.088 C 
HETATM   18  C26 UNL     1       3.739  13.105  12.243  1.00  0.00     0.019 C 
HETATM   19  C27 UNL     1       5.341  11.348  12.719  1.00  0.00     0.267 C 
HETATM   20  F1  UNL     1       4.529  10.547  13.553  1.00  0.00    -0.201 F 
HETATM   21  F2  UNL     1       6.627  11.041  13.110  1.00  0.00    -0.201 F 
HETATM   22  C28 UNL     1       5.008  10.917  11.348  1.00  0.00     0.051 C 
HETATM   23  C29 UNL     1       5.826  10.433  10.433  1.00  0.00     0.002 C 
HETATM   24  C30 UNL     1       7.251  10.195  10.513  1.00  0.00    -0.004 C 
HETATM   25  C31 UNL     1       8.247  11.049  10.419  1.00  0.00    -0.020 C 
HETATM   26  C32 UNL     1       8.216  12.512  10.198  1.00  0.00     0.033 C 
HETATM   27  C33 UNL     1       7.130  12.953   9.263  1.00  0.00     0.017 C 
HETATM   28  C34 UNL     1       9.564  12.920   9.704  1.00  0.00     0.131 C 
HETATM   29  C35 UNL     1       9.923  14.309   9.528  1.00  0.00     0.041 C 
HETATM   30  C36 UNL     1       9.893  14.673   8.054  1.00  0.00     0.015 C 
ENDROOT
BRANCH   7  31
HETATM   31  C12 UNL     1      10.265  17.286  15.148  1.00  0.00     0.225 C 
HETATM   32  O3  UNL     1       9.634  18.088  15.880  1.00  0.00    -0.273 OA
HETATM   33  N1  UNL     1      11.200  17.816  14.225  1.00  0.00    -0.361 N 
ATOM     34  H1  UNL     1      11.706  17.158  13.631  1.00  0.00     0.162 HD
BRANCH  33  35
HETATM   35  C13 UNL     1      11.484  19.208  14.067  1.00  0.00     0.123 C 
BRANCH  35  36
HETATM   36  C14 UNL     1      12.837  19.482  13.462  1.00  0.00     0.023 C 
BRANCH  36  37
HETATM   37  C15 UNL     1      13.466  20.709  14.092  1.00  0.00    -0.021 C 
HETATM   38  C16 UNL     1      14.722  21.092  13.350  1.00  0.00     0.009 C 
HETATM   39  C17 UNL     1      12.547  21.891  14.125  1.00  0.00     0.009 C 
ENDBRANCH  36  37
ENDBRANCH  35  36
ENDBRANCH  33  35
ENDBRANCH   7  31
BRANCH   8  40
HETATM   40  O4  UNL     1       9.534  15.230  17.421  1.00  0.00    -0.388 OA
HETATM   41  C19 UNL     1      10.144  14.007  17.503  1.00  0.00     0.202 C 
ENDBRANCH   8  40
BRANCH   1  42
HETATM   42  C5  UNL     1       9.972  16.689   9.997  1.00  0.00     0.012 C 
HETATM   43  C6  UNL     1       9.027  17.878  10.006  1.00  0.00     0.012 C 
BRANCH  42  44
HETATM   44  C4  UNL     1      11.191  16.993  10.783  1.00  0.00     0.010 C 
BRANCH  44  45
HETATM   45  C3  UNL     1      12.275  15.936  10.618  1.00  0.00     0.027 C 
BRANCH  45  46
HETATM   46  C2  UNL     1      13.157  15.855  11.797  1.00  0.00    -0.037 C 
HETATM   47  C1  UNL     1      14.467  15.836  11.757  1.00  0.00     0.007 C 
ENDBRANCH  45  46
ENDBRANCH  44  45
ENDBRANCH  42  44
ENDBRANCH   1  42
BRANCH  28  48
HETATM   48  O7  UNL     1      10.580  12.196  10.403  1.00  0.00    -0.394 OA
ATOM     49  H7  UNL     1      10.610  11.298  10.093  1.00  0.00     0.210 HD
ENDBRANCH  28  48
BRANCH  16  50
HETATM   50  N3  UNL     1       4.026  12.332  15.176  1.00  0.00    -0.414 N 
HETATM   51  C24 UNL     1       4.426  11.728  16.394  1.00  0.00     0.140 C 
ATOM     52  H3  UNL     1       3.065  12.260  14.844  1.00  0.00     0.153 HD
ENDBRANCH  16  50
TORSDOF 11
ENDMDL
MODEL 3
REMARK VINA RESULT: -5.412044782      0.813      1.617
REMARK  11 active torsions:
REMARK  status: ('A' for Active; 'I' for Inactive)
REMARK    1  A    between atoms: C2_2  and  C3_3 
REMARK    2  A    between atoms: C3_3  and  C4_4 
REMARK    3  A    between atoms: C4_4  and  C5_5 
REMARK    4  A    between atoms: C5_5  and  C7_7 
REMARK    5  A    between atoms: C11_13  and  C12_14 
REMARK       I    between atoms: C12_14  and  N1_16 
REMARK    6  A    between atoms: N1_16  and  C13_18 
REMARK    7  A    between atoms: C13_18  and  C14_19 
REMARK    8  A    between atoms: C14_19  and  C15_20 
REMARK    9  A    between atoms: C18_23  and  O4_24 
REMARK   10  A    between atoms: C23_33  and  N3_34 
REMARK   11  A    between atoms: C34_48  and  O7_49 
ROOT
HETATM    1  C7  UNL     1      10.941  18.005  13.963  1.00  0.00     0.141 C 
HETATM    2  O1  UNL     1      10.331  16.831  14.292  1.00  0.00    -0.315 OA
HETATM    3  C8  UNL     1       9.774  16.163  15.291  1.00  0.00     0.264 C 
HETATM    4  O2  UNL     1       8.691  16.411  15.942  1.00  0.00    -0.265 OA
HETATM    5  C9  UNL     1      10.433  14.919  15.805  1.00  0.00     0.097 C 
HETATM    6  C10 UNL     1      10.910  14.012  14.736  1.00  0.00     0.021 C 
HETATM    7  C11 UNL     1       9.724  14.177  16.862  1.00  0.00     0.121 C 
HETATM    8  C18 UNL     1       8.493  13.450  16.607  1.00  0.00     0.152 C 
HETATM    9  C20 UNL     1       8.124  13.127  15.180  1.00  0.00     0.155 C 
HETATM   10  N2  UNL     1       6.689  12.789  15.096  1.00  0.00    -0.352 N 
ATOM     11  H2  UNL     1       6.397  11.838  15.326  1.00  0.00     0.162 HD
HETATM   12  C21 UNL     1       5.694  13.730  14.709  1.00  0.00     0.289 C 
HETATM   13  O5  UNL     1       4.641  13.833  15.433  1.00  0.00    -0.264 OA
HETATM   14  C22 UNL     1       5.780  14.595  13.542  1.00  0.00     0.239 C 
HETATM   15  O6  UNL     1       5.447  15.801  13.671  1.00  0.00    -0.285 OA
HETATM   16  C23 UNL     1       6.250  14.084  12.209  1.00  0.00     0.166 C 
HETATM   17  C25 UNL     1       6.855  15.137  11.360  1.00  0.00     0.088 C 
HETATM   18  C26 UNL     1       5.922  16.094  10.705  1.00  0.00     0.019 C 
HETATM   19  C27 UNL     1       7.637  14.444  10.242  1.00  0.00     0.267 C 
HETATM   20  F1  UNL     1       6.818  13.452   9.658  1.00  0.00    -0.201 F 
HETATM   21  F2  UNL     1       8.716  13.741  10.732  1.00  0.00    -0.201 F 
HETATM   22  C28 UNL     1       7.966  15.358   9.131  1.00  0.00     0.051 C 
HETATM   23  C29 UNL     1       9.163  15.682   8.681  1.00  0.00     0.002 C 
HETATM   24  C30 UNL     1      10.463  15.245   9.141  1.00  0.00    -0.004 C 
HETATM   25  C31 UNL     1      11.157  15.642  10.186  1.00  0.00    -0.020 C 
HETATM   26  C32 UNL     1      10.821  16.658  11.208  1.00  0.00     0.033 C 
HETATM   27  C33 UNL     1      10.087  17.842  10.655  1.00  0.00     0.017 C 
HETATM   28  C34 UNL     1      12.095  17.065  11.872  1.00  0.00     0.131 C 
HETATM   29  C35 UNL     1      12.109  17.937  13.024  1.00  0.00     0.041 C 
HETATM   30  C36 UNL     1      12.535  19.337  12.613  1.00  0.00     0.015 C 
ENDROOT
BRANCH   7  31
HETATM   31  C12 UNL     1       9.528  15.054  18.082  1.00  0.00     0.225 C 
HETATM   32  O3  UNL     1       8.461  15.064  18.744  1.00  0.00    -0.273 OA
HETATM   33  N1  UNL     1      10.585  15.899  18.501  1.00  0.00    -0.361 N 
ATOM     34  H1  UNL     1      11.447  15.888  17.955  1.00  0.00     0.162 HD
BRANCH  33  35
HETATM   35  C13 UNL     1      10.527  16.767  19.636  1.00  0.00     0.123 C 
BRANCH  35  36
HETATM   36  C14 UNL     1      11.879  17.262  20.084  1.00  0.00     0.023 C 
BRANCH  36  37
HETATM   37  C15 UNL     1      12.714  17.686  18.892  1.00  0.00    -0.021 C 
HETATM   38  C16 UNL     1      12.562  19.167  18.649  1.00  0.00     0.009 C 
HETATM   39  C17 UNL     1      14.169  17.370  19.049  1.00  0.00     0.009 C 
ENDBRANCH  36  37
ENDBRANCH  35  36
ENDBRANCH  33  35
ENDBRANCH   7  31
BRANCH   8  40
HETATM   40  O4  UNL     1       8.580  12.174  17.222  1.00  0.00    -0.388 OA
HETATM   41  C19 UNL     1       9.107  11.210  16.405  1.00  0.00     0.202 C 
ENDBRANCH   8  40
BRANCH   1  42
HETATM   42  C5  UNL     1      11.344  18.908  15.112  1.00  0.00     0.012 C 
HETATM   43  C6  UNL     1      12.584  19.727  14.801  1.00  0.00     0.012 C 
BRANCH  42  44
HETATM   44  C4  UNL     1      10.272  19.779  15.652  1.00  0.00     0.010 C 
BRANCH  44  45
HETATM   45  C3  UNL     1      10.201  21.127  14.947  1.00  0.00     0.027 C 
BRANCH  45  46
HETATM   46  C2  UNL     1       9.193  21.139  13.871  1.00  0.00    -0.037 C 
HETATM   47  C1  UNL     1       8.507  22.191  13.494  1.00  0.00     0.007 C 
ENDBRANCH  45  46
ENDBRANCH  44  45
ENDBRANCH  42  44
ENDBRANCH   1  42
BRANCH  28  48
HETATM   48  O7  UNL     1      12.931  15.920  12.065  1.00  0.00    -0.394 OA
ATOM     49  H7  UNL     1      12.738  15.516  12.903  1.00  0.00     0.210 HD
ENDBRANCH  28  48
BRANCH  16  50
HETATM   50  N3  UNL     1       5.291  13.245  11.582  1.00  0.00    -0.414 N 
HETATM   51  C24 UNL     1       3.920  13.539  11.786  1.00  0.00     0.140 C 
ATOM     52  H3  UNL     1       5.580  12.457  11.004  1.00  0.00     0.153 HD
ENDBRANCH  16  50
TORSDOF 11
ENDMDL
MODEL 4
REMARK VINA RESULT: -5.300130346      1.928      2.940
REMARK  11 active torsions:
REMARK  status: ('A' for Active; 'I' for Inactive)
REMARK    1  A    between atoms: C2_2  and  C3_3 
REMARK    2  A    between atoms: C3_3  and  C4_4 
REMARK    3  A    between atoms: C4_4  and  C5_5 
REMARK    4  A    between atoms: C5_5  and  C7_7 
REMARK    5  A    between atoms: C11_13  and  C12_14 
REMARK       I    between atoms: C12_14  and  N1_16 
REMARK    6  A    between atoms: N1_16  and  C13_18 
REMARK    7  A    between atoms: C13_18  and  C14_19 
REMARK    8  A    between atoms: C14_19  and  C15_20 
REMARK    9  A    between atoms: C18_23  and  O4_24 
REMARK   10  A    between atoms: C23_33  and  N3_34 
REMARK   11  A    between atoms: C34_48  and  O7_49 
ROOT
HETATM    1  C7  UNL     1      10.395  17.435  14.438  1.00  0.00     0.141 C 
HETATM    2  O1  UNL     1       9.782  16.220  14.511  1.00  0.00    -0.315 OA
HETATM    3  C8  UNL     1       9.141  15.396  15.327  1.00  0.00     0.264 C 
HETATM    4  O2  UNL     1       7.990  15.530  15.890  1.00  0.00    -0.265 OA
HETATM    5  C9  UNL     1       9.771  14.091  15.704  1.00  0.00     0.097 C 
HETATM    6  C10 UNL     1      10.378  13.370  14.562  1.00  0.00     0.021 C 
HETATM    7  C11 UNL     1       8.975  13.184  16.550  1.00  0.00     0.121 C 
HETATM    8  C18 UNL     1       7.794  12.499  16.053  1.00  0.00     0.152 C 
HETATM    9  C20 UNL     1       7.583  12.406  14.563  1.00  0.00     0.155 C 
HETATM   10  N2  UNL     1       6.172  12.076  14.274  1.00  0.00    -0.352 N 
ATOM     11  H2  UNL     1       5.881  11.099  14.318  1.00  0.00     0.162 HD
HETATM   12  C21 UNL     1       5.202  13.061  13.937  1.00  0.00     0.289 C 
HETATM   13  O5  UNL     1       4.077  13.039  14.553  1.00  0.00    -0.264 OA
HETATM   14  C22 UNL     1       5.388  14.101  12.938  1.00  0.00     0.239 C 
HETATM   15  O6  UNL     1       5.015  15.269  13.220  1.00  0.00    -0.285 OA
HETATM   16  C23 UNL     1       6.005  13.813  11.598  1.00  0.00     0.166 C 
HETATM   17  C25 UNL     1       6.670  14.992  10.996  1.00  0.00     0.088 C 
HETATM   18  C26 UNL     1       5.788  16.035  10.405  1.00  0.00     0.019 C 
HETATM   19  C27 UNL     1       7.580  14.492   9.872  1.00  0.00     0.267 C 
HETATM   20  F1  UNL     1       6.849  13.600   9.055  1.00  0.00    -0.201 F 
HETATM   21  F2  UNL     1       8.619  13.727  10.356  1.00  0.00    -0.201 F 
HETATM   22  C28 UNL     1       8.001  15.574   8.961  1.00  0.00     0.051 C 
HETATM   23  C29 UNL     1       9.229  15.974   8.697  1.00  0.00     0.002 C 
HETATM   24  C30 UNL     1      10.486  15.477   9.217  1.00  0.00    -0.004 C 
HETATM   25  C31 UNL     1      11.057  15.707  10.380  1.00  0.00    -0.020 C 
HETATM   26  C32 UNL     1      10.594  16.545  11.508  1.00  0.00     0.033 C 
HETATM   27  C33 UNL     1       9.893  17.797  11.075  1.00  0.00     0.017 C 
HETATM   28  C34 UNL     1      11.782  16.848  12.359  1.00  0.00     0.131 C 
HETATM   29  C35 UNL     1      11.656  17.526  13.629  1.00  0.00     0.041 C 
HETATM   30  C36 UNL     1      12.089  18.976  13.493  1.00  0.00     0.015 C 
ENDROOT
BRANCH   7  31
HETATM   31  C12 UNL     1       8.633  13.854  17.865  1.00  0.00     0.225 C 
HETATM   32  O3  UNL     1       9.510  14.242  18.675  1.00  0.00    -0.273 OA
HETATM   33  N1  UNL     1       7.272  14.056  18.203  1.00  0.00    -0.361 N 
ATOM     34  H1  UNL     1       6.565  13.734  17.540  1.00  0.00     0.162 HD
BRANCH  33  35
HETATM   35  C13 UNL     1       6.820  14.679  19.407  1.00  0.00     0.123 C 
BRANCH  35  36
HETATM   36  C14 UNL     1       5.343  14.985  19.408  1.00  0.00     0.023 C 
BRANCH  36  37
HETATM   37  C15 UNL     1       4.979  15.852  20.598  1.00  0.00    -0.021 C 
HETATM   38  C16 UNL     1       4.066  16.973  20.168  1.00  0.00     0.009 C 
HETATM   39  C17 UNL     1       4.318  15.089  21.703  1.00  0.00     0.009 C 
ENDBRANCH  36  37
ENDBRANCH  35  36
ENDBRANCH  33  35
ENDBRANCH   7  31
BRANCH   8  40
HETATM   40  O4  UNL     1       7.847  11.142  16.465  1.00  0.00    -0.388 OA
HETATM   41  C19 UNL     1       8.919  10.460  15.955  1.00  0.00     0.202 C 
ENDBRANCH   8  40
BRANCH   1  42
HETATM   42  C5  UNL     1      10.655  18.145  15.752  1.00  0.00     0.012 C 
HETATM   43  C6  UNL     1       9.651  19.251  16.024  1.00  0.00     0.012 C 
BRANCH  42  44
HETATM   44  C4  UNL     1      10.794  17.269  16.940  1.00  0.00     0.010 C 
BRANCH  44  45
HETATM   45  C3  UNL     1      11.221  18.034  18.186  1.00  0.00     0.027 C 
BRANCH  45  46
HETATM   46  C2  UNL     1      10.898  17.302  19.425  1.00  0.00    -0.037 C 
HETATM   47  C1  UNL     1      11.615  17.328  20.522  1.00  0.00     0.007 C 
ENDBRANCH  45  46
ENDBRANCH  44  45
ENDBRANCH  42  44
ENDBRANCH   1  42
BRANCH  28  48
HETATM   48  O7  UNL     1      12.620  15.693  12.457  1.00  0.00    -0.394 OA
ATOM     49  H7  UNL     1      13.380  15.888  12.991  1.00  0.00     0.210 HD
ENDBRANCH  28  48
BRANCH  16  50
HETATM   50  N3  UNL     1       5.136  13.079  10.748  1.00  0.00    -0.414 N 
HETATM   51  C24 UNL     1       5.208  11.664  10.790  1.00  0.00     0.140 C 
ATOM     52  H3  UNL     1       4.482  13.554  10.128  1.00  0.00     0.153 HD
ENDBRANCH  16  50
TORSDOF 11
ENDMDL
MODEL 5
REMARK VINA RESULT: -5.248757085     12.298     17.741
REMARK  11 active torsions:
REMARK  status: ('A' for Active; 'I' for Inactive)
REMARK    1  A    between atoms: C2_2  and  C3_3 
REMARK    2  A    between atoms: C3_3  and  C4_4 
REMARK    3  A    between atoms: C4_4  and  C5_5 
REMARK    4  A    between atoms: C5_5  and  C7_7 
REMARK    5  A    between atoms: C11_13  and  C12_14 
REMARK       I    between atoms: C12_14  and  N1_16 
REMARK    6  A    between atoms: N1_16  and  C13_18 
REMARK    7  A    between atoms: C13_18  and  C14_19 
REMARK    8  A    between atoms: C14_19  and  C15_20 
REMARK    9  A    between atoms: C18_23  and  O4_24 
REMARK   10  A    between atoms: C23_33  and  N3_34 
REMARK   11  A    between atoms: C34_48  and  O7_49 
ROOT
HETATM    1  C7  UNL     1      20.654  25.379  16.186  1.00  0.00     0.141 C 
HETATM    2  O1  UNL     1      21.117  25.586  17.451  1.00  0.00    -0.315 OA
HETATM    3  C8  UNL     1      20.988  25.198  18.710  1.00  0.00     0.264 C 
HETATM    4  O2  UNL     1      21.273  24.066  19.254  1.00  0.00    -0.265 OA
HETATM    5  C9  UNL     1      20.439  26.153  19.725  1.00  0.00     0.097 C 
HETATM    6  C10 UNL     1      21.005  27.518  19.626  1.00  0.00     0.021 C 
HETATM    7  C11 UNL     1      20.395  25.690  21.123  1.00  0.00     0.121 C 
HETATM    8  C18 UNL     1      21.597  25.501  21.915  1.00  0.00     0.152 C 
HETATM    9  C20 UNL     1      22.882  26.137  21.446  1.00  0.00     0.155 C 
HETATM   10  N2  UNL     1      24.033  25.497  22.113  1.00  0.00    -0.352 N 
ATOM     11  H2  UNL     1      24.289  25.808  23.051  1.00  0.00     0.162 HD
HETATM   12  C21 UNL     1      24.802  24.464  21.507  1.00  0.00     0.289 C 
HETATM   13  O5  UNL     1      25.047  23.408  22.192  1.00  0.00    -0.264 OA
HETATM   14  C22 UNL     1      25.337  24.514  20.155  1.00  0.00     0.239 C 
HETATM   15  O6  UNL     1      25.234  23.487  19.437  1.00  0.00    -0.285 OA
HETATM   16  C23 UNL     1      26.002  25.747  19.609  1.00  0.00     0.166 C 
HETATM   17  C25 UNL     1      25.914  25.853  18.134  1.00  0.00     0.088 C 
HETATM   18  C26 UNL     1      26.815  24.974  17.340  1.00  0.00     0.019 C 
HETATM   19  C27 UNL     1      26.250  27.296  17.749  1.00  0.00     0.267 C 
HETATM   20  F1  UNL     1      27.435  27.683  18.415  1.00  0.00    -0.201 F 
HETATM   21  F2  UNL     1      25.302  28.183  18.210  1.00  0.00    -0.201 F 
HETATM   22  C28 UNL     1      26.565  27.440  16.315  1.00  0.00     0.051 C 
HETATM   23  C29 UNL     1      25.943  28.188  15.424  1.00  0.00     0.002 C 
HETATM   24  C30 UNL     1      24.801  29.060  15.598  1.00  0.00    -0.004 C 
HETATM   25  C31 UNL     1      23.524  28.756  15.685  1.00  0.00    -0.020 C 
HETATM   26  C32 UNL     1      22.865  27.432  15.628  1.00  0.00     0.033 C 
HETATM   27  C33 UNL     1      23.508  26.485  14.660  1.00  0.00     0.017 C 
HETATM   28  C34 UNL     1      21.427  27.660  15.299  1.00  0.00     0.131 C 
HETATM   29  C35 UNL     1      20.463  26.584  15.313  1.00  0.00     0.041 C 
HETATM   30  C36 UNL     1      20.137  26.157  13.891  1.00  0.00     0.015 C 
ENDROOT
BRANCH   7  31
HETATM   31  C12 UNL     1      19.534  24.449  21.241  1.00  0.00     0.225 C 
HETATM   32  O3  UNL     1      19.772  23.536  22.069  1.00  0.00    -0.273 OA
HETATM   33  N1  UNL     1      18.411  24.304  20.388  1.00  0.00    -0.361 N 
ATOM     34  H1  UNL     1      18.227  25.049  19.716  1.00  0.00     0.162 HD
BRANCH  33  35
HETATM   35  C13 UNL     1      17.520  23.187  20.404  1.00  0.00     0.123 C 
BRANCH  35  36
HETATM   36  C14 UNL     1      17.924  22.082  19.461  1.00  0.00     0.023 C 
BRANCH  36  37
HETATM   37  C15 UNL     1      16.733  21.205  19.127  1.00  0.00    -0.021 C 
HETATM   38  C16 UNL     1      15.464  22.021  19.136  1.00  0.00     0.009 C 
HETATM   39  C17 UNL     1      16.857  20.523  17.800  1.00  0.00     0.009 C 
ENDBRANCH  36  37
ENDBRANCH  35  36
ENDBRANCH  33  35
ENDBRANCH   7  31
BRANCH   8  40
HETATM   40  O4  UNL     1      21.394  26.074  23.198  1.00  0.00    -0.388 OA
HETATM   41  C19 UNL     1      21.109  27.413  23.157  1.00  0.00     0.202 C 
ENDBRANCH   8  40
BRANCH   1  42
HETATM   42  C5  UNL     1      19.407  24.526  16.049  1.00  0.00     0.012 C 
HETATM   43  C6  UNL     1      19.610  23.112  16.563  1.00  0.00     0.012 C 
BRANCH  42  44
HETATM   44  C4  UNL     1      18.166  25.108  16.614  1.00  0.00     0.010 C 
BRANCH  44  45
HETATM   45  C3  UNL     1      16.972  24.963  15.680  1.00  0.00     0.027 C 
BRANCH  45  46
HETATM   46  C2  UNL     1      16.150  23.783  16.009  1.00  0.00    -0.037 C 
HETATM   47  C1  UNL     1      15.795  22.853  15.156  1.00  0.00     0.007 C 
ENDBRANCH  45  46
ENDBRANCH  44  45
ENDBRANCH  42  44
ENDBRANCH   1  42
BRANCH  28  48
HETATM   48  O7  UNL     1      20.944  28.812  15.997  1.00  0.00    -0.394 OA
ATOM     49  H7  UNL     1      20.011  28.729  16.152  1.00  0.00     0.210 HD
ENDBRANCH  28  48
BRANCH  16  50
HETATM   50  N3  UNL     1      27.282  25.970  20.181  1.00  0.00    -0.414 N 
HETATM   51  C24 UNL     1      27.353  26.749  21.363  1.00  0.00     0.140 C 
ATOM     52  H3  UNL     1      28.123  25.583  19.755  1.00  0.00     0.153 HD
ENDBRANCH  16  50
TORSDOF 11
ENDMDL
