MODEL 1
REMARK VINA RESULT: -7.528300661      0.000      0.000
REMARK  7 active torsions:
REMARK  status: ('A' for Active; 'I' for Inactive)
REMARK    1  A    between atoms: N1_4  and  C4_5 
REMARK    2  A    between atoms: C4_5  and  C6_7 
REMARK    3  A    between atoms: C8_9  and  S1_10 
REMARK    4  A    between atoms: S1_10  and  S2_11 
REMARK    5  A    between atoms: S2_11  and  C9_12 
REMARK    6  A    between atoms: C9_12  and  N2_14 
REMARK    7  A    between atoms: C15_20  and  C16_21 
ROOT
HETATM    1  C1  UNL     1      21.773  54.461  30.367  1.00  0.00     0.021 C 
HETATM    2  C2  UNL     1      20.512  54.189  30.330  1.00  0.00    -0.036 C 
HETATM    3  C3  UNL     1      19.922  52.845  30.713  1.00  0.00     0.162 C 
HETATM    4  N1  UNL     1      18.897  52.811  29.643  1.00  0.00    -0.366 N 
HETATM    5  C8  UNL     1      18.370  54.116  29.552  1.00  0.00     0.090 C 
HETATM    6  C15 UNL     1      19.328  54.975  29.955  1.00  0.00     0.037 C 
ENDROOT
BRANCH   5   7
HETATM    7  S1  UNL     1      16.751  54.673  29.115  1.00  0.00    -0.032 SA
BRANCH   7   8
HETATM    8  S2  UNL     1      16.107  54.059  27.227  1.00  0.00    -0.021 SA
BRANCH   8   9
HETATM    9  C9  UNL     1      15.706  52.357  27.062  1.00  0.00     0.147 C 
HETATM   10  S3  UNL     1      16.693  51.497  26.030  1.00  0.00    -0.052 SA
BRANCH   9  11
HETATM   11  N2  UNL     1      14.671  51.643  27.684  1.00  0.00    -0.366 N 
HETATM   12  C10 UNL     1      14.743  50.237  27.959  1.00  0.00     0.124 C 
HETATM   13  C11 UNL     1      13.535  49.873  28.826  1.00  0.00     0.020 C 
HETATM   14  C12 UNL     1      12.300  50.144  27.990  1.00  0.00     0.003 C 
HETATM   15  C13 UNL     1      12.216  51.611  27.616  1.00  0.00     0.020 C 
HETATM   16  C14 UNL     1      13.457  52.357  28.071  1.00  0.00     0.124 C 
ENDBRANCH   9  11
ENDBRANCH   8   9
ENDBRANCH   7   8
ENDBRANCH   5   7
BRANCH   4  17
HETATM   17  C4  UNL     1      18.486  51.678  28.853  1.00  0.00     0.081 C 
HETATM   18  C5  UNL     1      18.302  50.544  29.905  1.00  0.00     0.032 C 
BRANCH  17  19
HETATM   19  C6  UNL     1      19.663  51.183  28.012  1.00  0.00     0.020 C 
HETATM   20  C7  UNL     1      20.001  52.177  26.942  1.00  0.00     0.007 C 
ENDBRANCH  17  19
ENDBRANCH   4  17
BRANCH   6  21
HETATM   21  C16 UNL     1      19.280  56.455  30.031  1.00  0.00     0.219 C 
HETATM   22 CL1  UNL     1      19.239  57.238  28.446  1.00  0.00    -0.078 Cl
HETATM   23 CL2  UNL     1      20.700  57.040  30.966  1.00  0.00    -0.078 Cl
HETATM   24 CL3  UNL     1      17.849  56.944  31.005  1.00  0.00    -0.078 Cl
ENDBRANCH   6  21
TORSDOF 7
ENDMDL
MODEL 2
REMARK VINA RESULT: -7.477020666      1.066      1.581
REMARK  7 active torsions:
REMARK  status: ('A' for Active; 'I' for Inactive)
REMARK    1  A    between atoms: N1_4  and  C4_5 
REMARK    2  A    between atoms: C4_5  and  C6_7 
REMARK    3  A    between atoms: C8_9  and  S1_10 
REMARK    4  A    between atoms: S1_10  and  S2_11 
REMARK    5  A    between atoms: S2_11  and  C9_12 
REMARK    6  A    between atoms: C9_12  and  N2_14 
REMARK    7  A    between atoms: C15_20  and  C16_21 
ROOT
HETATM    1  C1  UNL     1      21.602  54.428  30.392  1.00  0.00     0.021 C 
HETATM    2  C2  UNL     1      20.353  54.161  30.205  1.00  0.00    -0.036 C 
HETATM    3  C3  UNL     1      19.718  52.816  30.503  1.00  0.00     0.162 C 
HETATM    4  N1  UNL     1      18.825  52.798  29.321  1.00  0.00    -0.366 N 
HETATM    5  C8  UNL     1      18.316  54.106  29.182  1.00  0.00     0.090 C 
HETATM    6  C15 UNL     1      19.223  54.957  29.703  1.00  0.00     0.037 C 
ENDROOT
BRANCH   5   7
HETATM    7  S1  UNL     1      16.760  54.674  28.566  1.00  0.00    -0.032 SA
BRANCH   7   8
HETATM    8  S2  UNL     1      15.719  53.269  27.426  1.00  0.00    -0.021 SA
BRANCH   8   9
HETATM    9  C9  UNL     1      14.790  52.079  28.325  1.00  0.00     0.147 C 
HETATM   10  S3  UNL     1      15.381  51.726  29.843  1.00  0.00    -0.052 SA
BRANCH   9  11
HETATM   11  N2  UNL     1      13.630  51.400  27.927  1.00  0.00    -0.366 N 
HETATM   12  C10 UNL     1      12.350  52.036  27.808  1.00  0.00     0.124 C 
HETATM   13  C11 UNL     1      11.395  51.037  27.150  1.00  0.00     0.020 C 
HETATM   14  C12 UNL     1      11.270  49.862  28.100  1.00  0.00     0.003 C 
HETATM   15  C13 UNL     1      12.616  49.197  28.311  1.00  0.00     0.020 C 
HETATM   16  C14 UNL     1      13.719  49.975  27.618  1.00  0.00     0.124 C 
ENDBRANCH   9  11
ENDBRANCH   8   9
ENDBRANCH   7   8
ENDBRANCH   5   7
BRANCH   4  17
HETATM   17  C4  UNL     1      18.504  51.674  28.477  1.00  0.00     0.081 C 
HETATM   18  C5  UNL     1      19.194  50.472  29.188  1.00  0.00     0.032 C 
BRANCH  17  19
HETATM   19  C6  UNL     1      19.273  51.785  27.160  1.00  0.00     0.020 C 
HETATM   20  C7  UNL     1      18.858  50.698  26.215  1.00  0.00     0.007 C 
ENDBRANCH  17  19
ENDBRANCH   4  17
BRANCH   6  21
HETATM   21  C16 UNL     1      19.171  56.436  29.787  1.00  0.00     0.219 C 
HETATM   22 CL1  UNL     1      19.228  57.231  28.210  1.00  0.00    -0.078 Cl
HETATM   23 CL2  UNL     1      20.532  57.012  30.812  1.00  0.00    -0.078 Cl
HETATM   24 CL3  UNL     1      17.684  56.919  30.677  1.00  0.00    -0.078 Cl
ENDBRANCH   6  21
TORSDOF 7
ENDMDL
MODEL 3
REMARK VINA RESULT: -7.356718768      1.072      1.891
REMARK  7 active torsions:
REMARK  status: ('A' for Active; 'I' for Inactive)
REMARK    1  A    between atoms: N1_4  and  C4_5 
REMARK    2  A    between atoms: C4_5  and  C6_7 
REMARK    3  A    between atoms: C8_9  and  S1_10 
REMARK    4  A    between atoms: S1_10  and  S2_11 
REMARK    5  A    between atoms: S2_11  and  C9_12 
REMARK    6  A    between atoms: C9_12  and  N2_14 
REMARK    7  A    between atoms: C15_20  and  C16_21 
ROOT
HETATM    1  C1  UNL     1      21.587  54.427  30.394  1.00  0.00     0.021 C 
HETATM    2  C2  UNL     1      20.338  54.156  30.218  1.00  0.00    -0.036 C 
HETATM    3  C3  UNL     1      19.711  52.807  30.516  1.00  0.00     0.162 C 
HETATM    4  N1  UNL     1      18.807  52.790  29.342  1.00  0.00    -0.366 N 
HETATM    5  C8  UNL     1      18.292  54.096  29.214  1.00  0.00     0.090 C 
HETATM    6  C15 UNL     1      19.199  54.949  29.730  1.00  0.00     0.037 C 
ENDROOT
BRANCH   5   7
HETATM    7  S1  UNL     1      16.727  54.660  28.615  1.00  0.00    -0.032 SA
BRANCH   7   8
HETATM    8  S2  UNL     1      15.688  53.261  27.465  1.00  0.00    -0.021 SA
BRANCH   8   9
HETATM    9  C9  UNL     1      14.746  52.076  28.355  1.00  0.00     0.147 C 
HETATM   10  S3  UNL     1      15.302  51.743  29.891  1.00  0.00    -0.052 SA
BRANCH   9  11
HETATM   11  N2  UNL     1      13.600  51.384  27.936  1.00  0.00    -0.366 N 
HETATM   12  C10 UNL     1      12.329  52.021  27.737  1.00  0.00     0.124 C 
HETATM   13  C11 UNL     1      11.398  50.998  27.081  1.00  0.00     0.020 C 
HETATM   14  C12 UNL     1      11.226  49.865  28.074  1.00  0.00     0.003 C 
HETATM   15  C13 UNL     1      12.557  49.204  28.370  1.00  0.00     0.020 C 
HETATM   16  C14 UNL     1      13.693  49.947  27.692  1.00  0.00     0.124 C 
ENDBRANCH   9  11
ENDBRANCH   8   9
ENDBRANCH   7   8
ENDBRANCH   5   7
BRANCH   4  17
HETATM   17  C4  UNL     1      18.483  51.668  28.496  1.00  0.00     0.081 C 
HETATM   18  C5  UNL     1      19.137  50.457  29.225  1.00  0.00     0.032 C 
BRANCH  17  19
HETATM   19  C6  UNL     1      19.280  51.760  27.194  1.00  0.00     0.020 C 
HETATM   20  C7  UNL     1      18.852  50.687  26.238  1.00  0.00     0.007 C 
ENDBRANCH  17  19
ENDBRANCH   4  17
BRANCH   6  21
HETATM   21  C16 UNL     1      19.142  56.427  29.821  1.00  0.00     0.219 C 
HETATM   22 CL1  UNL     1      17.704  57.024  30.658  1.00  0.00    -0.078 Cl
HETATM   23 CL2  UNL     1      19.216  57.120  28.163  1.00  0.00    -0.078 Cl
HETATM   24 CL3  UNL     1      20.631  57.020  30.639  1.00  0.00    -0.078 Cl
ENDBRANCH   6  21
TORSDOF 7
ENDMDL
MODEL 4
REMARK VINA RESULT: -7.346026529      1.074      1.506
REMARK  7 active torsions:
REMARK  status: ('A' for Active; 'I' for Inactive)
REMARK    1  A    between atoms: N1_4  and  C4_5 
REMARK    2  A    between atoms: C4_5  and  C6_7 
REMARK    3  A    between atoms: C8_9  and  S1_10 
REMARK    4  A    between atoms: S1_10  and  S2_11 
REMARK    5  A    between atoms: S2_11  and  C9_12 
REMARK    6  A    between atoms: C9_12  and  N2_14 
REMARK    7  A    between atoms: C15_20  and  C16_21 
ROOT
HETATM    1  C1  UNL     1      21.879  54.771  30.555  1.00  0.00     0.021 C 
HETATM    2  C2  UNL     1      20.724  54.278  30.259  1.00  0.00    -0.036 C 
HETATM    3  C3  UNL     1      20.355  52.817  30.428  1.00  0.00     0.162 C 
HETATM    4  N1  UNL     1      19.560  52.709  29.182  1.00  0.00    -0.366 N 
HETATM    5  C8  UNL     1      18.808  53.898  29.083  1.00  0.00     0.090 C 
HETATM    6  C15 UNL     1      19.490  54.870  29.720  1.00  0.00     0.037 C 
ENDROOT
BRANCH   5   7
HETATM    7  S1  UNL     1      17.211  54.192  28.385  1.00  0.00    -0.032 SA
BRANCH   7   8
HETATM    8  S2  UNL     1      15.686  53.019  29.195  1.00  0.00    -0.021 SA
BRANCH   8   9
HETATM    9  C9  UNL     1      14.479  52.429  28.063  1.00  0.00     0.147 C 
HETATM   10  S3  UNL     1      14.342  53.312  26.656  1.00  0.00    -0.052 SA
BRANCH   9  11
HETATM   11  N2  UNL     1      13.629  51.322  28.198  1.00  0.00    -0.366 N 
HETATM   12  C10 UNL     1      14.095  49.966  28.156  1.00  0.00     0.124 C 
HETATM   13  C11 UNL     1      12.924  49.062  28.551  1.00  0.00     0.020 C 
HETATM   14  C12 UNL     1      11.855  49.244  27.492  1.00  0.00     0.003 C 
HETATM   15  C13 UNL     1      11.379  50.683  27.451  1.00  0.00     0.020 C 
HETATM   16  C14 UNL     1      12.199  51.551  28.387  1.00  0.00     0.124 C 
ENDBRANCH   9  11
ENDBRANCH   8   9
ENDBRANCH   7   8
ENDBRANCH   5   7
BRANCH   4  17
HETATM   17  C4  UNL     1      19.526  51.608  28.252  1.00  0.00     0.081 C 
HETATM   18  C5  UNL     1      19.421  52.304  26.862  1.00  0.00     0.032 C 
BRANCH  17  19
HETATM   19  C6  UNL     1      18.189  50.874  28.374  1.00  0.00     0.020 C 
HETATM   20  C7  UNL     1      17.611  50.604  27.017  1.00  0.00     0.007 C 
ENDBRANCH  17  19
ENDBRANCH   4  17
BRANCH   6  21
HETATM   21  C16 UNL     1      19.136  56.300  29.887  1.00  0.00     0.219 C 
HETATM   22 CL1  UNL     1      19.283  57.238  28.397  1.00  0.00    -0.078 Cl
HETATM   23 CL2  UNL     1      20.179  57.015  31.166  1.00  0.00    -0.078 Cl
HETATM   24 CL3  UNL     1      17.462  56.416  30.534  1.00  0.00    -0.078 Cl
ENDBRANCH   6  21
TORSDOF 7
ENDMDL
MODEL 5
REMARK VINA RESULT: -7.298516633      1.056      1.766
REMARK  7 active torsions:
REMARK  status: ('A' for Active; 'I' for Inactive)
REMARK    1  A    between atoms: N1_4  and  C4_5 
REMARK    2  A    between atoms: C4_5  and  C6_7 
REMARK    3  A    between atoms: C8_9  and  S1_10 
REMARK    4  A    between atoms: S1_10  and  S2_11 
REMARK    5  A    between atoms: S2_11  and  C9_12 
REMARK    6  A    between atoms: C9_12  and  N2_14 
REMARK    7  A    between atoms: C15_20  and  C16_21 
ROOT
HETATM    1  C1  UNL     1      21.849  54.802  30.651  1.00  0.00     0.021 C 
HETATM    2  C2  UNL     1      20.700  54.313  30.323  1.00  0.00    -0.036 C 
HETATM    3  C3  UNL     1      20.341  52.843  30.429  1.00  0.00     0.162 C 
HETATM    4  N1  UNL     1      19.561  52.780  29.171  1.00  0.00    -0.366 N 
HETATM    5  C8  UNL     1      18.801  53.966  29.110  1.00  0.00     0.090 C 
HETATM    6  C15 UNL     1      19.468  54.917  29.794  1.00  0.00     0.037 C 
ENDROOT
BRANCH   5   7
HETATM    7  S1  UNL     1      17.210  54.276  28.406  1.00  0.00    -0.032 SA
BRANCH   7   8
HETATM    8  S2  UNL     1      15.674  53.103  29.195  1.00  0.00    -0.021 SA
BRANCH   8   9
HETATM    9  C9  UNL     1      14.513  52.468  28.039  1.00  0.00     0.147 C 
HETATM   10  S3  UNL     1      14.427  53.302  26.599  1.00  0.00    -0.052 SA
BRANCH   9  11
HETATM   11  N2  UNL     1      13.663  51.361  28.179  1.00  0.00    -0.366 N 
HETATM   12  C10 UNL     1      14.126  50.004  28.119  1.00  0.00     0.124 C 
HETATM   13  C11 UNL     1      12.960  49.100  28.526  1.00  0.00     0.020 C 
HETATM   14  C12 UNL     1      11.874  49.292  27.486  1.00  0.00     0.003 C 
HETATM   15  C13 UNL     1      11.400  50.732  27.464  1.00  0.00     0.020 C 
HETATM   16  C14 UNL     1      12.237  51.592  28.394  1.00  0.00     0.124 C 
ENDBRANCH   9  11
ENDBRANCH   8   9
ENDBRANCH   7   8
ENDBRANCH   5   7
BRANCH   4  17
HETATM   17  C4  UNL     1      19.546  51.717  28.198  1.00  0.00     0.081 C 
HETATM   18  C5  UNL     1      19.288  52.455  26.851  1.00  0.00     0.032 C 
BRANCH  17  19
HETATM   19  C6  UNL     1      18.283  50.873  28.378  1.00  0.00     0.020 C 
HETATM   20  C7  UNL     1      17.719  50.477  27.047  1.00  0.00     0.007 C 
ENDBRANCH  17  19
ENDBRANCH   4  17
BRANCH   6  21
HETATM   21  C16 UNL     1      19.102  56.336  30.013  1.00  0.00     0.219 C 
HETATM   22 CL1  UNL     1      17.467  56.549  30.650  1.00  0.00    -0.078 Cl
HETATM   23 CL2  UNL     1      19.276  57.233  28.464  1.00  0.00    -0.078 Cl
HETATM   24 CL3  UNL     1      20.304  57.086  31.122  1.00  0.00    -0.078 Cl
ENDBRANCH   6  21
TORSDOF 7
ENDMDL
