MODEL 1
REMARK VINA RESULT: -8.117482680      0.000      0.000
REMARK  5 active torsions:
REMARK  status: ('A' for Active; 'I' for Inactive)
REMARK    1  A    between atoms: C4_6  and  C5_7 
REMARK    2  A    between atoms: C5_7  and  C6_8 
REMARK    3  A    between atoms: C12_17  and  N4_18 
REMARK    4  A    between atoms: C15_21  and  C16_22 
REMARK    5  A    between atoms: C22_28  and  C24_30 
ROOT
HETATM    1  C1  UNL     1      16.147  55.187  28.017  1.00  0.00     0.052 C 
HETATM    2  C2  UNL     1      15.594  53.822  28.016  1.00  0.00    -0.017 A 
HETATM    3  C3  UNL     1      14.312  53.649  27.433  1.00  0.00     0.098 A 
HETATM    4  N1  UNL     1      13.764  52.448  27.332  1.00  0.00    -0.354 N 
ATOM      5  H1  UNL     1      12.840  52.354  26.909  1.00  0.00     0.166 HD
HETATM    6  C4  UNL     1      14.395  51.358  27.773  1.00  0.00     0.104 A 
HETATM    7  N2  UNL     1      15.636  51.485  28.343  1.00  0.00    -0.241 N 
HETATM    8  N3  UNL     1      16.391  50.547  28.800  1.00  0.00    -0.276 N 
ATOM      9  H3  UNL     1      16.149  49.556  28.808  1.00  0.00     0.189 HD
HETATM   10  C12 UNL     1      17.574  51.071  29.278  1.00  0.00     0.130 A 
HETATM   11  C15 UNL     1      17.499  52.432  29.079  1.00  0.00     0.041 A 
HETATM   12  C25 UNL     1      16.226  52.695  28.465  1.00  0.00     0.079 A 
ENDROOT
BRANCH  11  13
HETATM   13  C16 UNL     1      18.506  53.459  29.254  1.00  0.00    -0.058 C 
HETATM   14  C17 UNL     1      18.694  54.504  28.150  1.00  0.00     0.041 C 
HETATM   15  C18 UNL     1      19.144  55.770  28.934  1.00  0.00     0.007 C 
HETATM   16  C19 UNL     1      17.952  56.284  29.670  1.00  0.00     0.007 C 
HETATM   17  C22 UNL     1      19.947  55.110  30.033  1.00  0.00     0.065 C 
HETATM   18  C20 UNL     1      17.718  55.252  30.745  1.00  0.00     0.010 C 
HETATM   19  C21 UNL     1      18.784  54.210  30.490  1.00  0.00     0.033 C 
HETATM   20  C23 UNL     1      21.122  54.393  29.459  1.00  0.00     0.025 C 
BRANCH  17  21
HETATM   21  C24 UNL     1      20.462  56.058  31.052  1.00  0.00     0.396 C 
HETATM   22  F1  UNL     1      20.798  57.295  30.431  1.00  0.00    -0.170 F 
HETATM   23  F2  UNL     1      21.733  55.568  31.421  1.00  0.00    -0.170 F 
HETATM   24  F3  UNL     1      19.810  56.271  32.202  1.00  0.00    -0.170 F 
ENDBRANCH  17  21
ENDBRANCH  11  13
BRANCH  10  25
HETATM   25  N4  UNL     1      18.473  50.207  29.891  1.00  0.00    -0.374 N 
HETATM   26  C13 UNL     1      18.309  48.881  30.418  1.00  0.00     0.150 C 
HETATM   27  C14 UNL     1      19.898  50.659  29.934  1.00  0.00     0.150 C 
ENDBRANCH  10  25
BRANCH   6  28
HETATM   28  C5  UNL     1      13.775  50.041  27.607  1.00  0.00     0.083 C 
BRANCH  28  29
HETATM   29  C6  UNL     1      12.344  49.981  28.009  1.00  0.00    -0.007 C 
HETATM   30  C7  UNL     1      11.666  48.710  27.515  1.00  0.00     0.005 C 
HETATM   31  C8  UNL     1      10.375  48.597  28.301  1.00  0.00     0.000 C 
HETATM   32  C9  UNL     1       9.495  49.783  28.030  1.00  0.00     0.000 C 
HETATM   33  C10 UNL     1      10.174  51.081  28.268  1.00  0.00     0.000 C 
HETATM   34  C11 UNL     1      11.544  51.155  27.594  1.00  0.00     0.005 C 
ENDBRANCH  28  29
ENDBRANCH   6  28
TORSDOF 5
ENDMDL
MODEL 2
REMARK VINA RESULT: -7.387538024     13.133     16.115
REMARK  5 active torsions:
REMARK  status: ('A' for Active; 'I' for Inactive)
REMARK    1  A    between atoms: C4_6  and  C5_7 
REMARK    2  A    between atoms: C5_7  and  C6_8 
REMARK    3  A    between atoms: C12_17  and  N4_18 
REMARK    4  A    between atoms: C15_21  and  C16_22 
REMARK    5  A    between atoms: C22_28  and  C24_30 
ROOT
HETATM    1  C1  UNL     1       4.893  56.297  38.539  1.00  0.00     0.052 C 
HETATM    2  C2  UNL     1       5.322  57.625  38.069  1.00  0.00    -0.017 A 
HETATM    3  C3  UNL     1       6.150  58.379  38.941  1.00  0.00     0.098 A 
HETATM    4  N1  UNL     1       6.634  59.556  38.576  1.00  0.00    -0.354 N 
ATOM      5  H1  UNL     1       7.227  60.075  39.224  1.00  0.00     0.166 HD
HETATM    6  C4  UNL     1       6.364  60.076  37.378  1.00  0.00     0.104 A 
HETATM    7  N2  UNL     1       5.566  59.378  36.506  1.00  0.00    -0.241 N 
HETATM    8  N3  UNL     1       5.221  59.716  35.312  1.00  0.00    -0.276 N 
ATOM      9  H3  UNL     1       5.495  60.583  34.851  1.00  0.00     0.189 HD
HETATM   10  C12 UNL     1       4.426  58.742  34.747  1.00  0.00     0.130 A 
HETATM   11  C15 UNL     1       4.301  57.750  35.695  1.00  0.00     0.041 A 
HETATM   12  C25 UNL     1       5.052  58.175  36.845  1.00  0.00     0.079 A 
ENDROOT
BRANCH  11  13
HETATM   13  C16 UNL     1       3.706  56.433  35.597  1.00  0.00    -0.058 C 
HETATM   14  C17 UNL     1       2.354  56.284  34.891  1.00  0.00     0.041 C 
HETATM   15  C18 UNL     1       2.434  54.859  34.271  1.00  0.00     0.007 C 
HETATM   16  C19 UNL     1       3.393  54.923  33.131  1.00  0.00     0.007 C 
HETATM   17  C22 UNL     1       3.246  54.166  35.344  1.00  0.00     0.065 C 
HETATM   18  C20 UNL     1       4.735  55.108  33.796  1.00  0.00     0.010 C 
HETATM   19  C21 UNL     1       4.405  55.179  35.270  1.00  0.00     0.033 C 
HETATM   20  C23 UNL     1       2.496  54.147  36.632  1.00  0.00     0.025 C 
BRANCH  17  21
HETATM   21  C24 UNL     1       3.599  52.763  35.016  1.00  0.00     0.396 C 
HETATM   22  F1  UNL     1       4.958  52.696  34.595  1.00  0.00    -0.170 F 
HETATM   23  F2  UNL     1       2.913  52.466  33.820  1.00  0.00    -0.170 F 
HETATM   24  F3  UNL     1       3.317  51.757  35.853  1.00  0.00    -0.170 F 
ENDBRANCH  17  21
ENDBRANCH  11  13
BRANCH  10  25
HETATM   25  N4  UNL     1       3.888  58.983  33.488  1.00  0.00    -0.374 N 
HETATM   26  C13 UNL     1       4.216  58.449  32.196  1.00  0.00     0.150 C 
HETATM   27  C14 UNL     1       2.687  59.871  33.444  1.00  0.00     0.150 C 
ENDBRANCH  10  25
BRANCH   6  28
HETATM   28  C5  UNL     1       6.951  61.362  36.994  1.00  0.00     0.083 C 
BRANCH  28  29
HETATM   29  C6  UNL     1       7.219  61.504  35.538  1.00  0.00    -0.007 C 
HETATM   30  C7  UNL     1       8.669  61.189  35.193  1.00  0.00     0.005 C 
HETATM   31  C8  UNL     1       8.704  60.996  33.689  1.00  0.00     0.000 C 
HETATM   32  C9  UNL     1       8.276  62.255  32.992  1.00  0.00     0.000 C 
HETATM   33  C10 UNL     1       6.958  62.759  33.454  1.00  0.00     0.000 C 
HETATM   34  C11 UNL     1       6.860  62.826  34.977  1.00  0.00     0.005 C 
ENDBRANCH  28  29
ENDBRANCH   6  28
TORSDOF 5
ENDMDL
MODEL 3
REMARK VINA RESULT: -7.133037706      1.172      2.018
REMARK  5 active torsions:
REMARK  status: ('A' for Active; 'I' for Inactive)
REMARK    1  A    between atoms: C4_6  and  C5_7 
REMARK    2  A    between atoms: C5_7  and  C6_8 
REMARK    3  A    between atoms: C12_17  and  N4_18 
REMARK    4  A    between atoms: C15_21  and  C16_22 
REMARK    5  A    between atoms: C22_28  and  C24_30 
ROOT
HETATM    1  C1  UNL     1      15.040  55.209  28.150  1.00  0.00     0.052 C 
HETATM    2  C2  UNL     1      14.878  53.746  28.094  1.00  0.00    -0.017 A 
HETATM    3  C3  UNL     1      13.748  53.252  27.392  1.00  0.00     0.098 A 
HETATM    4  N1  UNL     1      13.556  51.951  27.237  1.00  0.00    -0.354 N 
ATOM      5  H1  UNL     1      12.734  51.624  26.728  1.00  0.00     0.166 HD
HETATM    6  C4  UNL     1      14.414  51.059  27.734  1.00  0.00     0.104 A 
HETATM    7  N2  UNL     1      15.519  51.498  28.419  1.00  0.00    -0.241 N 
HETATM    8  N3  UNL     1      16.454  50.785  28.945  1.00  0.00    -0.276 N 
ATOM      9  H3  UNL     1      16.487  49.765  28.928  1.00  0.00     0.189 HD
HETATM   10  C12 UNL     1      17.403  51.593  29.534  1.00  0.00     0.130 A 
HETATM   11  C15 UNL     1      16.982  52.890  29.331  1.00  0.00     0.041 A 
HETATM   12  C25 UNL     1      15.746  52.818  28.599  1.00  0.00     0.079 A 
ENDROOT
BRANCH  11  13
HETATM   13  C16 UNL     1      17.655  54.144  29.603  1.00  0.00    -0.058 C 
HETATM   14  C17 UNL     1      18.632  54.217  30.780  1.00  0.00     0.041 C 
HETATM   15  C18 UNL     1      19.679  55.266  30.306  1.00  0.00     0.007 C 
HETATM   16  C19 UNL     1      20.500  54.623  29.239  1.00  0.00     0.007 C 
HETATM   17  C22 UNL     1      18.772  56.182  29.513  1.00  0.00     0.065 C 
HETATM   18  C20 UNL     1      19.549  54.502  28.074  1.00  0.00     0.010 C 
HETATM   19  C21 UNL     1      18.246  55.053  28.607  1.00  0.00     0.033 C 
HETATM   20  C23 UNL     1      17.756  56.808  30.408  1.00  0.00     0.025 C 
BRANCH  17  21
HETATM   21  C24 UNL     1      19.488  57.280  28.819  1.00  0.00     0.396 C 
HETATM   22  F1  UNL     1      20.725  57.538  29.475  1.00  0.00    -0.170 F 
HETATM   23  F2  UNL     1      18.760  58.453  29.109  1.00  0.00    -0.170 F 
HETATM   24  F3  UNL     1      19.652  57.277  27.490  1.00  0.00    -0.170 F 
ENDBRANCH  17  21
ENDBRANCH  11  13
BRANCH  10  25
HETATM   25  N4  UNL     1      18.442  50.985  30.228  1.00  0.00    -0.374 N 
HETATM   26  C13 UNL     1      18.523  50.484  31.571  1.00  0.00     0.150 C 
HETATM   27  C14 UNL     1      19.677  50.689  29.440  1.00  0.00     0.150 C 
ENDBRANCH  10  25
BRANCH   6  28
HETATM   28  C5  UNL     1      14.190  49.629  27.507  1.00  0.00     0.083 C 
BRANCH  28  29
HETATM   29  C6  UNL     1      12.782  49.190  27.703  1.00  0.00    -0.007 C 
HETATM   30  C7  UNL     1      12.226  48.494  26.468  1.00  0.00     0.005 C 
HETATM   31  C8  UNL     1      10.971  47.778  26.926  1.00  0.00     0.000 C 
HETATM   32  C9  UNL     1       9.969  48.767  27.449  1.00  0.00     0.000 C 
HETATM   33  C10 UNL     1      10.518  49.651  28.507  1.00  0.00     0.000 C 
HETATM   34  C11 UNL     1      11.858  50.271  28.112  1.00  0.00     0.005 C 
ENDBRANCH  28  29
ENDBRANCH   6  28
TORSDOF 5
ENDMDL
MODEL 4
REMARK VINA RESULT: -6.448352728      1.117      1.532
REMARK  5 active torsions:
REMARK  status: ('A' for Active; 'I' for Inactive)
REMARK    1  A    between atoms: C4_6  and  C5_7 
REMARK    2  A    between atoms: C5_7  and  C6_8 
REMARK    3  A    between atoms: C12_17  and  N4_18 
REMARK    4  A    between atoms: C15_21  and  C16_22 
REMARK    5  A    between atoms: C22_28  and  C24_30 
ROOT
HETATM    1  C1  UNL     1      15.149  55.259  27.532  1.00  0.00     0.052 C 
HETATM    2  C2  UNL     1      15.000  53.808  27.735  1.00  0.00    -0.017 A 
HETATM    3  C3  UNL     1      13.842  53.199  27.188  1.00  0.00     0.098 A 
HETATM    4  N1  UNL     1      13.656  51.890  27.268  1.00  0.00    -0.354 N 
ATOM      5  H1  UNL     1      12.813  51.479  26.866  1.00  0.00     0.166 HD
HETATM    6  C4  UNL     1      14.549  51.098  27.864  1.00  0.00     0.104 A 
HETATM    7  N2  UNL     1      15.682  51.650  28.405  1.00  0.00    -0.241 N 
HETATM    8  N3  UNL     1      16.651  51.039  28.995  1.00  0.00    -0.276 N 
ATOM      9  H3  UNL     1      16.695  50.032  29.151  1.00  0.00     0.189 HD
HETATM   10  C12 UNL     1      17.620  51.939  29.386  1.00  0.00     0.130 A 
HETATM   11  C15 UNL     1      17.175  53.180  28.987  1.00  0.00     0.041 A 
HETATM   12  C25 UNL     1      15.904  52.982  28.345  1.00  0.00     0.079 A 
ENDROOT
BRANCH  11  13
HETATM   13  C16 UNL     1      17.847  54.464  29.005  1.00  0.00    -0.058 C 
HETATM   14  C17 UNL     1      17.003  55.737  29.123  1.00  0.00     0.041 C 
HETATM   15  C18 UNL     1      17.938  56.711  29.898  1.00  0.00     0.007 C 
HETATM   16  C19 UNL     1      18.007  56.232  31.309  1.00  0.00     0.007 C 
HETATM   17  C22 UNL     1      19.273  56.271  29.338  1.00  0.00     0.065 C 
HETATM   18  C20 UNL     1      18.803  54.953  31.219  1.00  0.00     0.010 C 
HETATM   19  C21 UNL     1      19.078  54.797  29.741  1.00  0.00     0.033 C 
HETATM   20  C23 UNL     1      19.332  56.530  27.871  1.00  0.00     0.025 C 
BRANCH  17  21
HETATM   21  C24 UNL     1      20.436  56.955  29.955  1.00  0.00     0.396 C 
HETATM   22  F1  UNL     1      19.982  57.918  30.900  1.00  0.00    -0.170 F 
HETATM   23  F2  UNL     1      20.976  57.778  28.943  1.00  0.00    -0.170 F 
HETATM   24  F3  UNL     1      21.473  56.265  30.448  1.00  0.00    -0.170 F 
ENDBRANCH  17  21
ENDBRANCH  11  13
BRANCH  10  25
HETATM   25  N4  UNL     1      18.700  51.461  30.118  1.00  0.00    -0.374 N 
HETATM   26  C13 UNL     1      19.057  51.619  31.500  1.00  0.00     0.150 C 
HETATM   27  C14 UNL     1      19.622  50.527  29.400  1.00  0.00     0.150 C 
ENDBRANCH  10  25
BRANCH   6  28
HETATM   28  C5  UNL     1      14.329  49.650  27.897  1.00  0.00     0.083 C 
BRANCH  28  29
HETATM   29  C6  UNL     1      12.898  49.247  27.919  1.00  0.00    -0.007 C 
HETATM   30  C7  UNL     1      12.487  48.531  26.640  1.00  0.00     0.005 C 
HETATM   31  C8  UNL     1      11.166  47.854  26.949  1.00  0.00     0.000 C 
HETATM   32  C9  UNL     1      10.131  48.878  27.315  1.00  0.00     0.000 C 
HETATM   33  C10 UNL     1      10.561  49.777  28.414  1.00  0.00     0.000 C 
HETATM   34  C11 UNL     1      11.955  50.358  28.180  1.00  0.00     0.005 C 
ENDBRANCH  28  29
ENDBRANCH   6  28
TORSDOF 5
ENDMDL
MODEL 5
REMARK VINA RESULT: -6.439379062      4.606      8.745
REMARK  5 active torsions:
REMARK  status: ('A' for Active; 'I' for Inactive)
REMARK    1  A    between atoms: C4_6  and  C5_7 
REMARK    2  A    between atoms: C5_7  and  C6_8 
REMARK    3  A    between atoms: C12_17  and  N4_18 
REMARK    4  A    between atoms: C15_21  and  C16_22 
REMARK    5  A    between atoms: C22_28  and  C24_30 
ROOT
HETATM    1  C1  UNL     1      13.091  53.600  26.547  1.00  0.00     0.052 C 
HETATM    2  C2  UNL     1      14.095  52.671  27.094  1.00  0.00    -0.017 A 
HETATM    3  C3  UNL     1      15.432  53.140  27.166  1.00  0.00     0.098 A 
HETATM    4  N1  UNL     1      16.388  52.397  27.701  1.00  0.00    -0.354 N 
ATOM      5  H1  UNL     1      17.341  52.759  27.740  1.00  0.00     0.166 HD
HETATM    6  C4  UNL     1      16.131  51.183  28.191  1.00  0.00     0.104 A 
HETATM    7  N2  UNL     1      14.850  50.694  28.139  1.00  0.00    -0.241 N 
HETATM    8  N3  UNL     1      14.421  49.562  28.578  1.00  0.00    -0.276 N 
ATOM      9  H3  UNL     1      15.003  48.853  29.026  1.00  0.00     0.189 HD
HETATM   10  C12 UNL     1      13.066  49.442  28.357  1.00  0.00     0.130 A 
HETATM   11  C15 UNL     1      12.673  50.608  27.737  1.00  0.00     0.041 A 
HETATM   12  C25 UNL     1      13.849  51.423  27.598  1.00  0.00     0.079 A 
ENDROOT
BRANCH  11  13
HETATM   13  C16 UNL     1      11.347  51.090  27.407  1.00  0.00    -0.058 C 
HETATM   14  C17 UNL     1      10.630  50.503  26.187  1.00  0.00     0.041 C 
HETATM   15  C18 UNL     1       9.129  50.574  26.590  1.00  0.00     0.007 C 
HETATM   16  C19 UNL     1       8.901  49.533  27.635  1.00  0.00     0.007 C 
HETATM   17  C22 UNL     1       9.149  51.852  27.400  1.00  0.00     0.065 C 
HETATM   18  C20 UNL     1       9.630  50.067  28.843  1.00  0.00     0.010 C 
HETATM   19  C21 UNL     1      10.252  51.356  28.354  1.00  0.00     0.033 C 
HETATM   20  C23 UNL     1       9.524  53.008  26.536  1.00  0.00     0.025 C 
BRANCH  17  21
HETATM   21  C24 UNL     1       7.850  52.178  28.037  1.00  0.00     0.396 C 
HETATM   22  F1  UNL     1       6.785  51.864  27.145  1.00  0.00    -0.170 F 
HETATM   23  F2  UNL     1       7.786  53.587  28.075  1.00  0.00    -0.170 F 
HETATM   24  F3  UNL     1       7.558  51.771  29.279  1.00  0.00    -0.170 F 
ENDBRANCH  17  21
ENDBRANCH  11  13
BRANCH  10  25
HETATM   25  N4  UNL     1      12.451  48.241  28.691  1.00  0.00    -0.374 N 
HETATM   26  C13 UNL     1      12.286  47.575  29.952  1.00  0.00     0.150 C 
HETATM   27  C14 UNL     1      11.731  47.539  27.584  1.00  0.00     0.150 C 
ENDBRANCH  10  25
BRANCH   6  28
HETATM   28  C5  UNL     1      17.207  50.406  28.812  1.00  0.00     0.083 C 
BRANCH  28  29
HETATM   29  C6  UNL     1      18.398  51.208  29.201  1.00  0.00    -0.007 C 
HETATM   30  C7  UNL     1      18.137  52.048  30.444  1.00  0.00     0.005 C 
HETATM   31  C8  UNL     1      19.501  52.492  30.936  1.00  0.00     0.000 C 
HETATM   32  C9  UNL     1      20.186  53.324  29.892  1.00  0.00     0.000 C 
HETATM   33  C10 UNL     1      20.268  52.653  28.571  1.00  0.00     0.000 C 
HETATM   34  C11 UNL     1      18.925  52.077  28.125  1.00  0.00     0.005 C 
ENDBRANCH  28  29
ENDBRANCH   6  28
TORSDOF 5
ENDMDL
