MODEL 1
REMARK VINA RESULT: -11.028881858      0.000      0.000
REMARK  7 active torsions:
REMARK  status: ('A' for Active; 'I' for Inactive)
REMARK    1  A    between atoms: C3_3  and  O1_4 
REMARK    2  A    between atoms: O1_4  and  C4_5 
REMARK    3  A    between atoms: C4_5  and  O2_6 
REMARK    4  A    between atoms: C4_5  and  C5_8 
REMARK    5  A    between atoms: C5_8  and  C6_9 
REMARK    6  A    between atoms: C6_9  and  C7_10 
REMARK    7  A    between atoms: C12_18  and  N1_19 
ROOT
HETATM    1  C1  UNL     1      18.299  50.597  28.775  1.00  0.00     0.017 C 
HETATM    2  C2  UNL     1      17.858  51.695  29.330  1.00  0.00    -0.055 C 
HETATM    3  C3  UNL     1      16.656  52.369  28.810  1.00  0.00     0.161 C 
HETATM    4  C11 UNL     1      16.996  53.806  28.478  1.00  0.00     0.073 C 
HETATM    5  C12 UNL     1      17.623  54.534  29.630  1.00  0.00     0.233 C 
HETATM    6  C18 UNL     1      18.688  53.791  30.335  1.00  0.00     0.067 C 
HETATM    7  C19 UNL     1      18.507  52.303  30.477  1.00  0.00     0.029 C 
HETATM    8  C20 UNL     1      20.019  52.178  30.533  1.00  0.00     0.053 C 
HETATM    9  C21 UNL     1      20.007  53.508  29.729  1.00  0.00     0.106 C 
HETATM   10  C22 UNL     1      21.174  54.324  30.308  1.00  0.00     0.052 C 
HETATM   11  F1  UNL     1      20.120  53.183  28.423  1.00  0.00    -0.243 F 
ENDROOT
BRANCH   3  12
HETATM   12  O1  UNL     1      16.052  51.700  27.745  1.00  0.00    -0.321 OA
BRANCH  12  13
HETATM   13  C4  UNL     1      14.741  51.294  27.771  1.00  0.00     0.178 C 
BRANCH  13  14
HETATM   14  O2  UNL     1      14.531  50.023  27.538  1.00  0.00    -0.341 OA
ATOM     15  H2  UNL     1      14.455  49.467  28.304  1.00  0.00     0.220 HD
ENDBRANCH  13  14
BRANCH  13  16
HETATM   16  C5  UNL     1      13.608  52.114  28.024  1.00  0.00     0.066 C 
BRANCH  16  17
HETATM   17  C6  UNL     1      12.483  52.136  27.418  1.00  0.00     0.042 C 
BRANCH  17  18
HETATM   18  C7  UNL     1      11.239  51.432  27.659  1.00  0.00     0.079 A 
HETATM   19  C8  UNL     1       9.967  52.005  27.565  1.00  0.00     0.065 A 
HETATM   20  C9  UNL     1       9.041  51.045  27.860  1.00  0.00     0.082 A 
HETATM   21 CL1  UNL     1       7.317  51.244  27.884  1.00  0.00    -0.080 Cl
HETATM   22  C10 UNL     1       9.743  49.913  28.127  1.00  0.00     0.167 A 
HETATM   23 CL2  UNL     1       9.109  48.330  28.572  1.00  0.00    -0.055 Cl
HETATM   24  O3  UNL     1      11.000  50.186  27.999  1.00  0.00    -0.297 OA
ENDBRANCH  17  18
ENDBRANCH  16  17
ENDBRANCH  13  16
ENDBRANCH  12  13
ENDBRANCH   3  12
BRANCH   5  25
HETATM   25  N1  UNL     1      17.778  55.927  29.530  1.00  0.00     0.093 N 
HETATM   26  C13 UNL     1      18.956  56.320  28.738  1.00  0.00     0.273 C 
HETATM   27  C14 UNL     1      19.249  57.792  28.882  1.00  0.00     0.030 C 
HETATM   28  C15 UNL     1      19.859  58.029  30.262  1.00  0.00     0.003 C 
HETATM   29  C16 UNL     1      19.221  57.001  31.170  1.00  0.00     0.030 C 
HETATM   30  C17 UNL     1      17.787  56.748  30.677  1.00  0.00     0.273 C 
ENDBRANCH   5  25
TORSDOF 7
ENDMDL
MODEL 2
REMARK VINA RESULT: -10.988632786      0.459      1.131
REMARK  7 active torsions:
REMARK  status: ('A' for Active; 'I' for Inactive)
REMARK    1  A    between atoms: C3_3  and  O1_4 
REMARK    2  A    between atoms: O1_4  and  C4_5 
REMARK    3  A    between atoms: C4_5  and  O2_6 
REMARK    4  A    between atoms: C4_5  and  C5_8 
REMARK    5  A    between atoms: C5_8  and  C6_9 
REMARK    6  A    between atoms: C6_9  and  C7_10 
REMARK    7  A    between atoms: C12_18  and  N1_19 
ROOT
HETATM    1  C1  UNL     1      18.280  50.591  28.750  1.00  0.00     0.017 C 
HETATM    2  C2  UNL     1      17.841  51.683  29.318  1.00  0.00    -0.055 C 
HETATM    3  C3  UNL     1      16.639  52.364  28.807  1.00  0.00     0.161 C 
HETATM    4  C11 UNL     1      16.980  53.805  28.489  1.00  0.00     0.073 C 
HETATM    5  C12 UNL     1      17.611  54.519  29.648  1.00  0.00     0.233 C 
HETATM    6  C18 UNL     1      18.676  53.768  30.343  1.00  0.00     0.067 C 
HETATM    7  C19 UNL     1      18.494  52.278  30.469  1.00  0.00     0.029 C 
HETATM    8  C20 UNL     1      20.005  52.150  30.521  1.00  0.00     0.053 C 
HETATM    9  C21 UNL     1      19.994  53.490  29.731  1.00  0.00     0.106 C 
HETATM   10  C22 UNL     1      21.163  54.298  30.316  1.00  0.00     0.052 C 
HETATM   11  F1  UNL     1      20.103  53.178  28.422  1.00  0.00    -0.243 F 
ENDROOT
BRANCH   3  12
HETATM   12  O1  UNL     1      16.032  51.708  27.737  1.00  0.00    -0.321 OA
BRANCH  12  13
HETATM   13  C4  UNL     1      14.721  51.304  27.761  1.00  0.00     0.178 C 
BRANCH  13  14
HETATM   14  O2  UNL     1      14.511  50.029  27.553  1.00  0.00    -0.341 OA
ATOM     15  H2  UNL     1      13.614  49.781  27.364  1.00  0.00     0.220 HD
ENDBRANCH  13  14
BRANCH  13  16
HETATM   16  C5  UNL     1      13.586  52.131  27.987  1.00  0.00     0.066 C 
BRANCH  16  17
HETATM   17  C6  UNL     1      12.468  52.143  27.370  1.00  0.00     0.042 C 
BRANCH  17  18
HETATM   18  C7  UNL     1      11.209  51.471  27.630  1.00  0.00     0.079 A 
HETATM   19  C8  UNL     1      11.075  50.106  27.899  1.00  0.00     0.065 A 
HETATM   20  C9  UNL     1       9.750  49.835  28.093  1.00  0.00     0.082 A 
HETATM   21 CL1  UNL     1       9.054  48.287  28.457  1.00  0.00    -0.080 Cl
HETATM   22  C10 UNL     1       9.098  51.017  27.943  1.00  0.00     0.167 A 
HETATM   23 CL2  UNL     1       7.367  51.317  28.074  1.00  0.00    -0.055 Cl
HETATM   24  O3  UNL     1       9.979  51.926  27.678  1.00  0.00    -0.297 OA
ENDBRANCH  17  18
ENDBRANCH  16  17
ENDBRANCH  13  16
ENDBRANCH  12  13
ENDBRANCH   3  12
BRANCH   5  25
HETATM   25  N1  UNL     1      17.768  55.914  29.563  1.00  0.00     0.093 N 
HETATM   26  C13 UNL     1      18.942  56.314  28.769  1.00  0.00     0.273 C 
HETATM   27  C14 UNL     1      19.238  57.784  28.928  1.00  0.00     0.030 C 
HETATM   28  C15 UNL     1      19.856  58.004  30.307  1.00  0.00     0.003 C 
HETATM   29  C16 UNL     1      19.221  56.967  31.207  1.00  0.00     0.030 C 
HETATM   30  C17 UNL     1      17.785  56.722  30.718  1.00  0.00     0.273 C 
ENDBRANCH   5  25
TORSDOF 7
ENDMDL
MODEL 3
REMARK VINA RESULT: -10.941171200      1.098      1.265
REMARK  7 active torsions:
REMARK  status: ('A' for Active; 'I' for Inactive)
REMARK    1  A    between atoms: C3_3  and  O1_4 
REMARK    2  A    between atoms: O1_4  and  C4_5 
REMARK    3  A    between atoms: C4_5  and  O2_6 
REMARK    4  A    between atoms: C4_5  and  C5_8 
REMARK    5  A    between atoms: C5_8  and  C6_9 
REMARK    6  A    between atoms: C6_9  and  C7_10 
REMARK    7  A    between atoms: C12_18  and  N1_19 
ROOT
HETATM    1  C1  UNL     1      17.799  50.664  28.514  1.00  0.00     0.017 C 
HETATM    2  C2  UNL     1      17.475  51.755  29.157  1.00  0.00    -0.055 C 
HETATM    3  C3  UNL     1      16.309  52.553  28.743  1.00  0.00     0.161 C 
HETATM    4  C11 UNL     1      16.748  53.977  28.480  1.00  0.00     0.073 C 
HETATM    5  C12 UNL     1      17.487  54.578  29.639  1.00  0.00     0.233 C 
HETATM    6  C18 UNL     1      18.520  53.712  30.241  1.00  0.00     0.067 C 
HETATM    7  C19 UNL     1      18.226  52.235  30.302  1.00  0.00     0.029 C 
HETATM    8  C20 UNL     1      19.723  51.989  30.271  1.00  0.00     0.053 C 
HETATM    9  C21 UNL     1      19.782  53.366  29.550  1.00  0.00     0.106 C 
HETATM   10  C22 UNL     1      21.037  54.049  30.115  1.00  0.00     0.052 C 
HETATM   11  F1  UNL     1      19.805  53.117  28.223  1.00  0.00    -0.243 F 
ENDROOT
BRANCH   3  12
HETATM   12  O1  UNL     1      15.602  52.003  27.673  1.00  0.00    -0.321 OA
BRANCH  12  13
HETATM   13  C4  UNL     1      14.335  51.492  27.804  1.00  0.00     0.178 C 
BRANCH  13  14
HETATM   14  O2  UNL     1      13.361  52.262  27.393  1.00  0.00    -0.341 OA
ATOM     15  H2  UNL     1      13.108  52.963  27.982  1.00  0.00     0.220 HD
ENDBRANCH  13  14
BRANCH  13  16
HETATM   16  C5  UNL     1      13.990  50.220  28.337  1.00  0.00     0.066 C 
BRANCH  16  17
HETATM   17  C6  UNL     1      13.169  49.355  27.879  1.00  0.00     0.042 C 
BRANCH  17  18
HETATM   18  C7  UNL     1      11.754  49.142  28.114  1.00  0.00     0.079 A 
HETATM   19  C8  UNL     1      10.727  49.887  27.526  1.00  0.00     0.065 A 
HETATM   20  C9  UNL     1       9.533  49.404  27.980  1.00  0.00     0.082 A 
HETATM   21 CL1  UNL     1       7.953  49.983  27.554  1.00  0.00    -0.080 Cl
HETATM   22  C10 UNL     1       9.835  48.386  28.827  1.00  0.00     0.167 A 
HETATM   23 CL2  UNL     1       8.717  47.366  29.731  1.00  0.00    -0.055 Cl
HETATM   24  O3  UNL     1      11.122  48.275  28.871  1.00  0.00    -0.297 OA
ENDBRANCH  17  18
ENDBRANCH  16  17
ENDBRANCH  13  16
ENDBRANCH  12  13
ENDBRANCH   3  12
BRANCH   5  25
HETATM   25  N1  UNL     1      17.750  55.959  29.615  1.00  0.00     0.093 N 
HETATM   26  C13 UNL     1      18.899  56.312  28.765  1.00  0.00     0.273 C 
HETATM   27  C14 UNL     1      19.322  57.743  28.979  1.00  0.00     0.030 C 
HETATM   28  C15 UNL     1      20.042  57.837  30.322  1.00  0.00     0.003 C 
HETATM   29  C16 UNL     1      19.384  56.802  31.209  1.00  0.00     0.030 C 
HETATM   30  C17 UNL     1      17.904  56.697  30.807  1.00  0.00     0.273 C 
ENDBRANCH   5  25
TORSDOF 7
ENDMDL
MODEL 4
REMARK VINA RESULT: -9.777131122      2.641      4.382
REMARK  7 active torsions:
REMARK  status: ('A' for Active; 'I' for Inactive)
REMARK    1  A    between atoms: C3_3  and  O1_4 
REMARK    2  A    between atoms: O1_4  and  C4_5 
REMARK    3  A    between atoms: C4_5  and  O2_6 
REMARK    4  A    between atoms: C4_5  and  C5_8 
REMARK    5  A    between atoms: C5_8  and  C6_9 
REMARK    6  A    between atoms: C6_9  and  C7_10 
REMARK    7  A    between atoms: C12_18  and  N1_19 
ROOT
HETATM    1  C1  UNL     1      13.061  52.584  27.387  1.00  0.00     0.017 C 
HETATM    2  C2  UNL     1      14.253  52.054  27.312  1.00  0.00    -0.055 C 
HETATM    3  C3  UNL     1      14.514  50.712  27.860  1.00  0.00     0.161 C 
HETATM    4  C11 UNL     1      15.654  50.793  28.852  1.00  0.00     0.073 C 
HETATM    5  C12 UNL     1      16.879  51.438  28.274  1.00  0.00     0.233 C 
HETATM    6  C18 UNL     1      16.633  52.677  27.508  1.00  0.00     0.067 C 
HETATM    7  C19 UNL     1      15.371  52.738  26.689  1.00  0.00     0.029 C 
HETATM    8  C20 UNL     1      15.403  54.247  26.847  1.00  0.00     0.053 C 
HETATM    9  C21 UNL     1      16.204  53.942  28.144  1.00  0.00     0.106 C 
HETATM   10  C22 UNL     1      17.283  55.036  28.203  1.00  0.00     0.052 C 
HETATM   11  F1  UNL     1      15.320  53.945  29.165  1.00  0.00    -0.243 F 
ENDROOT
BRANCH   3  12
HETATM   12  O1  UNL     1      13.383  50.091  28.392  1.00  0.00    -0.321 OA
BRANCH  12  13
HETATM   13  C4  UNL     1      12.593  49.238  27.664  1.00  0.00     0.178 C 
BRANCH  13  14
HETATM   14  O2  UNL     1      13.168  48.140  27.246  1.00  0.00    -0.341 OA
ATOM     15  H2  UNL     1      12.676  47.625  26.618  1.00  0.00     0.220 HD
ENDBRANCH  13  14
BRANCH  13  16
HETATM   16  C5  UNL     1      11.226  49.435  27.327  1.00  0.00     0.066 C 
BRANCH  16  17
HETATM   17  C6  UNL     1      10.203  49.434  28.093  1.00  0.00     0.042 C 
BRANCH  17  18
HETATM   18  C7  UNL     1       9.636  48.410  28.950  1.00  0.00     0.079 A 
HETATM   19  C8  UNL     1       8.359  47.862  28.799  1.00  0.00     0.065 A 
HETATM   20  C9  UNL     1       8.173  46.933  29.783  1.00  0.00     0.082 A 
HETATM   21 CL1  UNL     1       6.753  45.967  30.038  1.00  0.00    -0.080 Cl
HETATM   22  C10 UNL     1       9.317  46.922  30.514  1.00  0.00     0.167 A 
HETATM   23 CL2  UNL     1       9.689  45.931  31.922  1.00  0.00    -0.055 Cl
HETATM   24  O3  UNL     1      10.126  47.788  29.997  1.00  0.00    -0.297 OA
ENDBRANCH  17  18
ENDBRANCH  16  17
ENDBRANCH  13  16
ENDBRANCH  12  13
ENDBRANCH   3  12
BRANCH   5  25
HETATM   25  N1  UNL     1      18.075  51.371  29.010  1.00  0.00     0.093 N 
HETATM   26  C13 UNL     1      18.067  52.236  30.201  1.00  0.00     0.273 C 
HETATM   27  C14 UNL     1      19.444  52.355  30.804  1.00  0.00     0.030 C 
HETATM   28  C15 UNL     1      20.283  53.267  29.912  1.00  0.00     0.003 C 
HETATM   29  C16 UNL     1      19.780  53.034  28.504  1.00  0.00     0.030 C 
HETATM   30  C17 UNL     1      19.328  51.569  28.393  1.00  0.00     0.273 C 
ENDBRANCH   5  25
TORSDOF 7
ENDMDL
MODEL 5
REMARK VINA RESULT: -9.625201563      1.491      1.942
REMARK  7 active torsions:
REMARK  status: ('A' for Active; 'I' for Inactive)
REMARK    1  A    between atoms: C3_3  and  O1_4 
REMARK    2  A    between atoms: O1_4  and  C4_5 
REMARK    3  A    between atoms: C4_5  and  O2_6 
REMARK    4  A    between atoms: C4_5  and  C5_8 
REMARK    5  A    between atoms: C5_8  and  C6_9 
REMARK    6  A    between atoms: C6_9  and  C7_10 
REMARK    7  A    between atoms: C12_18  and  N1_19 
ROOT
HETATM    1  C1  UNL     1      16.574  50.405  28.057  1.00  0.00     0.017 C 
HETATM    2  C2  UNL     1      17.269  51.237  28.785  1.00  0.00    -0.055 C 
HETATM    3  C3  UNL     1      16.599  52.277  29.584  1.00  0.00     0.161 C 
HETATM    4  C11 UNL     1      17.158  53.633  29.207  1.00  0.00     0.073 C 
HETATM    5  C12 UNL     1      18.653  53.690  29.307  1.00  0.00     0.233 C 
HETATM    6  C18 UNL     1      19.366  52.539  28.717  1.00  0.00     0.067 C 
HETATM    7  C19 UNL     1      18.718  51.186  28.857  1.00  0.00     0.029 C 
HETATM    8  C20 UNL     1      19.436  50.770  27.586  1.00  0.00     0.053 C 
HETATM    9  C21 UNL     1      19.422  52.290  27.260  1.00  0.00     0.106 C 
HETATM   10  C22 UNL     1      20.788  52.562  26.608  1.00  0.00     0.052 C 
HETATM   11  F1  UNL     1      18.349  52.516  26.472  1.00  0.00    -0.243 F 
ENDROOT
BRANCH   3  12
HETATM   12  O1  UNL     1      15.207  52.232  29.513  1.00  0.00    -0.321 OA
BRANCH  12  13
HETATM   13  C4  UNL     1      14.493  52.851  28.517  1.00  0.00     0.178 C 
BRANCH  13  14
HETATM   14  O2  UNL     1      14.794  54.104  28.291  1.00  0.00    -0.341 OA
ATOM     15  H2  UNL     1      15.484  54.259  27.658  1.00  0.00     0.220 HD
ENDBRANCH  13  14
BRANCH  13  16
HETATM   16  C5  UNL     1      13.473  52.263  27.720  1.00  0.00     0.066 C 
BRANCH  16  17
HETATM   17  C6  UNL     1      12.978  51.088  27.790  1.00  0.00     0.042 C 
BRANCH  17  18
HETATM   18  C7  UNL     1      11.618  50.618  27.977  1.00  0.00     0.079 A 
HETATM   19  C8  UNL     1      10.473  51.392  27.772  1.00  0.00     0.065 A 
HETATM   20  C9  UNL     1       9.379  50.620  28.044  1.00  0.00     0.082 A 
HETATM   21 CL1  UNL     1       7.717  51.109  27.942  1.00  0.00    -0.080 Cl
HETATM   22  C10 UNL     1       9.858  49.402  28.408  1.00  0.00     0.167 A 
HETATM   23 CL2  UNL     1       8.936  47.977  28.878  1.00  0.00    -0.055 Cl
HETATM   24  O3  UNL     1      11.149  49.452  28.354  1.00  0.00    -0.297 OA
ENDBRANCH  17  18
ENDBRANCH  16  17
ENDBRANCH  13  16
ENDBRANCH  12  13
ENDBRANCH   3  12
BRANCH   5  25
HETATM   25  N1  UNL     1      19.278  54.946  29.206  1.00  0.00     0.093 N 
HETATM   26  C13 UNL     1      20.057  55.300  30.404  1.00  0.00     0.273 C 
HETATM   27  C14 UNL     1      20.478  56.747  30.378  1.00  0.00     0.030 C 
HETATM   28  C15 UNL     1      19.255  57.609  30.684  1.00  0.00     0.003 C 
HETATM   29  C16 UNL     1      18.074  56.858  30.109  1.00  0.00     0.030 C 
HETATM   30  C17 UNL     1      18.549  56.102  28.858  1.00  0.00     0.273 C 
ENDBRANCH   5  25
TORSDOF 7
ENDMDL
