MODEL 1
REMARK VINA RESULT: -4.034139722      0.000      0.000
REMARK  4 active torsions:
REMARK  status: ('A' for Active; 'I' for Inactive)
REMARK    1  A    between atoms: C2_2  and  C3_3 
REMARK    2  A    between atoms: C3_3  and  N1_4 
REMARK    3  A    between atoms: C4_6  and  N2_7 
REMARK    4  A    between atoms: N2_7  and  C5_9 
ROOT
HETATM    1  N2  UNL     1      14.478  14.356   7.679  1.00  0.00    -0.358 N 
ATOM      2  H2  UNL     1      13.973  14.351   8.565  1.00  0.00     0.162 HD
ENDROOT
BRANCH   1   3
HETATM    3  C4  UNL     1      13.882  14.996   6.558  1.00  0.00     0.173 C 
HETATM    4  N1  UNL     1      12.674  15.415   6.510  1.00  0.00    -0.383 N 
ATOM      5  H1  UNL     1      12.304  15.869   5.676  1.00  0.00     0.160 HD
BRANCH   4   6
HETATM    6  C3  UNL     1      11.847  15.218   7.696  1.00  0.00     0.147 C 
BRANCH   6   7
HETATM    7  C2  UNL     1      10.470  14.817   7.324  1.00  0.00    -0.018 C 
HETATM    8  C1  UNL     1      10.094  14.669   6.059  1.00  0.00     0.008 C 
ENDBRANCH   6   7
ENDBRANCH   4   6
ENDBRANCH   1   3
BRANCH   1   9
HETATM    9  C5  UNL     1      15.774  13.711   7.613  1.00  0.00     0.310 A 
HETATM   10  C6  UNL     1      15.943  12.354   7.145  1.00  0.00     0.289 A 
HETATM   11  N3  UNL     1      15.962  12.670   8.639  1.00  0.00    -0.049 N 
ATOM     12  H32 UNL     1      16.597  12.508   9.421  1.00  0.00     0.279 HD
ATOM     13  H31 UNL     1      15.461  12.350   9.469  1.00  0.00     0.279 HD
ENDBRANCH   1   9
TORSDOF 4
ENDMDL
MODEL 2
REMARK VINA RESULT: -3.875548612      1.581      2.016
REMARK  4 active torsions:
REMARK  status: ('A' for Active; 'I' for Inactive)
REMARK    1  A    between atoms: C2_2  and  C3_3 
REMARK    2  A    between atoms: C3_3  and  N1_4 
REMARK    3  A    between atoms: C4_6  and  N2_7 
REMARK    4  A    between atoms: N2_7  and  C5_9 
ROOT
HETATM    1  N2  UNL     1      13.498  13.168   5.854  1.00  0.00    -0.358 N 
ATOM      2  H2  UNL     1      13.167  12.307   6.290  1.00  0.00     0.162 HD
ENDROOT
BRANCH   1   3
HETATM    3  C4  UNL     1      12.688  13.785   4.862  1.00  0.00     0.173 C 
HETATM    4  N1  UNL     1      11.440  14.031   4.984  1.00  0.00    -0.383 N 
ATOM      5  H1  UNL     1      10.912  14.478   4.235  1.00  0.00     0.160 HD
BRANCH   4   6
HETATM    6  C3  UNL     1      10.798  13.647   6.237  1.00  0.00     0.147 C 
BRANCH   6   7
HETATM    7  C2  UNL     1      10.581  14.827   7.107  1.00  0.00    -0.018 C 
HETATM    8  C1  UNL     1      11.369  15.098   8.140  1.00  0.00     0.008 C 
ENDBRANCH   6   7
ENDBRANCH   4   6
ENDBRANCH   1   3
BRANCH   1   9
HETATM    9  C5  UNL     1      14.775  13.712   6.271  1.00  0.00     0.310 A 
HETATM   10  C6  UNL     1      15.694  12.979   7.111  1.00  0.00     0.289 A 
HETATM   11  N3  UNL     1      14.815  14.081   7.698  1.00  0.00    -0.049 N 
ATOM     12  H32 UNL     1      14.961  14.935   8.237  1.00  0.00     0.279 HD
ATOM     13  H31 UNL     1      14.142  14.163   8.460  1.00  0.00     0.279 HD
ENDBRANCH   1   9
TORSDOF 4
ENDMDL
MODEL 3
REMARK VINA RESULT: -3.837994162      2.068      2.734
REMARK  4 active torsions:
REMARK  status: ('A' for Active; 'I' for Inactive)
REMARK    1  A    between atoms: C2_2  and  C3_3 
REMARK    2  A    between atoms: C3_3  and  N1_4 
REMARK    3  A    between atoms: C4_6  and  N2_7 
REMARK    4  A    between atoms: N2_7  and  C5_9 
ROOT
HETATM    1  N2  UNL     1      12.917  14.835   7.523  1.00  0.00    -0.358 N 
ATOM      2  H2  UNL     1      13.310  13.946   7.831  1.00  0.00     0.162 HD
ENDROOT
BRANCH   1   3
HETATM    3  C4  UNL     1      11.621  15.202   7.979  1.00  0.00     0.173 C 
HETATM    4  N1  UNL     1      10.523  14.781   7.478  1.00  0.00    -0.383 N 
ATOM      5  H1  UNL     1       9.622  15.080   7.850  1.00  0.00     0.160 HD
BRANCH   4   6
HETATM    6  C3  UNL     1      10.607  13.855   6.354  1.00  0.00     0.147 C 
BRANCH   6   7
HETATM    7  C2  UNL     1       9.290  13.697   5.694  1.00  0.00    -0.018 C 
HETATM    8  C1  UNL     1       8.804  14.608   4.860  1.00  0.00     0.008 C 
ENDBRANCH   6   7
ENDBRANCH   4   6
ENDBRANCH   1   3
BRANCH   1   9
HETATM    9  C5  UNL     1      13.702  15.674   6.640  1.00  0.00     0.310 A 
HETATM   10  C6  UNL     1      15.096  15.417   6.361  1.00  0.00     0.289 A 
HETATM   11  N3  UNL     1      14.689  16.507   7.349  1.00  0.00    -0.049 N 
ATOM     12  H32 UNL     1      14.868  17.506   7.464  1.00  0.00     0.279 HD
ATOM     13  H31 UNL     1      14.899  16.741   8.319  1.00  0.00     0.279 HD
ENDBRANCH   1   9
TORSDOF 4
ENDMDL
MODEL 4
REMARK VINA RESULT: -3.831209397      0.810      1.073
REMARK  4 active torsions:
REMARK  status: ('A' for Active; 'I' for Inactive)
REMARK    1  A    between atoms: C2_2  and  C3_3 
REMARK    2  A    between atoms: C3_3  and  N1_4 
REMARK    3  A    between atoms: C4_6  and  N2_7 
REMARK    4  A    between atoms: N2_7  and  C5_9 
ROOT
HETATM    1  N2  UNL     1      14.573  14.372   7.534  1.00  0.00    -0.358 N 
ATOM      2  H2  UNL     1      13.818  14.060   8.144  1.00  0.00     0.162 HD
ENDROOT
BRANCH   1   3
HETATM    3  C4  UNL     1      14.345  15.491   6.686  1.00  0.00     0.173 C 
HETATM    4  N1  UNL     1      13.341  15.625   5.905  1.00  0.00    -0.383 N 
ATOM      5  H1  UNL     1      13.233  16.454   5.321  1.00  0.00     0.160 HD
BRANCH   4   6
HETATM    6  C3  UNL     1      12.357  14.549   5.883  1.00  0.00     0.147 C 
BRANCH   6   7
HETATM    7  C2  UNL     1      11.087  14.975   6.517  1.00  0.00    -0.018 C 
HETATM    8  C1  UNL     1      10.923  14.985   7.834  1.00  0.00     0.008 C 
ENDBRANCH   6   7
ENDBRANCH   4   6
ENDBRANCH   1   3
BRANCH   1   9
HETATM    9  C5  UNL     1      15.834  13.659   7.566  1.00  0.00     0.310 A 
HETATM   10  C6  UNL     1      15.953  12.274   7.173  1.00  0.00     0.289 A 
HETATM   11  N3  UNL     1      15.915  12.663   8.649  1.00  0.00    -0.049 N 
ATOM     12  H32 UNL     1      16.502  12.509   9.470  1.00  0.00     0.279 HD
ATOM     13  H31 UNL     1      15.358  12.412   9.466  1.00  0.00     0.279 HD
ENDBRANCH   1   9
TORSDOF 4
ENDMDL
MODEL 5
REMARK VINA RESULT: -3.820355272      2.221      2.920
REMARK  4 active torsions:
REMARK  status: ('A' for Active; 'I' for Inactive)
REMARK    1  A    between atoms: C2_2  and  C3_3 
REMARK    2  A    between atoms: C3_3  and  N1_4 
REMARK    3  A    between atoms: C4_6  and  N2_7 
REMARK    4  A    between atoms: N2_7  and  C5_9 
ROOT
HETATM    1  N2  UNL     1      15.313  16.115   6.295  1.00  0.00    -0.358 N 
ATOM      2  H2  UNL     1      14.975  16.201   5.337  1.00  0.00     0.162 HD
ENDROOT
BRANCH   1   3
HETATM    3  C4  UNL     1      15.007  14.931   7.022  1.00  0.00     0.173 C 
HETATM    4  N1  UNL     1      13.833  14.577   7.383  1.00  0.00    -0.383 N 
ATOM      5  H1  UNL     1      13.677  13.713   7.903  1.00  0.00     0.160 HD
BRANCH   4   6
HETATM    6  C3  UNL     1      12.724  15.455   7.024  1.00  0.00     0.147 C 
BRANCH   6   7
HETATM    7  C2  UNL     1      11.488  15.076   7.748  1.00  0.00    -0.018 C 
HETATM    8  C1  UNL     1      10.369  14.750   7.114  1.00  0.00     0.008 C 
ENDBRANCH   6   7
ENDBRANCH   4   6
ENDBRANCH   1   3
BRANCH   1   9
HETATM    9  C5  UNL     1      16.085  17.203   6.862  1.00  0.00     0.310 A 
HETATM   10  C6  UNL     1      16.859  17.057   8.073  1.00  0.00     0.289 A 
HETATM   11  N3  UNL     1      15.500  17.752   8.098  1.00  0.00    -0.049 N 
ATOM     12  H32 UNL     1      15.136  18.655   8.407  1.00  0.00     0.279 HD
ATOM     13  H31 UNL     1      14.625  17.648   8.613  1.00  0.00     0.279 HD
ENDBRANCH   1   9
TORSDOF 4
ENDMDL
