MODEL 1
REMARK VINA RESULT: -4.131394120      0.000      0.000
REMARK  4 active torsions:
REMARK  status: ('A' for Active; 'I' for Inactive)
REMARK    1  A    between atoms: C1_4  and  C2_5 
REMARK    2  A    between atoms: C2_5  and  C3_6 
REMARK    3  A    between atoms: C5_8  and  N2_9 
REMARK    4  A    between atoms: N2_9  and  C6_11 
ROOT
HETATM    1  C3  UNL     1      10.129  14.756   5.478  1.00  0.00     0.015 A 
HETATM    2  C4  UNL     1       8.659  14.754   5.041  1.00  0.00     0.032 A 
HETATM    3  C5  UNL     1       9.589  13.589   4.743  1.00  0.00     0.088 A 
ENDROOT
BRANCH   1   4
HETATM    4  C2  UNL     1      10.287  14.732   6.980  1.00  0.00     0.050 C 
BRANCH   4   5
HETATM    5  C1  UNL     1      11.626  15.105   7.437  1.00  0.00     0.053 C 
HETATM    6  N1  UNL     1      11.892  15.071   8.683  1.00  0.00    -0.411 N 
ATOM      7  H12 UNL     1      11.168  14.785   9.342  1.00  0.00     0.155 HD
ATOM      8  H11 UNL     1      12.826  15.331   9.002  1.00  0.00     0.155 HD
ENDBRANCH   4   5
ENDBRANCH   1   4
BRANCH   3   9
HETATM    9  N2  UNL     1       9.960  13.517   3.339  1.00  0.00    -0.363 N 
ATOM     10  H2  UNL     1      10.707  14.111   2.978  1.00  0.00     0.162 HD
BRANCH   9  11
HETATM   11  C6  UNL     1       9.284  12.619   2.469  1.00  0.00     0.348 C 
HETATM   12  O1  UNL     1       8.154  12.934   2.017  1.00  0.00    -0.284 OA
ENDBRANCH   9  11
ENDBRANCH   3   9
TORSDOF 4
ENDMDL
MODEL 2
REMARK VINA RESULT: -4.092170896      1.072      1.072
REMARK  4 active torsions:
REMARK  status: ('A' for Active; 'I' for Inactive)
REMARK    1  A    between atoms: C1_4  and  C2_5 
REMARK    2  A    between atoms: C2_5  and  C3_6 
REMARK    3  A    between atoms: C5_8  and  N2_9 
REMARK    4  A    between atoms: N2_9  and  C6_11 
ROOT
HETATM    1  C3  UNL     1      10.053  14.356   5.352  1.00  0.00     0.015 A 
HETATM    2  C4  UNL     1       8.821  15.009   4.715  1.00  0.00     0.032 A 
HETATM    3  C5  UNL     1       8.962  13.500   4.831  1.00  0.00     0.088 A 
ENDROOT
BRANCH   1   4
HETATM    4  C2  UNL     1      10.175  14.661   6.827  1.00  0.00     0.050 C 
BRANCH   4   5
HETATM    5  C1  UNL     1      11.513  15.093   7.229  1.00  0.00     0.053 C 
HETATM    6  N1  UNL     1      11.836  15.055   8.462  1.00  0.00    -0.411 N 
ATOM      7  H12 UNL     1      11.158  14.725   9.148  1.00  0.00     0.155 HD
ATOM      8  H11 UNL     1      12.769  15.356   8.743  1.00  0.00     0.155 HD
ENDBRANCH   4   5
ENDBRANCH   1   4
BRANCH   3   9
HETATM    9  N2  UNL     1       9.232  12.865   3.551  1.00  0.00    -0.363 N 
ATOM     10  H2  UNL     1      10.094  13.077   3.049  1.00  0.00     0.162 HD
BRANCH   9  11
HETATM   11  C6  UNL     1       8.296  11.949   2.999  1.00  0.00     0.348 C 
HETATM   12  O1  UNL     1       7.898  10.980   3.696  1.00  0.00    -0.284 OA
ENDBRANCH   9  11
ENDBRANCH   3   9
TORSDOF 4
ENDMDL
MODEL 3
REMARK VINA RESULT: -4.067794303      1.053      1.061
REMARK  4 active torsions:
REMARK  status: ('A' for Active; 'I' for Inactive)
REMARK    1  A    between atoms: C1_4  and  C2_5 
REMARK    2  A    between atoms: C2_5  and  C3_6 
REMARK    3  A    between atoms: C5_8  and  N2_9 
REMARK    4  A    between atoms: N2_9  and  C6_11 
ROOT
HETATM    1  C3  UNL     1       9.814  14.816   6.148  1.00  0.00     0.015 A 
HETATM    2  C4  UNL     1       9.244  13.428   5.833  1.00  0.00     0.032 A 
HETATM    3  C5  UNL     1      10.190  14.144   4.883  1.00  0.00     0.088 A 
ENDROOT
BRANCH   1   4
HETATM    4  C2  UNL     1      10.735  14.806   7.345  1.00  0.00     0.050 C 
BRANCH   4   5
HETATM    5  C1  UNL     1      12.093  15.259   7.046  1.00  0.00     0.053 C 
HETATM    6  N1  UNL     1      13.058  14.869   7.782  1.00  0.00    -0.411 N 
ATOM      7  H12 UNL     1      12.868  14.248   8.568  1.00  0.00     0.155 HD
ATOM      8  H11 UNL     1      14.006  15.184   7.573  1.00  0.00     0.155 HD
ENDBRANCH   4   5
ENDBRANCH   1   4
BRANCH   3   9
HETATM    9  N2  UNL     1       9.516  14.642   3.694  1.00  0.00    -0.363 N 
ATOM     10  H2  UNL     1       9.175  15.603   3.667  1.00  0.00     0.162 HD
BRANCH   9  11
HETATM   11  C6  UNL     1       9.333  13.791   2.570  1.00  0.00     0.348 C 
HETATM   12  O1  UNL     1       8.241  13.184   2.430  1.00  0.00    -0.284 OA
ENDBRANCH   9  11
ENDBRANCH   3   9
TORSDOF 4
ENDMDL
MODEL 4
REMARK VINA RESULT: -4.058014839      2.596      4.145
REMARK  4 active torsions:
REMARK  status: ('A' for Active; 'I' for Inactive)
REMARK    1  A    between atoms: C1_4  and  C2_5 
REMARK    2  A    between atoms: C2_5  and  C3_6 
REMARK    3  A    between atoms: C5_8  and  N2_9 
REMARK    4  A    between atoms: N2_9  and  C6_11 
ROOT
HETATM    1  C3  UNL     1      10.378  14.080   6.523  1.00  0.00     0.015 A 
HETATM    2  C4  UNL     1      10.898  14.948   7.676  1.00  0.00     0.032 A 
HETATM    3  C5  UNL     1      11.590  14.908   6.323  1.00  0.00     0.088 A 
ENDROOT
BRANCH   1   4
HETATM    4  C2  UNL     1       9.027  14.532   6.020  1.00  0.00     0.050 C 
BRANCH   4   5
HETATM    5  C1  UNL     1       8.877  14.432   4.569  1.00  0.00     0.053 C 
HETATM    6  N1  UNL     1       8.657  13.293   4.040  1.00  0.00    -0.411 N 
ATOM      7  H12 UNL     1       8.589  12.469   4.638  1.00  0.00     0.155 HD
ATOM      8  H11 UNL     1       8.551  13.223   3.028  1.00  0.00     0.155 HD
ENDBRANCH   4   5
ENDBRANCH   1   4
BRANCH   3   9
HETATM    9  N2  UNL     1      12.849  14.183   6.361  1.00  0.00    -0.363 N 
ATOM     10  H2  UNL     1      13.454  14.254   7.180  1.00  0.00     0.162 HD
BRANCH   9  11
HETATM   11  C6  UNL     1      13.238  13.373   5.259  1.00  0.00     0.348 C 
HETATM   12  O1  UNL     1      13.166  12.122   5.359  1.00  0.00    -0.284 OA
ENDBRANCH   9  11
ENDBRANCH   3   9
TORSDOF 4
ENDMDL
MODEL 5
REMARK VINA RESULT: -3.955231093      3.307      4.910
REMARK  4 active torsions:
REMARK  status: ('A' for Active; 'I' for Inactive)
REMARK    1  A    between atoms: C1_4  and  C2_5 
REMARK    2  A    between atoms: C2_5  and  C3_6 
REMARK    3  A    between atoms: C5_8  and  N2_9 
REMARK    4  A    between atoms: N2_9  and  C6_11 
ROOT
HETATM    1  C3  UNL     1      10.417  14.092   6.544  1.00  0.00     0.015 A 
HETATM    2  C4  UNL     1      10.933  14.951   7.704  1.00  0.00     0.032 A 
HETATM    3  C5  UNL     1      11.620  14.934   6.348  1.00  0.00     0.088 A 
ENDROOT
BRANCH   1   4
HETATM    4  C2  UNL     1       9.060  14.536   6.052  1.00  0.00     0.050 C 
BRANCH   4   5
HETATM    5  C1  UNL     1       8.872  14.367   4.611  1.00  0.00     0.053 C 
HETATM    6  N1  UNL     1       8.726  13.193   4.134  1.00  0.00    -0.411 N 
ATOM      7  H12 UNL     1       8.743  12.392   4.764  1.00  0.00     0.155 HD
ATOM      8  H11 UNL     1       8.595  13.075   3.130  1.00  0.00     0.155 HD
ENDBRANCH   4   5
ENDBRANCH   1   4
BRANCH   3   9
HETATM    9  N2  UNL     1      12.886  14.221   6.373  1.00  0.00    -0.363 N 
ATOM     10  H2  UNL     1      12.917  13.230   6.131  1.00  0.00     0.162 HD
BRANCH   9  11
HETATM   11  C6  UNL     1      14.080  14.902   6.733  1.00  0.00     0.348 C 
HETATM   12  O1  UNL     1      14.960  14.293   7.394  1.00  0.00    -0.284 OA
ENDBRANCH   9  11
ENDBRANCH   3   9
TORSDOF 4
ENDMDL
