MODEL 1
REMARK VINA RESULT: -6.995018623      0.000      0.000
REMARK  3 active torsions:
REMARK  status: ('A' for Active; 'I' for Inactive)
REMARK    1  A    between atoms: C1_2  and  N2_4 
REMARK       I    between atoms: N2_4  and  C2_6 
REMARK    2  A    between atoms: C2_6  and  C3_8 
REMARK    3  A    between atoms: C4_9  and  C5_10 
ROOT
HETATM    1  C3  UNL     1       2.957  40.434  40.466  1.00  0.00     0.097 C 
HETATM    2  C4  UNL     1       1.615  41.061  40.568  1.00  0.00     0.104 C 
HETATM    3  C6  UNL     1       1.708  42.254  39.658  1.00  0.00     0.006 C 
HETATM    4  C7  UNL     1       2.849  43.206  39.971  1.00  0.00     0.011 C 
HETATM    5  C8  UNL     1       3.704  42.417  39.021  1.00  0.00    -0.004 A 
HETATM    6  C9  UNL     1       2.524  41.705  38.531  1.00  0.00     0.000 A 
HETATM    7  C10 UNL     1       3.586  40.934  39.160  1.00  0.00     0.009 A 
ENDROOT
BRANCH   1   8
HETATM    8  C2  UNL     1       2.824  38.962  40.311  1.00  0.00     0.229 C 
HETATM    9  N2  UNL     1       1.757  38.365  39.620  1.00  0.00    -0.306 N 
ATOM     10  H2  UNL     1       1.038  38.956  39.202  1.00  0.00     0.170 HD
HETATM   11  O1  UNL     1       3.704  38.239  40.823  1.00  0.00    -0.273 OA
BRANCH   9  12
HETATM   12  C1  UNL     1       1.662  36.977  39.494  1.00  0.00     0.187 C 
HETATM   13  N1  UNL     1       0.981  36.223  40.478  1.00  0.00    -0.070 NA
HETATM   14  S1  UNL     1       2.320  36.201  38.234  1.00  0.00    -0.044 SA
ENDBRANCH   9  12
ENDBRANCH   1   8
BRANCH   2  15
HETATM   15  C5  UNL     1       1.208  41.404  41.943  1.00  0.00     0.178 C 
HETATM   16  O2  UNL     1       1.999  41.772  42.850  1.00  0.00    -0.648 OA
HETATM   17  O3  UNL     1      -0.131  41.334  42.310  1.00  0.00    -0.648 OA
ENDBRANCH   2  15
TORSDOF 3
ENDMDL
MODEL 2
REMARK VINA RESULT: -6.961435788      5.939      7.235
REMARK  3 active torsions:
REMARK  status: ('A' for Active; 'I' for Inactive)
REMARK    1  A    between atoms: C1_2  and  N2_4 
REMARK       I    between atoms: N2_4  and  C2_6 
REMARK    2  A    between atoms: C2_6  and  C3_8 
REMARK    3  A    between atoms: C4_9  and  C5_10 
ROOT
HETATM    1  C3  UNL     1      -0.767  35.009  37.799  1.00  0.00     0.097 C 
HETATM    2  C4  UNL     1      -1.387  36.209  37.181  1.00  0.00     0.104 C 
HETATM    3  C6  UNL     1      -2.706  36.334  37.891  1.00  0.00     0.006 C 
HETATM    4  C7  UNL     1      -3.583  35.097  37.829  1.00  0.00     0.011 C 
HETATM    5  C8  UNL     1      -2.942  34.637  39.107  1.00  0.00    -0.004 A 
HETATM    6  C9  UNL     1      -2.330  35.952  39.287  1.00  0.00     0.000 A 
HETATM    7  C10 UNL     1      -1.457  34.796  39.152  1.00  0.00     0.009 A 
ENDROOT
BRANCH   1   8
HETATM    8  C2  UNL     1       0.661  35.275  38.112  1.00  0.00     0.229 C 
HETATM    9  N2  UNL     1       1.685  34.361  37.815  1.00  0.00    -0.306 N 
ATOM     10  H2  UNL     1       1.451  33.476  37.365  1.00  0.00     0.170 HD
HETATM   11  O1  UNL     1       0.947  36.358  38.663  1.00  0.00    -0.273 OA
BRANCH   9  12
HETATM   12  C1  UNL     1       3.018  34.642  38.123  1.00  0.00     0.187 C 
HETATM   13  N1  UNL     1       3.572  34.190  39.344  1.00  0.00    -0.070 NA
HETATM   14  S1  UNL     1       3.957  35.482  37.106  1.00  0.00    -0.044 SA
ENDBRANCH   9  12
ENDBRANCH   1   8
BRANCH   2  15
HETATM   15  C5  UNL     1      -1.517  36.137  35.714  1.00  0.00     0.178 C 
HETATM   16  O2  UNL     1      -1.552  35.067  35.052  1.00  0.00    -0.648 OA
HETATM   17  O3  UNL     1      -1.612  37.306  34.967  1.00  0.00    -0.648 OA
ENDBRANCH   2  15
TORSDOF 3
ENDMDL
MODEL 3
REMARK VINA RESULT: -6.895032433      2.195      3.232
REMARK  3 active torsions:
REMARK  status: ('A' for Active; 'I' for Inactive)
REMARK    1  A    between atoms: C1_2  and  N2_4 
REMARK       I    between atoms: N2_4  and  C2_6 
REMARK    2  A    between atoms: C2_6  and  C3_8 
REMARK    3  A    between atoms: C4_9  and  C5_10 
ROOT
HETATM    1  C3  UNL     1       2.111  39.525  39.813  1.00  0.00     0.097 C 
HETATM    2  C4  UNL     1       3.043  40.537  40.372  1.00  0.00     0.104 C 
HETATM    3  C6  UNL     1       2.333  41.035  41.601  1.00  0.00     0.006 C 
HETATM    4  C7  UNL     1       0.933  41.567  41.356  1.00  0.00     0.011 C 
HETATM    5  C8  UNL     1       0.412  40.183  41.618  1.00  0.00    -0.004 A 
HETATM    6  C9  UNL     1       1.722  39.773  42.122  1.00  0.00     0.000 A 
HETATM    7  C10 UNL     1       1.185  39.090  40.955  1.00  0.00     0.009 A 
ENDROOT
BRANCH   1   8
HETATM    8  C2  UNL     1       2.860  38.305  39.414  1.00  0.00     0.229 C 
HETATM    9  N2  UNL     1       2.613  37.624  38.210  1.00  0.00    -0.306 N 
ATOM     10  H2  UNL     1       1.893  37.971  37.577  1.00  0.00     0.170 HD
HETATM   11  O1  UNL     1       3.741  37.881  40.189  1.00  0.00    -0.273 OA
BRANCH   9  12
HETATM   12  C1  UNL     1       3.335  36.479  37.865  1.00  0.00     0.187 C 
HETATM   13  N1  UNL     1       4.689  36.590  37.471  1.00  0.00    -0.070 NA
HETATM   14  S1  UNL     1       2.654  35.011  37.907  1.00  0.00    -0.044 SA
ENDBRANCH   9  12
ENDBRANCH   1   8
BRANCH   2  15
HETATM   15  C5  UNL     1       3.407  41.613  39.431  1.00  0.00     0.178 C 
HETATM   16  O2  UNL     1       2.805  41.851  38.352  1.00  0.00    -0.648 OA
HETATM   17  O3  UNL     1       4.482  42.449  39.713  1.00  0.00    -0.648 OA
ENDBRANCH   2  15
TORSDOF 3
ENDMDL
MODEL 4
REMARK VINA RESULT: -6.868291275      5.611      7.421
REMARK  3 active torsions:
REMARK  status: ('A' for Active; 'I' for Inactive)
REMARK    1  A    between atoms: C1_2  and  N2_4 
REMARK       I    between atoms: N2_4  and  C2_6 
REMARK    2  A    between atoms: C2_6  and  C3_8 
REMARK    3  A    between atoms: C4_9  and  C5_10 
ROOT
HETATM    1  C3  UNL     1      -1.552  35.661  36.544  1.00  0.00     0.097 C 
HETATM    2  C4  UNL     1      -1.555  36.949  35.805  1.00  0.00     0.104 C 
HETATM    3  C6  UNL     1      -2.883  37.560  36.159  1.00  0.00     0.006 C 
HETATM    4  C7  UNL     1      -4.087  36.684  35.861  1.00  0.00     0.011 C 
HETATM    5  C8  UNL     1      -3.971  36.133  37.253  1.00  0.00    -0.004 A 
HETATM    6  C9  UNL     1      -3.010  37.179  37.600  1.00  0.00     0.000 A 
HETATM    7  C10 UNL     1      -2.579  35.791  37.675  1.00  0.00     0.009 A 
ENDROOT
BRANCH   1   8
HETATM    8  C2  UNL     1      -0.240  35.458  37.212  1.00  0.00     0.229 C 
HETATM    9  N2  UNL     1       0.624  36.520  37.525  1.00  0.00    -0.306 N 
ATOM     10  H2  UNL     1       0.351  37.474  37.290  1.00  0.00     0.170 HD
HETATM   11  O1  UNL     1       0.094  34.290  37.501  1.00  0.00    -0.273 OA
BRANCH   9  12
HETATM   12  C1  UNL     1       1.851  36.294  38.154  1.00  0.00     0.187 C 
HETATM   13  N1  UNL     1       1.933  36.298  39.566  1.00  0.00    -0.070 NA
HETATM   14  S1  UNL     1       3.197  36.023  37.296  1.00  0.00    -0.044 SA
ENDBRANCH   9  12
ENDBRANCH   1   8
BRANCH   2  15
HETATM   15  C5  UNL     1      -1.342  36.817  34.352  1.00  0.00     0.178 C 
HETATM   16  O2  UNL     1      -0.906  37.734  33.609  1.00  0.00    -0.648 OA
HETATM   17  O3  UNL     1      -1.625  35.614  33.715  1.00  0.00    -0.648 OA
ENDBRANCH   2  15
TORSDOF 3
ENDMDL
MODEL 5
REMARK VINA RESULT: -6.786499376      4.203      6.210
REMARK  3 active torsions:
REMARK  status: ('A' for Active; 'I' for Inactive)
REMARK    1  A    between atoms: C1_2  and  N2_4 
REMARK       I    between atoms: N2_4  and  C2_6 
REMARK    2  A    between atoms: C2_6  and  C3_8 
REMARK    3  A    between atoms: C4_9  and  C5_10 
ROOT
HETATM    1  C3  UNL     1      -1.160  36.692  38.347  1.00  0.00     0.097 C 
HETATM    2  C4  UNL     1      -2.192  37.097  39.334  1.00  0.00     0.104 C 
HETATM    3  C6  UNL     1      -3.263  36.053  39.180  1.00  0.00     0.006 C 
HETATM    4  C7  UNL     1      -3.799  35.895  37.768  1.00  0.00     0.011 C 
HETATM    5  C8  UNL     1      -2.747  34.848  37.537  1.00  0.00    -0.004 A 
HETATM    6  C9  UNL     1      -2.445  34.818  38.967  1.00  0.00     0.000 A 
HETATM    7  C10 UNL     1      -1.388  35.206  38.044  1.00  0.00     0.009 A 
ENDROOT
BRANCH   1   8
HETATM    8  C2  UNL     1       0.193  36.775  38.957  1.00  0.00     0.229 C 
HETATM    9  N2  UNL     1       1.329  37.170  38.232  1.00  0.00    -0.306 N 
ATOM     10  H2  UNL     1       1.234  37.412  37.246  1.00  0.00     0.170 HD
HETATM   11  O1  UNL     1       0.308  36.479  40.165  1.00  0.00    -0.273 OA
BRANCH   9  12
HETATM   12  C1  UNL     1       2.586  37.238  38.837  1.00  0.00     0.187 C 
HETATM   13  N1  UNL     1       3.401  36.083  38.905  1.00  0.00    -0.070 NA
HETATM   14  S1  UNL     1       3.141  38.621  39.470  1.00  0.00    -0.044 SA
ENDBRANCH   9  12
ENDBRANCH   1   8
BRANCH   2  15
HETATM   15  C5  UNL     1      -2.690  38.475  39.161  1.00  0.00     0.178 C 
HETATM   16  O2  UNL     1      -2.704  39.096  38.067  1.00  0.00    -0.648 OA
HETATM   17  O3  UNL     1      -3.190  39.175  40.253  1.00  0.00    -0.648 OA
ENDBRANCH   2  15
TORSDOF 3
ENDMDL
