MODEL 1
REMARK VINA RESULT: -7.446336792      0.000      0.000
REMARK  10 active torsions:
REMARK  status: ('A' for Active; 'I' for Inactive)
REMARK    1  A    between atoms: C2_2  and  C3_3 
REMARK    2  A    between atoms: N3_12  and  C8_13 
REMARK    3  A    between atoms: C11_18  and  N5_19 
REMARK    4  A    between atoms: N5_19  and  C12_21 
REMARK    5  A    between atoms: C12_21  and  C13_22 
REMARK    6  A    between atoms: C13_22  and  O1_23 
REMARK    7  A    between atoms: C13_22  and  C14_25 
REMARK    8  A    between atoms: C14_25  and  N6_27 
REMARK    9  A    between atoms: N6_27  and  C16_29 
REMARK   10  A    between atoms: C16_29  and  N7_30 
ROOT
HETATM    1  C3  UNL     1      21.517  39.593  24.132  1.00  0.00     0.078 A 
HETATM    2  N1  UNL     1      20.938  39.440  22.927  1.00  0.00    -0.337 N 
ATOM      3  H1  UNL     1      20.278  38.701  22.683  1.00  0.00     0.168 HD
HETATM    4  C4  UNL     1      21.373  40.435  22.070  1.00  0.00     0.151 A 
HETATM    5  C5  UNL     1      21.155  40.799  20.776  1.00  0.00     0.117 A 
HETATM    6  C6  UNL     1      21.831  41.903  20.337  1.00  0.00     0.123 A 
HETATM    7  N2  UNL     1      21.540  42.181  19.026  1.00  0.00    -0.344 N 
ATOM      8  H2  UNL     1      21.909  42.947  18.463  1.00  0.00     0.167 HD
HETATM    9  C7  UNL     1      20.687  41.257  18.646  1.00  0.00     0.184 A 
HETATM   10  N3  UNL     1      20.434  40.413  19.670  1.00  0.00    -0.334 N 
HETATM   11  S1  UNL     1      22.716  42.362  21.727  1.00  0.00     0.017 SA
HETATM   12  N4  UNL     1      22.209  41.168  22.787  1.00  0.00    -0.246 N 
HETATM   13  C11 UNL     1      22.332  40.694  24.054  1.00  0.00     0.143 A 
ENDROOT
BRANCH  13  14
HETATM   14  N5  UNL     1      23.143  41.226  25.121  1.00  0.00    -0.371 N 
ATOM     15  H5  UNL     1      22.737  41.566  25.991  1.00  0.00     0.161 HD
BRANCH  14  16
HETATM   16  C12 UNL     1      24.542  41.245  24.885  1.00  0.00     0.155 C 
BRANCH  16  17
HETATM   17  C13 UNL     1      25.164  40.046  24.238  1.00  0.00     0.158 C 
BRANCH  17  18
HETATM   18  O1  UNL     1      25.218  39.107  25.316  1.00  0.00    -0.392 OA
ATOM     19  H1  UNL     1      24.472  38.547  25.137  1.00  0.00     0.210 HD
ENDBRANCH  17  18
BRANCH  17  20
HETATM   20  C14 UNL     1      26.570  40.325  23.791  1.00  0.00     0.108 C 
HETATM   21  C15 UNL     1      27.583  39.462  24.498  1.00  0.00     0.035 C 
BRANCH  20  22
HETATM   22  N6  UNL     1      26.956  41.707  23.975  1.00  0.00    -0.379 N 
ATOM     23  H6  UNL     1      26.912  42.175  24.880  1.00  0.00     0.160 HD
BRANCH  22  24
HETATM   24  C16 UNL     1      27.400  42.359  22.798  1.00  0.00     0.182 C 
BRANCH  24  25
HETATM   25  N7  UNL     1      28.808  42.401  22.624  1.00  0.00    -0.337 N 
HETATM   26  C17 UNL     1      29.349  41.904  21.428  1.00  0.00     0.070 C 
HETATM   27  C18 UNL     1      30.686  41.234  21.531  1.00  0.00     0.045 C 
HETATM   28  C19 UNL     1      30.873  40.619  22.875  1.00  0.00     0.010 C 
HETATM   29  C20 UNL     1      30.744  41.663  23.957  1.00  0.00     0.045 C 
HETATM   30  C21 UNL     1      29.627  42.626  23.736  1.00  0.00     0.070 C 
ENDBRANCH  24  25
ENDBRANCH  22  24
ENDBRANCH  20  22
ENDBRANCH  17  20
ENDBRANCH  16  17
ENDBRANCH  14  16
ENDBRANCH  13  14
BRANCH   1  31
HETATM   31  C2  UNL     1      21.327  38.757  25.304  1.00  0.00     0.023 C 
HETATM   32  C1  UNL     1      21.899  37.578  25.397  1.00  0.00     0.013 C 
ENDBRANCH   1  31
BRANCH  10  33
HETATM   33  C8  UNL     1      19.529  39.284  19.565  1.00  0.00     0.083 C 
HETATM   34  C9  UNL     1      20.292  38.005  19.451  1.00  0.00     0.032 C 
HETATM   35  C10 UNL     1      18.578  39.524  18.437  1.00  0.00     0.032 C 
ENDBRANCH  10  33
TORSDOF 10
ENDMDL
MODEL 2
REMARK VINA RESULT: -7.412810593      1.895      2.497
REMARK  10 active torsions:
REMARK  status: ('A' for Active; 'I' for Inactive)
REMARK    1  A    between atoms: C2_2  and  C3_3 
REMARK    2  A    between atoms: N3_12  and  C8_13 
REMARK    3  A    between atoms: C11_18  and  N5_19 
REMARK    4  A    between atoms: N5_19  and  C12_21 
REMARK    5  A    between atoms: C12_21  and  C13_22 
REMARK    6  A    between atoms: C13_22  and  O1_23 
REMARK    7  A    between atoms: C13_22  and  C14_25 
REMARK    8  A    between atoms: C14_25  and  N6_27 
REMARK    9  A    between atoms: N6_27  and  C16_29 
REMARK   10  A    between atoms: C16_29  and  N7_30 
ROOT
HETATM    1  C3  UNL     1      21.968  37.517  24.693  1.00  0.00     0.078 A 
HETATM    2  N1  UNL     1      21.276  38.218  23.777  1.00  0.00    -0.337 N 
ATOM      3  H1  UNL     1      20.613  37.821  23.111  1.00  0.00     0.168 HD
HETATM    4  C4  UNL     1      21.599  39.560  23.875  1.00  0.00     0.151 A 
HETATM    5  C5  UNL     1      21.245  40.717  23.250  1.00  0.00     0.117 A 
HETATM    6  C6  UNL     1      21.847  41.858  23.704  1.00  0.00     0.123 A 
HETATM    7  N2  UNL     1      21.420  42.960  23.009  1.00  0.00    -0.344 N 
ATOM      8  H2  UNL     1      21.713  43.927  23.149  1.00  0.00     0.167 HD
HETATM    9  C7  UNL     1      20.556  42.514  22.126  1.00  0.00     0.184 A 
HETATM   10  N3  UNL     1      20.427  41.174  22.244  1.00  0.00    -0.334 N 
HETATM   11  S1  UNL     1      22.854  41.263  24.951  1.00  0.00     0.017 SA
HETATM   12  N4  UNL     1      22.484  39.632  24.855  1.00  0.00    -0.246 N 
HETATM   13  C11 UNL     1      22.745  38.410  25.388  1.00  0.00     0.143 A 
ENDROOT
BRANCH  13  14
HETATM   14  N5  UNL     1      23.645  38.090  26.467  1.00  0.00    -0.371 N 
ATOM     15  H5  UNL     1      23.310  37.749  27.368  1.00  0.00     0.161 HD
BRANCH  14  16
HETATM   16  C12 UNL     1      25.025  38.279  26.199  1.00  0.00     0.155 C 
BRANCH  16  17
HETATM   17  C13 UNL     1      25.594  37.658  24.960  1.00  0.00     0.158 C 
BRANCH  17  18
HETATM   18  O1  UNL     1      26.089  36.405  25.442  1.00  0.00    -0.392 OA
ATOM     19  H1  UNL     1      25.913  35.822  24.713  1.00  0.00     0.210 HD
ENDBRANCH  17  18
BRANCH  17  20
HETATM   20  C14 UNL     1      26.756  38.446  24.429  1.00  0.00     0.108 C 
HETATM   21  C15 UNL     1      28.078  37.954  24.958  1.00  0.00     0.035 C 
BRANCH  20  22
HETATM   22  N6  UNL     1      26.658  39.860  24.721  1.00  0.00    -0.379 N 
ATOM     23  H6  UNL     1      26.695  40.230  25.670  1.00  0.00     0.160 HD
BRANCH  22  24
HETATM   24  C16 UNL     1      26.505  40.690  23.582  1.00  0.00     0.182 C 
BRANCH  24  25
HETATM   25  N7  UNL     1      27.718  41.132  22.990  1.00  0.00    -0.337 N 
HETATM   26  C17 UNL     1      28.254  40.386  21.929  1.00  0.00     0.070 C 
HETATM   27  C18 UNL     1      29.750  40.330  21.845  1.00  0.00     0.045 C 
HETATM   28  C19 UNL     1      30.365  40.462  23.195  1.00  0.00     0.010 C 
HETATM   29  C20 UNL     1      29.941  41.756  23.846  1.00  0.00     0.045 C 
HETATM   30  C21 UNL     1      28.498  42.081  23.658  1.00  0.00     0.070 C 
ENDBRANCH  24  25
ENDBRANCH  22  24
ENDBRANCH  20  22
ENDBRANCH  17  20
ENDBRANCH  16  17
ENDBRANCH  14  16
ENDBRANCH  13  14
BRANCH   1  31
HETATM   31  C2  UNL     1      21.916  36.082  24.915  1.00  0.00     0.023 C 
HETATM   32  C1  UNL     1      22.802  35.279  24.371  1.00  0.00     0.013 C 
ENDBRANCH   1  31
BRANCH  10  33
HETATM   33  C8  UNL     1      19.543  40.384  21.406  1.00  0.00     0.083 C 
HETATM   34  C9  UNL     1      20.312  39.706  20.320  1.00  0.00     0.032 C 
HETATM   35  C10 UNL     1      18.434  41.254  20.910  1.00  0.00     0.032 C 
ENDBRANCH  10  33
TORSDOF 10
ENDMDL
MODEL 3
REMARK VINA RESULT: -7.403151021      2.977      6.668
REMARK  10 active torsions:
REMARK  status: ('A' for Active; 'I' for Inactive)
REMARK    1  A    between atoms: C2_2  and  C3_3 
REMARK    2  A    between atoms: N3_12  and  C8_13 
REMARK    3  A    between atoms: C11_18  and  N5_19 
REMARK    4  A    between atoms: N5_19  and  C12_21 
REMARK    5  A    between atoms: C12_21  and  C13_22 
REMARK    6  A    between atoms: C13_22  and  O1_23 
REMARK    7  A    between atoms: C13_22  and  C14_25 
REMARK    8  A    between atoms: C14_25  and  N6_27 
REMARK    9  A    between atoms: N6_27  and  C16_29 
REMARK   10  A    between atoms: C16_29  and  N7_30 
ROOT
HETATM    1  C3  UNL     1      26.165  41.210  23.214  1.00  0.00     0.078 A 
HETATM    2  N1  UNL     1      24.842  41.444  23.153  1.00  0.00    -0.337 N 
ATOM      3  H1  UNL     1      24.387  42.077  22.495  1.00  0.00     0.168 HD
HETATM    4  C4  UNL     1      24.190  40.696  24.117  1.00  0.00     0.151 A 
HETATM    5  C5  UNL     1      22.907  40.508  24.532  1.00  0.00     0.117 A 
HETATM    6  C6  UNL     1      22.727  39.633  25.567  1.00  0.00     0.123 A 
HETATM    7  N2  UNL     1      21.404  39.519  25.903  1.00  0.00    -0.344 N 
ATOM      8  H2  UNL     1      21.004  38.934  26.638  1.00  0.00     0.167 HD
HETATM    9  C7  UNL     1      20.756  40.318  25.086  1.00  0.00     0.184 A 
HETATM   10  N3  UNL     1      21.627  40.926  24.250  1.00  0.00    -0.334 N 
HETATM   11  S1  UNL     1      24.329  39.130  25.896  1.00  0.00     0.017 SA
HETATM   12  N4  UNL     1      25.146  40.025  24.739  1.00  0.00    -0.246 N 
HETATM   13  C11 UNL     1      26.371  40.305  24.225  1.00  0.00     0.143 A 
ENDROOT
BRANCH  13  14
HETATM   14  N5  UNL     1      27.645  39.770  24.636  1.00  0.00    -0.371 N 
ATOM     15  H5  UNL     1      28.473  40.357  24.734  1.00  0.00     0.161 HD
BRANCH  14  16
HETATM   16  C12 UNL     1      27.676  38.376  24.897  1.00  0.00     0.155 C 
BRANCH  16  17
HETATM   17  C13 UNL     1      28.175  37.468  23.815  1.00  0.00     0.158 C 
BRANCH  17  18
HETATM   18  O1  UNL     1      27.902  38.221  22.629  1.00  0.00    -0.392 OA
ATOM     19  H1  UNL     1      27.351  37.628  22.133  1.00  0.00     0.210 HD
ENDBRANCH  17  18
BRANCH  17  20
HETATM   20  C14 UNL     1      27.384  36.193  23.751  1.00  0.00     0.108 C 
HETATM   21  C15 UNL     1      26.749  35.974  22.403  1.00  0.00     0.035 C 
BRANCH  20  22
HETATM   22  N6  UNL     1      26.341  36.129  24.751  1.00  0.00    -0.379 N 
ATOM     23  H6  UNL     1      26.537  36.005  25.745  1.00  0.00     0.160 HD
BRANCH  22  24
HETATM   24  C16 UNL     1      25.024  36.252  24.242  1.00  0.00     0.182 C 
BRANCH  24  25
HETATM   25  N7  UNL     1      24.007  35.679  25.049  1.00  0.00    -0.337 N 
HETATM   26  C17 UNL     1      24.376  34.733  26.018  1.00  0.00     0.070 C 
HETATM   27  C18 UNL     1      23.397  33.628  26.276  1.00  0.00     0.045 C 
HETATM   28  C19 UNL     1      22.591  33.334  25.058  1.00  0.00     0.010 C 
HETATM   29  C20 UNL     1      21.854  34.570  24.601  1.00  0.00     0.045 C 
HETATM   30  C21 UNL     1      22.669  35.816  24.663  1.00  0.00     0.070 C 
ENDBRANCH  24  25
ENDBRANCH  22  24
ENDBRANCH  20  22
ENDBRANCH  17  20
ENDBRANCH  16  17
ENDBRANCH  14  16
ENDBRANCH  13  14
BRANCH   1  31
HETATM   31  C2  UNL     1      27.195  41.799  22.377  1.00  0.00     0.023 C 
HETATM   32  C1  UNL     1      27.990  42.738  22.838  1.00  0.00     0.013 C 
ENDBRANCH   1  31
BRANCH  10  33
HETATM   33  C8  UNL     1      21.218  41.870  23.227  1.00  0.00     0.083 C 
HETATM   34  C9  UNL     1      20.052  42.680  23.692  1.00  0.00     0.032 C 
HETATM   35  C10 UNL     1      20.972  41.132  21.952  1.00  0.00     0.032 C 
ENDBRANCH  10  33
TORSDOF 10
ENDMDL
MODEL 4
REMARK VINA RESULT: -7.343279797      3.030      5.412
REMARK  10 active torsions:
REMARK  status: ('A' for Active; 'I' for Inactive)
REMARK    1  A    between atoms: C2_2  and  C3_3 
REMARK    2  A    between atoms: N3_12  and  C8_13 
REMARK    3  A    between atoms: C11_18  and  N5_19 
REMARK    4  A    between atoms: N5_19  and  C12_21 
REMARK    5  A    between atoms: C12_21  and  C13_22 
REMARK    6  A    between atoms: C13_22  and  O1_23 
REMARK    7  A    between atoms: C13_22  and  C14_25 
REMARK    8  A    between atoms: C14_25  and  N6_27 
REMARK    9  A    between atoms: N6_27  and  C16_29 
REMARK   10  A    between atoms: C16_29  and  N7_30 
ROOT
HETATM    1  C3  UNL     1      22.522  40.749  25.526  1.00  0.00     0.078 A 
HETATM    2  N1  UNL     1      21.277  41.022  25.097  1.00  0.00    -0.337 N 
ATOM      3  H1  UNL     1      20.425  40.892  25.644  1.00  0.00     0.168 HD
HETATM    4  C4  UNL     1      21.324  41.506  23.801  1.00  0.00     0.151 A 
HETATM    5  C5  UNL     1      20.434  41.939  22.867  1.00  0.00     0.117 A 
HETATM    6  C6  UNL     1      20.959  42.343  21.671  1.00  0.00     0.123 A 
HETATM    7  N2  UNL     1      19.979  42.758  20.808  1.00  0.00    -0.344 N 
ATOM      8  H2  UNL     1      20.105  43.107  19.857  1.00  0.00     0.167 HD
HETATM    9  C7  UNL     1      18.846  42.615  21.456  1.00  0.00     0.184 A 
HETATM   10  N3  UNL     1      19.082  42.127  22.693  1.00  0.00    -0.334 N 
HETATM   11  S1  UNL     1      22.635  42.101  21.914  1.00  0.00     0.017 SA
HETATM   12  N4  UNL     1      22.608  41.511  23.481  1.00  0.00    -0.246 N 
HETATM   13  C11 UNL     1      23.381  41.057  24.501  1.00  0.00     0.143 A 
ENDROOT
BRANCH  13  14
HETATM   14  N5  UNL     1      24.816  40.921  24.529  1.00  0.00    -0.371 N 
ATOM     15  H5  UNL     1      25.436  41.731  24.552  1.00  0.00     0.161 HD
BRANCH  14  16
HETATM   16  C12 UNL     1      25.313  39.593  24.523  1.00  0.00     0.155 C 
BRANCH  16  17
HETATM   17  C13 UNL     1      26.798  39.396  24.534  1.00  0.00     0.158 C 
BRANCH  17  18
HETATM   18  O1  UNL     1      27.178  39.841  23.228  1.00  0.00    -0.392 OA
ATOM     19  H1  UNL     1      28.015  39.412  23.101  1.00  0.00     0.210 HD
ENDBRANCH  17  18
BRANCH  17  20
HETATM   20  C14 UNL     1      27.164  37.945  24.657  1.00  0.00     0.108 C 
HETATM   21  C15 UNL     1      27.252  37.255  23.320  1.00  0.00     0.035 C 
BRANCH  20  22
HETATM   22  N6  UNL     1      26.239  37.200  25.483  1.00  0.00    -0.379 N 
ATOM     23  H6  UNL     1      26.065  37.432  26.461  1.00  0.00     0.160 HD
BRANCH  22  24
HETATM   24  C16 UNL     1      25.595  36.122  24.826  1.00  0.00     0.182 C 
BRANCH  24  25
HETATM   25  N7  UNL     1      24.327  35.762  25.355  1.00  0.00    -0.337 N 
HETATM   26  C17 UNL     1      23.741  34.562  24.927  1.00  0.00     0.070 C 
HETATM   27  C18 UNL     1      22.246  34.554  24.815  1.00  0.00     0.045 C 
HETATM   28  C19 UNL     1      21.727  35.916  24.507  1.00  0.00     0.010 C 
HETATM   29  C20 UNL     1      22.152  36.897  25.573  1.00  0.00     0.045 C 
HETATM   30  C21 UNL     1      23.565  36.729  26.019  1.00  0.00     0.070 C 
ENDBRANCH  24  25
ENDBRANCH  22  24
ENDBRANCH  20  22
ENDBRANCH  17  20
ENDBRANCH  16  17
ENDBRANCH  14  16
ENDBRANCH  13  14
BRANCH   1  31
HETATM   31  C2  UNL     1      22.902  40.224  26.825  1.00  0.00     0.023 C 
HETATM   32  C1  UNL     1      22.011  40.058  27.777  1.00  0.00     0.013 C 
ENDBRANCH   1  31
BRANCH  10  33
HETATM   33  C8  UNL     1      18.030  41.858  23.656  1.00  0.00     0.083 C 
HETATM   34  C9  UNL     1      16.686  41.973  23.014  1.00  0.00     0.032 C 
HETATM   35  C10 UNL     1      18.212  42.751  24.840  1.00  0.00     0.032 C 
ENDBRANCH  10  33
TORSDOF 10
ENDMDL
MODEL 5
REMARK VINA RESULT: -7.314858927      3.608      7.594
REMARK  10 active torsions:
REMARK  status: ('A' for Active; 'I' for Inactive)
REMARK    1  A    between atoms: C2_2  and  C3_3 
REMARK    2  A    between atoms: N3_12  and  C8_13 
REMARK    3  A    between atoms: C11_18  and  N5_19 
REMARK    4  A    between atoms: N5_19  and  C12_21 
REMARK    5  A    between atoms: C12_21  and  C13_22 
REMARK    6  A    between atoms: C13_22  and  O1_23 
REMARK    7  A    between atoms: C13_22  and  C14_25 
REMARK    8  A    between atoms: C14_25  and  N6_27 
REMARK    9  A    between atoms: N6_27  and  C16_29 
REMARK   10  A    between atoms: C16_29  and  N7_30 
ROOT
HETATM    1  C3  UNL     1      24.648  38.053  25.960  1.00  0.00     0.078 A 
HETATM    2  N1  UNL     1      25.256  39.084  25.345  1.00  0.00    -0.337 N 
ATOM      3  H1  UNL     1      25.033  40.068  25.492  1.00  0.00     0.168 HD
HETATM    4  C4  UNL     1      26.229  38.607  24.485  1.00  0.00     0.151 A 
HETATM    5  C5  UNL     1      27.141  39.135  23.623  1.00  0.00     0.117 A 
HETATM    6  C6  UNL     1      27.931  38.241  22.956  1.00  0.00     0.123 A 
HETATM    7  N2  UNL     1      28.811  38.876  22.119  1.00  0.00    -0.344 N 
ATOM      8  H2  UNL     1      29.506  38.441  21.512  1.00  0.00     0.167 HD
HETATM    9  C7  UNL     1      28.575  40.161  22.260  1.00  0.00     0.184 A 
HETATM   10  N3  UNL     1      27.581  40.351  23.155  1.00  0.00    -0.334 N 
HETATM   11  S1  UNL     1      27.367  36.742  23.557  1.00  0.00     0.017 SA
HETATM   12  N4  UNL     1      26.181  37.290  24.605  1.00  0.00    -0.246 N 
HETATM   13  C11 UNL     1      25.230  36.901  25.494  1.00  0.00     0.143 A 
ENDROOT
BRANCH  13  14
HETATM   14  N5  UNL     1      24.887  35.558  25.889  1.00  0.00    -0.371 N 
ATOM     15  H5  UNL     1      25.185  35.163  26.780  1.00  0.00     0.161 HD
BRANCH  14  16
HETATM   16  C12 UNL     1      24.108  34.819  24.961  1.00  0.00     0.155 C 
BRANCH  16  17
HETATM   17  C13 UNL     1      22.634  34.716  25.204  1.00  0.00     0.158 C 
BRANCH  17  18
HETATM   18  O1  UNL     1      22.356  33.359  24.845  1.00  0.00    -0.392 OA
ATOM     19  H1  UNL     1      21.507  33.428  24.426  1.00  0.00     0.210 HD
ENDBRANCH  17  18
BRANCH  17  20
HETATM   20  C14 UNL     1      21.857  35.611  24.282  1.00  0.00     0.108 C 
HETATM   21  C15 UNL     1      22.640  35.997  23.054  1.00  0.00     0.035 C 
BRANCH  20  22
HETATM   22  N6  UNL     1      21.408  36.827  24.925  1.00  0.00    -0.379 N 
ATOM     23  H6  UNL     1      21.144  36.864  25.909  1.00  0.00     0.160 HD
BRANCH  22  24
HETATM   24  C16 UNL     1      21.363  37.962  24.078  1.00  0.00     0.182 C 
BRANCH  24  25
HETATM   25  N7  UNL     1      21.345  39.215  24.746  1.00  0.00    -0.337 N 
HETATM   26  C17 UNL     1      20.372  39.430  25.734  1.00  0.00     0.070 C 
HETATM   27  C18 UNL     1      19.841  40.827  25.852  1.00  0.00     0.045 C 
HETATM   28  C19 UNL     1      19.899  41.532  24.540  1.00  0.00     0.010 C 
HETATM   29  C20 UNL     1      21.316  41.569  24.022  1.00  0.00     0.045 C 
HETATM   30  C21 UNL     1      22.058  40.289  24.204  1.00  0.00     0.070 C 
ENDBRANCH  24  25
ENDBRANCH  22  24
ENDBRANCH  20  22
ENDBRANCH  17  20
ENDBRANCH  16  17
ENDBRANCH  14  16
ENDBRANCH  13  14
BRANCH   1  31
HETATM   31  C2  UNL     1      23.573  38.128  26.934  1.00  0.00     0.023 C 
HETATM   32  C1  UNL     1      23.347  39.231  27.611  1.00  0.00     0.013 C 
ENDBRANCH   1  31
BRANCH  10  33
HETATM   33  C8  UNL     1      27.088  41.664  23.528  1.00  0.00     0.083 C 
HETATM   34  C9  UNL     1      26.025  42.118  22.581  1.00  0.00     0.032 C 
HETATM   35  C10 UNL     1      28.242  42.606  23.638  1.00  0.00     0.032 C 
ENDBRANCH  10  33
TORSDOF 10
ENDMDL
