MODEL 1
REMARK VINA RESULT: -7.314513062      0.000      0.000
REMARK  13 active torsions:
REMARK  status: ('A' for Active; 'I' for Inactive)
REMARK    1  A    between atoms: C2_2  and  C3_3 
REMARK    2  A    between atoms: C3_3  and  N1_4 
REMARK    3  A    between atoms: C4_7  and  C5_8 
REMARK    4  A    between atoms: C8_11  and  C9_12 
REMARK    5  A    between atoms: C9_12  and  O1_13 
REMARK    6  A    between atoms: C9_12  and  C10_15 
REMARK    7  A    between atoms: C10_15  and  S1_16 
REMARK    8  A    between atoms: S1_16  and  C11_17 
REMARK    9  A    between atoms: C12_18  and  C13_19 
REMARK   10  A    between atoms: C15_22  and  O3_23 
REMARK   11  A    between atoms: C16_25  and  O4_26 
REMARK   12  A    between atoms: N3_28  and  C17_29 
REMARK   13  A    between atoms: C17_29  and  C18_30 
ROOT
HETATM    1  C10 UNL     1      22.361  38.670  25.470  1.00  0.00     0.146 C 
ENDROOT
BRANCH   1   2
HETATM    2  C9  UNL     1      21.906  40.003  25.762  1.00  0.00     0.069 C 
BRANCH   2   3
HETATM    3  C8  UNL     1      20.759  40.754  25.285  1.00  0.00     0.065 A 
HETATM    4  C4  UNL     1      20.469  41.231  24.037  1.00  0.00     0.069 A 
HETATM    5  N2  UNL     1      19.252  41.853  24.113  1.00  0.00    -0.296 N 
HETATM    6  N1  UNL     1      18.769  41.801  25.309  1.00  0.00    -0.274 N 
ATOM      7  H2  UNL     1      18.787  42.302  23.324  1.00  0.00     0.187 HD
HETATM    8  C20 UNL     1      19.652  41.139  26.068  1.00  0.00     0.148 A 
HETATM    9  N4  UNL     1      19.536  40.846  27.450  1.00  0.00    -0.080 NA
BRANCH   4  10
HETATM   10  C5  UNL     1      21.249  41.148  22.804  1.00  0.00    -0.042 C 
HETATM   11  C6  UNL     1      22.227  41.975  22.504  1.00  0.00     0.021 C 
HETATM   12  C7  UNL     1      20.909  40.080  21.834  1.00  0.00     0.049 C 
ENDBRANCH   4  10
BRANCH   6  13
HETATM   13  C3  UNL     1      17.516  42.328  25.816  1.00  0.00     0.177 C 
BRANCH  13  14
HETATM   14  C2  UNL     1      16.390  41.579  25.203  1.00  0.00    -0.015 C 
HETATM   15  C1  UNL     1      15.317  41.203  25.840  1.00  0.00     0.008 C 
ENDBRANCH  13  14
ENDBRANCH   6  13
ENDBRANCH   2   3
BRANCH   2  16
HETATM   16  O1  UNL     1      22.661  40.639  26.612  1.00  0.00    -0.363 OA
ATOM     17  H1  UNL     1      22.823  41.551  26.397  1.00  0.00     0.217 HD
ENDBRANCH   2  16
ENDBRANCH   1   2
BRANCH   1  18
HETATM   18  S1  UNL     1      23.888  38.245  26.308  1.00  0.00    -0.104 SA
BRANCH  18  19
HETATM   19  C11 UNL     1      25.095  37.545  25.224  1.00  0.00     0.091 A 
HETATM   20  C12 UNL     1      26.084  38.244  24.509  1.00  0.00     0.081 A 
HETATM   21  C15 UNL     1      26.861  37.306  23.853  1.00  0.00     0.133 A 
HETATM   22  C16 UNL     1      26.328  36.079  24.178  1.00  0.00     0.178 A 
HETATM   23  N3  UNL     1      25.267  36.237  25.002  1.00  0.00    -0.316 N 
BRANCH  20  24
HETATM   24  C13 UNL     1      26.269  39.688  24.391  1.00  0.00     0.161 C 
HETATM   25  C14 UNL     1      25.221  40.676  24.074  1.00  0.00     0.097 C 
HETATM   26  O2  UNL     1      27.434  40.188  24.563  1.00  0.00    -0.293 OA
ENDBRANCH  20  24
BRANCH  21  27
HETATM   27  O3  UNL     1      27.940  37.530  23.044  1.00  0.00    -0.356 OA
ATOM     28  H3  UNL     1      28.249  36.994  22.323  1.00  0.00     0.218 HD
ENDBRANCH  21  27
BRANCH  22  29
HETATM   29  O4  UNL     1      26.855  34.885  23.694  1.00  0.00    -0.344 OA
ATOM     30  H4  UNL     1      27.293  34.257  24.256  1.00  0.00     0.219 HD
ENDBRANCH  22  29
BRANCH  23  31
HETATM   31  C17 UNL     1      24.533  35.093  25.509  1.00  0.00     0.158 C 
BRANCH  31  32
HETATM   32  C18 UNL     1      23.310  34.778  24.766  1.00  0.00    -0.017 C 
HETATM   33  C19 UNL     1      22.678  33.624  24.969  1.00  0.00     0.008 C 
ENDBRANCH  31  32
ENDBRANCH  23  31
ENDBRANCH  18  19
ENDBRANCH   1  18
TORSDOF 13
ENDMDL
MODEL 2
REMARK VINA RESULT: -7.196068866      1.155      3.291
REMARK  13 active torsions:
REMARK  status: ('A' for Active; 'I' for Inactive)
REMARK    1  A    between atoms: C2_2  and  C3_3 
REMARK    2  A    between atoms: C3_3  and  N1_4 
REMARK    3  A    between atoms: C4_7  and  C5_8 
REMARK    4  A    between atoms: C8_11  and  C9_12 
REMARK    5  A    between atoms: C9_12  and  O1_13 
REMARK    6  A    between atoms: C9_12  and  C10_15 
REMARK    7  A    between atoms: C10_15  and  S1_16 
REMARK    8  A    between atoms: S1_16  and  C11_17 
REMARK    9  A    between atoms: C12_18  and  C13_19 
REMARK   10  A    between atoms: C15_22  and  O3_23 
REMARK   11  A    between atoms: C16_25  and  O4_26 
REMARK   12  A    between atoms: N3_28  and  C17_29 
REMARK   13  A    between atoms: C17_29  and  C18_30 
ROOT
HETATM    1  C10 UNL     1      23.100  39.853  25.346  1.00  0.00     0.146 C 
ENDROOT
BRANCH   1   2
HETATM    2  C9  UNL     1      21.671  39.733  25.230  1.00  0.00     0.069 C 
BRANCH   2   3
HETATM    3  C8  UNL     1      20.665  40.654  24.735  1.00  0.00     0.065 A 
HETATM    4  C4  UNL     1      20.470  41.162  23.481  1.00  0.00     0.069 A 
HETATM    5  N2  UNL     1      19.366  41.971  23.538  1.00  0.00    -0.296 N 
HETATM    6  N1  UNL     1      18.866  42.004  24.728  1.00  0.00    -0.274 N 
ATOM      7  H2  UNL     1      18.988  42.482  22.741  1.00  0.00     0.187 HD
HETATM    8  C20 UNL     1      19.624  41.215  25.502  1.00  0.00     0.148 A 
HETATM    9  N4  UNL     1      19.446  40.954  26.883  1.00  0.00    -0.080 NA
BRANCH   4  10
HETATM   10  C5  UNL     1      21.241  40.948  22.259  1.00  0.00    -0.042 C 
HETATM   11  C6  UNL     1      20.886  40.108  21.311  1.00  0.00     0.021 C 
HETATM   12  C7  UNL     1      22.499  41.713  22.085  1.00  0.00     0.049 C 
ENDBRANCH   4  10
BRANCH   6  13
HETATM   13  C3  UNL     1      17.707  42.727  25.217  1.00  0.00     0.177 C 
BRANCH  13  14
HETATM   14  C2  UNL     1      16.531  41.820  25.211  1.00  0.00    -0.015 C 
HETATM   15  C1  UNL     1      15.830  41.512  26.265  1.00  0.00     0.008 C 
ENDBRANCH  13  14
ENDBRANCH   6  13
ENDBRANCH   2   3
BRANCH   2  16
HETATM   16  O1  UNL     1      21.208  38.585  25.639  1.00  0.00    -0.363 OA
ATOM     17  H1  UNL     1      21.347  38.405  26.562  1.00  0.00     0.217 HD
ENDBRANCH   2  16
ENDBRANCH   1   2
BRANCH   1  18
HETATM   18  S1  UNL     1      23.859  38.474  26.202  1.00  0.00    -0.104 SA
BRANCH  18  19
HETATM   19  C11 UNL     1      25.051  37.622  25.213  1.00  0.00     0.091 A 
HETATM   20  C12 UNL     1      24.958  36.301  24.741  1.00  0.00     0.081 A 
HETATM   21  C15 UNL     1      26.064  36.068  23.944  1.00  0.00     0.133 A 
HETATM   22  C16 UNL     1      26.794  37.236  23.957  1.00  0.00     0.178 A 
HETATM   23  N3  UNL     1      26.174  38.162  24.724  1.00  0.00    -0.316 N 
BRANCH  20  24
HETATM   24  C13 UNL     1      23.943  35.298  25.048  1.00  0.00     0.161 C 
HETATM   25  C14 UNL     1      22.498  35.410  24.775  1.00  0.00     0.097 C 
HETATM   26  O2  UNL     1      24.291  34.204  25.614  1.00  0.00    -0.293 OA
ENDBRANCH  20  24
BRANCH  21  27
HETATM   27  O3  UNL     1      26.387  34.921  23.272  1.00  0.00    -0.356 OA
ATOM     28  H3  UNL     1      26.816  34.841  22.429  1.00  0.00     0.218 HD
ENDBRANCH  21  27
BRANCH  22  29
HETATM   29  O4  UNL     1      27.989  37.376  23.259  1.00  0.00    -0.344 OA
ATOM     30  H4  UNL     1      28.805  37.608  23.687  1.00  0.00     0.219 HD
ENDBRANCH  22  29
BRANCH  23  31
HETATM   31  C17 UNL     1      26.729  39.491  24.891  1.00  0.00     0.158 C 
BRANCH  31  32
HETATM   32  C18 UNL     1      26.396  40.428  23.814  1.00  0.00    -0.017 C 
HETATM   33  C19 UNL     1      27.074  41.566  23.680  1.00  0.00     0.008 C 
ENDBRANCH  31  32
ENDBRANCH  23  31
ENDBRANCH  18  19
ENDBRANCH   1  18
TORSDOF 13
ENDMDL
MODEL 3
REMARK VINA RESULT: -7.180711070      1.644      3.320
REMARK  13 active torsions:
REMARK  status: ('A' for Active; 'I' for Inactive)
REMARK    1  A    between atoms: C2_2  and  C3_3 
REMARK    2  A    between atoms: C3_3  and  N1_4 
REMARK    3  A    between atoms: C4_7  and  C5_8 
REMARK    4  A    between atoms: C8_11  and  C9_12 
REMARK    5  A    between atoms: C9_12  and  O1_13 
REMARK    6  A    between atoms: C9_12  and  C10_15 
REMARK    7  A    between atoms: C10_15  and  S1_16 
REMARK    8  A    between atoms: S1_16  and  C11_17 
REMARK    9  A    between atoms: C12_18  and  C13_19 
REMARK   10  A    between atoms: C15_22  and  O3_23 
REMARK   11  A    between atoms: C16_25  and  O4_26 
REMARK   12  A    between atoms: N3_28  and  C17_29 
REMARK   13  A    between atoms: C17_29  and  C18_30 
ROOT
HETATM    1  C10 UNL     1      22.319  39.595  25.211  1.00  0.00     0.146 C 
ENDROOT
BRANCH   1   2
HETATM    2  C9  UNL     1      22.249  40.996  24.893  1.00  0.00     0.069 C 
BRANCH   2   3
HETATM    3  C8  UNL     1      21.400  41.734  23.977  1.00  0.00     0.065 A 
HETATM    4  C4  UNL     1      20.101  42.143  24.108  1.00  0.00     0.069 A 
HETATM    5  N2  UNL     1      19.774  42.824  22.966  1.00  0.00    -0.296 N 
HETATM    6  N1  UNL     1      20.766  42.866  22.140  1.00  0.00    -0.274 N 
ATOM      7  H2  UNL     1      18.862  43.245  22.791  1.00  0.00     0.187 HD
HETATM    8  C20 UNL     1      21.787  42.212  22.710  1.00  0.00     0.148 A 
HETATM    9  N4  UNL     1      23.077  42.007  22.160  1.00  0.00    -0.080 NA
BRANCH   4  10
HETATM   10  C5  UNL     1      19.166  41.934  25.209  1.00  0.00    -0.042 C 
HETATM   11  C6  UNL     1      19.397  41.121  26.218  1.00  0.00     0.021 C 
HETATM   12  C7  UNL     1      17.879  42.670  25.181  1.00  0.00     0.049 C 
ENDBRANCH   4  10
BRANCH   6  13
HETATM   13  C3  UNL     1      20.843  43.485  20.830  1.00  0.00     0.177 C 
BRANCH  13  14
HETATM   14  C2  UNL     1      20.252  42.566  19.824  1.00  0.00    -0.015 C 
HETATM   15  C1  UNL     1      20.903  41.610  19.223  1.00  0.00     0.008 C 
ENDBRANCH  13  14
ENDBRANCH   6  13
ENDBRANCH   2   3
BRANCH   2  16
HETATM   16  O1  UNL     1      23.101  41.725  25.557  1.00  0.00    -0.363 OA
ATOM     17  H1  UNL     1      22.721  42.244  26.257  1.00  0.00     0.217 HD
ENDBRANCH   2  16
ENDBRANCH   1   2
BRANCH   1  18
HETATM   18  S1  UNL     1      23.759  39.161  26.186  1.00  0.00    -0.104 SA
BRANCH  18  19
HETATM   19  C11 UNL     1      24.845  38.044  25.352  1.00  0.00     0.091 A 
HETATM   20  C12 UNL     1      26.062  38.369  24.727  1.00  0.00     0.081 A 
HETATM   21  C15 UNL     1      26.622  37.188  24.274  1.00  0.00     0.133 A 
HETATM   22  C16 UNL     1      25.740  36.191  24.625  1.00  0.00     0.178 A 
HETATM   23  N3  UNL     1      24.675  36.719  25.272  1.00  0.00    -0.316 N 
BRANCH  20  24
HETATM   24  C13 UNL     1      26.647  39.689  24.512  1.00  0.00     0.161 C 
HETATM   25  C14 UNL     1      26.002  40.826  23.828  1.00  0.00     0.097 C 
HETATM   26  O2  UNL     1      27.832  39.928  24.932  1.00  0.00    -0.293 OA
ENDBRANCH  20  24
BRANCH  21  27
HETATM   27  O3  UNL     1      27.807  37.023  23.611  1.00  0.00    -0.356 OA
ATOM     28  H3  UNL     1      28.106  36.257  23.136  1.00  0.00     0.218 HD
ENDBRANCH  21  27
BRANCH  22  29
HETATM   29  O4  UNL     1      25.971  34.851  24.328  1.00  0.00    -0.344 OA
ATOM     30  H4  UNL     1      25.992  34.178  24.997  1.00  0.00     0.219 HD
ENDBRANCH  22  29
BRANCH  23  31
HETATM   31  C17 UNL     1      23.604  35.876  25.766  1.00  0.00     0.158 C 
BRANCH  31  32
HETATM   32  C18 UNL     1      22.608  35.506  24.757  1.00  0.00    -0.017 C 
HETATM   33  C19 UNL     1      21.442  36.145  24.696  1.00  0.00     0.008 C 
ENDBRANCH  31  32
ENDBRANCH  23  31
ENDBRANCH  18  19
ENDBRANCH   1  18
TORSDOF 13
ENDMDL
MODEL 4
REMARK VINA RESULT: -7.041344105      1.639      4.294
REMARK  13 active torsions:
REMARK  status: ('A' for Active; 'I' for Inactive)
REMARK    1  A    between atoms: C2_2  and  C3_3 
REMARK    2  A    between atoms: C3_3  and  N1_4 
REMARK    3  A    between atoms: C4_7  and  C5_8 
REMARK    4  A    between atoms: C8_11  and  C9_12 
REMARK    5  A    between atoms: C9_12  and  O1_13 
REMARK    6  A    between atoms: C9_12  and  C10_15 
REMARK    7  A    between atoms: C10_15  and  S1_16 
REMARK    8  A    between atoms: S1_16  and  C11_17 
REMARK    9  A    between atoms: C12_18  and  C13_19 
REMARK   10  A    between atoms: C15_22  and  O3_23 
REMARK   11  A    between atoms: C16_25  and  O4_26 
REMARK   12  A    between atoms: N3_28  and  C17_29 
REMARK   13  A    between atoms: C17_29  and  C18_30 
ROOT
HETATM    1  C10 UNL     1      22.611  39.199  25.291  1.00  0.00     0.146 C 
ENDROOT
BRANCH   1   2
HETATM    2  C9  UNL     1      22.416  40.616  25.145  1.00  0.00     0.069 C 
BRANCH   2   3
HETATM    3  C8  UNL     1      21.353  41.383  24.523  1.00  0.00     0.065 A 
HETATM    4  C4  UNL     1      20.074  41.625  24.942  1.00  0.00     0.069 A 
HETATM    5  N2  UNL     1      19.483  42.425  24.001  1.00  0.00    -0.296 N 
HETATM    6  N1  UNL     1      20.295  42.694  23.033  1.00  0.00    -0.274 N 
ATOM      7  H2  UNL     1      18.524  42.765  24.057  1.00  0.00     0.187 HD
HETATM    8  C20 UNL     1      21.455  42.079  23.303  1.00  0.00     0.148 A 
HETATM    9  N4  UNL     1      22.631  42.097  22.511  1.00  0.00    -0.080 NA
BRANCH   4  10
HETATM   10  C5  UNL     1      19.382  41.157  26.141  1.00  0.00    -0.042 C 
HETATM   11  C6  UNL     1      19.979  40.518  27.124  1.00  0.00     0.021 C 
HETATM   12  C7  UNL     1      17.925  41.407  26.247  1.00  0.00     0.049 C 
ENDBRANCH   4  10
BRANCH   6  13
HETATM   13  C3  UNL     1      20.074  43.501  21.848  1.00  0.00     0.177 C 
BRANCH  13  14
HETATM   14  C2  UNL     1      19.438  42.661  20.801  1.00  0.00    -0.015 C 
HETATM   15  C1  UNL     1      20.067  42.139  19.787  1.00  0.00     0.008 C 
ENDBRANCH  13  14
ENDBRANCH   6  13
ENDBRANCH   2   3
BRANCH   2  16
HETATM   16  O1  UNL     1      23.368  41.332  25.676  1.00  0.00    -0.363 OA
ATOM     17  H1  UNL     1      23.139  42.239  25.842  1.00  0.00     0.217 HD
ENDBRANCH   2  16
ENDBRANCH   1   2
BRANCH   1  18
HETATM   18  S1  UNL     1      24.133  38.777  26.139  1.00  0.00    -0.104 SA
BRANCH  18  19
HETATM   19  C11 UNL     1      25.299  37.957  25.095  1.00  0.00     0.091 A 
HETATM   20  C12 UNL     1      25.285  36.599  24.728  1.00  0.00     0.081 A 
HETATM   21  C15 UNL     1      26.326  36.400  23.839  1.00  0.00     0.133 A 
HETATM   22  C16 UNL     1      26.940  37.625  23.695  1.00  0.00     0.178 A 
HETATM   23  N3  UNL     1      26.313  38.551  24.456  1.00  0.00    -0.316 N 
BRANCH  20  24
HETATM   24  C13 UNL     1      24.404  35.539  25.208  1.00  0.00     0.161 C 
HETATM   25  C14 UNL     1      22.931  35.532  25.134  1.00  0.00     0.097 C 
HETATM   26  O2  UNL     1      24.911  34.501  25.759  1.00  0.00    -0.293 OA
ENDBRANCH  20  24
BRANCH  21  27
HETATM   27  O3  UNL     1      26.689  35.237  23.220  1.00  0.00    -0.356 OA
ATOM     28  H3  UNL     1      26.492  34.964  22.331  1.00  0.00     0.218 HD
ENDBRANCH  21  27
BRANCH  22  29
HETATM   29  O4  UNL     1      28.044  37.813  22.868  1.00  0.00    -0.344 OA
ATOM     30  H4  UNL     1      28.188  38.619  22.388  1.00  0.00     0.219 HD
ENDBRANCH  22  29
BRANCH  23  31
HETATM   31  C17 UNL     1      26.754  39.932  24.471  1.00  0.00     0.158 C 
BRANCH  31  32
HETATM   32  C18 UNL     1      26.032  40.811  23.546  1.00  0.00    -0.017 C 
HETATM   33  C19 UNL     1      26.700  41.579  22.688  1.00  0.00     0.008 C 
ENDBRANCH  31  32
ENDBRANCH  23  31
ENDBRANCH  18  19
ENDBRANCH   1  18
TORSDOF 13
ENDMDL
MODEL 5
REMARK VINA RESULT: -7.020194105      1.604      2.829
REMARK  13 active torsions:
REMARK  status: ('A' for Active; 'I' for Inactive)
REMARK    1  A    between atoms: C2_2  and  C3_3 
REMARK    2  A    between atoms: C3_3  and  N1_4 
REMARK    3  A    between atoms: C4_7  and  C5_8 
REMARK    4  A    between atoms: C8_11  and  C9_12 
REMARK    5  A    between atoms: C9_12  and  O1_13 
REMARK    6  A    between atoms: C9_12  and  C10_15 
REMARK    7  A    between atoms: C10_15  and  S1_16 
REMARK    8  A    between atoms: S1_16  and  C11_17 
REMARK    9  A    between atoms: C12_18  and  C13_19 
REMARK   10  A    between atoms: C15_22  and  O3_23 
REMARK   11  A    between atoms: C16_25  and  O4_26 
REMARK   12  A    between atoms: N3_28  and  C17_29 
REMARK   13  A    between atoms: C17_29  and  C18_30 
ROOT
HETATM    1  C10 UNL     1      22.162  37.859  25.902  1.00  0.00     0.146 C 
ENDROOT
BRANCH   1   2
HETATM    2  C9  UNL     1      21.604  38.524  24.756  1.00  0.00     0.069 C 
BRANCH   2   3
HETATM    3  C8  UNL     1      21.034  39.849  24.595  1.00  0.00     0.065 A 
HETATM    4  C4  UNL     1      20.347  40.632  25.482  1.00  0.00     0.069 A 
HETATM    5  N2  UNL     1      20.047  41.803  24.841  1.00  0.00    -0.296 N 
HETATM    6  N1  UNL     1      20.491  41.806  23.628  1.00  0.00    -0.274 N 
ATOM      7  H2  UNL     1      19.537  42.577  25.267  1.00  0.00     0.187 HD
HETATM    8  C20 UNL     1      21.103  40.631  23.425  1.00  0.00     0.148 A 
HETATM    9  N4  UNL     1      21.737  40.197  22.234  1.00  0.00    -0.080 NA
BRANCH   4  10
HETATM   10  C5  UNL     1      19.957  40.353  26.862  1.00  0.00    -0.042 C 
HETATM   11  C6  UNL     1      20.791  40.397  27.878  1.00  0.00     0.021 C 
HETATM   12  C7  UNL     1      18.545  39.988  27.127  1.00  0.00     0.049 C 
ENDBRANCH   4  10
BRANCH   6  13
HETATM   13  C3  UNL     1      20.392  42.841  22.617  1.00  0.00     0.177 C 
BRANCH  13  14
HETATM   14  C2  UNL     1      19.004  42.874  22.090  1.00  0.00    -0.015 C 
HETATM   15  C1  UNL     1      18.589  42.198  21.056  1.00  0.00     0.008 C 
ENDBRANCH  13  14
ENDBRANCH   6  13
ENDBRANCH   2   3
BRANCH   2  16
HETATM   16  O1  UNL     1      21.624  37.802  23.671  1.00  0.00    -0.363 OA
ATOM     17  H1  UNL     1      20.883  37.933  23.091  1.00  0.00     0.217 HD
ENDBRANCH   2  16
ENDBRANCH   1   2
BRANCH   1  18
HETATM   18  S1  UNL     1      23.833  38.385  26.283  1.00  0.00    -0.104 SA
BRANCH  18  19
HETATM   19  C11 UNL     1      25.042  37.663  25.215  1.00  0.00     0.091 A 
HETATM   20  C12 UNL     1      26.027  38.347  24.481  1.00  0.00     0.081 A 
HETATM   21  C15 UNL     1      26.806  37.396  23.848  1.00  0.00     0.133 A 
HETATM   22  C16 UNL     1      26.278  36.175  24.204  1.00  0.00     0.178 A 
HETATM   23  N3  UNL     1      25.217  36.350  25.025  1.00  0.00    -0.316 N 
BRANCH  20  24
HETATM   24  C13 UNL     1      26.206  39.788  24.328  1.00  0.00     0.161 C 
HETATM   25  C14 UNL     1      25.168  40.757  23.932  1.00  0.00     0.097 C 
HETATM   26  O2  UNL     1      27.359  40.304  24.538  1.00  0.00    -0.293 OA
ENDBRANCH  20  24
BRANCH  21  27
HETATM   27  O3  UNL     1      27.884  37.603  23.032  1.00  0.00    -0.356 OA
ATOM     28  H3  UNL     1      27.941  37.459  22.095  1.00  0.00     0.218 HD
ENDBRANCH  21  27
BRANCH  22  29
HETATM   29  O4  UNL     1      26.808  34.971  23.749  1.00  0.00    -0.344 OA
ATOM     30  H4  UNL     1      27.057  34.835  22.843  1.00  0.00     0.219 HD
ENDBRANCH  22  29
BRANCH  23  31
HETATM   31  C17 UNL     1      24.488  35.217  25.561  1.00  0.00     0.158 C 
BRANCH  31  32
HETATM   32  C18 UNL     1      23.421  34.715  24.691  1.00  0.00    -0.017 C 
HETATM   33  C19 UNL     1      22.740  33.620  25.025  1.00  0.00     0.008 C 
ENDBRANCH  31  32
ENDBRANCH  23  31
ENDBRANCH  18  19
ENDBRANCH   1  18
TORSDOF 13
ENDMDL
