MODEL 1
REMARK VINA RESULT: -6.314614288      0.000      0.000
REMARK  8 active torsions:
REMARK  status: ('A' for Active; 'I' for Inactive)
REMARK    1  A    between atoms: C2_2  and  C3_3 
REMARK    2  A    between atoms: C3_3  and  N1_4 
REMARK    3  A    between atoms: C6_7  and  C7_8 
REMARK    4  A    between atoms: N3_11  and  C8_12 
REMARK    5  A    between atoms: C8_12  and  S1_13 
REMARK    6  A    between atoms: S1_13  and  N4_14 
REMARK    7  A    between atoms: C10_21  and  N6_22 
REMARK    8  A    between atoms: N6_22  and  O4_24 
ROOT
HETATM    1  N1  UNL     1      48.840  29.718  38.764  1.00  0.00    -0.327 N 
HETATM    2  C4  UNL     1      48.749  30.547  39.835  1.00  0.00     0.042 A 
HETATM    3  C5  UNL     1      48.634  29.917  41.164  1.00  0.00     0.071 C 
HETATM    4  C6  UNL     1      48.781  31.950  39.732  1.00  0.00     0.129 A 
HETATM    5  N3  UNL     1      48.907  32.516  38.523  1.00  0.00    -0.289 N 
HETATM    6  C9  UNL     1      49.000  31.688  37.452  1.00  0.00     0.170 A 
HETATM    7  N5  UNL     1      49.147  32.204  36.108  1.00  0.00    -0.078 NA
HETATM    8  C10 UNL     1      48.966  30.303  37.575  1.00  0.00     0.172 A 
ENDROOT
BRANCH   5   9
HETATM    9  C8  UNL     1      48.910  33.922  38.267  1.00  0.00     0.229 C 
BRANCH   9  10
HETATM   10  S1  UNL     1      50.395  34.760  38.728  1.00  0.00     0.261 S 
HETATM   11  O2  UNL     1      51.453  33.749  39.162  1.00  0.00    -0.200 OA
HETATM   12  O3  UNL     1      51.018  35.476  37.557  1.00  0.00    -0.200 OA
BRANCH  10  13
HETATM   13  N4  UNL     1      50.241  35.878  39.990  1.00  0.00    -0.324 N 
ATOM     14  H42 UNL     1      49.325  36.177  40.325  1.00  0.00     0.169 HD
ATOM     15  H41 UNL     1      51.117  36.224  40.381  1.00  0.00     0.169 HD
ENDBRANCH  10  13
ENDBRANCH   9  10
ENDBRANCH   5   9
BRANCH   4  16
HETATM   16  C7  UNL     1      48.628  32.735  40.968  1.00  0.00     0.283 C 
HETATM   17  N2  UNL     1      49.718  33.067  41.801  1.00  0.00    -0.056 NA
HETATM   18  O1  UNL     1      47.503  33.160  41.374  1.00  0.00    -0.269 OA
ENDBRANCH   4  16
BRANCH   8  19
HETATM   19  N6  UNL     1      49.061  29.490  36.401  1.00  0.00    -0.246 N 
HETATM   20  C11 UNL     1      50.290  28.904  35.912  1.00  0.00     0.187 C 
BRANCH  19  21
HETATM   21  O4  UNL     1      47.934  29.221  35.710  1.00  0.00    -0.286 OA
ATOM     22  H4  UNL     1      47.717  29.767  34.964  1.00  0.00     0.244 HD
ENDBRANCH  19  21
ENDBRANCH   8  19
BRANCH   1  23
HETATM   23  C3  UNL     1      48.784  28.282  38.915  1.00  0.00     0.157 C 
BRANCH  23  24
HETATM   24  C2  UNL     1      50.048  27.627  39.253  1.00  0.00    -0.017 C 
HETATM   25  C1  UNL     1      50.434  26.454  38.769  1.00  0.00     0.008 C 
ENDBRANCH  23  24
ENDBRANCH   1  23
TORSDOF 8
ENDMDL
MODEL 2
REMARK VINA RESULT: -6.218861284      2.059      3.982
REMARK  8 active torsions:
REMARK  status: ('A' for Active; 'I' for Inactive)
REMARK    1  A    between atoms: C2_2  and  C3_3 
REMARK    2  A    between atoms: C3_3  and  N1_4 
REMARK    3  A    between atoms: C6_7  and  C7_8 
REMARK    4  A    between atoms: N3_11  and  C8_12 
REMARK    5  A    between atoms: C8_12  and  S1_13 
REMARK    6  A    between atoms: S1_13  and  N4_14 
REMARK    7  A    between atoms: C10_21  and  N6_22 
REMARK    8  A    between atoms: N6_22  and  O4_24 
ROOT
HETATM    1  N1  UNL     1      49.263  30.187  39.810  1.00  0.00    -0.327 N 
HETATM    2  C4  UNL     1      49.219  30.385  38.467  1.00  0.00     0.042 A 
HETATM    3  C5  UNL     1      48.458  29.406  37.668  1.00  0.00     0.071 C 
HETATM    4  C6  UNL     1      49.840  31.473  37.826  1.00  0.00     0.129 A 
HETATM    5  N3  UNL     1      50.513  32.370  38.560  1.00  0.00    -0.289 N 
HETATM    6  C9  UNL     1      50.555  32.174  39.902  1.00  0.00     0.170 A 
HETATM    7  N5  UNL     1      51.249  33.092  40.779  1.00  0.00    -0.078 NA
HETATM    8  C10 UNL     1      49.936  31.092  40.517  1.00  0.00     0.172 A 
ENDROOT
BRANCH   5   9
HETATM    9  C8  UNL     1      51.225  33.494  38.039  1.00  0.00     0.229 C 
BRANCH   9  10
HETATM   10  S1  UNL     1      50.329  35.016  38.053  1.00  0.00     0.261 S 
HETATM   11  O2  UNL     1      51.155  36.115  37.390  1.00  0.00    -0.200 OA
HETATM   12  O3  UNL     1      49.075  34.934  37.220  1.00  0.00    -0.200 OA
BRANCH  10  13
HETATM   13  N4  UNL     1      49.890  35.590  39.585  1.00  0.00    -0.324 N 
ATOM     14  H42 UNL     1      50.581  35.704  40.326  1.00  0.00     0.169 HD
ATOM     15  H41 UNL     1      48.902  35.809  39.706  1.00  0.00     0.169 HD
ENDBRANCH  10  13
ENDBRANCH   9  10
ENDBRANCH   5   9
BRANCH   4  16
HETATM   16  C7  UNL     1      49.755  31.546  36.357  1.00  0.00     0.283 C 
HETATM   17  N2  UNL     1      50.729  30.978  35.508  1.00  0.00    -0.056 NA
HETATM   18  O1  UNL     1      48.803  32.130  35.755  1.00  0.00    -0.269 OA
ENDBRANCH   4  16
BRANCH   8  19
HETATM   19  N6  UNL     1      50.027  30.943  41.938  1.00  0.00    -0.246 N 
HETATM   20  C11 UNL     1      48.976  31.304  42.865  1.00  0.00     0.187 C 
BRANCH  19  21
HETATM   21  O4  UNL     1      51.150  30.407  42.459  1.00  0.00    -0.286 OA
ATOM     22  H4  UNL     1      51.396  30.642  43.345  1.00  0.00     0.244 HD
ENDBRANCH  19  21
ENDBRANCH   8  19
BRANCH   1  23
HETATM   23  C3  UNL     1      48.625  29.045  40.424  1.00  0.00     0.157 C 
BRANCH  23  24
HETATM   24  C2  UNL     1      49.356  27.781  40.332  1.00  0.00    -0.017 C 
HETATM   25  C1  UNL     1      48.781  26.586  40.313  1.00  0.00     0.008 C 
ENDBRANCH  23  24
ENDBRANCH   1  23
TORSDOF 8
ENDMDL
MODEL 3
REMARK VINA RESULT: -6.116661578      2.399      5.636
REMARK  8 active torsions:
REMARK  status: ('A' for Active; 'I' for Inactive)
REMARK    1  A    between atoms: C2_2  and  C3_3 
REMARK    2  A    between atoms: C3_3  and  N1_4 
REMARK    3  A    between atoms: C6_7  and  C7_8 
REMARK    4  A    between atoms: N3_11  and  C8_12 
REMARK    5  A    between atoms: C8_12  and  S1_13 
REMARK    6  A    between atoms: S1_13  and  N4_14 
REMARK    7  A    between atoms: C10_21  and  N6_22 
REMARK    8  A    between atoms: N6_22  and  O4_24 
ROOT
HETATM    1  N1  UNL     1      50.103  33.368  37.227  1.00  0.00    -0.327 N 
HETATM    2  C4  UNL     1      49.817  32.041  37.234  1.00  0.00     0.042 A 
HETATM    3  C5  UNL     1      49.550  31.404  35.931  1.00  0.00     0.071 C 
HETATM    4  C6  UNL     1      49.786  31.264  38.407  1.00  0.00     0.129 A 
HETATM    5  N3  UNL     1      50.050  31.845  39.586  1.00  0.00    -0.289 N 
HETATM    6  C9  UNL     1      50.338  33.171  39.579  1.00  0.00     0.170 A 
HETATM    7  N5  UNL     1      50.645  33.885  40.799  1.00  0.00    -0.078 NA
HETATM    8  C10 UNL     1      50.363  33.922  38.409  1.00  0.00     0.172 A 
ENDROOT
BRANCH   5   9
HETATM    9  C8  UNL     1      50.011  31.189  40.855  1.00  0.00     0.229 C 
BRANCH   9  10
HETATM   10  S1  UNL     1      48.428  31.179  41.640  1.00  0.00     0.261 S 
HETATM   11  O2  UNL     1      48.594  31.306  43.152  1.00  0.00    -0.200 OA
HETATM   12  O3  UNL     1      47.604  32.380  41.250  1.00  0.00    -0.200 OA
BRANCH  10  13
HETATM   13  N4  UNL     1      47.486  29.800  41.365  1.00  0.00    -0.324 N 
ATOM     14  H42 UNL     1      46.955  29.683  40.502  1.00  0.00     0.169 HD
ATOM     15  H41 UNL     1      47.491  29.107  42.113  1.00  0.00     0.169 HD
ENDBRANCH  10  13
ENDBRANCH   9  10
ENDBRANCH   5   9
BRANCH   4  16
HETATM   16  C7  UNL     1      49.417  29.844  38.282  1.00  0.00     0.283 C 
HETATM   17  N2  UNL     1      50.368  28.825  38.061  1.00  0.00    -0.056 NA
HETATM   18  O1  UNL     1      48.216  29.440  38.358  1.00  0.00    -0.269 OA
ENDBRANCH   4  16
BRANCH   8  19
HETATM   19  N6  UNL     1      50.667  35.319  38.476  1.00  0.00    -0.246 N 
HETATM   20  C11 UNL     1      51.909  35.906  38.020  1.00  0.00     0.187 C 
BRANCH  19  21
HETATM   21  O4  UNL     1      49.734  36.159  38.968  1.00  0.00    -0.286 OA
ATOM     22  H4  UNL     1      50.014  37.003  39.302  1.00  0.00     0.244 HD
ENDBRANCH  19  21
ENDBRANCH   8  19
BRANCH   1  23
HETATM   23  C3  UNL     1      50.106  34.132  36.000  1.00  0.00     0.157 C 
BRANCH  23  24
HETATM   24  C2  UNL     1      48.843  34.785  35.652  1.00  0.00    -0.017 C 
HETATM   25  C1  UNL     1      48.236  34.659  34.480  1.00  0.00     0.008 C 
ENDBRANCH  23  24
ENDBRANCH   1  23
TORSDOF 8
ENDMDL
MODEL 4
REMARK VINA RESULT: -6.028583505      1.523      1.785
REMARK  8 active torsions:
REMARK  status: ('A' for Active; 'I' for Inactive)
REMARK    1  A    between atoms: C2_2  and  C3_3 
REMARK    2  A    between atoms: C3_3  and  N1_4 
REMARK    3  A    between atoms: C6_7  and  C7_8 
REMARK    4  A    between atoms: N3_11  and  C8_12 
REMARK    5  A    between atoms: C8_12  and  S1_13 
REMARK    6  A    between atoms: S1_13  and  N4_14 
REMARK    7  A    between atoms: C10_21  and  N6_22 
REMARK    8  A    between atoms: N6_22  and  O4_24 
ROOT
HETATM    1  N1  UNL     1      48.966  28.785  38.370  1.00  0.00    -0.327 N 
HETATM    2  C4  UNL     1      48.970  29.104  39.690  1.00  0.00     0.042 A 
HETATM    3  C5  UNL     1      48.998  27.986  40.651  1.00  0.00     0.071 C 
HETATM    4  C6  UNL     1      48.967  30.429  40.165  1.00  0.00     0.129 A 
HETATM    5  N3  UNL     1      48.962  31.441  39.285  1.00  0.00    -0.289 N 
HETATM    6  C9  UNL     1      48.961  31.123  37.966  1.00  0.00     0.170 A 
HETATM    7  N5  UNL     1      48.965  32.145  36.943  1.00  0.00    -0.078 NA
HETATM    8  C10 UNL     1      48.963  29.807  37.517  1.00  0.00     0.172 A 
ENDROOT
BRANCH   5   9
HETATM    9  C8  UNL     1      48.915  32.828  39.626  1.00  0.00     0.229 C 
BRANCH   9  10
HETATM   10  S1  UNL     1      50.486  33.634  39.686  1.00  0.00     0.261 S 
HETATM   11  O2  UNL     1      50.377  34.933  40.480  1.00  0.00    -0.200 OA
HETATM   12  O3  UNL     1      51.504  32.816  40.440  1.00  0.00    -0.200 OA
BRANCH  10  13
HETATM   13  N4  UNL     1      51.160  34.033  38.185  1.00  0.00    -0.324 N 
ATOM     14  H42 UNL     1      50.866  34.866  37.676  1.00  0.00     0.169 HD
ATOM     15  H41 UNL     1      51.868  33.388  37.835  1.00  0.00     0.169 HD
ENDBRANCH  10  13
ENDBRANCH   9  10
ENDBRANCH   5   9
BRANCH   4  16
HETATM   16  C7  UNL     1      48.925  30.637  41.622  1.00  0.00     0.283 C 
HETATM   17  N2  UNL     1      50.088  30.672  42.421  1.00  0.00    -0.056 NA
HETATM   18  O1  UNL     1      47.839  30.792  42.260  1.00  0.00    -0.269 OA
ENDBRANCH   4  16
BRANCH   8  19
HETATM   19  N6  UNL     1      48.953  29.544  36.110  1.00  0.00    -0.246 N 
HETATM   20  C11 UNL     1      50.139  29.292  35.320  1.00  0.00     0.187 C 
BRANCH  19  21
HETATM   21  O4  UNL     1      47.767  29.499  35.470  1.00  0.00    -0.286 OA
ATOM     22  H4  UNL     1      47.211  30.268  35.489  1.00  0.00     0.244 HD
ENDBRANCH  19  21
ENDBRANCH   8  19
BRANCH   1  23
HETATM   23  C3  UNL     1      48.950  27.410  37.927  1.00  0.00     0.157 C 
BRANCH  23  24
HETATM   24  C2  UNL     1      50.251  26.741  37.875  1.00  0.00    -0.017 C 
HETATM   25  C1  UNL     1      50.447  25.465  38.176  1.00  0.00     0.008 C 
ENDBRANCH  23  24
ENDBRANCH   1  23
TORSDOF 8
ENDMDL
MODEL 5
REMARK VINA RESULT: -5.942227013      2.547      5.967
REMARK  8 active torsions:
REMARK  status: ('A' for Active; 'I' for Inactive)
REMARK    1  A    between atoms: C2_2  and  C3_3 
REMARK    2  A    between atoms: C3_3  and  N1_4 
REMARK    3  A    between atoms: C6_7  and  C7_8 
REMARK    4  A    between atoms: N3_11  and  C8_12 
REMARK    5  A    between atoms: C8_12  and  S1_13 
REMARK    6  A    between atoms: S1_13  and  N4_14 
REMARK    7  A    between atoms: C10_21  and  N6_22 
REMARK    8  A    between atoms: N6_22  and  O4_24 
ROOT
HETATM    1  N1  UNL     1      49.987  33.988  37.221  1.00  0.00    -0.327 N 
HETATM    2  C4  UNL     1      49.694  32.686  36.972  1.00  0.00     0.042 A 
HETATM    3  C5  UNL     1      49.305  32.336  35.593  1.00  0.00     0.071 C 
HETATM    4  C6  UNL     1      49.764  31.678  37.952  1.00  0.00     0.129 A 
HETATM    5  N3  UNL     1      50.139  31.999  39.198  1.00  0.00    -0.289 N 
HETATM    6  C9  UNL     1      50.434  33.300  39.447  1.00  0.00     0.170 A 
HETATM    7  N5  UNL     1      50.855  33.743  40.757  1.00  0.00    -0.078 NA
HETATM    8  C10 UNL     1      50.357  34.282  38.465  1.00  0.00     0.172 A 
ENDROOT
BRANCH   5   9
HETATM    9  C8  UNL     1      50.211  31.089  40.298  1.00  0.00     0.229 C 
BRANCH   9  10
HETATM   10  S1  UNL     1      48.714  30.914  41.219  1.00  0.00     0.261 S 
HETATM   11  O2  UNL     1      49.008  31.000  42.715  1.00  0.00    -0.200 OA
HETATM   12  O3  UNL     1      47.761  32.053  40.957  1.00  0.00    -0.200 OA
BRANCH  10  13
HETATM   13  N4  UNL     1      47.867  29.469  40.969  1.00  0.00    -0.324 N 
ATOM     14  H42 UNL     1      48.169  28.792  40.269  1.00  0.00     0.169 HD
ATOM     15  H41 UNL     1      47.049  29.331  41.562  1.00  0.00     0.169 HD
ENDBRANCH  10  13
ENDBRANCH   9  10
ENDBRANCH   5   9
BRANCH   4  16
HETATM   16  C7  UNL     1      49.376  30.312  37.562  1.00  0.00     0.283 C 
HETATM   17  N2  UNL     1      48.064  29.816  37.726  1.00  0.00    -0.056 NA
HETATM   18  O1  UNL     1      50.195  29.484  37.059  1.00  0.00    -0.269 OA
ENDBRANCH   4  16
BRANCH   8  19
HETATM   19  N6  UNL     1      50.676  35.637  38.799  1.00  0.00    -0.246 N 
HETATM   20  C11 UNL     1      51.866  36.328  38.353  1.00  0.00     0.187 C 
BRANCH  19  21
HETATM   21  O4  UNL     1      49.805  36.336  39.555  1.00  0.00    -0.286 OA
ATOM     22  H4  UNL     1      49.791  36.182  40.492  1.00  0.00     0.244 HD
ENDBRANCH  19  21
ENDBRANCH   8  19
BRANCH   1  23
HETATM   23  C3  UNL     1      49.883  34.994  36.189  1.00  0.00     0.157 C 
BRANCH  23  24
HETATM   24  C2  UNL     1      51.014  35.078  35.263  1.00  0.00    -0.017 C 
HETATM   25  C1  UNL     1      51.274  36.127  34.495  1.00  0.00     0.008 C 
ENDBRANCH  23  24
ENDBRANCH   1  23
TORSDOF 8
ENDMDL
