MODEL 1
REMARK VINA RESULT: -6.025968247      0.000      0.000
REMARK  6 active torsions:
REMARK  status: ('A' for Active; 'I' for Inactive)
REMARK    1  A    between atoms: C2_2  and  C4_4 
REMARK    2  A    between atoms: C4_4  and  C5_5 
REMARK    3  A    between atoms: C5_5  and  N1_6 
REMARK    4  A    between atoms: C5_5  and  C13_17 
REMARK       I    between atoms: N1_6  and  C6_8 
REMARK    5  A    between atoms: C6_8  and  C7_10 
REMARK    6  A    between atoms: C9_12  and  C10_13 
ROOT
HETATM    1  N1  UNL     1      22.628  12.141  21.205  1.00  0.00    -0.346 N 
ATOM      2  H1  UNL     1      22.679  12.938  21.839  1.00  0.00     0.163 HD
HETATM    3  C6  UNL     1      21.833  11.033  21.576  1.00  0.00     0.223 C 
HETATM    4  O1  UNL     1      21.788  10.054  20.767  1.00  0.00    -0.273 OA
ENDROOT
BRANCH   1   5
HETATM    5  C5  UNL     1      23.374  12.194  19.966  1.00  0.00     0.185 C 
BRANCH   5   6
HETATM    6  C4  UNL     1      24.841  12.181  20.310  1.00  0.00     0.040 C 
BRANCH   6   7
HETATM    7  C2  UNL     1      25.603  11.046  19.695  1.00  0.00    -0.020 C 
HETATM    8  C1  UNL     1      26.561  11.680  18.675  1.00  0.00     0.009 C 
HETATM    9  C3  UNL     1      24.674  10.143  18.878  1.00  0.00     0.009 C 
ENDBRANCH   6   7
ENDBRANCH   5   6
BRANCH   5  10
HETATM   10  C13 UNL     1      23.116  13.457  19.228  1.00  0.00     0.196 C 
HETATM   11  O2  UNL     1      22.171  14.181  19.629  1.00  0.00    -0.646 OA
HETATM   12  O3  UNL     1      23.838  13.875  18.147  1.00  0.00    -0.646 OA
ENDBRANCH   5  10
ENDBRANCH   1   5
BRANCH   3  13
HETATM   13  C7  UNL     1      21.063  10.934  22.816  1.00  0.00     0.083 A 
HETATM   14  C8  UNL     1      21.906  10.515  24.033  1.00  0.00     0.020 A 
HETATM   15  C9  UNL     1      21.322  11.857  23.949  1.00  0.00     0.005 A 
BRANCH  15  16
HETATM   16  C10 UNL     1      20.203  12.158  24.925  1.00  0.00     0.010 A 
HETATM   17  C11 UNL     1      20.238  13.564  25.479  1.00  0.00     0.027 A 
HETATM   18  C12 UNL     1      20.514  12.395  26.352  1.00  0.00     0.087 A 
HETATM   19 CL1  UNL     1      19.260  12.027  27.559  1.00  0.00    -0.125 Cl
ENDBRANCH  15  16
ENDBRANCH   3  13
TORSDOF 6
ENDMDL
MODEL 2
REMARK VINA RESULT: -5.896585984      4.165      7.899
REMARK  6 active torsions:
REMARK  status: ('A' for Active; 'I' for Inactive)
REMARK    1  A    between atoms: C2_2  and  C4_4 
REMARK    2  A    between atoms: C4_4  and  C5_5 
REMARK    3  A    between atoms: C5_5  and  N1_6 
REMARK    4  A    between atoms: C5_5  and  C13_17 
REMARK       I    between atoms: N1_6  and  C6_8 
REMARK    5  A    between atoms: C6_8  and  C7_10 
REMARK    6  A    between atoms: C9_12  and  C10_13 
ROOT
HETATM    1  N1  UNL     1      20.479  11.463  26.020  1.00  0.00    -0.346 N 
ATOM      2  H1  UNL     1      20.739  10.494  26.206  1.00  0.00     0.163 HD
HETATM    3  C6  UNL     1      20.923  12.063  24.821  1.00  0.00     0.223 C 
HETATM    4  O1  UNL     1      20.584  13.270  24.614  1.00  0.00    -0.273 OA
ENDROOT
BRANCH   1   5
HETATM    5  C5  UNL     1      19.670  12.161  26.996  1.00  0.00     0.185 C 
BRANCH   5   6
HETATM    6  C4  UNL     1      19.959  11.561  28.347  1.00  0.00     0.040 C 
BRANCH   6   7
HETATM    7  C2  UNL     1      20.598  12.511  29.315  1.00  0.00    -0.020 C 
HETATM    8  C1  UNL     1      19.559  12.757  30.419  1.00  0.00     0.009 C 
HETATM    9  C3  UNL     1      20.834  13.877  28.663  1.00  0.00     0.009 C 
ENDBRANCH   6   7
ENDBRANCH   5   6
BRANCH   5  10
HETATM   10  C13 UNL     1      18.219  11.969  26.741  1.00  0.00     0.196 C 
HETATM   11  O2  UNL     1      17.428  12.812  27.233  1.00  0.00    -0.646 OA
HETATM   12  O3  UNL     1      17.698  10.939  26.013  1.00  0.00    -0.646 OA
ENDBRANCH   5  10
ENDBRANCH   1   5
BRANCH   3  13
HETATM   13  C7  UNL     1      21.742  11.397  23.806  1.00  0.00     0.083 A 
HETATM   14  C8  UNL     1      20.954  10.405  22.932  1.00  0.00     0.020 A 
HETATM   15  C9  UNL     1      21.507  11.637  22.361  1.00  0.00     0.005 A 
BRANCH  15  16
HETATM   16  C10 UNL     1      22.655  11.462  21.388  1.00  0.00     0.010 A 
HETATM   17  C11 UNL     1      22.405  12.082  20.032  1.00  0.00     0.027 A 
HETATM   18  C12 UNL     1      22.484  10.608  20.193  1.00  0.00     0.087 A 
HETATM   19 CL1  UNL     1      23.929   9.837  19.496  1.00  0.00    -0.125 Cl
ENDBRANCH  15  16
ENDBRANCH   3  13
TORSDOF 6
ENDMDL
MODEL 3
REMARK VINA RESULT: -5.779667873      2.751      3.817
REMARK  6 active torsions:
REMARK  status: ('A' for Active; 'I' for Inactive)
REMARK    1  A    between atoms: C2_2  and  C4_4 
REMARK    2  A    between atoms: C4_4  and  C5_5 
REMARK    3  A    between atoms: C5_5  and  N1_6 
REMARK    4  A    between atoms: C5_5  and  C13_17 
REMARK       I    between atoms: N1_6  and  C6_8 
REMARK    5  A    between atoms: C6_8  and  C7_10 
REMARK    6  A    between atoms: C9_12  and  C10_13 
ROOT
HETATM    1  N1  UNL     1      25.750  11.562  20.407  1.00  0.00    -0.346 N 
ATOM      2  H1  UNL     1      25.529  11.851  21.360  1.00  0.00     0.163 HD
HETATM    3  C6  UNL     1      24.831  10.739  19.719  1.00  0.00     0.223 C 
HETATM    4  O1  UNL     1      25.132  10.395  18.534  1.00  0.00    -0.273 OA
ENDROOT
BRANCH   1   5
HETATM    5  C5  UNL     1      26.993  12.014  19.819  1.00  0.00     0.185 C 
BRANCH   5   6
HETATM    6  C4  UNL     1      28.054  11.964  20.888  1.00  0.00     0.040 C 
BRANCH   6   7
HETATM    7  C2  UNL     1      29.127  10.947  20.640  1.00  0.00    -0.020 C 
HETATM    8  C1  UNL     1      28.430   9.743  19.990  1.00  0.00     0.009 C 
HETATM    9  C3  UNL     1      29.701  10.426  21.961  1.00  0.00     0.009 C 
ENDBRANCH   6   7
ENDBRANCH   5   6
BRANCH   5  10
HETATM   10  C13 UNL     1      26.903  13.427  19.368  1.00  0.00     0.196 C 
HETATM   11  O2  UNL     1      27.732  14.242  19.846  1.00  0.00    -0.646 OA
HETATM   12  O3  UNL     1      25.980  13.890  18.476  1.00  0.00    -0.646 OA
ENDBRANCH   5  10
ENDBRANCH   1   5
BRANCH   3  13
HETATM   13  C7  UNL     1      23.564  10.258  20.272  1.00  0.00     0.083 A 
HETATM   14  C8  UNL     1      23.735   9.204  21.380  1.00  0.00     0.020 A 
HETATM   15  C9  UNL     1      23.195  10.533  21.682  1.00  0.00     0.005 A 
BRANCH  15  16
HETATM   16  C10 UNL     1      21.729  10.584  22.064  1.00  0.00     0.010 A 
HETATM   17  C11 UNL     1      21.357  11.793  22.891  1.00  0.00     0.027 A 
HETATM   18  C12 UNL     1      21.332  10.431  23.481  1.00  0.00     0.087 A 
HETATM   19 CL1  UNL     1      19.715   9.777  23.835  1.00  0.00    -0.125 Cl
ENDBRANCH  15  16
ENDBRANCH   3  13
TORSDOF 6
ENDMDL
MODEL 4
REMARK VINA RESULT: -5.760240003      3.775      5.445
REMARK  6 active torsions:
REMARK  status: ('A' for Active; 'I' for Inactive)
REMARK    1  A    between atoms: C2_2  and  C4_4 
REMARK    2  A    between atoms: C4_4  and  C5_5 
REMARK    3  A    between atoms: C5_5  and  N1_6 
REMARK    4  A    between atoms: C5_5  and  C13_17 
REMARK       I    between atoms: N1_6  and  C6_8 
REMARK    5  A    between atoms: C6_8  and  C7_10 
REMARK    6  A    between atoms: C9_12  and  C10_13 
ROOT
HETATM    1  N1  UNL     1      26.870  12.405  20.760  1.00  0.00    -0.346 N 
ATOM      2  H1  UNL     1      26.427  11.897  21.527  1.00  0.00     0.163 HD
HETATM    3  C6  UNL     1      26.179  12.511  19.533  1.00  0.00     0.223 C 
HETATM    4  O1  UNL     1      26.754  13.148  18.595  1.00  0.00    -0.273 OA
ENDROOT
BRANCH   1   5
HETATM    5  C5  UNL     1      28.178  12.984  20.979  1.00  0.00     0.185 C 
BRANCH   5   6
HETATM    6  C4  UNL     1      29.184  11.863  20.980  1.00  0.00     0.040 C 
BRANCH   6   7
HETATM    7  C2  UNL     1      28.605  10.520  21.309  1.00  0.00    -0.020 C 
HETATM    8  C1  UNL     1      29.610   9.842  22.252  1.00  0.00     0.009 C 
HETATM    9  C3  UNL     1      28.547   9.631  20.064  1.00  0.00     0.009 C 
ENDBRANCH   6   7
ENDBRANCH   5   6
BRANCH   5  10
HETATM   10  C13 UNL     1      28.268  13.644  22.307  1.00  0.00     0.196 C 
HETATM   11  O2  UNL     1      27.800  14.807  22.409  1.00  0.00    -0.646 OA
HETATM   12  O3  UNL     1      28.825  13.070  23.412  1.00  0.00    -0.646 OA
ENDBRANCH   5  10
ENDBRANCH   1   5
BRANCH   3  13
HETATM   13  C7  UNL     1      24.857  11.942  19.265  1.00  0.00     0.083 A 
HETATM   14  C8  UNL     1      24.900  10.477  18.797  1.00  0.00     0.020 A 
HETATM   15  C9  UNL     1      24.322  10.835  20.095  1.00  0.00     0.005 A 
BRANCH  15  16
HETATM   16  C10 UNL     1      22.822  10.669  20.225  1.00  0.00     0.010 A 
HETATM   17  C11 UNL     1      22.178  11.658  21.169  1.00  0.00     0.027 A 
HETATM   18  C12 UNL     1      22.239  10.213  21.506  1.00  0.00     0.087 A 
HETATM   19 CL1  UNL     1      20.684   9.349  21.463  1.00  0.00    -0.125 Cl
ENDBRANCH  15  16
ENDBRANCH   3  13
TORSDOF 6
ENDMDL
MODEL 5
REMARK VINA RESULT: -5.712368514      3.290      4.331
REMARK  6 active torsions:
REMARK  status: ('A' for Active; 'I' for Inactive)
REMARK    1  A    between atoms: C2_2  and  C4_4 
REMARK    2  A    between atoms: C4_4  and  C5_5 
REMARK    3  A    between atoms: C5_5  and  N1_6 
REMARK    4  A    between atoms: C5_5  and  C13_17 
REMARK       I    between atoms: N1_6  and  C6_8 
REMARK    5  A    between atoms: C6_8  and  C7_10 
REMARK    6  A    between atoms: C9_12  and  C10_13 
ROOT
HETATM    1  N1  UNL     1      25.884  12.404  21.738  1.00  0.00    -0.346 N 
ATOM      2  H1  UNL     1      25.678  11.648  22.391  1.00  0.00     0.163 HD
HETATM    3  C6  UNL     1      24.851  12.868  20.894  1.00  0.00     0.223 C 
HETATM    4  O1  UNL     1      25.135  13.810  20.090  1.00  0.00    -0.273 OA
ENDROOT
BRANCH   1   5
HETATM    5  C5  UNL     1      27.222  12.955  21.717  1.00  0.00     0.185 C 
BRANCH   5   6
HETATM    6  C4  UNL     1      28.083  12.043  20.881  1.00  0.00     0.040 C 
BRANCH   6   7
HETATM    7  C2  UNL     1      27.419  10.753  20.501  1.00  0.00    -0.020 C 
HETATM    8  C1  UNL     1      28.496   9.666  20.630  1.00  0.00     0.009 C 
HETATM    9  C3  UNL     1      27.019  10.761  19.022  1.00  0.00     0.009 C 
ENDBRANCH   6   7
ENDBRANCH   5   6
BRANCH   5  10
HETATM   10  C13 UNL     1      27.822  12.984  23.076  1.00  0.00     0.196 C 
HETATM   11  O2  UNL     1      28.864  12.308  23.265  1.00  0.00    -0.646 OA
HETATM   12  O3  UNL     1      27.311  13.693  24.125  1.00  0.00    -0.646 OA
ENDBRANCH   5  10
ENDBRANCH   1   5
BRANCH   3  13
HETATM   13  C7  UNL     1      23.484  12.343  20.879  1.00  0.00     0.083 A 
HETATM   14  C8  UNL     1      23.381  10.909  20.332  1.00  0.00     0.020 A 
HETATM   15  C9  UNL     1      23.098  11.199  21.741  1.00  0.00     0.005 A 
BRANCH  15  16
HETATM   16  C10 UNL     1      21.653  11.056  22.173  1.00  0.00     0.010 A 
HETATM   17  C11 UNL     1      21.304  11.852  23.409  1.00  0.00     0.027 A 
HETATM   18  C12 UNL     1      21.329  10.368  23.442  1.00  0.00     0.087 A 
HETATM   19 CL1  UNL     1      19.741   9.578  23.588  1.00  0.00    -0.125 Cl
ENDBRANCH  15  16
ENDBRANCH   3  13
TORSDOF 6
ENDMDL
