MODEL 1
REMARK VINA RESULT: -3.984784691      0.000      0.000
REMARK  4 active torsions:
REMARK  status: ('A' for Active; 'I' for Inactive)
REMARK    1  A    between atoms: C1_4  and  C2_5 
REMARK    2  A    between atoms: C2_5  and  N2_6 
REMARK    3  A    between atoms: C2_5  and  N3_10 
REMARK       I    between atoms: N3_10  and  C3_12 
REMARK    4  A    between atoms: C3_12  and  C4_14 
ROOT
HETATM    1  C2  UNL     1      17.023  19.219  60.708  1.00  0.00     0.323 C 
ENDROOT
BRANCH   1   2
HETATM    2  C1  UNL     1      16.084  19.627  61.779  1.00  0.00     0.107 C 
HETATM    3  N1  UNL     1      15.726  18.859  62.736  1.00  0.00    -0.408 N 
ATOM      4  H12 UNL     1      16.118  17.917  62.749  1.00  0.00     0.155 HD
ATOM      5  H11 UNL     1      15.080  19.140  63.473  1.00  0.00     0.155 HD
ENDBRANCH   1   2
BRANCH   1   6
HETATM    6  N2  UNL     1      18.304  18.764  61.242  1.00  0.00    -0.054 N 
ATOM      7  H23 UNL     1      18.211  18.452  62.209  1.00  0.00     0.277 HD
ATOM      8  H22 UNL     1      18.589  17.883  60.815  1.00  0.00     0.277 HD
ATOM      9  H21 UNL     1      19.033  19.471  61.151  1.00  0.00     0.277 HD
ENDBRANCH   1   6
BRANCH   1  10
HETATM   10  N3  UNL     1      16.452  18.229  59.813  1.00  0.00    -0.322 N 
HETATM   11  C3  UNL     1      17.164  17.691  58.725  1.00  0.00     0.308 C 
HETATM   12  O1  UNL     1      18.329  18.063  58.501  1.00  0.00    -0.263 OA
ATOM     13  H3  UNL     1      15.496  17.911  59.979  1.00  0.00     0.165 HD
BRANCH  11  14
HETATM   14  C4  UNL     1      16.552  16.706  57.860  1.00  0.00     0.322 C 
HETATM   15  N4  UNL     1      15.762  17.129  56.759  1.00  0.00    -0.053 NA
HETATM   16  O2  UNL     1      16.723  15.458  58.088  1.00  0.00    -0.266 OA
ENDBRANCH  11  14
ENDBRANCH   1  10
TORSDOF 4
ENDMDL
MODEL 2
REMARK VINA RESULT: -3.967948700      1.289      1.302
REMARK  4 active torsions:
REMARK  status: ('A' for Active; 'I' for Inactive)
REMARK    1  A    between atoms: C1_4  and  C2_5 
REMARK    2  A    between atoms: C2_5  and  N2_6 
REMARK    3  A    between atoms: C2_5  and  N3_10 
REMARK       I    between atoms: N3_10  and  C3_12 
REMARK    4  A    between atoms: C3_12  and  C4_14 
ROOT
HETATM    1  C2  UNL     1      17.521  18.782  60.171  1.00  0.00     0.323 C 
ENDROOT
BRANCH   1   2
HETATM    2  C1  UNL     1      16.627  19.548  61.070  1.00  0.00     0.107 C 
HETATM    3  N1  UNL     1      16.058  19.044  62.098  1.00  0.00    -0.408 N 
ATOM      4  H12 UNL     1      16.240  18.060  62.296  1.00  0.00     0.155 HD
ATOM      5  H11 UNL     1      15.442  19.571  62.717  1.00  0.00     0.155 HD
ENDBRANCH   1   2
BRANCH   1   6
HETATM    6  N2  UNL     1      18.539  18.039  60.908  1.00  0.00    -0.054 N 
ATOM      7  H23 UNL     1      19.477  18.305  60.611  1.00  0.00     0.277 HD
ATOM      8  H22 UNL     1      18.585  18.342  61.881  1.00  0.00     0.277 HD
ATOM      9  H21 UNL     1      18.402  17.030  60.842  1.00  0.00     0.277 HD
ENDBRANCH   1   6
BRANCH   1  10
HETATM   10  N3  UNL     1      16.790  17.909  59.269  1.00  0.00    -0.322 N 
HETATM   11  C3  UNL     1      17.435  17.052  58.358  1.00  0.00     0.308 C 
HETATM   12  O1  UNL     1      18.677  17.023  58.304  1.00  0.00    -0.263 OA
ATOM     13  H3  UNL     1      15.770  17.919  59.296  1.00  0.00     0.165 HD
BRANCH  11  14
HETATM   14  C4  UNL     1      16.664  16.200  57.479  1.00  0.00     0.322 C 
HETATM   15  N4  UNL     1      16.999  14.826  57.356  1.00  0.00    -0.053 NA
HETATM   16  O2  UNL     1      15.684  16.685  56.813  1.00  0.00    -0.266 OA
ENDBRANCH  11  14
ENDBRANCH   1  10
TORSDOF 4
ENDMDL
MODEL 3
REMARK VINA RESULT: -3.942778780      3.909      6.353
REMARK  4 active torsions:
REMARK  status: ('A' for Active; 'I' for Inactive)
REMARK    1  A    between atoms: C1_4  and  C2_5 
REMARK    2  A    between atoms: C2_5  and  N2_6 
REMARK    3  A    between atoms: C2_5  and  N3_10 
REMARK       I    between atoms: N3_10  and  C3_12 
REMARK    4  A    between atoms: C3_12  and  C4_14 
ROOT
HETATM    1  C2  UNL     1      18.811  15.373  54.085  1.00  0.00     0.323 C 
ENDROOT
BRANCH   1   2
HETATM    2  C1  UNL     1      18.581  15.836  52.698  1.00  0.00     0.107 C 
HETATM    3  N1  UNL     1      17.429  16.147  52.238  1.00  0.00    -0.408 N 
ATOM      4  H12 UNL     1      16.636  16.066  52.874  1.00  0.00     0.155 HD
ATOM      5  H11 UNL     1      17.270  16.466  51.283  1.00  0.00     0.155 HD
ENDBRANCH   1   2
BRANCH   1   6
HETATM    6  N2  UNL     1      20.190  15.586  54.516  1.00  0.00    -0.054 N 
ATOM      7  H23 UNL     1      20.613  16.372  54.024  1.00  0.00     0.277 HD
ATOM      8  H22 UNL     1      20.227  15.951  55.467  1.00  0.00     0.277 HD
ATOM      9  H21 UNL     1      20.757  14.743  54.422  1.00  0.00     0.277 HD
ENDBRANCH   1   6
BRANCH   1  10
HETATM   10  N3  UNL     1      17.875  15.956  55.031  1.00  0.00    -0.322 N 
HETATM   11  C3  UNL     1      17.652  15.410  56.308  1.00  0.00     0.308 C 
HETATM   12  O1  UNL     1      18.265  14.389  56.664  1.00  0.00    -0.263 OA
ATOM     13  H3  UNL     1      17.361  16.794  54.758  1.00  0.00     0.165 HD
BRANCH  11  14
HETATM   14  C4  UNL     1      16.708  16.027  57.216  1.00  0.00     0.322 C 
HETATM   15  N4  UNL     1      15.752  16.950  56.719  1.00  0.00    -0.053 NA
HETATM   16  O2  UNL     1      16.738  15.740  58.463  1.00  0.00    -0.266 OA
ENDBRANCH  11  14
ENDBRANCH   1  10
TORSDOF 4
ENDMDL
MODEL 4
REMARK VINA RESULT: -3.927270616      2.932      4.069
REMARK  4 active torsions:
REMARK  status: ('A' for Active; 'I' for Inactive)
REMARK    1  A    between atoms: C1_4  and  C2_5 
REMARK    2  A    between atoms: C2_5  and  N2_6 
REMARK    3  A    between atoms: C2_5  and  N3_10 
REMARK       I    between atoms: N3_10  and  C3_12 
REMARK    4  A    between atoms: C3_12  and  C4_14 
ROOT
HETATM    1  C2  UNL     1      17.101  16.858  57.661  1.00  0.00     0.323 C 
ENDROOT
BRANCH   1   2
HETATM    2  C1  UNL     1      16.463  18.193  57.608  1.00  0.00     0.107 C 
HETATM    3  N1  UNL     1      16.076  18.833  58.645  1.00  0.00    -0.408 N 
ATOM      4  H12 UNL     1      16.222  18.386  59.550  1.00  0.00     0.155 HD
ATOM      5  H11 UNL     1      15.636  19.753  58.609  1.00  0.00     0.155 HD
ENDBRANCH   1   2
BRANCH   1   6
HETATM    6  N2  UNL     1      16.492  15.994  58.669  1.00  0.00    -0.054 N 
ATOM      7  H23 UNL     1      15.742  16.477  59.164  1.00  0.00     0.277 HD
ATOM      8  H22 UNL     1      15.946  15.249  58.235  1.00  0.00     0.277 HD
ATOM      9  H21 UNL     1      17.180  15.616  59.319  1.00  0.00     0.277 HD
ENDBRANCH   1   6
BRANCH   1  10
HETATM   10  N3  UNL     1      17.132  16.203  56.365  1.00  0.00    -0.322 N 
HETATM   11  C3  UNL     1      18.072  15.207  56.042  1.00  0.00     0.308 C 
HETATM   12  O1  UNL     1      18.920  14.858  56.881  1.00  0.00    -0.263 OA
ATOM     13  H3  UNL     1      16.445  16.475  55.661  1.00  0.00     0.165 HD
BRANCH  11  14
HETATM   14  C4  UNL     1      18.063  14.583  54.737  1.00  0.00     0.322 C 
HETATM   15  N4  UNL     1      17.708  15.345  53.593  1.00  0.00    -0.053 NA
HETATM   16  O2  UNL     1      18.374  13.347  54.615  1.00  0.00    -0.266 OA
ENDBRANCH  11  14
ENDBRANCH   1  10
TORSDOF 4
ENDMDL
MODEL 5
REMARK VINA RESULT: -3.921127689      3.833      5.948
REMARK  4 active torsions:
REMARK  status: ('A' for Active; 'I' for Inactive)
REMARK    1  A    between atoms: C1_4  and  C2_5 
REMARK    2  A    between atoms: C2_5  and  N2_6 
REMARK    3  A    between atoms: C2_5  and  N3_10 
REMARK       I    between atoms: N3_10  and  C3_12 
REMARK    4  A    between atoms: C3_12  and  C4_14 
ROOT
HETATM    1  C2  UNL     1      18.976  15.972  54.187  1.00  0.00     0.323 C 
ENDROOT
BRANCH   1   2
HETATM    2  C1  UNL     1      20.312  16.468  54.589  1.00  0.00     0.107 C 
HETATM    3  N1  UNL     1      21.129  15.796  55.307  1.00  0.00    -0.408 N 
ATOM      4  H12 UNL     1      20.829  14.870  55.611  1.00  0.00     0.155 HD
ATOM      5  H11 UNL     1      22.049  16.137  55.585  1.00  0.00     0.155 HD
ENDBRANCH   1   2
BRANCH   1   6
HETATM    6  N2  UNL     1      18.969  14.529  53.959  1.00  0.00    -0.054 N 
ATOM      7  H23 UNL     1      19.812  14.093  54.331  1.00  0.00     0.277 HD
ATOM      8  H22 UNL     1      18.274  14.067  54.546  1.00  0.00     0.277 HD
ATOM      9  H21 UNL     1      18.835  14.296  52.976  1.00  0.00     0.277 HD
ENDBRANCH   1   6
BRANCH   1  10
HETATM   10  N3  UNL     1      17.933  16.355  55.123  1.00  0.00    -0.322 N 
HETATM   11  C3  UNL     1      17.770  15.729  56.372  1.00  0.00     0.308 C 
HETATM   12  O1  UNL     1      18.534  14.809  56.711  1.00  0.00    -0.263 OA
ATOM     13  H3  UNL     1      17.295  17.108  54.864  1.00  0.00     0.165 HD
BRANCH  11  14
HETATM   14  C4  UNL     1      16.716  16.146  57.271  1.00  0.00     0.322 C 
HETATM   15  N4  UNL     1      15.703  17.027  56.809  1.00  0.00    -0.053 NA
HETATM   16  O2  UNL     1      16.697  15.722  58.479  1.00  0.00    -0.266 OA
ENDBRANCH  11  14
ENDBRANCH   1  10
TORSDOF 4
ENDMDL
