MODEL 1
REMARK VINA RESULT: -6.221801719      0.000      0.000
REMARK  10 active torsions:
REMARK  status: ('A' for Active; 'I' for Inactive)
REMARK    1  A    between atoms: N3_4  and  C2_6 
REMARK    2  A    between atoms: C2_6  and  C3_7 
REMARK    3  A    between atoms: C3_7  and  C4_8 
REMARK    4  A    between atoms: C4_8  and  C5_9 
REMARK    5  A    between atoms: C5_9  and  C6_10 
REMARK    6  A    between atoms: C6_10  and  N4_11 
REMARK    7  A    between atoms: N4_11  and  C7_12 
REMARK    8  A    between atoms: C7_12  and  C8_13 
REMARK    9  A    between atoms: C15_21  and  C16_22 
REMARK   10  A    between atoms: C16_22  and  O1_23 
ROOT
HETATM    1  N4  UNL     1      91.885  70.314  30.535  1.00  0.00     0.018 N 
HETATM    2  N5  UNL     1      92.001  69.057  29.928  1.00  0.00    -0.044 NA
HETATM    3  C14 UNL     1      90.694  69.133  29.319  1.00  0.00     0.180 C 
HETATM    4  C15 UNL     1      90.853  70.605  29.571  1.00  0.00     0.251 C 
ENDROOT
BRANCH   1   5
HETATM    5  C6  UNL     1      91.470  70.236  31.896  1.00  0.00     0.261 C 
BRANCH   5   6
HETATM    6  C5  UNL     1      90.355  71.062  32.382  1.00  0.00     0.030 C 
BRANCH   6   7
HETATM    7  C4  UNL     1      90.701  72.494  32.660  1.00  0.00     0.003 C 
BRANCH   7   8
HETATM    8  C3  UNL     1      89.891  73.488  31.865  1.00  0.00     0.020 C 
BRANCH   8   9
HETATM    9  C2  UNL     1      90.718  74.660  31.408  1.00  0.00     0.122 C 
BRANCH   9  10
HETATM   10  N3  UNL     1      89.839  75.670  30.874  1.00  0.00    -0.367 N 
HETATM   11  C1  UNL     1      89.943  76.940  31.121  1.00  0.00     0.196 C 
HETATM   12  N1  UNL     1      90.997  77.352  31.977  1.00  0.00    -0.067 NA
HETATM   13  N2  UNL     1      89.022  77.846  30.542  1.00  0.00    -0.067 NA
ATOM     14  H3  UNL     1      89.085  75.367  30.258  1.00  0.00     0.161 HD
ENDBRANCH   9  10
ENDBRANCH   8   9
ENDBRANCH   7   8
ENDBRANCH   6   7
ENDBRANCH   5   6
ENDBRANCH   1   5
BRANCH   1  15
HETATM   15  C7  UNL     1      93.103  71.036  30.337  1.00  0.00     0.265 C 
BRANCH  15  16
HETATM   16  C8  UNL     1      94.088  71.019  31.458  1.00  0.00     0.013 C 
HETATM   17  C9  UNL     1      94.367  72.464  31.922  1.00  0.00     0.006 C 
HETATM   18  C10 UNL     1      94.782  72.345  33.384  1.00  0.00     0.000 C 
HETATM   19  C11 UNL     1      95.606  71.079  33.575  1.00  0.00     0.000 C 
HETATM   20  C12 UNL     1      96.368  70.755  32.305  1.00  0.00     0.000 C 
HETATM   21  C13 UNL     1      95.450  70.477  31.124  1.00  0.00     0.006 C 
ENDBRANCH  15  16
ENDBRANCH   1  15
BRANCH   4  22
HETATM   22  C16 UNL     1      91.076  71.481  28.428  1.00  0.00     0.200 C 
BRANCH  22  23
HETATM   23  O1  UNL     1      90.863  72.812  28.517  1.00  0.00    -0.399 OA
ATOM     24  H1  UNL     1      91.578  73.413  28.689  1.00  0.00     0.209 HD
ENDBRANCH  22  23
ENDBRANCH   4  22
TORSDOF 10
ENDMDL
MODEL 2
REMARK VINA RESULT: -6.219089181      4.898      7.322
REMARK  10 active torsions:
REMARK  status: ('A' for Active; 'I' for Inactive)
REMARK    1  A    between atoms: N3_4  and  C2_6 
REMARK    2  A    between atoms: C2_6  and  C3_7 
REMARK    3  A    between atoms: C3_7  and  C4_8 
REMARK    4  A    between atoms: C4_8  and  C5_9 
REMARK    5  A    between atoms: C5_9  and  C6_10 
REMARK    6  A    between atoms: C6_10  and  N4_11 
REMARK    7  A    between atoms: N4_11  and  C7_12 
REMARK    8  A    between atoms: C7_12  and  C8_13 
REMARK    9  A    between atoms: C15_21  and  C16_22 
REMARK   10  A    between atoms: C16_22  and  O1_23 
ROOT
HETATM    1  N4  UNL     1      85.927  70.711  29.644  1.00  0.00     0.018 N 
HETATM    2  N5  UNL     1      86.435  70.432  28.369  1.00  0.00    -0.044 NA
HETATM    3  C14 UNL     1      86.717  69.052  28.687  1.00  0.00     0.180 C 
HETATM    4  C15 UNL     1      85.739  69.290  29.801  1.00  0.00     0.251 C 
ENDROOT
BRANCH   1   5
HETATM    5  C6  UNL     1      86.888  71.317  30.503  1.00  0.00     0.261 C 
BRANCH   5   6
HETATM    6  C5  UNL     1      87.909  72.222  29.956  1.00  0.00     0.030 C 
BRANCH   6   7
HETATM    7  C4  UNL     1      88.243  73.399  30.822  1.00  0.00     0.003 C 
BRANCH   7   8
HETATM    8  C3  UNL     1      89.564  73.280  31.541  1.00  0.00     0.020 C 
BRANCH   8   9
HETATM    9  C2  UNL     1      90.472  74.447  31.260  1.00  0.00     0.122 C 
BRANCH   9  10
HETATM   10  N3  UNL     1      89.678  75.550  30.778  1.00  0.00    -0.367 N 
HETATM   11  C1  UNL     1      89.888  76.794  31.079  1.00  0.00     0.196 C 
HETATM   12  N1  UNL     1      90.978  77.079  31.943  1.00  0.00    -0.067 NA
HETATM   13  N2  UNL     1      89.043  77.798  30.549  1.00  0.00    -0.067 NA
ATOM     14  H3  UNL     1      88.897  75.337  30.157  1.00  0.00     0.161 HD
ENDBRANCH   9  10
ENDBRANCH   8   9
ENDBRANCH   7   8
ENDBRANCH   6   7
ENDBRANCH   5   6
ENDBRANCH   1   5
BRANCH   1  15
HETATM   15  C7  UNL     1      84.717  71.458  29.504  1.00  0.00     0.265 C 
BRANCH  15  16
HETATM   16  C8  UNL     1      84.459  72.524  30.516  1.00  0.00     0.013 C 
HETATM   17  C9  UNL     1      83.050  72.337  31.116  1.00  0.00     0.006 C 
HETATM   18  C10 UNL     1      83.119  72.955  32.508  1.00  0.00     0.000 C 
HETATM   19  C11 UNL     1      84.012  74.187  32.471  1.00  0.00     0.000 C 
HETATM   20  C12 UNL     1      83.943  74.842  31.106  1.00  0.00     0.000 C 
HETATM   21  C13 UNL     1      84.445  73.934  29.993  1.00  0.00     0.006 C 
ENDBRANCH  15  16
ENDBRANCH   1  15
BRANCH   4  22
HETATM   22  C16 UNL     1      84.427  68.661  29.714  1.00  0.00     0.200 C 
BRANCH  22  23
HETATM   23  O1  UNL     1      84.094  67.629  30.521  1.00  0.00    -0.399 OA
ATOM     24  H1  UNL     1      84.401  67.590  31.419  1.00  0.00     0.209 HD
ENDBRANCH  22  23
ENDBRANCH   4  22
TORSDOF 10
ENDMDL
MODEL 3
REMARK VINA RESULT: -6.111738937      4.240      5.398
REMARK  10 active torsions:
REMARK  status: ('A' for Active; 'I' for Inactive)
REMARK    1  A    between atoms: N3_4  and  C2_6 
REMARK    2  A    between atoms: C2_6  and  C3_7 
REMARK    3  A    between atoms: C3_7  and  C4_8 
REMARK    4  A    between atoms: C4_8  and  C5_9 
REMARK    5  A    between atoms: C5_9  and  C6_10 
REMARK    6  A    between atoms: C6_10  and  N4_11 
REMARK    7  A    between atoms: N4_11  and  C7_12 
REMARK    8  A    between atoms: C7_12  and  C8_13 
REMARK    9  A    between atoms: C15_21  and  C16_22 
REMARK   10  A    between atoms: C16_22  and  O1_23 
ROOT
HETATM    1  N4  UNL     1      87.085  71.339  30.002  1.00  0.00     0.018 N 
HETATM    2  N5  UNL     1      87.858  70.516  30.831  1.00  0.00    -0.044 NA
HETATM    3  C14 UNL     1      87.241  69.303  30.349  1.00  0.00     0.180 C 
HETATM    4  C15 UNL     1      86.841  70.172  29.192  1.00  0.00     0.251 C 
ENDROOT
BRANCH   1   5
HETATM    5  C6  UNL     1      85.954  71.891  30.669  1.00  0.00     0.261 C 
BRANCH   5   6
HETATM    6  C5  UNL     1      84.621  71.823  30.051  1.00  0.00     0.030 C 
BRANCH   6   7
HETATM    7  C4  UNL     1      83.475  72.058  30.989  1.00  0.00     0.003 C 
BRANCH   7   8
HETATM    8  C3  UNL     1      83.710  73.171  31.981  1.00  0.00     0.020 C 
BRANCH   8   9
HETATM    9  C2  UNL     1      83.508  74.530  31.368  1.00  0.00     0.122 C 
BRANCH   9  10
HETATM   10  N3  UNL     1      84.762  75.241  31.385  1.00  0.00    -0.367 N 
HETATM   11  C1  UNL     1      85.446  75.551  30.328  1.00  0.00     0.196 C 
HETATM   12  N1  UNL     1      84.914  75.160  29.071  1.00  0.00    -0.067 NA
HETATM   13  N2  UNL     1      86.669  76.251  30.462  1.00  0.00    -0.067 NA
ATOM     14  H3  UNL     1      85.138  75.520  32.292  1.00  0.00     0.161 HD
ENDBRANCH   9  10
ENDBRANCH   8   9
ENDBRANCH   7   8
ENDBRANCH   6   7
ENDBRANCH   5   6
ENDBRANCH   1   5
BRANCH   1  15
HETATM   15  C7  UNL     1      87.938  72.314  29.397  1.00  0.00     0.265 C 
BRANCH  15  16
HETATM   16  C8  UNL     1      89.292  72.494  29.999  1.00  0.00     0.013 C 
HETATM   17  C9  UNL     1      89.354  73.849  30.734  1.00  0.00     0.006 C 
HETATM   18  C10 UNL     1      90.409  73.670  31.820  1.00  0.00     0.000 C 
HETATM   19  C11 UNL     1      91.534  72.790  31.292  1.00  0.00     0.000 C 
HETATM   20  C12 UNL     1      91.682  72.974  29.795  1.00  0.00     0.000 C 
HETATM   21  C13 UNL     1      90.436  72.558  29.026  1.00  0.00     0.006 C 
ENDBRANCH  15  16
ENDBRANCH   1  15
BRANCH   4  22
HETATM   22  C16 UNL     1      87.497  69.959  27.909  1.00  0.00     0.200 C 
BRANCH  22  23
HETATM   23  O1  UNL     1      86.888  70.294  26.749  1.00  0.00    -0.399 OA
ATOM     24  H1  UNL     1      86.612  71.187  26.580  1.00  0.00     0.209 HD
ENDBRANCH  22  23
ENDBRANCH   4  22
TORSDOF 10
ENDMDL
MODEL 4
REMARK VINA RESULT: -6.089307207      1.604      1.934
REMARK  10 active torsions:
REMARK  status: ('A' for Active; 'I' for Inactive)
REMARK    1  A    between atoms: N3_4  and  C2_6 
REMARK    2  A    between atoms: C2_6  and  C3_7 
REMARK    3  A    between atoms: C3_7  and  C4_8 
REMARK    4  A    between atoms: C4_8  and  C5_9 
REMARK    5  A    between atoms: C5_9  and  C6_10 
REMARK    6  A    between atoms: C6_10  and  N4_11 
REMARK    7  A    between atoms: N4_11  and  C7_12 
REMARK    8  A    between atoms: C7_12  and  C8_13 
REMARK    9  A    between atoms: C15_21  and  C16_22 
REMARK   10  A    between atoms: C16_22  and  O1_23 
ROOT
HETATM    1  N4  UNL     1      92.127  70.290  30.503  1.00  0.00     0.018 N 
HETATM    2  N5  UNL     1      92.327  69.113  29.770  1.00  0.00    -0.044 NA
HETATM    3  C14 UNL     1      91.026  69.177  29.145  1.00  0.00     0.180 C 
HETATM    4  C15 UNL     1      91.094  70.621  29.553  1.00  0.00     0.251 C 
ENDROOT
BRANCH   1   5
HETATM    5  C6  UNL     1      91.698  70.044  31.839  1.00  0.00     0.261 C 
BRANCH   5   6
HETATM    6  C5  UNL     1      90.600  70.828  32.424  1.00  0.00     0.030 C 
BRANCH   6   7
HETATM    7  C4  UNL     1      90.966  72.223  32.835  1.00  0.00     0.003 C 
BRANCH   7   8
HETATM    8  C3  UNL     1      90.242  73.300  32.065  1.00  0.00     0.020 C 
BRANCH   8   9
HETATM    9  C2  UNL     1      88.841  72.892  31.696  1.00  0.00     0.122 C 
BRANCH   9  10
HETATM   10  N3  UNL     1      88.194  73.996  31.031  1.00  0.00    -0.367 N 
HETATM   11  C1  UNL     1      87.688  73.940  29.837  1.00  0.00     0.196 C 
HETATM   12  N1  UNL     1      87.782  72.703  29.148  1.00  0.00    -0.067 NA
HETATM   13  N2  UNL     1      87.075  75.088  29.280  1.00  0.00    -0.067 NA
ATOM     14  H3  UNL     1      88.129  74.881  31.533  1.00  0.00     0.161 HD
ENDBRANCH   9  10
ENDBRANCH   8   9
ENDBRANCH   7   8
ENDBRANCH   6   7
ENDBRANCH   5   6
ENDBRANCH   1   5
BRANCH   1  15
HETATM   15  C7  UNL     1      93.302  71.097  30.407  1.00  0.00     0.265 C 
BRANCH  15  16
HETATM   16  C8  UNL     1      94.245  71.058  31.563  1.00  0.00     0.013 C 
HETATM   17  C9  UNL     1      94.530  72.495  32.047  1.00  0.00     0.006 C 
HETATM   18  C10 UNL     1      94.889  72.360  33.522  1.00  0.00     0.000 C 
HETATM   19  C11 UNL     1      95.685  71.080  33.735  1.00  0.00     0.000 C 
HETATM   20  C12 UNL     1      96.489  70.752  32.492  1.00  0.00     0.000 C 
HETATM   21  C13 UNL     1      95.610  70.496  31.276  1.00  0.00     0.006 C 
ENDBRANCH  15  16
ENDBRANCH   1  15
BRANCH   4  22
HETATM   22  C16 UNL     1      91.281  71.625  28.514  1.00  0.00     0.200 C 
BRANCH  22  23
HETATM   23  O1  UNL     1      90.805  72.881  28.663  1.00  0.00    -0.399 OA
ATOM     24  H1  UNL     1      91.392  73.614  28.806  1.00  0.00     0.209 HD
ENDBRANCH  22  23
ENDBRANCH   4  22
TORSDOF 10
ENDMDL
MODEL 5
REMARK VINA RESULT: -6.086486301      2.960      6.001
REMARK  10 active torsions:
REMARK  status: ('A' for Active; 'I' for Inactive)
REMARK    1  A    between atoms: N3_4  and  C2_6 
REMARK    2  A    between atoms: C2_6  and  C3_7 
REMARK    3  A    between atoms: C3_7  and  C4_8 
REMARK    4  A    between atoms: C4_8  and  C5_9 
REMARK    5  A    between atoms: C5_9  and  C6_10 
REMARK    6  A    between atoms: C6_10  and  N4_11 
REMARK    7  A    between atoms: N4_11  and  C7_12 
REMARK    8  A    between atoms: C7_12  and  C8_13 
REMARK    9  A    between atoms: C15_21  and  C16_22 
REMARK   10  A    between atoms: C16_22  and  O1_23 
ROOT
HETATM    1  N4  UNL     1      88.020  73.141  30.667  1.00  0.00     0.018 N 
HETATM    2  N5  UNL     1      86.718  72.658  30.854  1.00  0.00    -0.044 NA
HETATM    3  C14 UNL     1      86.228  73.922  31.352  1.00  0.00     0.180 C 
HETATM    4  C15 UNL     1      87.453  74.466  30.676  1.00  0.00     0.251 C 
ENDROOT
BRANCH   1   5
HETATM    5  C6  UNL     1      88.890  72.822  31.749  1.00  0.00     0.261 C 
BRANCH   5   6
HETATM    6  C5  UNL     1      90.283  73.293  31.747  1.00  0.00     0.030 C 
BRANCH   6   7
HETATM    7  C4  UNL     1      91.201  72.562  32.681  1.00  0.00     0.003 C 
BRANCH   7   8
HETATM    8  C3  UNL     1      92.267  71.753  31.986  1.00  0.00     0.020 C 
BRANCH   8   9
HETATM    9  C2  UNL     1      93.448  72.594  31.583  1.00  0.00     0.122 C 
BRANCH   9  10
HETATM   10  N3  UNL     1      94.660  71.885  31.909  1.00  0.00    -0.367 N 
HETATM   11  C1  UNL     1      95.319  72.026  33.018  1.00  0.00     0.196 C 
HETATM   12  N1  UNL     1      94.802  72.945  33.968  1.00  0.00    -0.067 NA
HETATM   13  N2  UNL     1      96.501  71.277  33.232  1.00  0.00    -0.067 NA
ATOM     14  H3  UNL     1      95.024  71.225  31.221  1.00  0.00     0.161 HD
ENDBRANCH   9  10
ENDBRANCH   8   9
ENDBRANCH   7   8
ENDBRANCH   6   7
ENDBRANCH   5   6
ENDBRANCH   1   5
BRANCH   1  15
HETATM   15  C7  UNL     1      88.493  72.706  29.391  1.00  0.00     0.265 C 
BRANCH  15  16
HETATM   16  C8  UNL     1      88.935  71.285  29.282  1.00  0.00     0.013 C 
HETATM   17  C9  UNL     1      90.299  71.222  28.564  1.00  0.00     0.006 C 
HETATM   18  C10 UNL     1      90.964  69.947  29.072  1.00  0.00     0.000 C 
HETATM   19  C11 UNL     1      89.908  68.868  29.264  1.00  0.00     0.000 C 
HETATM   20  C12 UNL     1      88.777  69.061  28.273  1.00  0.00     0.000 C 
HETATM   21  C13 UNL     1      88.053  70.386  28.461  1.00  0.00     0.006 C 
ENDBRANCH  15  16
ENDBRANCH   1  15
BRANCH   4  22
HETATM   22  C16 UNL     1      87.281  75.251  29.460  1.00  0.00     0.200 C 
BRANCH  22  23
HETATM   23  O1  UNL     1      87.632  76.555  29.416  1.00  0.00    -0.399 OA
ATOM     24  H1  UNL     1      88.244  76.876  28.764  1.00  0.00     0.209 HD
ENDBRANCH  22  23
ENDBRANCH   4  22
TORSDOF 10
ENDMDL
