MODEL 1
REMARK VINA RESULT: -7.648227399      0.000      0.000
REMARK  1 active torsions:
REMARK  status: ('A' for Active; 'I' for Inactive)
REMARK    1  A    between atoms: C2_5  and  C3_6 
ROOT
HETATM    1  C3  UNL     1      39.142 -10.746  -6.470  1.00  0.00     0.216 C 
HETATM    2  C4  UNL     1      38.049 -11.491  -5.760  1.00  0.00     0.058 C 
HETATM    3  C5  UNL     1      38.671 -11.715  -4.374  1.00  0.00     0.123 C 
HETATM    4 CL2  UNL     1      37.695 -10.852  -3.137  1.00  0.00    -0.122 Cl
HETATM    5  C6  UNL     1      40.050 -11.164  -4.475  1.00  0.00     0.177 C 
HETATM    6  C7  UNL     1      40.260  -9.777  -3.924  1.00  0.00     0.047 C 
HETATM    7  C8  UNL     1      41.607 -10.249  -3.398  1.00  0.00     0.048 C 
HETATM    8  C9  UNL     1      41.085 -11.684  -3.553  1.00  0.00     0.148 C 
HETATM    9 CL3  UNL     1      40.321 -12.232  -2.019  1.00  0.00    -0.099 Cl
HETATM   10 CL4  UNL     1      42.256 -12.822  -4.203  1.00  0.00    -0.099 Cl
HETATM   11  N2  UNL     1      40.332 -11.287  -5.902  1.00  0.00    -0.055 N 
ATOM     12  H21 UNL     1      41.200 -10.853  -6.214  1.00  0.00     0.278 HD
ATOM     13  H22 UNL     1      40.579 -12.224  -6.219  1.00  0.00     0.278 HD
ENDROOT
BRANCH   1  14
HETATM   14  C2  UNL     1      39.012 -10.912  -7.945  1.00  0.00     0.151 C 
HETATM   15  N1  UNL     1      40.110 -10.380  -8.682  1.00  0.00    -0.371 N 
HETATM   16  C1  UNL     1      39.974 -10.310  -9.963  1.00  0.00     0.094 C 
ATOM     17  H1  UNL     1      40.964 -10.070  -8.218  1.00  0.00     0.161 HD
HETATM   18 CL1  UNL     1      41.256  -9.672 -10.983  1.00  0.00    -0.068 Cl
HETATM   19  C11 UNL     1      38.706 -10.774 -10.611  1.00  0.00     0.188 C 
HETATM   20  N3  UNL     1      37.629 -10.282  -9.766  1.00  0.00    -0.394 N 
HETATM   21  C10 UNL     1      37.774 -10.347  -8.497  1.00  0.00     0.083 C 
ATOM     22  H3  UNL     1      36.779  -9.894 -10.175  1.00  0.00     0.159 HD
ENDBRANCH   1  14
TORSDOF 1
ENDMDL
MODEL 2
REMARK VINA RESULT: -7.122787592      1.256      1.267
REMARK  1 active torsions:
REMARK  status: ('A' for Active; 'I' for Inactive)
REMARK    1  A    between atoms: C2_5  and  C3_6 
ROOT
HETATM    1  C3  UNL     1      38.870 -10.322  -5.721  1.00  0.00     0.216 C 
HETATM    2  C4  UNL     1      37.898 -11.202  -4.990  1.00  0.00     0.058 C 
HETATM    3  C5  UNL     1      38.742 -11.681  -3.800  1.00  0.00     0.123 C 
HETATM    4 CL2  UNL     1      38.010 -11.083  -2.272  1.00  0.00    -0.122 Cl
HETATM    5  C6  UNL     1      40.095 -11.106  -4.029  1.00  0.00     0.177 C 
HETATM    6  C7  UNL     1      40.427  -9.849  -3.267  1.00  0.00     0.047 C 
HETATM    7  C8  UNL     1      41.833 -10.398  -3.081  1.00  0.00     0.048 C 
HETATM    8  C9  UNL     1      41.260 -11.782  -3.415  1.00  0.00     0.148 C 
HETATM    9 CL3  UNL     1      40.757 -12.623  -1.906  1.00  0.00    -0.099 Cl
HETATM   10 CL4  UNL     1      42.278 -12.761  -4.462  1.00  0.00    -0.099 Cl
HETATM   11  N2  UNL     1      40.127 -10.949  -5.480  1.00  0.00    -0.055 N 
ATOM     12  H21 UNL     1      40.939 -10.454  -5.848  1.00  0.00     0.278 HD
ATOM     13  H22 UNL     1      40.295 -11.805  -6.008  1.00  0.00     0.278 HD
ENDROOT
BRANCH   1  14
HETATM   14  C2  UNL     1      38.487 -10.204  -7.156  1.00  0.00     0.151 C 
HETATM   15  N1  UNL     1      39.077 -11.196  -7.992  1.00  0.00    -0.371 N 
HETATM   16  C1  UNL     1      38.950 -11.036  -9.266  1.00  0.00     0.094 C 
ATOM     17  H1  UNL     1      39.575 -11.995  -7.602  1.00  0.00     0.161 HD
HETATM   18 CL1  UNL     1      39.633 -12.191 -10.403  1.00  0.00    -0.068 Cl
HETATM   19  C11 UNL     1      38.212  -9.850  -9.806  1.00  0.00     0.188 C 
HETATM   20  N3  UNL     1      38.642  -8.718  -8.999  1.00  0.00    -0.394 N 
HETATM   21  C10 UNL     1      38.773  -8.886  -7.738  1.00  0.00     0.083 C 
ATOM     22  H3  UNL     1      38.835  -7.813  -9.428  1.00  0.00     0.159 HD
ENDBRANCH   1  14
TORSDOF 1
ENDMDL
MODEL 3
REMARK VINA RESULT: -6.695980917      1.983      3.252
REMARK  1 active torsions:
REMARK  status: ('A' for Active; 'I' for Inactive)
REMARK    1  A    between atoms: C2_5  and  C3_6 
ROOT
HETATM    1  C3  UNL     1      38.387 -11.221  -5.633  1.00  0.00     0.216 C 
HETATM    2  C4  UNL     1      39.431 -10.419  -4.912  1.00  0.00     0.058 C 
HETATM    3  C5  UNL     1      39.055 -10.661  -3.443  1.00  0.00     0.123 C 
HETATM    4 CL2  UNL     1      40.396 -11.525  -2.619  1.00  0.00    -0.122 Cl
HETATM    5  C6  UNL     1      37.813 -11.481  -3.492  1.00  0.00     0.177 C 
HETATM    6  C7  UNL     1      37.984 -12.965  -3.295  1.00  0.00     0.047 C 
HETATM    7  C8  UNL     1      36.697 -12.950  -2.485  1.00  0.00     0.048 C 
HETATM    8  C9  UNL     1      36.894 -11.435  -2.334  1.00  0.00     0.148 C 
HETATM    9 CL3  UNL     1      37.817 -11.080  -0.831  1.00  0.00    -0.099 Cl
HETATM   10 CL4  UNL     1      35.423 -10.487  -2.499  1.00  0.00    -0.099 Cl
HETATM   11  N2  UNL     1      37.246 -11.113  -4.786  1.00  0.00    -0.055 N 
ATOM     12  H21 UNL     1      36.434 -11.657  -5.077  1.00  0.00     0.278 HD
ATOM     13  H22 UNL     1      36.768 -10.212  -4.812  1.00  0.00     0.278 HD
ENDROOT
BRANCH   1  14
HETATM   14  C2  UNL     1      38.199 -10.705  -7.018  1.00  0.00     0.151 C 
HETATM   15  N1  UNL     1      38.798 -11.521  -8.022  1.00  0.00    -0.371 N 
HETATM   16  C1  UNL     1      38.847 -11.035  -9.216  1.00  0.00     0.094 C 
ATOM     17  H1  UNL     1      39.170 -12.445  -7.806  1.00  0.00     0.161 HD
HETATM   18 CL1  UNL     1      39.561 -11.944 -10.541  1.00  0.00    -0.068 Cl
HETATM   19  C11 UNL     1      38.291  -9.674  -9.498  1.00  0.00     0.188 C 
HETATM   20  N3  UNL     1      38.716  -8.837  -8.386  1.00  0.00    -0.394 N 
HETATM   21  C10 UNL     1      38.672  -9.328  -7.206  1.00  0.00     0.083 C 
ATOM     22  H3  UNL     1      39.040  -7.883  -8.543  1.00  0.00     0.159 HD
ENDBRANCH   1  14
TORSDOF 1
ENDMDL
MODEL 4
REMARK VINA RESULT: -6.688400291      2.073      2.638
REMARK  1 active torsions:
REMARK  status: ('A' for Active; 'I' for Inactive)
REMARK    1  A    between atoms: C2_5  and  C3_6 
ROOT
HETATM    1  C3  UNL     1      39.358 -10.324  -4.910  1.00  0.00     0.216 C 
HETATM    2  C4  UNL     1      40.026 -11.650  -4.690  1.00  0.00     0.058 C 
HETATM    3  C5  UNL     1      40.992 -11.329  -3.540  1.00  0.00     0.123 C 
HETATM    4 CL2  UNL     1      40.542 -12.298  -2.097  1.00  0.00    -0.122 Cl
HETATM    5  C6  UNL     1      40.833  -9.868  -3.299  1.00  0.00     0.177 C 
HETATM    6  C7  UNL     1      39.940  -9.472  -2.152  1.00  0.00     0.047 C 
HETATM    7  C8  UNL     1      40.927  -8.359  -1.839  1.00  0.00     0.048 C 
HETATM    8  C9  UNL     1      41.956  -9.132  -2.676  1.00  0.00     0.148 C 
HETATM    9 CL3  UNL     1      42.905 -10.238  -1.620  1.00  0.00    -0.099 Cl
HETATM   10 CL4  UNL     1      42.951  -8.128  -3.720  1.00  0.00    -0.099 Cl
HETATM   11  N2  UNL     1      40.382  -9.383  -4.600  1.00  0.00    -0.055 N 
ATOM     12  H21 UNL     1      40.098  -8.404  -4.626  1.00  0.00     0.278 HD
ATOM     13  H22 UNL     1      41.112  -9.285  -5.306  1.00  0.00     0.278 HD
ENDROOT
BRANCH   1  14
HETATM   14  C2  UNL     1      38.816 -10.237  -6.295  1.00  0.00     0.151 C 
HETATM   15  N1  UNL     1      39.257 -11.288  -7.151  1.00  0.00    -0.371 N 
HETATM   16  C1  UNL     1      38.991 -11.167  -8.408  1.00  0.00     0.094 C 
ATOM     17  H1  UNL     1      39.759 -12.098  -6.787  1.00  0.00     0.161 HD
HETATM   18 CL1  UNL     1      39.481 -12.396  -9.566  1.00  0.00    -0.068 Cl
HETATM   19  C11 UNL     1      38.252  -9.965  -8.908  1.00  0.00     0.188 C 
HETATM   20  N3  UNL     1      38.826  -8.829  -8.204  1.00  0.00    -0.394 N 
HETATM   21  C10 UNL     1      39.095  -8.958  -6.960  1.00  0.00     0.083 C 
ATOM     22  H3  UNL     1      39.010  -7.951  -8.690  1.00  0.00     0.159 HD
ENDBRANCH   1  14
TORSDOF 1
ENDMDL
MODEL 5
REMARK VINA RESULT: -6.580468939      3.256      5.066
REMARK  1 active torsions:
REMARK  status: ('A' for Active; 'I' for Inactive)
REMARK    1  A    between atoms: C2_5  and  C3_6 
ROOT
HETATM    1  C3  UNL     1      39.123 -11.215 -10.904  1.00  0.00     0.216 C 
HETATM    2  C4  UNL     1      38.337  -9.936 -10.925  1.00  0.00     0.058 C 
HETATM    3  C5  UNL     1      38.107  -9.684  -9.428  1.00  0.00     0.123 C 
HETATM    4 CL2  UNL     1      38.922  -8.157  -8.950  1.00  0.00    -0.122 Cl
HETATM    5  C6  UNL     1      38.696 -10.866  -8.742  1.00  0.00     0.177 C 
HETATM    6  C7  UNL     1      40.078 -10.688  -8.169  1.00  0.00     0.047 C 
HETATM    7  C8  UNL     1      39.633 -11.526  -6.980  1.00  0.00     0.048 C 
HETATM    8  C9  UNL     1      38.188 -11.225  -7.399  1.00  0.00     0.148 C 
HETATM    9 CL3  UNL     1      37.593  -9.752  -6.553  1.00  0.00    -0.099 Cl
HETATM   10 CL4  UNL     1      37.093 -12.595  -7.282  1.00  0.00    -0.099 Cl
HETATM   11  N2  UNL     1      38.604 -11.901  -9.767  1.00  0.00    -0.055 N 
ATOM     12  H21 UNL     1      39.066 -12.781  -9.541  1.00  0.00     0.278 HD
ATOM     13  H22 UNL     1      37.679 -12.312  -9.891  1.00  0.00     0.278 HD
ENDROOT
BRANCH   1  14
HETATM   14  C2  UNL     1      38.978 -11.937 -12.199  1.00  0.00     0.151 C 
HETATM   15  N1  UNL     1      39.961 -12.949 -12.406  1.00  0.00    -0.371 N 
HETATM   16  C1  UNL     1      40.018 -13.474 -13.583  1.00  0.00     0.094 C 
ATOM     17  H1  UNL     1      40.588 -13.244 -11.658  1.00  0.00     0.161 HD
HETATM   18 CL1  UNL     1      41.187 -14.732 -13.964  1.00  0.00    -0.068 Cl
HETATM   19  C11 UNL     1      39.082 -13.016 -14.658  1.00  0.00     0.188 C 
HETATM   20  N3  UNL     1      39.028 -11.567 -14.542  1.00  0.00    -0.394 N 
HETATM   21  C10 UNL     1      38.978 -11.053 -13.372  1.00  0.00     0.083 C 
ATOM     22  H3  UNL     1      39.028 -10.976 -15.373  1.00  0.00     0.159 HD
ENDBRANCH   1  14
TORSDOF 1
ENDMDL
