MODEL 1
REMARK VINA RESULT: -7.397003849      0.000      0.000
REMARK  17 active torsions:
REMARK  status: ('A' for Active; 'I' for Inactive)
REMARK    1  A    between atoms: C2_2  and  C3_4 
REMARK    2  A    between atoms: C3_4  and  C4_5 
REMARK    3  A    between atoms: C4_5  and  C5_6 
REMARK    4  A    between atoms: C5_6  and  C6_7 
REMARK    5  A    between atoms: C6_7  and  C7_8 
REMARK    6  A    between atoms: C7_8  and  O2_9 
REMARK    7  A    between atoms: C7_8  and  C8_11 
REMARK    8  A    between atoms: C8_11  and  C9_12 
REMARK    9  A    between atoms: C9_12  and  C10_13 
REMARK   10  A    between atoms: C10_13  and  C11_14 
REMARK   11  A    between atoms: C11_14  and  C12_16 
REMARK   12  A    between atoms: C13_17  and  C14_18 
REMARK   13  A    between atoms: C14_18  and  C15_19 
REMARK   14  A    between atoms: C16_20  and  C17_21 
REMARK   15  A    between atoms: C17_21  and  C18_22 
REMARK   16  A    between atoms: C18_22  and  C19_23 
REMARK   17  A    between atoms: C19_23  and  C20_24 
ROOT
HETATM    1  C10 UNL     1      -3.560  19.616  10.523  1.00  0.00     0.110 C 
ENDROOT
BRANCH   1   2
HETATM    2  C9  UNL     1      -2.974  20.486  11.541  1.00  0.00    -0.020 C 
BRANCH   2   3
HETATM    3  C8  UNL     1      -3.566  20.767  12.836  1.00  0.00     0.005 C 
BRANCH   3   4
HETATM    4  C7  UNL     1      -2.838  20.836  14.082  1.00  0.00     0.163 C 
BRANCH   4   5
HETATM    5  C6  UNL     1      -1.809  19.882  14.439  1.00  0.00     0.008 C 
BRANCH   5   6
HETATM    6  C5  UNL     1      -0.379  19.939  14.243  1.00  0.00    -0.005 C 
BRANCH   6   7
HETATM    7  C4  UNL     1       0.424  20.167  13.066  1.00  0.00    -0.020 C 
BRANCH   7   8
HETATM    8  C3  UNL     1       0.595  21.441  12.374  1.00  0.00     0.105 C 
BRANCH   8   9
HETATM    9  C2  UNL     1       1.846  22.190  12.640  1.00  0.00     0.126 C 
HETATM   10  C1  UNL     1       1.941  23.622  12.244  1.00  0.00     0.091 C 
HETATM   11  O1  UNL     1       2.806  21.692  13.168  1.00  0.00    -0.298 OA
ENDBRANCH   8   9
ENDBRANCH   7   8
ENDBRANCH   6   7
ENDBRANCH   5   6
ENDBRANCH   4   5
BRANCH   4  12
HETATM   12  O2  UNL     1      -3.859  20.784  15.159  1.00  0.00    -0.388 OA
ATOM     13  H2  UNL     1      -3.386  20.796  15.983  1.00  0.00     0.210 HD
ENDBRANCH   4  12
ENDBRANCH   3   4
ENDBRANCH   2   3
ENDBRANCH   1   2
BRANCH   1  14
HETATM   14  C11 UNL     1      -2.491  18.594  10.169  1.00  0.00     0.152 C 
HETATM   15  O3  UNL     1      -2.204  18.354   8.973  1.00  0.00    -0.293 OA
BRANCH  14  16
HETATM   16  C12 UNL     1      -1.784  17.880  11.212  1.00  0.00     0.046 C 
HETATM   17  C13 UNL     1      -2.404  17.099  12.058  1.00  0.00    -0.019 C 
BRANCH  17  18
HETATM   18  C14 UNL     1      -1.685  16.360  13.135  1.00  0.00     0.054 C 
BRANCH  18  19
HETATM   19  C15 UNL     1      -0.580  15.641  12.481  1.00  0.00    -0.027 C 
HETATM   20  C16 UNL     1      -0.564  14.371  12.270  1.00  0.00    -0.030 C 
BRANCH  20  21
HETATM   21  C17 UNL     1      -1.605  13.394  12.622  1.00  0.00     0.027 C 
BRANCH  21  22
HETATM   22  C18 UNL     1      -2.574  13.206  11.465  1.00  0.00     0.014 C 
BRANCH  22  23
HETATM   23  C19 UNL     1      -3.911  13.748  11.824  1.00  0.00     0.113 C 
BRANCH  23  24
HETATM   24  C20 UNL     1      -4.985  13.135  11.050  1.00  0.00     0.172 C 
HETATM   25  O4  UNL     1      -5.228  11.902  11.139  1.00  0.00    -0.648 OA
HETATM   26  O5  UNL     1      -5.771  13.876  10.203  1.00  0.00    -0.648 OA
ENDBRANCH  23  24
ENDBRANCH  22  23
ENDBRANCH  21  22
ENDBRANCH  20  21
ENDBRANCH  18  19
ENDBRANCH  17  18
ENDBRANCH  14  16
ENDBRANCH   1  14
TORSDOF 17
ENDMDL
MODEL 2
REMARK VINA RESULT: -7.347069750      1.182      1.657
REMARK  17 active torsions:
REMARK  status: ('A' for Active; 'I' for Inactive)
REMARK    1  A    between atoms: C2_2  and  C3_4 
REMARK    2  A    between atoms: C3_4  and  C4_5 
REMARK    3  A    between atoms: C4_5  and  C5_6 
REMARK    4  A    between atoms: C5_6  and  C6_7 
REMARK    5  A    between atoms: C6_7  and  C7_8 
REMARK    6  A    between atoms: C7_8  and  O2_9 
REMARK    7  A    between atoms: C7_8  and  C8_11 
REMARK    8  A    between atoms: C8_11  and  C9_12 
REMARK    9  A    between atoms: C9_12  and  C10_13 
REMARK   10  A    between atoms: C10_13  and  C11_14 
REMARK   11  A    between atoms: C11_14  and  C12_16 
REMARK   12  A    between atoms: C13_17  and  C14_18 
REMARK   13  A    between atoms: C14_18  and  C15_19 
REMARK   14  A    between atoms: C16_20  and  C17_21 
REMARK   15  A    between atoms: C17_21  and  C18_22 
REMARK   16  A    between atoms: C18_22  and  C19_23 
REMARK   17  A    between atoms: C19_23  and  C20_24 
ROOT
HETATM    1  C10 UNL     1      -3.596  19.822  10.433  1.00  0.00     0.110 C 
ENDROOT
BRANCH   1   2
HETATM    2  C9  UNL     1      -2.952  20.501  11.555  1.00  0.00    -0.020 C 
BRANCH   2   3
HETATM    3  C8  UNL     1      -3.588  20.793  12.827  1.00  0.00     0.005 C 
BRANCH   3   4
HETATM    4  C7  UNL     1      -2.914  20.814  14.104  1.00  0.00     0.163 C 
BRANCH   4   5
HETATM    5  C6  UNL     1      -1.906  19.842  14.471  1.00  0.00     0.008 C 
BRANCH   5   6
HETATM    6  C5  UNL     1      -0.466  19.912  14.368  1.00  0.00    -0.005 C 
BRANCH   6   7
HETATM    7  C4  UNL     1       0.412  20.111  13.240  1.00  0.00    -0.020 C 
BRANCH   7   8
HETATM    8  C3  UNL     1       1.870  20.185  13.287  1.00  0.00     0.105 C 
BRANCH   8   9
HETATM    9  C2  UNL     1       2.621  19.205  12.469  1.00  0.00     0.126 C 
HETATM   10  C1  UNL     1       2.270  17.761  12.548  1.00  0.00     0.091 C 
HETATM   11  O1  UNL     1       3.518  19.521  11.731  1.00  0.00    -0.298 OA
ENDBRANCH   8   9
ENDBRANCH   7   8
ENDBRANCH   6   7
ENDBRANCH   5   6
ENDBRANCH   4   5
BRANCH   4  12
HETATM   12  O2  UNL     1      -3.981  20.729  15.135  1.00  0.00    -0.388 OA
ATOM     13  H2  UNL     1      -4.245  19.816  15.178  1.00  0.00     0.210 HD
ENDBRANCH   4  12
ENDBRANCH   3   4
ENDBRANCH   2   3
ENDBRANCH   1   2
BRANCH   1  14
HETATM   14  C11 UNL     1      -2.772  18.573  10.161  1.00  0.00     0.152 C 
HETATM   15  O3  UNL     1      -2.754  18.051   9.022  1.00  0.00    -0.293 OA
BRANCH  14  16
HETATM   16  C12 UNL     1      -1.992  17.964  11.218  1.00  0.00     0.046 C 
HETATM   17  C13 UNL     1      -2.452  16.971  11.935  1.00  0.00    -0.019 C 
BRANCH  17  18
HETATM   18  C14 UNL     1      -1.656  16.339  13.025  1.00  0.00     0.054 C 
BRANCH  18  19
HETATM   19  C15 UNL     1      -0.603  15.548  12.368  1.00  0.00    -0.027 C 
HETATM   20  C16 UNL     1      -0.587  14.261  12.317  1.00  0.00    -0.030 C 
BRANCH  20  21
HETATM   21  C17 UNL     1      -1.577  13.333  12.881  1.00  0.00     0.027 C 
BRANCH  21  22
HETATM   22  C18 UNL     1      -2.215  12.498  11.782  1.00  0.00     0.014 C 
BRANCH  22  23
HETATM   23  C19 UNL     1      -3.263  13.286  11.084  1.00  0.00     0.113 C 
BRANCH  23  24
HETATM   24  C20 UNL     1      -4.609  12.937  11.527  1.00  0.00     0.172 C 
HETATM   25  O4  UNL     1      -5.255  13.694  12.299  1.00  0.00    -0.648 OA
HETATM   26  O5  UNL     1      -5.220  11.777  11.118  1.00  0.00    -0.648 OA
ENDBRANCH  23  24
ENDBRANCH  22  23
ENDBRANCH  21  22
ENDBRANCH  20  21
ENDBRANCH  18  19
ENDBRANCH  17  18
ENDBRANCH  14  16
ENDBRANCH   1  14
TORSDOF 17
ENDMDL
MODEL 3
REMARK VINA RESULT: -7.346538118      1.010      1.394
REMARK  17 active torsions:
REMARK  status: ('A' for Active; 'I' for Inactive)
REMARK    1  A    between atoms: C2_2  and  C3_4 
REMARK    2  A    between atoms: C3_4  and  C4_5 
REMARK    3  A    between atoms: C4_5  and  C5_6 
REMARK    4  A    between atoms: C5_6  and  C6_7 
REMARK    5  A    between atoms: C6_7  and  C7_8 
REMARK    6  A    between atoms: C7_8  and  O2_9 
REMARK    7  A    between atoms: C7_8  and  C8_11 
REMARK    8  A    between atoms: C8_11  and  C9_12 
REMARK    9  A    between atoms: C9_12  and  C10_13 
REMARK   10  A    between atoms: C10_13  and  C11_14 
REMARK   11  A    between atoms: C11_14  and  C12_16 
REMARK   12  A    between atoms: C13_17  and  C14_18 
REMARK   13  A    between atoms: C14_18  and  C15_19 
REMARK   14  A    between atoms: C16_20  and  C17_21 
REMARK   15  A    between atoms: C17_21  and  C18_22 
REMARK   16  A    between atoms: C18_22  and  C19_23 
REMARK   17  A    between atoms: C19_23  and  C20_24 
ROOT
HETATM    1  C10 UNL     1      -3.334  19.176  10.746  1.00  0.00     0.110 C 
ENDROOT
BRANCH   1   2
HETATM    2  C9  UNL     1      -3.020  20.383  11.509  1.00  0.00    -0.020 C 
BRANCH   2   3
HETATM    3  C8  UNL     1      -3.589  20.722  12.801  1.00  0.00     0.005 C 
BRANCH   3   4
HETATM    4  C7  UNL     1      -2.847  20.798  14.038  1.00  0.00     0.163 C 
BRANCH   4   5
HETATM    5  C6  UNL     1      -1.828  19.835  14.399  1.00  0.00     0.008 C 
BRANCH   5   6
HETATM    6  C5  UNL     1      -0.389  19.961  14.401  1.00  0.00    -0.005 C 
BRANCH   6   7
HETATM    7  C4  UNL     1       0.559  20.211  13.341  1.00  0.00    -0.020 C 
BRANCH   7   8
HETATM    8  C3  UNL     1       0.621  21.408  12.507  1.00  0.00     0.105 C 
BRANCH   8   9
HETATM    9  C2  UNL     1       1.874  22.197  12.553  1.00  0.00     0.126 C 
HETATM   10  C1  UNL     1       2.006  23.413  11.706  1.00  0.00     0.091 C 
HETATM   11  O1  UNL     1       2.808  21.901  13.253  1.00  0.00    -0.298 OA
ENDBRANCH   8   9
ENDBRANCH   7   8
ENDBRANCH   6   7
ENDBRANCH   5   6
ENDBRANCH   4   5
BRANCH   4  12
HETATM   12  O2  UNL     1      -3.858  20.775  15.127  1.00  0.00    -0.388 OA
ATOM     13  H2  UNL     1      -4.644  20.386  14.760  1.00  0.00     0.210 HD
ENDBRANCH   4  12
ENDBRANCH   3   4
ENDBRANCH   2   3
ENDBRANCH   1   2
BRANCH   1  14
HETATM   14  C11 UNL     1      -2.200  18.198  11.010  1.00  0.00     0.152 C 
HETATM   15  O3  UNL     1      -1.007  18.532  10.818  1.00  0.00    -0.293 OA
BRANCH  14  16
HETATM   16  C12 UNL     1      -2.480  16.861  11.488  1.00  0.00     0.046 C 
HETATM   17  C13 UNL     1      -2.257  16.508  12.728  1.00  0.00    -0.019 C 
BRANCH  17  18
HETATM   18  C14 UNL     1      -2.542  15.133  13.229  1.00  0.00     0.054 C 
BRANCH  18  19
HETATM   19  C15 UNL     1      -1.555  14.245  12.597  1.00  0.00    -0.027 C 
HETATM   20  C16 UNL     1      -1.853  13.186  11.928  1.00  0.00    -0.030 C 
BRANCH  20  21
HETATM   21  C17 UNL     1      -3.195  12.649  11.659  1.00  0.00     0.027 C 
BRANCH  21  22
HETATM   22  C18 UNL     1      -3.659  13.043  10.265  1.00  0.00     0.014 C 
BRANCH  22  23
HETATM   23  C19 UNL     1      -4.819  13.967  10.354  1.00  0.00     0.113 C 
BRANCH  23  24
HETATM   24  C20 UNL     1      -5.851  13.660   9.370  1.00  0.00     0.172 C 
HETATM   25  O4  UNL     1      -6.731  14.508   9.064  1.00  0.00    -0.648 OA
HETATM   26  O5  UNL     1      -5.901  12.440   8.740  1.00  0.00    -0.648 OA
ENDBRANCH  23  24
ENDBRANCH  22  23
ENDBRANCH  21  22
ENDBRANCH  20  21
ENDBRANCH  18  19
ENDBRANCH  17  18
ENDBRANCH  14  16
ENDBRANCH   1  14
TORSDOF 17
ENDMDL
MODEL 4
REMARK VINA RESULT: -7.305688296      1.795      7.582
REMARK  17 active torsions:
REMARK  status: ('A' for Active; 'I' for Inactive)
REMARK    1  A    between atoms: C2_2  and  C3_4 
REMARK    2  A    between atoms: C3_4  and  C4_5 
REMARK    3  A    between atoms: C4_5  and  C5_6 
REMARK    4  A    between atoms: C5_6  and  C6_7 
REMARK    5  A    between atoms: C6_7  and  C7_8 
REMARK    6  A    between atoms: C7_8  and  O2_9 
REMARK    7  A    between atoms: C7_8  and  C8_11 
REMARK    8  A    between atoms: C8_11  and  C9_12 
REMARK    9  A    between atoms: C9_12  and  C10_13 
REMARK   10  A    between atoms: C10_13  and  C11_14 
REMARK   11  A    between atoms: C11_14  and  C12_16 
REMARK   12  A    between atoms: C13_17  and  C14_18 
REMARK   13  A    between atoms: C14_18  and  C15_19 
REMARK   14  A    between atoms: C16_20  and  C17_21 
REMARK   15  A    between atoms: C17_21  and  C18_22 
REMARK   16  A    between atoms: C18_22  and  C19_23 
REMARK   17  A    between atoms: C19_23  and  C20_24 
ROOT
HETATM    1  C10 UNL     1      -3.206  16.494   9.423  1.00  0.00     0.110 C 
ENDROOT
BRANCH   1   2
HETATM    2  C9  UNL     1      -2.272  16.447  10.546  1.00  0.00    -0.020 C 
BRANCH   2   3
HETATM    3  C8  UNL     1      -2.647  16.236  11.932  1.00  0.00     0.005 C 
BRANCH   3   4
HETATM    4  C7  UNL     1      -1.947  15.377  12.858  1.00  0.00     0.163 C 
BRANCH   4   5
HETATM    5  C6  UNL     1      -1.199  14.213  12.430  1.00  0.00     0.008 C 
BRANCH   5   6
HETATM    6  C5  UNL     1      -1.600  12.827  12.350  1.00  0.00    -0.005 C 
BRANCH   6   7
HETATM    7  C4  UNL     1      -2.756  12.190  11.767  1.00  0.00    -0.020 C 
BRANCH   7   8
HETATM    8  C3  UNL     1      -3.505  12.662  10.606  1.00  0.00     0.105 C 
BRANCH   8   9
HETATM    9  C2  UNL     1      -4.768  13.390  10.869  1.00  0.00     0.126 C 
HETATM   10  C1  UNL     1      -5.624  13.810   9.726  1.00  0.00     0.091 C 
HETATM   11  O1  UNL     1      -5.145  13.666  11.979  1.00  0.00    -0.298 OA
ENDBRANCH   8   9
ENDBRANCH   7   8
ENDBRANCH   6   7
ENDBRANCH   5   6
ENDBRANCH   4   5
BRANCH   4  12
HETATM   12  O2  UNL     1      -2.968  14.893  13.824  1.00  0.00    -0.388 OA
ATOM     13  H2  UNL     1      -3.816  15.098  13.448  1.00  0.00     0.210 HD
ENDBRANCH   4  12
ENDBRANCH   3   4
ENDBRANCH   2   3
ENDBRANCH   1   2
BRANCH   1  14
HETATM   14  C11 UNL     1      -3.554  17.960   9.220  1.00  0.00     0.152 C 
HETATM   15  O3  UNL     1      -4.435  18.303   8.396  1.00  0.00    -0.293 OA
BRANCH  14  16
HETATM   16  C12 UNL     1      -2.871  18.989   9.977  1.00  0.00     0.046 C 
HETATM   17  C13 UNL     1      -3.492  19.722  10.865  1.00  0.00    -0.019 C 
BRANCH  17  18
HETATM   18  C14 UNL     1      -2.797  20.783  11.649  1.00  0.00     0.054 C 
BRANCH  18  19
HETATM   19  C15 UNL     1      -3.342  20.716  13.014  1.00  0.00    -0.027 C 
HETATM   20  C16 UNL     1      -2.819  20.033  13.972  1.00  0.00    -0.030 C 
BRANCH  20  21
HETATM   21  C17 UNL     1      -1.609  19.200  13.918  1.00  0.00     0.027 C 
BRANCH  21  22
HETATM   22  C18 UNL     1      -0.397  19.986  14.393  1.00  0.00     0.014 C 
BRANCH  22  23
HETATM   23  C19 UNL     1       0.371  20.496  13.228  1.00  0.00     0.113 C 
BRANCH  23  24
HETATM   24  C20 UNL     1       1.813  20.376  13.416  1.00  0.00     0.172 C 
HETATM   25  O4  UNL     1       2.353  19.252  13.600  1.00  0.00    -0.648 OA
HETATM   26  O5  UNL     1       2.633  21.477  13.397  1.00  0.00    -0.648 OA
ENDBRANCH  23  24
ENDBRANCH  22  23
ENDBRANCH  21  22
ENDBRANCH  20  21
ENDBRANCH  18  19
ENDBRANCH  17  18
ENDBRANCH  14  16
ENDBRANCH   1  14
TORSDOF 17
ENDMDL
MODEL 5
REMARK VINA RESULT: -6.946994546      1.527      4.225
REMARK  17 active torsions:
REMARK  status: ('A' for Active; 'I' for Inactive)
REMARK    1  A    between atoms: C2_2  and  C3_4 
REMARK    2  A    between atoms: C3_4  and  C4_5 
REMARK    3  A    between atoms: C4_5  and  C5_6 
REMARK    4  A    between atoms: C5_6  and  C6_7 
REMARK    5  A    between atoms: C6_7  and  C7_8 
REMARK    6  A    between atoms: C7_8  and  O2_9 
REMARK    7  A    between atoms: C7_8  and  C8_11 
REMARK    8  A    between atoms: C8_11  and  C9_12 
REMARK    9  A    between atoms: C9_12  and  C10_13 
REMARK   10  A    between atoms: C10_13  and  C11_14 
REMARK   11  A    between atoms: C11_14  and  C12_16 
REMARK   12  A    between atoms: C13_17  and  C14_18 
REMARK   13  A    between atoms: C14_18  and  C15_19 
REMARK   14  A    between atoms: C16_20  and  C17_21 
REMARK   15  A    between atoms: C17_21  and  C18_22 
REMARK   16  A    between atoms: C18_22  and  C19_23 
REMARK   17  A    between atoms: C19_23  and  C20_24 
ROOT
HETATM    1  C10 UNL     1       0.285  19.996  12.392  1.00  0.00     0.110 C 
ENDROOT
BRANCH   1   2
HETATM    2  C9  UNL     1      -0.291  20.241  13.713  1.00  0.00    -0.020 C 
BRANCH   2   3
HETATM    3  C8  UNL     1      -1.468  19.578  14.244  1.00  0.00     0.005 C 
BRANCH   3   4
HETATM    4  C7  UNL     1      -2.832  19.939  13.932  1.00  0.00     0.163 C 
BRANCH   4   5
HETATM    5  C6  UNL     1      -3.188  20.705  12.757  1.00  0.00     0.008 C 
BRANCH   5   6
HETATM    6  C5  UNL     1      -3.552  20.260  11.432  1.00  0.00    -0.005 C 
BRANCH   6   7
HETATM    7  C4  UNL     1      -2.860  19.443  10.465  1.00  0.00    -0.020 C 
BRANCH   7   8
HETATM    8  C3  UNL     1      -2.852  17.983  10.419  1.00  0.00     0.105 C 
BRANCH   8   9
HETATM    9  C2  UNL     1      -3.381  17.344   9.192  1.00  0.00     0.126 C 
HETATM   10  C1  UNL     1      -3.129  15.897   8.952  1.00  0.00     0.091 C 
HETATM   11  O1  UNL     1      -4.014  17.945   8.363  1.00  0.00    -0.298 OA
ENDBRANCH   8   9
ENDBRANCH   7   8
ENDBRANCH   6   7
ENDBRANCH   5   6
ENDBRANCH   4   5
BRANCH   4  12
HETATM   12  O2  UNL     1      -3.335  20.701  15.105  1.00  0.00    -0.388 OA
ATOM     13  H2  UNL     1      -4.002  20.162  15.513  1.00  0.00     0.210 HD
ENDBRANCH   4  12
ENDBRANCH   3   4
ENDBRANCH   2   3
ENDBRANCH   1   2
BRANCH   1  14
HETATM   14  C11 UNL     1       1.063  18.694  12.501  1.00  0.00     0.152 C 
HETATM   15  O3  UNL     1       2.068  18.607  13.245  1.00  0.00    -0.293 OA
BRANCH  14  16
HETATM   16  C12 UNL     1       0.653  17.529  11.745  1.00  0.00     0.046 C 
HETATM   17  C13 UNL     1      -0.023  16.551  12.291  1.00  0.00    -0.019 C 
BRANCH  17  18
HETATM   18  C14 UNL     1      -0.448  15.348  11.521  1.00  0.00     0.054 C 
BRANCH  18  19
HETATM   19  C15 UNL     1      -0.566  14.250  12.493  1.00  0.00    -0.027 C 
HETATM   20  C16 UNL     1      -1.450  13.316  12.431  1.00  0.00    -0.030 C 
BRANCH  20  21
HETATM   21  C17 UNL     1      -2.498  13.146  11.414  1.00  0.00     0.027 C 
BRANCH  21  22
HETATM   22  C18 UNL     1      -3.823  13.701  11.914  1.00  0.00     0.014 C 
BRANCH  22  23
HETATM   23  C19 UNL     1      -4.942  12.825  11.479  1.00  0.00     0.113 C 
BRANCH  23  24
HETATM   24  C20 UNL     1      -5.387  13.125  10.122  1.00  0.00     0.172 C 
HETATM   25  O4  UNL     1      -6.037  14.173   9.869  1.00  0.00    -0.648 OA
HETATM   26  O5  UNL     1      -5.113  12.280   9.075  1.00  0.00    -0.648 OA
ENDBRANCH  23  24
ENDBRANCH  22  23
ENDBRANCH  21  22
ENDBRANCH  20  21
ENDBRANCH  18  19
ENDBRANCH  17  18
ENDBRANCH  14  16
ENDBRANCH   1  14
TORSDOF 17
ENDMDL
