MODEL 1
REMARK VINA RESULT: -7.531015776      0.000      0.000
REMARK  16 active torsions:
REMARK  status: ('A' for Active; 'I' for Inactive)
REMARK       I    between atoms: C1_2  and  N2_4 
REMARK    1  A    between atoms: N2_4  and  C2_6 
REMARK    2  A    between atoms: C2_6  and  C3_7 
REMARK    3  A    between atoms: C3_7  and  C4_8 
REMARK    4  A    between atoms: C4_8  and  C5_9 
REMARK    5  A    between atoms: C5_9  and  C6_10 
REMARK    6  A    between atoms: C6_10  and  C7_11 
REMARK    7  A    between atoms: C8_12  and  C9_13 
REMARK    8  A    between atoms: C9_13  and  C10_14 
REMARK    9  A    between atoms: C11_15  and  C12_16 
REMARK   10  A    between atoms: C12_16  and  C13_17 
REMARK   11  A    between atoms: C14_18  and  C15_19 
REMARK   12  A    between atoms: C15_19  and  C16_20 
REMARK   13  A    between atoms: C16_20  and  C17_21 
REMARK   14  A    between atoms: C17_21  and  C18_22 
REMARK   15  A    between atoms: C18_22  and  O3_24 
REMARK   16  A    between atoms: O3_24  and  C19_25 
ROOT
HETATM    1  C10 UNL     1      -2.442  17.203  12.430  1.00  0.00    -0.027 C 
HETATM    2  C11 UNL     1      -1.825  16.167  12.943  1.00  0.00    -0.027 C 
ENDROOT
BRANCH   1   3
HETATM    3  C9  UNL     1      -2.019  17.994  11.234  1.00  0.00     0.053 C 
BRANCH   3   4
HETATM    4  C8  UNL     1      -3.130  18.799  10.703  1.00  0.00    -0.027 C 
HETATM    5  C7  UNL     1      -3.409  20.009  11.054  1.00  0.00    -0.030 C 
BRANCH   5   6
HETATM    6  C6  UNL     1      -2.676  20.806  12.041  1.00  0.00     0.027 C 
BRANCH   6   7
HETATM    7  C5  UNL     1      -3.531  20.801  13.325  1.00  0.00     0.004 C 
BRANCH   7   8
HETATM    8  C4  UNL     1      -2.562  20.796  14.464  1.00  0.00     0.002 C 
BRANCH   8   9
HETATM    9  C3  UNL     1      -1.573  19.656  14.415  1.00  0.00     0.020 C 
BRANCH   9  10
HETATM   10  C2  UNL     1      -0.174  20.204  14.381  1.00  0.00     0.124 C 
BRANCH  10  11
HETATM   11  N2  UNL     1       0.689  19.522  13.445  1.00  0.00    -0.345 N 
HETATM   12  C1  UNL     1       1.948  20.036  13.121  1.00  0.00     0.328 C 
HETATM   13  N1  UNL     1       2.781  19.361  12.194  1.00  0.00    -0.040 NA
HETATM   14  O1  UNL     1       2.376  21.083  13.621  1.00  0.00    -0.251 OA
ATOM     15  H2  UNL     1       0.375  18.652  13.014  1.00  0.00     0.163 HD
ENDBRANCH  10  11
ENDBRANCH   9  10
ENDBRANCH   8   9
ENDBRANCH   7   8
ENDBRANCH   6   7
ENDBRANCH   5   6
ENDBRANCH   3   4
ENDBRANCH   1   3
BRANCH   2  16
HETATM   16  C12 UNL     1      -0.573  15.541  12.467  1.00  0.00     0.053 C 
BRANCH  16  17
HETATM   17  C13 UNL     1      -0.846  14.089  12.201  1.00  0.00    -0.027 C 
HETATM   18  C14 UNL     1      -2.069  13.620  12.188  1.00  0.00    -0.030 C 
BRANCH  18  19
HETATM   19  C15 UNL     1      -2.298  12.153  11.917  1.00  0.00     0.027 C 
BRANCH  19  20
HETATM   20  C16 UNL     1      -3.728  11.991  11.540  1.00  0.00     0.013 C 
BRANCH  20  21
HETATM   21  C17 UNL     1      -4.413  13.312  11.397  1.00  0.00     0.111 C 
BRANCH  21  22
HETATM   22  C18 UNL     1      -4.878  13.531  10.029  1.00  0.00     0.259 C 
HETATM   23  O2  UNL     1      -6.039  13.859   9.753  1.00  0.00    -0.265 OA
BRANCH  22  24
HETATM   24  O3  UNL     1      -3.982  13.365   8.976  1.00  0.00    -0.316 OA
BRANCH  24  25
HETATM   25  C19 UNL     1      -3.546  14.449   8.179  1.00  0.00     0.132 A 
HETATM   26  C20 UNL     1      -2.240  15.091   8.716  1.00  0.00     0.035 A 
HETATM   27  C21 UNL     1      -3.550  15.786   8.784  1.00  0.00     0.035 A 
ENDBRANCH  24  25
ENDBRANCH  22  24
ENDBRANCH  21  22
ENDBRANCH  20  21
ENDBRANCH  19  20
ENDBRANCH  18  19
ENDBRANCH  16  17
ENDBRANCH   2  16
TORSDOF 16
ENDMDL
MODEL 2
REMARK VINA RESULT: -7.482391508      2.561      6.860
REMARK  16 active torsions:
REMARK  status: ('A' for Active; 'I' for Inactive)
REMARK       I    between atoms: C1_2  and  N2_4 
REMARK    1  A    between atoms: N2_4  and  C2_6 
REMARK    2  A    between atoms: C2_6  and  C3_7 
REMARK    3  A    between atoms: C3_7  and  C4_8 
REMARK    4  A    between atoms: C4_8  and  C5_9 
REMARK    5  A    between atoms: C5_9  and  C6_10 
REMARK    6  A    between atoms: C6_10  and  C7_11 
REMARK    7  A    between atoms: C8_12  and  C9_13 
REMARK    8  A    between atoms: C9_13  and  C10_14 
REMARK    9  A    between atoms: C11_15  and  C12_16 
REMARK   10  A    between atoms: C12_16  and  C13_17 
REMARK   11  A    between atoms: C14_18  and  C15_19 
REMARK   12  A    between atoms: C15_19  and  C16_20 
REMARK   13  A    between atoms: C16_20  and  C17_21 
REMARK   14  A    between atoms: C17_21  and  C18_22 
REMARK   15  A    between atoms: C18_22  and  O3_24 
REMARK   16  A    between atoms: O3_24  and  C19_25 
ROOT
HETATM    1  C10 UNL     1      -4.738  14.357   8.849  1.00  0.00    -0.027 C 
HETATM    2  C11 UNL     1      -4.446  15.602   9.137  1.00  0.00    -0.027 C 
ENDROOT
BRANCH   1   3
HETATM    3  C9  UNL     1      -3.784  13.208   8.776  1.00  0.00     0.053 C 
BRANCH   3   4
HETATM    4  C8  UNL     1      -4.308  12.032   9.487  1.00  0.00    -0.027 C 
HETATM    5  C7  UNL     1      -4.191  11.812  10.753  1.00  0.00    -0.030 C 
BRANCH   5   6
HETATM    6  C6  UNL     1      -3.517  12.685  11.717  1.00  0.00     0.027 C 
BRANCH   6   7
HETATM    7  C5  UNL     1      -2.154  12.031  12.019  1.00  0.00     0.004 C 
BRANCH   7   8
HETATM    8  C4  UNL     1      -1.283  13.122  12.554  1.00  0.00     0.002 C 
BRANCH   8   9
HETATM    9  C3  UNL     1      -1.966  14.467  12.622  1.00  0.00     0.020 C 
BRANCH   9  10
HETATM   10  C2  UNL     1      -0.943  15.559  12.488  1.00  0.00     0.124 C 
BRANCH  10  11
HETATM   11  N2  UNL     1       0.170  15.206  11.639  1.00  0.00    -0.345 N 
HETATM   12  C1  UNL     1       0.725  16.137  10.756  1.00  0.00     0.328 C 
HETATM   13  N1  UNL     1       1.812  15.774   9.921  1.00  0.00    -0.040 NA
HETATM   14  O1  UNL     1       0.296  17.294  10.669  1.00  0.00    -0.251 OA
ATOM     15  H2  UNL     1       0.557  14.263  11.684  1.00  0.00     0.163 HD
ENDBRANCH  10  11
ENDBRANCH   9  10
ENDBRANCH   8   9
ENDBRANCH   7   8
ENDBRANCH   6   7
ENDBRANCH   5   6
ENDBRANCH   3   4
ENDBRANCH   1   3
BRANCH   2  16
HETATM   16  C12 UNL     1      -3.115  16.162   9.453  1.00  0.00     0.053 C 
BRANCH  16  17
HETATM   17  C13 UNL     1      -3.213  17.659   9.408  1.00  0.00    -0.027 C 
HETATM   18  C14 UNL     1      -3.139  18.377  10.502  1.00  0.00    -0.030 C 
BRANCH  18  19
HETATM   19  C15 UNL     1      -3.242  19.880  10.411  1.00  0.00     0.027 C 
BRANCH  19  20
HETATM   20  C16 UNL     1      -3.299  20.404  11.802  1.00  0.00     0.013 C 
BRANCH  20  21
HETATM   21  C17 UNL     1      -2.740  19.424  12.782  1.00  0.00     0.111 C 
BRANCH  21  22
HETATM   22  C18 UNL     1      -2.318  20.081  14.018  1.00  0.00     0.259 C 
HETATM   23  O2  UNL     1      -3.100  20.676  14.770  1.00  0.00    -0.265 OA
BRANCH  22  24
HETATM   24  O3  UNL     1      -0.973  20.043  14.378  1.00  0.00    -0.316 OA
BRANCH  24  25
HETATM   25  C19 UNL     1       0.046  19.709  13.455  1.00  0.00     0.132 A 
HETATM   26  C20 UNL     1       1.459  20.081  13.972  1.00  0.00     0.035 A 
HETATM   27  C21 UNL     1       0.809  20.808  12.854  1.00  0.00     0.035 A 
ENDBRANCH  24  25
ENDBRANCH  22  24
ENDBRANCH  21  22
ENDBRANCH  20  21
ENDBRANCH  19  20
ENDBRANCH  18  19
ENDBRANCH  16  17
ENDBRANCH   2  16
TORSDOF 16
ENDMDL
MODEL 3
REMARK VINA RESULT: -7.402196293      2.476      4.850
REMARK  16 active torsions:
REMARK  status: ('A' for Active; 'I' for Inactive)
REMARK       I    between atoms: C1_2  and  N2_4 
REMARK    1  A    between atoms: N2_4  and  C2_6 
REMARK    2  A    between atoms: C2_6  and  C3_7 
REMARK    3  A    between atoms: C3_7  and  C4_8 
REMARK    4  A    between atoms: C4_8  and  C5_9 
REMARK    5  A    between atoms: C5_9  and  C6_10 
REMARK    6  A    between atoms: C6_10  and  C7_11 
REMARK    7  A    between atoms: C8_12  and  C9_13 
REMARK    8  A    between atoms: C9_13  and  C10_14 
REMARK    9  A    between atoms: C11_15  and  C12_16 
REMARK   10  A    between atoms: C12_16  and  C13_17 
REMARK   11  A    between atoms: C14_18  and  C15_19 
REMARK   12  A    between atoms: C15_19  and  C16_20 
REMARK   13  A    between atoms: C16_20  and  C17_21 
REMARK   14  A    between atoms: C17_21  and  C18_22 
REMARK   15  A    between atoms: C18_22  and  O3_24 
REMARK   16  A    between atoms: O3_24  and  C19_25 
ROOT
HETATM    1  C10 UNL     1      -4.257  12.397   8.993  1.00  0.00    -0.027 C 
HETATM    2  C11 UNL     1      -4.350  11.759  10.133  1.00  0.00    -0.027 C 
ENDROOT
BRANCH   1   3
HETATM    3  C9  UNL     1      -4.344  13.875   8.784  1.00  0.00     0.053 C 
BRANCH   3   4
HETATM    4  C8  UNL     1      -3.049  14.434   8.364  1.00  0.00    -0.027 C 
HETATM    5  C7  UNL     1      -2.574  15.576   8.731  1.00  0.00    -0.030 C 
BRANCH   5   6
HETATM    6  C6  UNL     1      -3.232  16.529   9.629  1.00  0.00     0.027 C 
BRANCH   6   7
HETATM    7  C5  UNL     1      -2.955  17.932   9.054  1.00  0.00     0.004 C 
BRANCH   7   8
HETATM    8  C4  UNL     1      -3.771  18.880   9.872  1.00  0.00     0.002 C 
BRANCH   8   9
HETATM    9  C3  UNL     1      -3.019  20.120  10.295  1.00  0.00     0.020 C 
BRANCH   9  10
HETATM   10  C2  UNL     1      -3.263  20.384  11.754  1.00  0.00     0.124 C 
BRANCH  10  11
HETATM   11  N2  UNL     1      -2.124  20.088  12.591  1.00  0.00    -0.345 N 
HETATM   12  C1  UNL     1      -2.170  20.306  13.972  1.00  0.00     0.328 C 
HETATM   13  N1  UNL     1      -1.041  20.019  14.780  1.00  0.00    -0.040 NA
HETATM   14  O1  UNL     1      -3.179  20.749  14.532  1.00  0.00    -0.251 OA
ATOM     15  H2  UNL     1      -1.272  19.716  12.169  1.00  0.00     0.163 HD
ENDBRANCH  10  11
ENDBRANCH   9  10
ENDBRANCH   8   9
ENDBRANCH   7   8
ENDBRANCH   6   7
ENDBRANCH   5   6
ENDBRANCH   3   4
ENDBRANCH   1   3
BRANCH   2  16
HETATM   16  C12 UNL     1      -4.563  12.344  11.474  1.00  0.00     0.053 C 
BRANCH  16  17
HETATM   17  C13 UNL     1      -3.307  13.061  11.879  1.00  0.00    -0.027 C 
HETATM   18  C14 UNL     1      -2.212  12.401  12.167  1.00  0.00    -0.030 C 
BRANCH  18  19
HETATM   19  C15 UNL     1      -0.972  13.163  12.569  1.00  0.00     0.027 C 
BRANCH  19  20
HETATM   20  C16 UNL     1      -0.972  14.440  11.806  1.00  0.00     0.013 C 
BRANCH  20  21
HETATM   21  C17 UNL     1      -0.268  15.527  12.552  1.00  0.00     0.111 C 
BRANCH  21  22
HETATM   22  C18 UNL     1      -1.060  16.754  12.588  1.00  0.00     0.259 C 
HETATM   23  O2  UNL     1      -2.052  16.900  13.316  1.00  0.00    -0.265 OA
BRANCH  22  24
HETATM   24  O3  UNL     1      -0.694  17.820  11.770  1.00  0.00    -0.316 OA
BRANCH  24  25
HETATM   25  C19 UNL     1       0.553  17.864  11.103  1.00  0.00     0.132 A 
HETATM   26  C20 UNL     1       0.640  19.030  10.085  1.00  0.00     0.035 A 
HETATM   27  C21 UNL     1       0.565  17.611   9.659  1.00  0.00     0.035 A 
ENDBRANCH  24  25
ENDBRANCH  22  24
ENDBRANCH  21  22
ENDBRANCH  20  21
ENDBRANCH  19  20
ENDBRANCH  18  19
ENDBRANCH  16  17
ENDBRANCH   2  16
TORSDOF 16
ENDMDL
MODEL 4
REMARK VINA RESULT: -7.383973866      2.129      3.536
REMARK  16 active torsions:
REMARK  status: ('A' for Active; 'I' for Inactive)
REMARK       I    between atoms: C1_2  and  N2_4 
REMARK    1  A    between atoms: N2_4  and  C2_6 
REMARK    2  A    between atoms: C2_6  and  C3_7 
REMARK    3  A    between atoms: C3_7  and  C4_8 
REMARK    4  A    between atoms: C4_8  and  C5_9 
REMARK    5  A    between atoms: C5_9  and  C6_10 
REMARK    6  A    between atoms: C6_10  and  C7_11 
REMARK    7  A    between atoms: C8_12  and  C9_13 
REMARK    8  A    between atoms: C9_13  and  C10_14 
REMARK    9  A    between atoms: C11_15  and  C12_16 
REMARK   10  A    between atoms: C12_16  and  C13_17 
REMARK   11  A    between atoms: C14_18  and  C15_19 
REMARK   12  A    between atoms: C15_19  and  C16_20 
REMARK   13  A    between atoms: C16_20  and  C17_21 
REMARK   14  A    between atoms: C17_21  and  C18_22 
REMARK   15  A    between atoms: C18_22  and  O3_24 
REMARK   16  A    between atoms: O3_24  and  C19_25 
ROOT
HETATM    1  C10 UNL     1      -3.512  19.483  10.991  1.00  0.00    -0.027 C 
HETATM    2  C11 UNL     1      -2.928  18.613  10.206  1.00  0.00    -0.027 C 
ENDROOT
BRANCH   1   3
HETATM    3  C9  UNL     1      -2.872  20.658  11.658  1.00  0.00     0.053 C 
BRANCH   3   4
HETATM    4  C8  UNL     1      -3.338  20.806  13.046  1.00  0.00    -0.027 C 
HETATM    5  C7  UNL     1      -2.826  20.216  14.073  1.00  0.00    -0.030 C 
BRANCH   5   6
HETATM    6  C6  UNL     1      -1.691  19.290  14.051  1.00  0.00     0.027 C 
BRANCH   6   7
HETATM    7  C5  UNL     1      -0.470  20.086  14.554  1.00  0.00     0.004 C 
BRANCH   7   8
HETATM    8  C4  UNL     1       0.558  19.990  13.472  1.00  0.00     0.002 C 
BRANCH   8   9
HETATM    9  C3  UNL     1       0.581  21.184  12.548  1.00  0.00     0.020 C 
BRANCH   9  10
HETATM   10  C2  UNL     1       1.945  21.815  12.575  1.00  0.00     0.124 C 
BRANCH  10  11
HETATM   11  N2  UNL     1       2.292  22.489  11.346  1.00  0.00    -0.345 N 
HETATM   12  C1  UNL     1       2.184  23.879  11.233  1.00  0.00     0.328 C 
HETATM   13  N1  UNL     1       2.520  24.527  10.018  1.00  0.00    -0.040 NA
HETATM   14  O1  UNL     1       1.796  24.585  12.171  1.00  0.00    -0.251 OA
ATOM     15  H2  UNL     1       2.621  21.944  10.549  1.00  0.00     0.163 HD
ENDBRANCH  10  11
ENDBRANCH   9  10
ENDBRANCH   8   9
ENDBRANCH   7   8
ENDBRANCH   6   7
ENDBRANCH   5   6
ENDBRANCH   3   4
ENDBRANCH   1   3
BRANCH   2  16
HETATM   16  C12 UNL     1      -1.507  18.584   9.797  1.00  0.00     0.053 C 
BRANCH  16  17
HETATM   17  C13 UNL     1      -0.729  17.858  10.856  1.00  0.00    -0.027 C 
HETATM   18  C14 UNL     1      -1.152  16.720  11.348  1.00  0.00    -0.030 C 
BRANCH  18  19
HETATM   19  C15 UNL     1      -0.337  16.024  12.412  1.00  0.00     0.027 C 
BRANCH  19  20
HETATM   20  C16 UNL     1      -0.515  14.559  12.215  1.00  0.00     0.013 C 
BRANCH  20  21
HETATM   21  C17 UNL     1      -1.894  14.118  12.583  1.00  0.00     0.111 C 
BRANCH  21  22
HETATM   22  C18 UNL     1      -2.306  12.945  11.815  1.00  0.00     0.259 C 
HETATM   23  O2  UNL     1      -1.982  11.789  12.117  1.00  0.00    -0.265 OA
BRANCH  22  24
HETATM   24  O3  UNL     1      -3.102  13.122  10.686  1.00  0.00    -0.316 OA
BRANCH  24  25
HETATM   25  C19 UNL     1      -3.877  14.289  10.486  1.00  0.00     0.132 A 
HETATM   26  C20 UNL     1      -4.846  14.157   9.284  1.00  0.00     0.035 A 
HETATM   27  C21 UNL     1      -3.660  15.048   9.250  1.00  0.00     0.035 A 
ENDBRANCH  24  25
ENDBRANCH  22  24
ENDBRANCH  21  22
ENDBRANCH  20  21
ENDBRANCH  19  20
ENDBRANCH  18  19
ENDBRANCH  16  17
ENDBRANCH   2  16
TORSDOF 16
ENDMDL
MODEL 5
REMARK VINA RESULT: -7.343753023      2.726      3.741
REMARK  16 active torsions:
REMARK  status: ('A' for Active; 'I' for Inactive)
REMARK       I    between atoms: C1_2  and  N2_4 
REMARK    1  A    between atoms: N2_4  and  C2_6 
REMARK    2  A    between atoms: C2_6  and  C3_7 
REMARK    3  A    between atoms: C3_7  and  C4_8 
REMARK    4  A    between atoms: C4_8  and  C5_9 
REMARK    5  A    between atoms: C5_9  and  C6_10 
REMARK    6  A    between atoms: C6_10  and  C7_11 
REMARK    7  A    between atoms: C8_12  and  C9_13 
REMARK    8  A    between atoms: C9_13  and  C10_14 
REMARK    9  A    between atoms: C11_15  and  C12_16 
REMARK   10  A    between atoms: C12_16  and  C13_17 
REMARK   11  A    between atoms: C14_18  and  C15_19 
REMARK   12  A    between atoms: C15_19  and  C16_20 
REMARK   13  A    between atoms: C16_20  and  C17_21 
REMARK   14  A    between atoms: C17_21  and  C18_22 
REMARK   15  A    between atoms: C18_22  and  O3_24 
REMARK   16  A    between atoms: O3_24  and  C19_25 
ROOT
HETATM    1  C10 UNL     1      -2.231  17.323  13.360  1.00  0.00    -0.027 C 
HETATM    2  C11 UNL     1      -1.988  16.099  12.961  1.00  0.00    -0.027 C 
ENDROOT
BRANCH   1   3
HETATM    3  C9  UNL     1      -1.251  18.448  13.443  1.00  0.00     0.053 C 
BRANCH   3   4
HETATM    4  C8  UNL     1      -1.883  19.673  13.957  1.00  0.00    -0.027 C 
HETATM    5  C7  UNL     1      -2.308  20.654  13.234  1.00  0.00    -0.030 C 
BRANCH   5   6
HETATM    6  C6  UNL     1      -2.239  20.735  11.773  1.00  0.00     0.027 C 
BRANCH   6   7
HETATM    7  C5  UNL     1      -3.581  20.195  11.243  1.00  0.00     0.004 C 
BRANCH   7   8
HETATM    8  C4  UNL     1      -3.237  19.071  10.319  1.00  0.00     0.002 C 
BRANCH   8   9
HETATM    9  C3  UNL     1      -3.889  19.178   8.962  1.00  0.00     0.020 C 
BRANCH   9  10
HETATM   10  C2  UNL     1      -2.963  19.883   8.011  1.00  0.00     0.124 C 
BRANCH  10  11
HETATM   11  N2  UNL     1      -1.654  19.279   7.928  1.00  0.00    -0.345 N 
HETATM   12  C1  UNL     1      -1.301  18.472   6.841  1.00  0.00     0.328 C 
HETATM   13  N1  UNL     1      -0.016  17.879   6.777  1.00  0.00    -0.040 NA
HETATM   14  O1  UNL     1      -2.084  18.249   5.911  1.00  0.00    -0.251 OA
ATOM     15  H2  UNL     1      -0.976  19.442   8.673  1.00  0.00     0.163 HD
ENDBRANCH  10  11
ENDBRANCH   9  10
ENDBRANCH   8   9
ENDBRANCH   7   8
ENDBRANCH   6   7
ENDBRANCH   5   6
ENDBRANCH   3   4
ENDBRANCH   1   3
BRANCH   2  16
HETATM   16  C12 UNL     1      -0.696  15.543  12.506  1.00  0.00     0.053 C 
BRANCH  16  17
HETATM   17  C13 UNL     1      -0.873  14.070  12.277  1.00  0.00    -0.027 C 
HETATM   18  C14 UNL     1      -2.065  13.526  12.253  1.00  0.00    -0.030 C 
BRANCH  18  19
HETATM   19  C15 UNL     1      -2.197  12.040  12.019  1.00  0.00     0.027 C 
BRANCH  19  20
HETATM   20  C16 UNL     1      -3.393  11.834  11.158  1.00  0.00     0.013 C 
BRANCH  20  21
HETATM   21  C17 UNL     1      -4.434  12.877  11.403  1.00  0.00     0.111 C 
BRANCH  21  22
HETATM   22  C18 UNL     1      -5.108  13.265  10.166  1.00  0.00     0.259 C 
HETATM   23  O2  UNL     1      -5.728  12.466   9.452  1.00  0.00    -0.265 OA
BRANCH  22  24
HETATM   24  O3  UNL     1      -5.059  14.596   9.758  1.00  0.00    -0.316 OA
BRANCH  24  25
HETATM   25  C19 UNL     1      -3.836  15.283   9.571  1.00  0.00     0.132 A 
HETATM   26  C20 UNL     1      -3.635  15.744   8.105  1.00  0.00     0.035 A 
HETATM   27  C21 UNL     1      -2.827  14.657   8.711  1.00  0.00     0.035 A 
ENDBRANCH  24  25
ENDBRANCH  22  24
ENDBRANCH  21  22
ENDBRANCH  20  21
ENDBRANCH  19  20
ENDBRANCH  18  19
ENDBRANCH  16  17
ENDBRANCH   2  16
TORSDOF 16
ENDMDL
