MODEL 1
REMARK VINA RESULT: -7.314469776      0.000      0.000
REMARK  6 active torsions:
REMARK  status: ('A' for Active; 'I' for Inactive)
REMARK    1  A    between atoms: C2_2  and  C3_3 
REMARK    2  A    between atoms: C4_4  and  C5_5 
REMARK    3  A    between atoms: C5_5  and  N1_6 
REMARK    4  A    between atoms: C9_14  and  O1_15 
REMARK    5  A    between atoms: C14_21  and  C15_22 
REMARK    6  A    between atoms: C15_22  and  O2_23 
ROOT
HETATM    1  C3  UNL     1       6.261   7.319  23.179  1.00  0.00     0.254 C 
HETATM    2  C4  UNL     1       6.616   6.498  24.358  1.00  0.00     0.049 C 
HETATM    3  C6  UNL     1       5.941   6.907  25.646  1.00  0.00     0.023 C 
HETATM    4  C7  UNL     1       5.712   8.373  25.654  1.00  0.00     0.026 C 
HETATM    5  C8  UNL     1       4.907   8.728  24.432  1.00  0.00     0.290 C 
HETATM    6  N2  UNL     1       5.969   8.699  23.438  1.00  0.00     0.129 N 
HETATM    7  C9  UNL     1       6.988   9.473  24.031  1.00  0.00     0.393 C 
HETATM    8  C10 UNL     1       6.943   9.243  25.539  1.00  0.00     0.125 C 
HETATM    9  C11 UNL     1       6.169  10.275  26.318  1.00  0.00     0.049 C 
HETATM   10  C12 UNL     1       5.379   9.087  26.894  1.00  0.00     0.002 C 
HETATM   11  C13 UNL     1       5.996   8.562  28.133  1.00  0.00     0.014 C 
HETATM   12  C14 UNL     1       7.414   8.958  28.365  1.00  0.00     0.033 C 
HETATM   13  C16 UNL     1       8.368   8.599  27.291  1.00  0.00     0.175 C 
HETATM   14  O3  UNL     1       8.093   8.838  26.026  1.00  0.00    -0.374 OA
ENDROOT
BRANCH   2  15
HETATM   15  C5  UNL     1       6.387   5.027  24.075  1.00  0.00     0.236 C 
BRANCH  15  16
HETATM   16  N1  UNL     1       5.946   4.307  25.245  1.00  0.00    -0.079 N 
ATOM     17  H13 UNL     1       6.715   4.158  25.899  1.00  0.00     0.274 HD
ATOM     18  H12 UNL     1       5.346   4.887  25.831  1.00  0.00     0.274 HD
ATOM     19  H11 UNL     1       5.488   3.426  25.008  1.00  0.00     0.274 HD
ENDBRANCH  15  16
ENDBRANCH   2  15
BRANCH   1  20
HETATM   20  C2  UNL     1       7.184   7.169  22.036  1.00  0.00    -0.001 C 
HETATM   21  C1  UNL     1       6.954   7.439  20.779  1.00  0.00     0.009 C 
ENDBRANCH   1  20
BRANCH   7  22
HETATM   22  O1  UNL     1       8.245   9.347  23.515  1.00  0.00    -0.365 OA
ATOM     23  H1  UNL     1       8.958   9.233  24.133  1.00  0.00     0.212 HD
ENDBRANCH   7  22
BRANCH  12  24
HETATM   24  C15 UNL     1       7.856   8.196  29.631  1.00  0.00     0.170 C 
BRANCH  24  25
HETATM   25  O2  UNL     1       8.916   8.923  30.217  1.00  0.00    -0.400 OA
ATOM     26  H2  UNL     1       8.543   9.473  30.895  1.00  0.00     0.209 HD
ENDBRANCH  24  25
ENDBRANCH  12  24
TORSDOF 6
ENDMDL
MODEL 2
REMARK VINA RESULT: -6.965921723      1.367      1.587
REMARK  6 active torsions:
REMARK  status: ('A' for Active; 'I' for Inactive)
REMARK    1  A    between atoms: C2_2  and  C3_3 
REMARK    2  A    between atoms: C4_4  and  C5_5 
REMARK    3  A    between atoms: C5_5  and  N1_6 
REMARK    4  A    between atoms: C9_14  and  O1_15 
REMARK    5  A    between atoms: C14_21  and  C15_22 
REMARK    6  A    between atoms: C15_22  and  O2_23 
ROOT
HETATM    1  C3  UNL     1       6.619   7.755  21.870  1.00  0.00     0.254 C 
HETATM    2  C4  UNL     1       6.564   6.901  23.077  1.00  0.00     0.049 C 
HETATM    3  C6  UNL     1       5.671   7.415  24.182  1.00  0.00     0.023 C 
HETATM    4  C7  UNL     1       5.662   8.899  24.175  1.00  0.00     0.026 C 
HETATM    5  C8  UNL     1       5.228   9.359  22.809  1.00  0.00     0.290 C 
HETATM    6  N2  UNL     1       6.478   9.166  22.090  1.00  0.00     0.129 N 
HETATM    7  C9  UNL     1       7.430   9.785  22.926  1.00  0.00     0.393 C 
HETATM    8  C10 UNL     1       6.999   9.577  24.375  1.00  0.00     0.125 C 
HETATM    9  C11 UNL     1       6.221  10.719  24.978  1.00  0.00     0.049 C 
HETATM   10  C12 UNL     1       5.154   9.665  25.321  1.00  0.00     0.002 C 
HETATM   11  C13 UNL     1       5.379   9.065  26.656  1.00  0.00     0.014 C 
HETATM   12  C14 UNL     1       6.745   9.249  27.223  1.00  0.00     0.033 C 
HETATM   13  C16 UNL     1       7.862   8.745  26.394  1.00  0.00     0.175 C 
HETATM   14  O3  UNL     1       7.930   9.011  25.106  1.00  0.00    -0.374 OA
ENDROOT
BRANCH   2  15
HETATM   15  C5  UNL     1       6.197   5.477  22.709  1.00  0.00     0.236 C 
BRANCH  15  16
HETATM   16  N1  UNL     1       4.974   5.406  21.947  1.00  0.00    -0.079 N 
ATOM     17  H13 UNL     1       4.492   6.306  21.938  1.00  0.00     0.274 HD
ATOM     18  H12 UNL     1       5.166   5.315  20.949  1.00  0.00     0.274 HD
ATOM     19  H11 UNL     1       4.357   4.662  22.272  1.00  0.00     0.274 HD
ENDBRANCH  15  16
ENDBRANCH   2  15
BRANCH   1  20
HETATM   20  C2  UNL     1       7.753   7.462  20.971  1.00  0.00    -0.001 C 
HETATM   21  C1  UNL     1       7.794   7.567  19.670  1.00  0.00     0.009 C 
ENDBRANCH   1  20
BRANCH   7  22
HETATM   22  O1  UNL     1       8.741   9.471  22.715  1.00  0.00    -0.365 OA
ATOM     23  H1  UNL     1       9.350  10.194  22.614  1.00  0.00     0.212 HD
ENDBRANCH   7  22
BRANCH  12  24
HETATM   24  C15 UNL     1       6.760   8.440  28.537  1.00  0.00     0.170 C 
BRANCH  24  25
HETATM   25  O2  UNL     1       8.064   8.529  29.074  1.00  0.00    -0.400 OA
ATOM     26  H2  UNL     1       8.561   7.792  28.738  1.00  0.00     0.209 HD
ENDBRANCH  24  25
ENDBRANCH  12  24
TORSDOF 6
ENDMDL
MODEL 3
REMARK VINA RESULT: -6.024304488      2.794      5.784
REMARK  6 active torsions:
REMARK  status: ('A' for Active; 'I' for Inactive)
REMARK    1  A    between atoms: C2_2  and  C3_3 
REMARK    2  A    between atoms: C4_4  and  C5_5 
REMARK    3  A    between atoms: C5_5  and  N1_6 
REMARK    4  A    between atoms: C9_14  and  O1_15 
REMARK    5  A    between atoms: C14_21  and  C15_22 
REMARK    6  A    between atoms: C15_22  and  O2_23 
ROOT
HETATM    1  C3  UNL     1       6.941   8.404  24.929  1.00  0.00     0.254 C 
HETATM    2  C4  UNL     1       6.173   7.768  23.836  1.00  0.00     0.049 C 
HETATM    3  C6  UNL     1       6.603   8.162  22.442  1.00  0.00     0.023 C 
HETATM    4  C7  UNL     1       7.107   9.557  22.443  1.00  0.00     0.026 C 
HETATM    5  C8  UNL     1       8.223   9.652  23.449  1.00  0.00     0.290 C 
HETATM    6  N2  UNL     1       7.431   9.727  24.668  1.00  0.00     0.129 N 
HETATM    7  C9  UNL     1       6.475  10.721  24.372  1.00  0.00     0.393 C 
HETATM    8  C10 UNL     1       6.129  10.621  22.889  1.00  0.00     0.125 C 
HETATM    9  C11 UNL     1       6.892  11.562  21.992  1.00  0.00     0.049 C 
HETATM   10  C12 UNL     1       7.281  10.307  21.192  1.00  0.00     0.002 C 
HETATM   11  C13 UNL     1       6.307  10.014  20.116  1.00  0.00     0.014 C 
HETATM   12  C14 UNL     1       4.980  10.678  20.250  1.00  0.00     0.033 C 
HETATM   13  C16 UNL     1       4.245  10.402  21.505  1.00  0.00     0.175 C 
HETATM   14  O3  UNL     1       4.842  10.474  22.676  1.00  0.00    -0.374 OA
ENDROOT
BRANCH   2  15
HETATM   15  C5  UNL     1       6.168   6.260  23.990  1.00  0.00     0.236 C 
BRANCH  15  16
HETATM   16  N1  UNL     1       7.489   5.693  23.871  1.00  0.00    -0.079 N 
ATOM     17  H13 UNL     1       7.972   5.690  24.770  1.00  0.00     0.274 HD
ATOM     18  H12 UNL     1       7.446   4.688  23.707  1.00  0.00     0.274 HD
ATOM     19  H11 UNL     1       8.047   6.159  23.156  1.00  0.00     0.274 HD
ENDBRANCH  15  16
ENDBRANCH   2  15
BRANCH   1  20
HETATM   20  C2  UNL     1       6.293   8.322  26.253  1.00  0.00    -0.001 C 
HETATM   21  C1  UNL     1       6.832   8.527  27.424  1.00  0.00     0.009 C 
ENDBRANCH   1  20
BRANCH   7  22
HETATM   22  O1  UNL     1       5.369  10.777  25.169  1.00  0.00    -0.365 OA
ATOM     23  H1  UNL     1       4.661  11.345  24.889  1.00  0.00     0.212 HD
ENDBRANCH   7  22
BRANCH  12  24
HETATM   24  C15 UNL     1       4.120  10.122  19.096  1.00  0.00     0.170 C 
BRANCH  24  25
HETATM   25  O2  UNL     1       2.911   9.652  19.655  1.00  0.00    -0.400 OA
ATOM     26  H2  UNL     1       2.503   9.083  19.014  1.00  0.00     0.209 HD
ENDBRANCH  24  25
ENDBRANCH  12  24
TORSDOF 6
ENDMDL
MODEL 4
REMARK VINA RESULT: -6.013375602      2.436      4.062
REMARK  6 active torsions:
REMARK  status: ('A' for Active; 'I' for Inactive)
REMARK    1  A    between atoms: C2_2  and  C3_3 
REMARK    2  A    between atoms: C4_4  and  C5_5 
REMARK    3  A    between atoms: C5_5  and  N1_6 
REMARK    4  A    between atoms: C9_14  and  O1_15 
REMARK    5  A    between atoms: C14_21  and  C15_22 
REMARK    6  A    between atoms: C15_22  and  O2_23 
ROOT
HETATM    1  C3  UNL     1       6.440  10.528  21.838  1.00  0.00     0.254 C 
HETATM    2  C4  UNL     1       6.122  11.189  23.123  1.00  0.00     0.049 C 
HETATM    3  C6  UNL     1       7.011  10.797  24.280  1.00  0.00     0.023 C 
HETATM    4  C7  UNL     1       7.455   9.390  24.122  1.00  0.00     0.026 C 
HETATM    5  C8  UNL     1       8.139   9.262  22.787  1.00  0.00     0.290 C 
HETATM    6  N2  UNL     1       6.966   9.196  21.930  1.00  0.00     0.129 N 
HETATM    7  C9  UNL     1       6.158   8.227  22.560  1.00  0.00     0.393 C 
HETATM    8  C10 UNL     1       6.362   8.346  24.068  1.00  0.00     0.125 C 
HETATM    9  C11 UNL     1       7.376   7.394  24.650  1.00  0.00     0.049 C 
HETATM   10  C12 UNL     1       8.047   8.646  25.242  1.00  0.00     0.002 C 
HETATM   11  C13 UNL     1       7.524   8.970  26.588  1.00  0.00     0.014 C 
HETATM   12  C14 UNL     1       6.222   8.336  26.943  1.00  0.00     0.033 C 
HETATM   13  C16 UNL     1       5.096   8.619  26.026  1.00  0.00     0.175 C 
HETATM   14  O3  UNL     1       5.238   8.524  24.721  1.00  0.00    -0.374 OA
ENDROOT
BRANCH   2  15
HETATM   15  C5  UNL     1       6.091  12.696  22.957  1.00  0.00     0.236 C 
BRANCH  15  16
HETATM   16  N1  UNL     1       5.761  13.376  24.186  1.00  0.00    -0.079 N 
ATOM     17  H13 UNL     1       6.371  13.077  24.948  1.00  0.00     0.274 HD
ATOM     18  H12 UNL     1       6.024  14.360  24.145  1.00  0.00     0.274 HD
ATOM     19  H11 UNL     1       4.779  13.267  24.437  1.00  0.00     0.274 HD
ENDBRANCH  15  16
ENDBRANCH   2  15
BRANCH   1  20
HETATM   20  C2  UNL     1       5.366  10.615  20.829  1.00  0.00    -0.001 C 
HETATM   21  C1  UNL     1       5.455  10.408  19.543  1.00  0.00     0.009 C 
ENDBRANCH   1  20
BRANCH   7  22
HETATM   22  O1  UNL     1       4.840   8.190  22.207  1.00  0.00    -0.365 OA
ATOM     23  H1  UNL     1       4.232   7.824  22.839  1.00  0.00     0.212 HD
ENDBRANCH   7  22
BRANCH  12  24
HETATM   24  C15 UNL     1       5.839   8.920  28.319  1.00  0.00     0.170 C 
BRANCH  24  25
HETATM   25  O2  UNL     1       6.031  10.318  28.255  1.00  0.00    -0.400 OA
ATOM     26  H2  UNL     1       5.818  10.675  29.109  1.00  0.00     0.209 HD
ENDBRANCH  24  25
ENDBRANCH  12  24
TORSDOF 6
ENDMDL
MODEL 5
REMARK VINA RESULT: -5.937059616      2.068      2.959
REMARK  6 active torsions:
REMARK  status: ('A' for Active; 'I' for Inactive)
REMARK    1  A    between atoms: C2_2  and  C3_3 
REMARK    2  A    between atoms: C4_4  and  C5_5 
REMARK    3  A    between atoms: C5_5  and  N1_6 
REMARK    4  A    between atoms: C9_14  and  O1_15 
REMARK    5  A    between atoms: C14_21  and  C15_22 
REMARK    6  A    between atoms: C15_22  and  O2_23 
ROOT
HETATM    1  C3  UNL     1       7.162   6.871  20.872  1.00  0.00     0.254 C 
HETATM    2  C4  UNL     1       6.906   6.356  22.235  1.00  0.00     0.049 C 
HETATM    3  C6  UNL     1       5.801   7.059  22.987  1.00  0.00     0.023 C 
HETATM    4  C7  UNL     1       5.740   8.484  22.579  1.00  0.00     0.026 C 
HETATM    5  C8  UNL     1       5.559   8.537  21.085  1.00  0.00     0.290 C 
HETATM    6  N2  UNL     1       6.930   8.273  20.676  1.00  0.00     0.129 N 
HETATM    7  C9  UNL     1       7.682   9.167  21.467  1.00  0.00     0.393 C 
HETATM    8  C10 UNL     1       6.988   9.303  22.819  1.00  0.00     0.125 C 
HETATM    9  C11 UNL     1       6.069  10.491  22.947  1.00  0.00     0.049 C 
HETATM   10  C12 UNL     1       4.994   9.474  23.369  1.00  0.00     0.002 C 
HETATM   11  C13 UNL     1       4.981   9.260  24.834  1.00  0.00     0.014 C 
HETATM   12  C14 UNL     1       6.205   9.701  25.561  1.00  0.00     0.033 C 
HETATM   13  C16 UNL     1       7.478   9.097  25.107  1.00  0.00     0.175 C 
HETATM   14  O3  UNL     1       7.782   9.027  23.828  1.00  0.00    -0.374 OA
ENDROOT
BRANCH   2  15
HETATM   15  C5  UNL     1       6.668   4.859  22.207  1.00  0.00     0.236 C 
BRANCH  15  16
HETATM   16  N1  UNL     1       5.330   4.510  22.620  1.00  0.00    -0.079 N 
ATOM     17  H13 UNL     1       5.345   3.891  23.431  1.00  0.00     0.274 HD
ATOM     18  H12 UNL     1       4.852   5.309  23.034  1.00  0.00     0.274 HD
ATOM     19  H11 UNL     1       4.783   4.106  21.859  1.00  0.00     0.274 HD
ENDBRANCH  15  16
ENDBRANCH   2  15
BRANCH   1  20
HETATM   20  C2  UNL     1       8.457   6.454  20.299  1.00  0.00    -0.001 C 
HETATM   21  C1  UNL     1       8.826   6.481  19.046  1.00  0.00     0.009 C 
ENDBRANCH   1  20
BRANCH   7  22
HETATM   22  O1  UNL     1       9.019   8.922  21.582  1.00  0.00    -0.365 OA
ATOM     23  H1  UNL     1       9.541   9.570  22.042  1.00  0.00     0.212 HD
ENDBRANCH   7  22
BRANCH  12  24
HETATM   24  C15 UNL     1       5.998   9.263  27.025  1.00  0.00     0.170 C 
BRANCH  24  25
HETATM   25  O2  UNL     1       4.859   9.941  27.514  1.00  0.00    -0.400 OA
ATOM     26  H2  UNL     1       5.164  10.712  27.978  1.00  0.00     0.209 HD
ENDBRANCH  24  25
ENDBRANCH  12  24
TORSDOF 6
ENDMDL
