MODEL 1
REMARK VINA RESULT: -7.930647064      0.000      0.000
REMARK  6 active torsions:
REMARK  status: ('A' for Active; 'I' for Inactive)
REMARK    1  A    between atoms: N1_2  and  C2_4 
REMARK    2  A    between atoms: C2_4  and  N2_6 
REMARK    3  A    between atoms: N2_6  and  N3_8 
REMARK       I    between atoms: N3_8  and  C3_10 
REMARK    4  A    between atoms: C3_10  and  C4_12 
REMARK    5  A    between atoms: C4_12  and  C5_13 
REMARK    6  A    between atoms: C5_13  and  C6_14 
ROOT
HETATM    1  N3  UNL     1      24.707  14.595  25.003  1.00  0.00    -0.268 N 
ATOM      2  H3  UNL     1      24.044  13.909  25.365  1.00  0.00     0.190 HD
HETATM    3  C3  UNL     1      25.966  14.167  24.543  1.00  0.00     0.236 C 
HETATM    4  O1  UNL     1      26.782  14.998  24.103  1.00  0.00    -0.272 OA
ENDROOT
BRANCH   3   5
HETATM    5  C4  UNL     1      26.373  12.724  24.560  1.00  0.00     0.109 C 
BRANCH   5   6
HETATM    6  C5  UNL     1      25.829  12.040  25.791  1.00  0.00     0.048 C 
BRANCH   6   7
HETATM    7  C6  UNL     1      25.201  10.732  25.464  1.00  0.00    -0.051 A 
HETATM    8  C7  UNL     1      24.356  10.677  24.341  1.00  0.00     0.027 A 
HETATM    9  C8  UNL     1      23.710   9.509  24.021  1.00  0.00     0.017 A 
HETATM   10 BR1  UNL     1      22.552   9.391  22.496  1.00  0.00    -0.051 Br
HETATM   11  C9  UNL     1      23.910   8.411  24.819  1.00  0.00    -0.044 A 
HETATM   12  C10 UNL     1      23.207   7.145  24.477  1.00  0.00     0.049 C 
HETATM   13  C11 UNL     1      24.734   8.461  25.918  1.00  0.00     0.015 A 
HETATM   14  C12 UNL     1      25.407   9.644  26.265  1.00  0.00    -0.055 A 
HETATM   15  C13 UNL     1      26.325   9.686  27.420  1.00  0.00     0.049 C 
ENDBRANCH   6   7
ENDBRANCH   5   6
ENDBRANCH   3   5
BRANCH   1  16
HETATM   16  N2  UNL     1      24.356  15.925  24.972  1.00  0.00    -0.274 N 
ATOM     17  H2  UNL     1      24.071  16.292  24.063  1.00  0.00     0.189 HD
BRANCH  16  18
HETATM   18  C2  UNL     1      24.343  16.840  26.037  1.00  0.00     0.186 C 
HETATM   19  S1  UNL     1      25.721  17.580  26.488  1.00  0.00    -0.040 SA
BRANCH  18  20
HETATM   20  N1  UNL     1      23.142  17.156  26.755  1.00  0.00    -0.370 N 
HETATM   21  C1  UNL     1      22.973  16.783  28.154  1.00  0.00     0.148 C 
ATOM     22  H1  UNL     1      22.390  17.651  26.277  1.00  0.00     0.161 HD
ENDBRANCH  18  20
ENDBRANCH  16  18
ENDBRANCH   1  16
TORSDOF 6
ENDMDL
MODEL 2
REMARK VINA RESULT: -7.825537232      2.319      2.966
REMARK  6 active torsions:
REMARK  status: ('A' for Active; 'I' for Inactive)
REMARK    1  A    between atoms: N1_2  and  C2_4 
REMARK    2  A    between atoms: C2_4  and  N2_6 
REMARK    3  A    between atoms: N2_6  and  N3_8 
REMARK       I    between atoms: N3_8  and  C3_10 
REMARK    4  A    between atoms: C3_10  and  C4_12 
REMARK    5  A    between atoms: C4_12  and  C5_13 
REMARK    6  A    between atoms: C5_13  and  C6_14 
ROOT
HETATM    1  N3  UNL     1      25.843  15.987  24.058  1.00  0.00    -0.268 N 
ATOM      2  H3  UNL     1      25.034  16.443  24.480  1.00  0.00     0.190 HD
HETATM    3  C3  UNL     1      26.048  14.610  24.264  1.00  0.00     0.236 C 
HETATM    4  O1  UNL     1      27.034  14.045  23.755  1.00  0.00    -0.272 OA
ENDROOT
BRANCH   3   5
HETATM    5  C4  UNL     1      25.109  13.777  25.086  1.00  0.00     0.109 C 
BRANCH   5   6
HETATM    6  C5  UNL     1      25.846  12.616  25.708  1.00  0.00     0.048 C 
BRANCH   6   7
HETATM    7  C6  UNL     1      25.240  11.311  25.330  1.00  0.00    -0.051 A 
HETATM    8  C7  UNL     1      24.435  11.276  24.177  1.00  0.00     0.027 A 
HETATM    9  C8  UNL     1      23.810  10.110  23.808  1.00  0.00     0.017 A 
HETATM   10 BR1  UNL     1      22.707  10.019  22.241  1.00  0.00    -0.051 Br
HETATM   11  C9  UNL     1      23.990   8.996  24.588  1.00  0.00    -0.044 A 
HETATM   12  C10 UNL     1      23.310   7.733  24.194  1.00  0.00     0.049 C 
HETATM   13  C11 UNL     1      24.775   9.028  25.716  1.00  0.00     0.015 A 
HETATM   14  C12 UNL     1      25.426  10.207  26.113  1.00  0.00    -0.055 A 
HETATM   15  C13 UNL     1      26.303  10.229  27.300  1.00  0.00     0.049 C 
ENDBRANCH   6   7
ENDBRANCH   5   6
ENDBRANCH   3   5
BRANCH   1  16
HETATM   16  N2  UNL     1      26.717  16.726  23.295  1.00  0.00    -0.274 N 
ATOM     17  H2  UNL     1      26.755  16.490  22.302  1.00  0.00     0.189 HD
BRANCH  16  18
HETATM   18  C2  UNL     1      27.563  17.766  23.714  1.00  0.00     0.186 C 
HETATM   19  S1  UNL     1      27.968  17.898  25.285  1.00  0.00    -0.040 SA
BRANCH  18  20
HETATM   20  N1  UNL     1      28.096  18.731  22.796  1.00  0.00    -0.370 N 
HETATM   21  C1  UNL     1      28.913  18.326  21.659  1.00  0.00     0.148 C 
ATOM     22  H1  UNL     1      27.899  19.720  22.942  1.00  0.00     0.161 HD
ENDBRANCH  18  20
ENDBRANCH  16  18
ENDBRANCH   1  16
TORSDOF 6
ENDMDL
MODEL 3
REMARK VINA RESULT: -7.777871022      3.774      4.926
REMARK  6 active torsions:
REMARK  status: ('A' for Active; 'I' for Inactive)
REMARK    1  A    between atoms: N1_2  and  C2_4 
REMARK    2  A    between atoms: C2_4  and  N2_6 
REMARK    3  A    between atoms: N2_6  and  N3_8 
REMARK       I    between atoms: N3_8  and  C3_10 
REMARK    4  A    between atoms: C3_10  and  C4_12 
REMARK    5  A    between atoms: C4_12  and  C5_13 
REMARK    6  A    between atoms: C5_13  and  C6_14 
ROOT
HETATM    1  N3  UNL     1      29.496  11.649  24.732  1.00  0.00    -0.268 N 
ATOM      2  H3  UNL     1      29.419  10.750  24.256  1.00  0.00     0.190 HD
HETATM    3  C3  UNL     1      28.700  11.903  25.865  1.00  0.00     0.236 C 
HETATM    4  O1  UNL     1      28.784  12.999  26.450  1.00  0.00    -0.272 OA
ENDROOT
BRANCH   3   5
HETATM    5  C4  UNL     1      27.736  10.890  26.407  1.00  0.00     0.109 C 
BRANCH   5   6
HETATM    6  C5  UNL     1      26.379  11.517  26.617  1.00  0.00     0.048 C 
BRANCH   6   7
HETATM    7  C6  UNL     1      25.365  10.970  25.676  1.00  0.00    -0.051 A 
HETATM    8  C7  UNL     1      25.065   9.599  25.768  1.00  0.00     0.027 A 
HETATM    9  C8  UNL     1      24.173   9.029  24.893  1.00  0.00     0.017 A 
HETATM   10 BR1  UNL     1      23.733   7.164  24.985  1.00  0.00    -0.051 Br
HETATM   11  C9  UNL     1      23.593   9.826  23.938  1.00  0.00    -0.044 A 
HETATM   12  C10 UNL     1      22.631   9.210  22.985  1.00  0.00     0.049 C 
HETATM   13  C11 UNL     1      23.886  11.166  23.846  1.00  0.00     0.015 A 
HETATM   14  C12 UNL     1      24.792  11.772  24.730  1.00  0.00    -0.055 A 
HETATM   15  C13 UNL     1      25.074  13.219  24.658  1.00  0.00     0.049 C 
ENDBRANCH   6   7
ENDBRANCH   5   6
ENDBRANCH   3   5
BRANCH   1  16
HETATM   16  N2  UNL     1      30.376  12.594  24.259  1.00  0.00    -0.274 N 
ATOM     17  H2  UNL     1      31.301  12.602  24.691  1.00  0.00     0.189 HD
BRANCH  16  18
HETATM   18  C2  UNL     1      30.158  13.551  23.253  1.00  0.00     0.186 C 
HETATM   19  S1  UNL     1      29.908  15.108  23.656  1.00  0.00    -0.040 SA
BRANCH  18  20
HETATM   20  N1  UNL     1      30.149  13.204  21.862  1.00  0.00    -0.370 N 
HETATM   21  C1  UNL     1      29.446  14.021  20.880  1.00  0.00     0.148 C 
ATOM     22  H1  UNL     1      30.645  12.369  21.552  1.00  0.00     0.161 HD
ENDBRANCH  18  20
ENDBRANCH  16  18
ENDBRANCH   1  16
TORSDOF 6
ENDMDL
MODEL 4
REMARK VINA RESULT: -7.754086540      3.490      4.774
REMARK  6 active torsions:
REMARK  status: ('A' for Active; 'I' for Inactive)
REMARK    1  A    between atoms: N1_2  and  C2_4 
REMARK    2  A    between atoms: C2_4  and  N2_6 
REMARK    3  A    between atoms: N2_6  and  N3_8 
REMARK       I    between atoms: N3_8  and  C3_10 
REMARK    4  A    between atoms: C3_10  and  C4_12 
REMARK    5  A    between atoms: C4_12  and  C5_13 
REMARK    6  A    between atoms: C5_13  and  C6_14 
ROOT
HETATM    1  N3  UNL     1      28.719  13.283  25.442  1.00  0.00    -0.268 N 
ATOM      2  H3  UNL     1      28.708  13.594  26.413  1.00  0.00     0.190 HD
HETATM    3  C3  UNL     1      28.202  12.016  25.113  1.00  0.00     0.236 C 
HETATM    4  O1  UNL     1      28.214  11.627  23.931  1.00  0.00    -0.272 OA
ENDROOT
BRANCH   3   5
HETATM    5  C4  UNL     1      27.626  11.096  26.149  1.00  0.00     0.109 C 
BRANCH   5   6
HETATM    6  C5  UNL     1      26.221  11.520  26.503  1.00  0.00     0.048 C 
BRANCH   6   7
HETATM    7  C6  UNL     1      25.217  10.934  25.575  1.00  0.00    -0.051 A 
HETATM    8  C7  UNL     1      24.978   9.551  25.664  1.00  0.00     0.027 A 
HETATM    9  C8  UNL     1      24.098   8.947  24.800  1.00  0.00     0.017 A 
HETATM   10 BR1  UNL     1      23.741   7.064  24.889  1.00  0.00    -0.051 Br
HETATM   11  C9  UNL     1      23.469   9.722  23.859  1.00  0.00    -0.044 A 
HETATM   12  C10 UNL     1      22.519   9.069  22.918  1.00  0.00     0.049 C 
HETATM   13  C11 UNL     1      23.701  11.074  23.769  1.00  0.00     0.015 A 
HETATM   14  C12 UNL     1      24.594  11.715  24.643  1.00  0.00    -0.055 A 
HETATM   15  C13 UNL     1      24.812  13.173  24.574  1.00  0.00     0.049 C 
ENDBRANCH   6   7
ENDBRANCH   5   6
ENDBRANCH   3   5
BRANCH   1  16
HETATM   16  N2  UNL     1      29.237  14.109  24.471  1.00  0.00    -0.274 N 
ATOM     17  H2  UNL     1      28.680  14.932  24.239  1.00  0.00     0.189 HD
BRANCH  16  18
HETATM   18  C2  UNL     1      30.439  13.959  23.761  1.00  0.00     0.186 C 
HETATM   19  S1  UNL     1      31.820  14.574  24.364  1.00  0.00    -0.040 SA
BRANCH  18  20
HETATM   20  N1  UNL     1      30.500  13.270  22.504  1.00  0.00    -0.370 N 
HETATM   21  C1  UNL     1      29.537  13.541  21.443  1.00  0.00     0.148 C 
ATOM     22  H1  UNL     1      31.231  12.577  22.349  1.00  0.00     0.161 HD
ENDBRANCH  18  20
ENDBRANCH  16  18
ENDBRANCH   1  16
TORSDOF 6
ENDMDL
MODEL 5
REMARK VINA RESULT: -7.727813358      3.313      4.667
REMARK  6 active torsions:
REMARK  status: ('A' for Active; 'I' for Inactive)
REMARK    1  A    between atoms: N1_2  and  C2_4 
REMARK    2  A    between atoms: C2_4  and  N2_6 
REMARK    3  A    between atoms: N2_6  and  N3_8 
REMARK       I    between atoms: N3_8  and  C3_10 
REMARK    4  A    between atoms: C3_10  and  C4_12 
REMARK    5  A    between atoms: C4_12  and  C5_13 
REMARK    6  A    between atoms: C5_13  and  C6_14 
ROOT
HETATM    1  N3  UNL     1      28.323  13.568  24.891  1.00  0.00    -0.268 N 
ATOM      2  H3  UNL     1      28.087  14.003  25.783  1.00  0.00     0.190 HD
HETATM    3  C3  UNL     1      28.219  12.171  24.752  1.00  0.00     0.236 C 
HETATM    4  O1  UNL     1      28.509  11.631  23.669  1.00  0.00    -0.272 OA
ENDROOT
BRANCH   3   5
HETATM    5  C4  UNL     1      27.766  11.289  25.878  1.00  0.00     0.109 C 
BRANCH   5   6
HETATM    6  C5  UNL     1      26.386  11.692  26.337  1.00  0.00     0.048 C 
BRANCH   6   7
HETATM    7  C6  UNL     1      25.322  11.053  25.516  1.00  0.00    -0.051 A 
HETATM    8  C7  UNL     1      25.117   9.671  25.677  1.00  0.00     0.027 A 
HETATM    9  C8  UNL     1      24.183   9.019  24.911  1.00  0.00     0.017 A 
HETATM   10 BR1  UNL     1      23.870   7.136  25.101  1.00  0.00    -0.051 Br
HETATM   11  C9  UNL     1      23.465   9.746  23.994  1.00  0.00    -0.044 A 
HETATM   12  C10 UNL     1      22.457   9.041  23.159  1.00  0.00     0.049 C 
HETATM   13  C11 UNL     1      23.664  11.097  23.834  1.00  0.00     0.015 A 
HETATM   14  C12 UNL     1      24.612  11.786  24.607  1.00  0.00    -0.055 A 
HETATM   15  C13 UNL     1      24.795  13.244  24.465  1.00  0.00     0.049 C 
ENDBRANCH   6   7
ENDBRANCH   5   6
ENDBRANCH   3   5
BRANCH   1  16
HETATM   16  N2  UNL     1      28.737  14.355  23.842  1.00  0.00    -0.274 N 
ATOM     17  H2  UNL     1      27.998  14.744  23.255  1.00  0.00     0.189 HD
BRANCH  16  18
HETATM   18  C2  UNL     1      30.052  14.689  23.478  1.00  0.00     0.186 C 
HETATM   19  S1  UNL     1      30.457  16.247  23.241  1.00  0.00    -0.040 SA
BRANCH  18  20
HETATM   20  N1  UNL     1      31.070  13.694  23.307  1.00  0.00    -0.370 N 
HETATM   21  C1  UNL     1      32.182  13.576  24.243  1.00  0.00     0.148 C 
ATOM     22  H1  UNL     1      31.016  13.055  22.515  1.00  0.00     0.161 HD
ENDBRANCH  18  20
ENDBRANCH  16  18
ENDBRANCH   1  16
TORSDOF 6
ENDMDL
