MODEL 1
REMARK VINA RESULT: -8.275855674      0.000      0.000
REMARK  15 active torsions:
REMARK  status: ('A' for Active; 'I' for Inactive)
REMARK    1  A    between atoms: C2_2  and  C3_3 
REMARK    2  A    between atoms: C3_3  and  C4_4 
REMARK    3  A    between atoms: C3_3  and  C6_6 
REMARK    4  A    between atoms: C6_6  and  C7_7 
REMARK       I    between atoms: C7_7  and  N1_9 
REMARK    5  A    between atoms: C12_14  and  C13_15 
REMARK       I    between atoms: C13_15  and  N2_17 
REMARK    6  A    between atoms: N2_17  and  C14_19 
REMARK    7  A    between atoms: C14_19  and  C15_20 
REMARK    8  A    between atoms: C14_19  and  C19_28 
REMARK    9  A    between atoms: C14_19  and  C22_35 
REMARK   10  A    between atoms: C15_20  and  C16_21 
REMARK   11  A    between atoms: C16_21  and  C17_22 
REMARK   12  A    between atoms: C17_22  and  N3_23 
REMARK   13  A    between atoms: C19_28  and  C20_29 
REMARK   14  A    between atoms: C20_29  and  C21_30 
REMARK   15  A    between atoms: C22_35  and  N8_36 
ROOT
HETATM    1  C14 UNL     1      42.085  11.483 109.764  1.00  0.00     0.057 C 
ENDROOT
BRANCH   1   2
HETATM    2  N2  UNL     1      41.554  11.299 108.458  1.00  0.00    -0.348 N 
HETATM    3  C13 UNL     1      41.955  11.708 107.181  1.00  0.00     0.241 C 
HETATM    4  O2  UNL     1      42.963  12.402 106.922  1.00  0.00    -0.271 OA
ATOM      5  H2  UNL     1      40.695  10.749 108.449  1.00  0.00     0.163 HD
BRANCH   3   6
HETATM    6  C12 UNL     1      41.191  11.348 105.943  1.00  0.00     0.183 C 
HETATM    7  N1  UNL     1      40.355  10.175 106.124  1.00  0.00    -0.334 N 
HETATM    8  C7  UNL     1      40.695   8.837 106.437  1.00  0.00     0.221 C 
HETATM    9  C8  UNL     1      39.024  10.693 105.903  1.00  0.00     0.089 C 
HETATM   10  O1  UNL     1      41.890   8.494 106.609  1.00  0.00    -0.273 OA
HETATM   11  C9  UNL     1      39.247  11.552 104.651  1.00  0.00     0.032 C 
HETATM   12  C11 UNL     1      39.069  12.008 106.660  1.00  0.00     0.032 C 
HETATM   13  C10 UNL     1      40.134  12.350 105.610  1.00  0.00     0.021 C 
BRANCH   8  14
HETATM   14  C6  UNL     1      39.642   7.811 106.568  1.00  0.00     0.107 C 
BRANCH  14  15
HETATM   15  C3  UNL     1      39.387   7.411 107.992  1.00  0.00    -0.007 C 
BRANCH  15  16
HETATM   16  C2  UNL     1      39.028   8.542 108.902  1.00  0.00     0.000 C 
HETATM   17  C1  UNL     1      37.541   8.821 108.687  1.00  0.00     0.005 C 
ENDBRANCH  15  16
BRANCH  15  18
HETATM   18  C4  UNL     1      40.611   6.721 108.539  1.00  0.00     0.000 C 
HETATM   19  C5  UNL     1      40.740   5.327 107.994  1.00  0.00     0.005 C 
ENDBRANCH  15  18
ENDBRANCH  14  15
ENDBRANCH   8  14
ENDBRANCH   3   6
ENDBRANCH   1   2
BRANCH   1  20
HETATM   20  C15 UNL     1      41.255  11.029 110.898  1.00  0.00     0.034 C 
BRANCH  20  21
HETATM   21  C16 UNL     1      41.860  10.827 112.222  1.00  0.00     0.022 C 
BRANCH  21  22
HETATM   22  C17 UNL     1      41.247   9.536 112.837  1.00  0.00     0.122 C 
BRANCH  22  23
HETATM   23  N3  UNL     1      42.192   8.841 113.659  1.00  0.00    -0.367 N 
HETATM   24  C18 UNL     1      42.632   7.662 113.444  1.00  0.00     0.196 C 
HETATM   25  N4  UNL     1      42.254   6.845 112.348  1.00  0.00    -0.067 NA
HETATM   26  N5  UNL     1      43.570   7.125 114.367  1.00  0.00    -0.067 NA
ATOM     27  H3  UNL     1      42.542   9.328 114.484  1.00  0.00     0.161 HD
ENDBRANCH  22  23
ENDBRANCH  21  22
ENDBRANCH  20  21
ENDBRANCH   1  20
BRANCH   1  28
HETATM   28  C19 UNL     1      43.351  10.592 109.787  1.00  0.00     0.040 C 
BRANCH  28  29
HETATM   29  C20 UNL     1      43.089   9.143 109.595  1.00  0.00     0.075 C 
BRANCH  29  30
HETATM   30  C21 UNL     1      44.258   8.486 108.905  1.00  0.00     0.086 C 
HETATM   31  N6  UNL     1      44.197   7.306 108.404  1.00  0.00    -0.391 N 
ATOM     32  H62 UNL     1      43.319   6.791 108.477  1.00  0.00     0.157 HD
ATOM     33  H61 UNL     1      44.987   6.862 107.937  1.00  0.00     0.157 HD
HETATM   34  N7  UNL     1      45.475   9.199 108.804  1.00  0.00    -0.088 NA
ENDBRANCH  29  30
ENDBRANCH  28  29
ENDBRANCH   1  28
BRANCH   1  35
HETATM   35  C22 UNL     1      42.629  12.867 109.955  1.00  0.00     0.266 C 
BRANCH  35  36
HETATM   36  N8  UNL     1      41.858  14.016 110.023  1.00  0.00    -0.076 N 
HETATM   37  C23 UNL     1      40.596  14.114 109.382  1.00  0.00     0.271 C 
HETATM   38  C24 UNL     1      42.678  15.117 109.518  1.00  0.00     0.271 C 
HETATM   39  C25 UNL     1      41.593  14.440 111.431  1.00  0.00     0.271 C 
ENDBRANCH  35  36
ENDBRANCH   1  35
TORSDOF 15
ENDMDL
MODEL 2
REMARK VINA RESULT: -8.248111306      0.689      1.484
REMARK  15 active torsions:
REMARK  status: ('A' for Active; 'I' for Inactive)
REMARK    1  A    between atoms: C2_2  and  C3_3 
REMARK    2  A    between atoms: C3_3  and  C4_4 
REMARK    3  A    between atoms: C3_3  and  C6_6 
REMARK    4  A    between atoms: C6_6  and  C7_7 
REMARK       I    between atoms: C7_7  and  N1_9 
REMARK    5  A    between atoms: C12_14  and  C13_15 
REMARK       I    between atoms: C13_15  and  N2_17 
REMARK    6  A    between atoms: N2_17  and  C14_19 
REMARK    7  A    between atoms: C14_19  and  C15_20 
REMARK    8  A    between atoms: C14_19  and  C19_28 
REMARK    9  A    between atoms: C14_19  and  C22_35 
REMARK   10  A    between atoms: C15_20  and  C16_21 
REMARK   11  A    between atoms: C16_21  and  C17_22 
REMARK   12  A    between atoms: C17_22  and  N3_23 
REMARK   13  A    between atoms: C19_28  and  C20_29 
REMARK   14  A    between atoms: C20_29  and  C21_30 
REMARK   15  A    between atoms: C22_35  and  N8_36 
ROOT
HETATM    1  C14 UNL     1      42.203  11.719 109.800  1.00  0.00     0.057 C 
ENDROOT
BRANCH   1   2
HETATM    2  N2  UNL     1      41.673  11.558 108.491  1.00  0.00    -0.348 N 
HETATM    3  C13 UNL     1      42.074  11.992 107.222  1.00  0.00     0.241 C 
HETATM    4  O2  UNL     1      43.081  12.692 106.976  1.00  0.00    -0.271 OA
ATOM      5  H2  UNL     1      40.815  11.008 108.472  1.00  0.00     0.163 HD
BRANCH   3   6
HETATM    6  C12 UNL     1      41.312  11.652 105.977  1.00  0.00     0.183 C 
HETATM    7  N1  UNL     1      40.671  10.352 106.052  1.00  0.00    -0.334 N 
HETATM    8  C7  UNL     1      41.222   9.056 106.200  1.00  0.00     0.221 C 
HETATM    9  C8  UNL     1      39.267  10.679 105.935  1.00  0.00     0.089 C 
HETATM   10  O1  UNL     1      42.462   8.885 106.291  1.00  0.00    -0.273 OA
HETATM   11  C9  UNL     1      39.297  11.691 104.783  1.00  0.00     0.032 C 
HETATM   12  C11 UNL     1      39.154  11.897 106.835  1.00  0.00     0.032 C 
HETATM   13  C10 UNL     1      40.101  12.510 105.796  1.00  0.00     0.021 C 
BRANCH   8  14
HETATM   14  C6  UNL     1      40.342   7.872 106.248  1.00  0.00     0.107 C 
BRANCH  14  15
HETATM   15  C3  UNL     1      40.034   7.429 107.648  1.00  0.00    -0.007 C 
BRANCH  15  16
HETATM   16  C2  UNL     1      40.386   6.005 107.943  1.00  0.00     0.000 C 
HETATM   17  C1  UNL     1      41.865   5.840 107.596  1.00  0.00     0.005 C 
ENDBRANCH  15  16
BRANCH  15  18
HETATM   18  C4  UNL     1      38.566   7.629 107.920  1.00  0.00     0.000 C 
HETATM   19  C5  UNL     1      38.343   8.694 108.955  1.00  0.00     0.005 C 
ENDBRANCH  15  18
ENDBRANCH  14  15
ENDBRANCH   8  14
ENDBRANCH   3   6
ENDBRANCH   1   2
BRANCH   1  20
HETATM   20  C15 UNL     1      41.347  11.302 110.929  1.00  0.00     0.034 C 
BRANCH  20  21
HETATM   21  C16 UNL     1      41.180   9.876 111.242  1.00  0.00     0.022 C 
BRANCH  21  22
HETATM   22  C17 UNL     1      41.617   9.655 112.719  1.00  0.00     0.122 C 
BRANCH  22  23
HETATM   23  N3  UNL     1      41.574   8.270 113.082  1.00  0.00    -0.367 N 
HETATM   24  C18 UNL     1      42.555   7.457 113.013  1.00  0.00     0.196 C 
HETATM   25  N4  UNL     1      43.857   7.796 112.561  1.00  0.00    -0.067 NA
HETATM   26  N5  UNL     1      42.333   6.112 113.415  1.00  0.00    -0.067 NA
ATOM     27  H3  UNL     1      40.686   7.904 113.424  1.00  0.00     0.161 HD
ENDBRANCH  22  23
ENDBRANCH  21  22
ENDBRANCH  20  21
ENDBRANCH   1  20
BRANCH   1  28
HETATM   28  C19 UNL     1      43.429  10.775 109.831  1.00  0.00     0.040 C 
BRANCH  28  29
HETATM   29  C20 UNL     1      43.165   9.403 109.329  1.00  0.00     0.075 C 
BRANCH  29  30
HETATM   30  C21 UNL     1      44.461   8.655 109.138  1.00  0.00     0.086 C 
HETATM   31  N6  UNL     1      44.571   7.393 109.334  1.00  0.00    -0.391 N 
ATOM     32  H62 UNL     1      43.745   6.873 109.633  1.00  0.00     0.157 HD
ATOM     33  H61 UNL     1      45.446   6.887 109.205  1.00  0.00     0.157 HD
HETATM   34  N7  UNL     1      45.606   9.376 108.724  1.00  0.00    -0.088 NA
ENDBRANCH  29  30
ENDBRANCH  28  29
ENDBRANCH   1  28
BRANCH   1  35
HETATM   35  C22 UNL     1      42.806  13.079 109.996  1.00  0.00     0.266 C 
BRANCH  35  36
HETATM   36  N8  UNL     1      42.080  14.248 110.154  1.00  0.00    -0.076 N 
HETATM   37  C23 UNL     1      40.814  14.437 109.541  1.00  0.00     0.271 C 
HETATM   38  C24 UNL     1      42.934  15.351 109.713  1.00  0.00     0.271 C 
HETATM   39  C25 UNL     1      41.850  14.584 111.592  1.00  0.00     0.271 C 
ENDBRANCH  35  36
ENDBRANCH   1  35
TORSDOF 15
ENDMDL
MODEL 3
REMARK VINA RESULT: -8.215402902      2.028      3.723
REMARK  15 active torsions:
REMARK  status: ('A' for Active; 'I' for Inactive)
REMARK    1  A    between atoms: C2_2  and  C3_3 
REMARK    2  A    between atoms: C3_3  and  C4_4 
REMARK    3  A    between atoms: C3_3  and  C6_6 
REMARK    4  A    between atoms: C6_6  and  C7_7 
REMARK       I    between atoms: C7_7  and  N1_9 
REMARK    5  A    between atoms: C12_14  and  C13_15 
REMARK       I    between atoms: C13_15  and  N2_17 
REMARK    6  A    between atoms: N2_17  and  C14_19 
REMARK    7  A    between atoms: C14_19  and  C15_20 
REMARK    8  A    between atoms: C14_19  and  C19_28 
REMARK    9  A    between atoms: C14_19  and  C22_35 
REMARK   10  A    between atoms: C15_20  and  C16_21 
REMARK   11  A    between atoms: C16_21  and  C17_22 
REMARK   12  A    between atoms: C17_22  and  N3_23 
REMARK   13  A    between atoms: C19_28  and  C20_29 
REMARK   14  A    between atoms: C20_29  and  C21_30 
REMARK   15  A    between atoms: C22_35  and  N8_36 
ROOT
HETATM    1  C14 UNL     1      41.789  11.841 109.868  1.00  0.00     0.057 C 
ENDROOT
BRANCH   1   2
HETATM    2  N2  UNL     1      41.213  11.673 108.579  1.00  0.00    -0.348 N 
HETATM    3  C13 UNL     1      40.509  12.519 107.714  1.00  0.00     0.241 C 
HETATM    4  O2  UNL     1      40.210  13.711 107.944  1.00  0.00    -0.271 OA
ATOM      5  H2  UNL     1      41.340  10.734 108.203  1.00  0.00     0.163 HD
BRANCH   3   6
HETATM    6  C12 UNL     1      40.019  12.069 106.371  1.00  0.00     0.183 C 
HETATM    7  N1  UNL     1      40.142  10.635 106.183  1.00  0.00    -0.334 N 
HETATM    8  C7  UNL     1      41.284   9.799 106.169  1.00  0.00     0.221 C 
HETATM    9  C8  UNL     1      38.770  10.216 106.002  1.00  0.00     0.089 C 
HETATM   10  O1  UNL     1      42.436  10.270 106.337  1.00  0.00    -0.273 OA
HETATM   11  C9  UNL     1      38.261  11.290 105.032  1.00  0.00     0.032 C 
HETATM   12  C11 UNL     1      38.053  11.021 107.071  1.00  0.00     0.032 C 
HETATM   13  C10 UNL     1      38.538  12.206 106.226  1.00  0.00     0.021 C 
BRANCH   8  14
HETATM   14  C6  UNL     1      41.142   8.345 105.953  1.00  0.00     0.107 C 
BRANCH  14  15
HETATM   15  C3  UNL     1      41.135   7.562 107.234  1.00  0.00    -0.007 C 
BRANCH  15  16
HETATM   16  C2  UNL     1      42.178   6.493 107.316  1.00  0.00     0.000 C 
HETATM   17  C1  UNL     1      43.427   7.146 107.908  1.00  0.00     0.005 C 
ENDBRANCH  15  16
BRANCH  15  18
HETATM   18  C4  UNL     1      39.780   6.929 107.419  1.00  0.00     0.000 C 
HETATM   19  C5  UNL     1      38.982   7.647 108.470  1.00  0.00     0.005 C 
ENDBRANCH  15  18
ENDBRANCH  14  15
ENDBRANCH   8  14
ENDBRANCH   3   6
ENDBRANCH   1   2
BRANCH   1  20
HETATM   20  C15 UNL     1      41.084  12.734 110.809  1.00  0.00     0.034 C 
BRANCH  20  21
HETATM   21  C16 UNL     1      41.212  12.529 112.259  1.00  0.00     0.022 C 
BRANCH  21  22
HETATM   22  C17 UNL     1      41.976  13.749 112.850  1.00  0.00     0.122 C 
BRANCH  22  23
HETATM   23  N3  UNL     1      41.188  14.944 112.796  1.00  0.00    -0.367 N 
HETATM   24  C18 UNL     1      40.604  15.490 113.791  1.00  0.00     0.196 C 
HETATM   25  N4  UNL     1      40.640  14.997 115.121  1.00  0.00    -0.067 NA
HETATM   26  N5  UNL     1      39.860  16.678 113.554  1.00  0.00    -0.067 NA
ATOM     27  H3  UNL     1      41.086  15.396 111.887  1.00  0.00     0.161 HD
ENDBRANCH  22  23
ENDBRANCH  21  22
ENDBRANCH  20  21
ENDBRANCH   1  20
BRANCH   1  28
HETATM   28  C19 UNL     1      41.722  10.429 110.499  1.00  0.00     0.040 C 
BRANCH  28  29
HETATM   29  C20 UNL     1      43.025   9.720 110.566  1.00  0.00     0.075 C 
BRANCH  29  30
HETATM   30  C21 UNL     1      42.855   8.370 111.216  1.00  0.00     0.086 C 
HETATM   31  N6  UNL     1      41.819   7.636 111.035  1.00  0.00    -0.391 N 
ATOM     32  H62 UNL     1      41.078   7.982 110.424  1.00  0.00     0.157 HD
ATOM     33  H61 UNL     1      41.705   6.723 111.474  1.00  0.00     0.157 HD
HETATM   34  N7  UNL     1      43.882   7.891 112.063  1.00  0.00    -0.088 NA
ENDBRANCH  29  30
ENDBRANCH  28  29
ENDBRANCH   1  28
BRANCH   1  35
HETATM   35  C22 UNL     1      43.261  12.119 109.790  1.00  0.00     0.266 C 
BRANCH  35  36
HETATM   36  N8  UNL     1      43.816  13.335 109.428  1.00  0.00    -0.076 N 
HETATM   37  C23 UNL     1      43.076  14.544 109.473  1.00  0.00     0.271 C 
HETATM   38  C24 UNL     1      44.314  13.192 108.060  1.00  0.00     0.271 C 
HETATM   39  C25 UNL     1      45.067  13.637 110.187  1.00  0.00     0.271 C 
ENDBRANCH  35  36
ENDBRANCH   1  35
TORSDOF 15
ENDMDL
MODEL 4
REMARK VINA RESULT: -8.141676796      2.289      6.245
REMARK  15 active torsions:
REMARK  status: ('A' for Active; 'I' for Inactive)
REMARK    1  A    between atoms: C2_2  and  C3_3 
REMARK    2  A    between atoms: C3_3  and  C4_4 
REMARK    3  A    between atoms: C3_3  and  C6_6 
REMARK    4  A    between atoms: C6_6  and  C7_7 
REMARK       I    between atoms: C7_7  and  N1_9 
REMARK    5  A    between atoms: C12_14  and  C13_15 
REMARK       I    between atoms: C13_15  and  N2_17 
REMARK    6  A    between atoms: N2_17  and  C14_19 
REMARK    7  A    between atoms: C14_19  and  C15_20 
REMARK    8  A    between atoms: C14_19  and  C19_28 
REMARK    9  A    between atoms: C14_19  and  C22_35 
REMARK   10  A    between atoms: C15_20  and  C16_21 
REMARK   11  A    between atoms: C16_21  and  C17_22 
REMARK   12  A    between atoms: C17_22  and  N3_23 
REMARK   13  A    between atoms: C19_28  and  C20_29 
REMARK   14  A    between atoms: C20_29  and  C21_30 
REMARK   15  A    between atoms: C22_35  and  N8_36 
ROOT
HETATM    1  C14 UNL     1      41.478  12.488 110.039  1.00  0.00     0.057 C 
ENDROOT
BRANCH   1   2
HETATM    2  N2  UNL     1      41.333  11.200 110.624  1.00  0.00    -0.348 N 
HETATM    3  C13 UNL     1      41.634  10.667 111.883  1.00  0.00     0.241 C 
HETATM    4  O2  UNL     1      42.156  11.292 112.832  1.00  0.00    -0.271 OA
ATOM      5  H2  UNL     1      40.922  10.516 109.989  1.00  0.00     0.163 HD
BRANCH   3   6
HETATM    6  C12 UNL     1      41.352   9.239 112.241  1.00  0.00     0.183 C 
HETATM    7  N1  UNL     1      41.248   8.381 111.075  1.00  0.00    -0.334 N 
HETATM    8  C7  UNL     1      40.340   8.404 109.989  1.00  0.00     0.221 C 
HETATM    9  C8  UNL     1      42.331   7.443 111.269  1.00  0.00     0.089 C 
HETATM   10  O1  UNL     1      39.431   9.267 109.920  1.00  0.00    -0.273 OA
HETATM   11  C9  UNL     1      42.160   7.101 112.754  1.00  0.00     0.032 C 
HETATM   12  C11 UNL     1      43.453   8.353 111.736  1.00  0.00     0.032 C 
HETATM   13  C10 UNL     1      42.508   8.582 112.923  1.00  0.00     0.021 C 
BRANCH   8  14
HETATM   14  C6  UNL     1      40.444   7.403 108.908  1.00  0.00     0.107 C 
BRANCH  14  15
HETATM   15  C3  UNL     1      41.325   7.851 107.778  1.00  0.00    -0.007 C 
BRANCH  15  16
HETATM   16  C2  UNL     1      40.619   8.030 106.472  1.00  0.00     0.000 C 
HETATM   17  C1  UNL     1      41.690   8.395 105.444  1.00  0.00     0.005 C 
ENDBRANCH  15  16
BRANCH  15  18
HETATM   18  C4  UNL     1      42.439   6.854 107.593  1.00  0.00     0.000 C 
HETATM   19  C5  UNL     1      43.740   7.384 108.124  1.00  0.00     0.005 C 
ENDBRANCH  15  18
ENDBRANCH  14  15
ENDBRANCH   8  14
ENDBRANCH   3   6
ENDBRANCH   1   2
BRANCH   1  20
HETATM   20  C15 UNL     1      40.988  12.658 108.657  1.00  0.00     0.034 C 
BRANCH  20  21
HETATM   21  C16 UNL     1      40.734  11.482 107.813  1.00  0.00     0.022 C 
BRANCH  21  22
HETATM   22  C17 UNL     1      40.961  11.897 106.331  1.00  0.00     0.122 C 
BRANCH  22  23
HETATM   23  N3  UNL     1      39.805  12.536 105.777  1.00  0.00    -0.367 N 
HETATM   24  C18 UNL     1      38.953  11.981 105.005  1.00  0.00     0.196 C 
HETATM   25  N4  UNL     1      39.015  10.633 104.567  1.00  0.00    -0.067 NA
HETATM   26  N5  UNL     1      37.861  12.768 104.546  1.00  0.00    -0.067 NA
ATOM     27  H3  UNL     1      39.649  13.514 106.019  1.00  0.00     0.161 HD
ENDBRANCH  22  23
ENDBRANCH  21  22
ENDBRANCH  20  21
ENDBRANCH   1  20
BRANCH   1  28
HETATM   28  C19 UNL     1      40.591  13.404 110.916  1.00  0.00     0.040 C 
BRANCH  28  29
HETATM   29  C20 UNL     1      41.328  14.476 111.631  1.00  0.00     0.075 C 
BRANCH  29  30
HETATM   30  C21 UNL     1      40.831  14.597 113.050  1.00  0.00     0.086 C 
HETATM   31  N6  UNL     1      39.600  14.807 113.341  1.00  0.00    -0.391 N 
ATOM     32  H62 UNL     1      38.928  14.895 112.578  1.00  0.00     0.157 HD
ATOM     33  H61 UNL     1      39.265  14.889 114.300  1.00  0.00     0.157 HD
HETATM   34  N7  UNL     1      41.763  14.475 114.108  1.00  0.00    -0.088 NA
ENDBRANCH  29  30
ENDBRANCH  28  29
ENDBRANCH   1  28
BRANCH   1  35
HETATM   35  C22 UNL     1      42.858  13.041 110.241  1.00  0.00     0.266 C 
BRANCH  35  36
HETATM   36  N8  UNL     1      43.983  12.628 109.548  1.00  0.00    -0.076 N 
HETATM   37  C23 UNL     1      44.306  11.256 109.385  1.00  0.00     0.271 C 
HETATM   38  C24 UNL     1      45.139  13.264 110.180  1.00  0.00     0.271 C 
HETATM   39  C25 UNL     1      44.035  13.188 108.164  1.00  0.00     0.271 C 
ENDBRANCH  35  36
ENDBRANCH   1  35
TORSDOF 15
ENDMDL
MODEL 5
REMARK VINA RESULT: -8.053870501      1.915      4.536
REMARK  15 active torsions:
REMARK  status: ('A' for Active; 'I' for Inactive)
REMARK    1  A    between atoms: C2_2  and  C3_3 
REMARK    2  A    between atoms: C3_3  and  C4_4 
REMARK    3  A    between atoms: C3_3  and  C6_6 
REMARK    4  A    between atoms: C6_6  and  C7_7 
REMARK       I    between atoms: C7_7  and  N1_9 
REMARK    5  A    between atoms: C12_14  and  C13_15 
REMARK       I    between atoms: C13_15  and  N2_17 
REMARK    6  A    between atoms: N2_17  and  C14_19 
REMARK    7  A    between atoms: C14_19  and  C15_20 
REMARK    8  A    between atoms: C14_19  and  C19_28 
REMARK    9  A    between atoms: C14_19  and  C22_35 
REMARK   10  A    between atoms: C15_20  and  C16_21 
REMARK   11  A    between atoms: C16_21  and  C17_22 
REMARK   12  A    between atoms: C17_22  and  N3_23 
REMARK   13  A    between atoms: C19_28  and  C20_29 
REMARK   14  A    between atoms: C20_29  and  C21_30 
REMARK   15  A    between atoms: C22_35  and  N8_36 
ROOT
HETATM    1  C14 UNL     1      41.501  12.387 110.330  1.00  0.00     0.057 C 
ENDROOT
BRANCH   1   2
HETATM    2  N2  UNL     1      41.147  12.014 109.005  1.00  0.00    -0.348 N 
HETATM    3  C13 UNL     1      40.470  12.658 107.963  1.00  0.00     0.241 C 
HETATM    4  O2  UNL     1      39.985  13.810 108.013  1.00  0.00    -0.271 OA
ATOM      5  H2  UNL     1      41.451  11.072 108.760  1.00  0.00     0.163 HD
BRANCH   3   6
HETATM    6  C12 UNL     1      40.246  12.014 106.629  1.00  0.00     0.183 C 
HETATM    7  N1  UNL     1      40.464  10.580 106.657  1.00  0.00    -0.334 N 
HETATM    8  C7  UNL     1      41.627   9.827 106.949  1.00  0.00     0.221 C 
HETATM    9  C8  UNL     1      39.166  10.051 106.303  1.00  0.00     0.089 C 
HETATM   10  O1  UNL     1      42.708  10.391 107.245  1.00  0.00    -0.273 OA
HETATM   11  C9  UNL     1      38.789  10.961 105.127  1.00  0.00     0.032 C 
HETATM   12  C11 UNL     1      38.236  10.932 107.119  1.00  0.00     0.032 C 
HETATM   13  C10 UNL     1      38.810  12.034 106.218  1.00  0.00     0.021 C 
BRANCH   8  14
HETATM   14  C6  UNL     1      41.590   8.352 106.908  1.00  0.00     0.107 C 
BRANCH  14  15
HETATM   15  C3  UNL     1      42.155   7.718 108.146  1.00  0.00    -0.007 C 
BRANCH  15  16
HETATM   16  C2  UNL     1      43.556   7.216 108.005  1.00  0.00     0.000 C 
HETATM   17  C1  UNL     1      44.310   7.669 109.256  1.00  0.00     0.005 C 
ENDBRANCH  15  16
BRANCH  15  18
HETATM   18  C4  UNL     1      41.271   6.570 108.561  1.00  0.00     0.000 C 
HETATM   19  C5  UNL     1      39.897   6.695 107.965  1.00  0.00     0.005 C 
ENDBRANCH  15  18
ENDBRANCH  14  15
ENDBRANCH   8  14
ENDBRANCH   3   6
ENDBRANCH   1   2
BRANCH   1  20
HETATM   20  C15 UNL     1      40.765  13.519 110.930  1.00  0.00     0.034 C 
BRANCH  20  21
HETATM   21  C16 UNL     1      40.730  13.687 112.389  1.00  0.00     0.022 C 
BRANCH  21  22
HETATM   22  C17 UNL     1      40.666  15.211 112.695  1.00  0.00     0.122 C 
BRANCH  22  23
HETATM   23  N3  UNL     1      40.620  15.991 111.495  1.00  0.00    -0.367 N 
HETATM   24  C18 UNL     1      40.324  17.231 111.430  1.00  0.00     0.196 C 
HETATM   25  N4  UNL     1      39.991  18.042 112.546  1.00  0.00    -0.067 NA
HETATM   26  N5  UNL     1      40.326  17.848 110.150  1.00  0.00    -0.067 NA
ATOM     27  H3  UNL     1      40.841  15.516 110.620  1.00  0.00     0.161 HD
ENDBRANCH  22  23
ENDBRANCH  21  22
ENDBRANCH  20  21
ENDBRANCH   1  20
BRANCH   1  28
HETATM   28  C19 UNL     1      41.134  11.149 111.184  1.00  0.00     0.040 C 
BRANCH  28  29
HETATM   29  C20 UNL     1      42.130  10.049 111.135  1.00  0.00     0.075 C 
BRANCH  29  30
HETATM   30  C21 UNL     1      41.871   9.057 112.241  1.00  0.00     0.086 C 
HETATM   31  N6  UNL     1      41.718   9.405 113.466  1.00  0.00    -0.391 N 
ATOM     32  H62 UNL     1      41.775  10.396 113.701  1.00  0.00     0.157 HD
ATOM     33  H61 UNL     1      41.543   8.734 114.213  1.00  0.00     0.157 HD
HETATM   34  N7  UNL     1      41.793   7.682 111.915  1.00  0.00    -0.088 NA
ENDBRANCH  29  30
ENDBRANCH  28  29
ENDBRANCH   1  28
BRANCH   1  35
HETATM   35  C22 UNL     1      42.987  12.501 110.501  1.00  0.00     0.266 C 
BRANCH  35  36
HETATM   36  N8  UNL     1      43.764  13.525 109.985  1.00  0.00    -0.076 N 
HETATM   37  C23 UNL     1      43.222  14.531 109.144  1.00  0.00     0.271 C 
HETATM   38  C24 UNL     1      44.864  12.903 109.248  1.00  0.00     0.271 C 
HETATM   39  C25 UNL     1      44.487  14.281 111.051  1.00  0.00     0.271 C 
ENDBRANCH  35  36
ENDBRANCH   1  35
TORSDOF 15
ENDMDL
