MODEL 1
REMARK VINA RESULT: -4.894982475      0.000      0.000
REMARK  3 active torsions:
REMARK  status: ('A' for Active; 'I' for Inactive)
REMARK    1  A    between atoms: C1_2  and  C2_3 
REMARK       I    between atoms: C1_2  and  N1_5 
REMARK    2  A    between atoms: N1_5  and  N2_6 
REMARK       I    between atoms: N2_6  and  C3_8 
REMARK    3  A    between atoms: C3_8  and  C4_10 
ROOT
HETATM    1  N2  UNL     1      21.820  12.055  25.745  1.00  0.00    -0.198 N 
ATOM      2  H2  UNL     1      20.922  11.571  25.731  1.00  0.00     0.205 HD
HETATM    3  C3  UNL     1      22.700  11.890  24.606  1.00  0.00     0.277 C 
HETATM    4  O2  UNL     1      23.790  12.496  24.646  1.00  0.00    -0.269 OA
ENDROOT
BRANCH   3   5
HETATM    5  C4  UNL     1      22.284  11.053  23.506  1.00  0.00     0.279 C 
HETATM    6  C5  UNL     1      21.400  11.744  22.466  1.00  0.00     0.045 C 
HETATM    7  C6  UNL     1      21.358  10.579  21.457  1.00  0.00     0.030 C 
HETATM    8  C7  UNL     1      22.833  10.238  21.398  1.00  0.00     0.233 C 
HETATM    9  N3  UNL     1      23.354  10.475  22.734  1.00  0.00    -0.062 N 
ATOM     10  H32 UNL     1      24.203  11.040  22.740  1.00  0.00     0.278 HD
ATOM     11  H31 UNL     1      23.751   9.639  23.163  1.00  0.00     0.278 HD
ENDBRANCH   3   5
BRANCH   1  12
HETATM   12  N1  UNL     1      22.107  12.787  26.787  1.00  0.00    -0.283 NA
HETATM   13  C1  UNL     1      22.449  13.563  27.888  1.00  0.00     0.322 C 
HETATM   14  O1  UNL     1      23.579  13.896  28.305  1.00  0.00    -0.254 OA
BRANCH  13  15
HETATM   15  C2  UNL     1      21.283  14.109  28.739  1.00  0.00     0.206 C 
HETATM   16 BR1  UNL     1      19.975  12.747  28.937  1.00  0.00    -0.085 Br
ENDBRANCH  13  15
ENDBRANCH   1  12
TORSDOF 3
ENDMDL
MODEL 2
REMARK VINA RESULT: -4.864176130      5.562      7.099
REMARK  3 active torsions:
REMARK  status: ('A' for Active; 'I' for Inactive)
REMARK    1  A    between atoms: C1_2  and  C2_3 
REMARK       I    between atoms: C1_2  and  N1_5 
REMARK    2  A    between atoms: N1_5  and  N2_6 
REMARK       I    between atoms: N2_6  and  C3_8 
REMARK    3  A    between atoms: C3_8  and  C4_10 
ROOT
HETATM    1  N2  UNL     1      25.065  10.864  20.819  1.00  0.00    -0.198 N 
ATOM      2  H2  UNL     1      25.438  10.849  21.769  1.00  0.00     0.205 HD
HETATM    3  C3  UNL     1      25.998  10.745  19.719  1.00  0.00     0.277 C 
HETATM    4  O2  UNL     1      25.516  10.762  18.567  1.00  0.00    -0.269 OA
ENDROOT
BRANCH   3   5
HETATM    5  C4  UNL     1      27.409  10.615  19.997  1.00  0.00     0.279 C 
HETATM    6  C5  UNL     1      28.090  11.891  20.495  1.00  0.00     0.045 C 
HETATM    7  C6  UNL     1      29.460  11.259  20.808  1.00  0.00     0.030 C 
HETATM    8  C7  UNL     1      29.009  10.038  21.583  1.00  0.00     0.233 C 
HETATM    9  N3  UNL     1      27.753   9.622  20.981  1.00  0.00    -0.062 N 
ATOM     10  H32 UNL     1      27.013   9.462  21.665  1.00  0.00     0.278 HD
ATOM     11  H31 UNL     1      27.786   8.675  20.601  1.00  0.00     0.278 HD
ENDBRANCH   3   5
BRANCH   1  12
HETATM   12  N1  UNL     1      23.774  10.989  20.669  1.00  0.00    -0.283 NA
HETATM   13  C1  UNL     1      22.400  11.093  20.485  1.00  0.00     0.322 C 
HETATM   14  O1  UNL     1      21.644  10.426  19.747  1.00  0.00    -0.254 OA
BRANCH  13  15
HETATM   15  C2  UNL     1      21.673  12.183  21.302  1.00  0.00     0.206 C 
HETATM   16 BR1  UNL     1      22.440  13.871  20.893  1.00  0.00    -0.085 Br
ENDBRANCH  13  15
ENDBRANCH   1  12
TORSDOF 3
ENDMDL
MODEL 3
REMARK VINA RESULT: -4.863475978      3.938      4.567
REMARK  3 active torsions:
REMARK  status: ('A' for Active; 'I' for Inactive)
REMARK    1  A    between atoms: C1_2  and  C2_3 
REMARK       I    between atoms: C1_2  and  N1_5 
REMARK    2  A    between atoms: N1_5  and  N2_6 
REMARK       I    between atoms: N2_6  and  C3_8 
REMARK    3  A    between atoms: C3_8  and  C4_10 
ROOT
HETATM    1  N2  UNL     1      20.009   9.865  22.299  1.00  0.00    -0.198 N 
ATOM      2  H2  UNL     1      20.029   8.883  22.022  1.00  0.00     0.205 HD
HETATM    3  C3  UNL     1      21.067  10.729  21.818  1.00  0.00     0.277 C 
HETATM    4  O2  UNL     1      21.019  11.926  22.168  1.00  0.00    -0.269 OA
ENDROOT
BRANCH   3   5
HETATM    5  C4  UNL     1      22.103  10.179  20.976  1.00  0.00     0.279 C 
HETATM    6  C5  UNL     1      22.566  11.092  19.840  1.00  0.00     0.045 C 
HETATM    7  C6  UNL     1      23.729  10.206  19.353  1.00  0.00     0.030 C 
HETATM    8  C7  UNL     1      24.393   9.902  20.680  1.00  0.00     0.233 C 
HETATM    9  N3  UNL     1      23.319   9.813  21.655  1.00  0.00    -0.062 N 
ATOM     10  H32 UNL     1      23.492  10.368  22.494  1.00  0.00     0.278 HD
ATOM     11  H31 UNL     1      23.265   8.902  22.111  1.00  0.00     0.278 HD
ENDBRANCH   3   5
BRANCH   1  12
HETATM   12  N1  UNL     1      19.032  10.267  23.066  1.00  0.00    -0.283 NA
HETATM   13  C1  UNL     1      17.970  10.670  23.866  1.00  0.00     0.322 C 
HETATM   14  O1  UNL     1      16.793  10.252  23.895  1.00  0.00    -0.254 OA
BRANCH  13  15
HETATM   15  C2  UNL     1      18.257  11.798  24.882  1.00  0.00     0.206 C 
HETATM   16 BR1  UNL     1      19.937  11.473  25.702  1.00  0.00    -0.085 Br
ENDBRANCH  13  15
ENDBRANCH   1  12
TORSDOF 3
ENDMDL
MODEL 4
REMARK VINA RESULT: -4.829428942      4.527      4.840
REMARK  3 active torsions:
REMARK  status: ('A' for Active; 'I' for Inactive)
REMARK    1  A    between atoms: C1_2  and  C2_3 
REMARK       I    between atoms: C1_2  and  N1_5 
REMARK    2  A    between atoms: N1_5  and  N2_6 
REMARK       I    between atoms: N2_6  and  C3_8 
REMARK    3  A    between atoms: C3_8  and  C4_10 
ROOT
HETATM    1  N2  UNL     1      19.687  10.075  22.462  1.00  0.00    -0.198 N 
ATOM      2  H2  UNL     1      19.632   9.088  22.213  1.00  0.00     0.205 HD
HETATM    3  C3  UNL     1      20.847  10.825  22.026  1.00  0.00     0.277 C 
HETATM    4  O2  UNL     1      20.888  12.032  22.342  1.00  0.00    -0.269 OA
ENDROOT
BRANCH   3   5
HETATM    5  C4  UNL     1      21.877  10.157  21.266  1.00  0.00     0.279 C 
HETATM    6  C5  UNL     1      22.387  10.931  20.049  1.00  0.00     0.045 C 
HETATM    7  C6  UNL     1      23.527   9.962  19.680  1.00  0.00     0.030 C 
HETATM    8  C7  UNL     1      24.160   9.778  21.044  1.00  0.00     0.233 C 
HETATM    9  N3  UNL     1      23.069   9.826  22.002  1.00  0.00    -0.062 N 
ATOM     10  H32 UNL     1      23.247  10.460  22.782  1.00  0.00     0.278 HD
ATOM     11  H31 UNL     1      22.978   8.969  22.549  1.00  0.00     0.278 HD
ENDBRANCH   3   5
BRANCH   1  12
HETATM   12  N1  UNL     1      18.707  10.589  23.156  1.00  0.00    -0.283 NA
HETATM   13  C1  UNL     1      17.662  11.164  23.869  1.00  0.00     0.322 C 
HETATM   14  O1  UNL     1      17.065  12.244  23.673  1.00  0.00    -0.254 OA
BRANCH  13  15
HETATM   15  C2  UNL     1      17.140  10.375  25.090  1.00  0.00     0.206 C 
HETATM   16 BR1  UNL     1      15.938   9.035  24.486  1.00  0.00    -0.085 Br
ENDBRANCH  13  15
ENDBRANCH   1  12
TORSDOF 3
ENDMDL
MODEL 5
REMARK VINA RESULT: -4.802033172      3.518      6.170
REMARK  3 active torsions:
REMARK  status: ('A' for Active; 'I' for Inactive)
REMARK    1  A    between atoms: C1_2  and  C2_3 
REMARK       I    between atoms: C1_2  and  N1_5 
REMARK    2  A    between atoms: N1_5  and  N2_6 
REMARK       I    between atoms: N2_6  and  C3_8 
REMARK    3  A    between atoms: C3_8  and  C4_10 
ROOT
HETATM    1  N2  UNL     1      20.196  11.100  23.946  1.00  0.00    -0.198 N 
ATOM      2  H2  UNL     1      19.238  11.283  24.243  1.00  0.00     0.205 HD
HETATM    3  C3  UNL     1      21.269  11.442  24.857  1.00  0.00     0.277 C 
HETATM    4  O2  UNL     1      22.433  11.205  24.471  1.00  0.00    -0.269 OA
ENDROOT
BRANCH   3   5
HETATM    5  C4  UNL     1      20.951  12.027  26.138  1.00  0.00     0.279 C 
HETATM    6  C5  UNL     1      20.152  11.124  27.080  1.00  0.00     0.045 C 
HETATM    7  C6  UNL     1      20.200  12.052  28.309  1.00  0.00     0.030 C 
HETATM    8  C7  UNL     1      21.676  12.391  28.317  1.00  0.00     0.233 C 
HETATM    9  N3  UNL     1      22.083  12.444  26.923  1.00  0.00    -0.062 N 
ATOM     10  H32 UNL     1      22.926  11.903  26.730  1.00  0.00     0.278 HD
ATOM     11  H31 UNL     1      22.448  13.356  26.646  1.00  0.00     0.278 HD
ENDBRANCH   3   5
BRANCH   1  12
HETATM   12  N1  UNL     1      20.383  10.572  22.767  1.00  0.00    -0.283 NA
HETATM   13  C1  UNL     1      20.549   9.990  21.515  1.00  0.00     0.322 C 
HETATM   14  O1  UNL     1      19.820   9.171  20.916  1.00  0.00    -0.254 OA
BRANCH  13  15
HETATM   15  C2  UNL     1      21.810  10.401  20.723  1.00  0.00     0.206 C 
HETATM   16 BR1  UNL     1      21.939  12.295  20.712  1.00  0.00    -0.085 Br
ENDBRANCH  13  15
ENDBRANCH   1  12
TORSDOF 3
ENDMDL
