MODEL 1
REMARK VINA RESULT: -7.336710194      0.000      0.000
REMARK  7 active torsions:
REMARK  status: ('A' for Active; 'I' for Inactive)
REMARK    1  A    between atoms: C2_2  and  C3_4 
REMARK    2  A    between atoms: C4_5  and  O2_6 
REMARK    3  A    between atoms: C6_11  and  C7_12 
REMARK    4  A    between atoms: C7_12  and  S1_13 
REMARK    5  A    between atoms: C7_12  and  C11_23 
REMARK    6  A    between atoms: S1_13  and  C8_14 
REMARK    7  A    between atoms: C16_34  and  O7_35 
ROOT
HETATM    1  C7  UNL     1      17.364  -7.289   5.584  1.00  0.00     0.148 C 
ENDROOT
BRANCH   1   2
HETATM    2  C6  UNL     1      17.989  -8.399   4.831  1.00  0.00     0.072 A 
HETATM    3  C5  UNL     1      17.355  -8.845   3.702  1.00  0.00     0.300 A 
HETATM    4  O3  UNL     1      17.847  -9.821   2.994  1.00  0.00    -0.250 OA
HETATM    5  O4  UNL     1      16.257  -8.297   3.328  1.00  0.00    -0.259 OA
HETATM    6  C4  UNL     1      18.986 -10.403   3.365  1.00  0.00     0.203 A 
HETATM    7  C3  UNL     1      19.698 -10.027   4.481  1.00  0.00     0.101 A 
HETATM    8  C16 UNL     1      19.179  -8.993   5.234  1.00  0.00     0.098 A 
BRANCH   6   9
HETATM    9  O2  UNL     1      19.493 -11.448   2.587  1.00  0.00    -0.340 OA
ATOM     10  H2  UNL     1      18.907 -12.161   2.363  1.00  0.00     0.220 HD
ENDBRANCH   6   9
BRANCH   7  11
HETATM   11  C2  UNL     1      20.926 -10.659   4.893  1.00  0.00     0.163 C 
HETATM   12  C1  UNL     1      22.190 -10.509   4.085  1.00  0.00     0.097 C 
HETATM   13  O1  UNL     1      21.070 -11.370   5.926  1.00  0.00    -0.293 OA
ENDBRANCH   7  11
BRANCH   8  14
HETATM   14  O7  UNL     1      19.733  -8.492   6.354  1.00  0.00    -0.359 OA
ATOM     15  H7  UNL     1      19.464  -8.703   7.240  1.00  0.00     0.217 HD
ENDBRANCH   8  14
ENDBRANCH   1   2
BRANCH   1  16
HETATM   16  S1  UNL     1      16.366  -8.032   6.905  1.00  0.00    -0.076 SA
BRANCH  16  17
HETATM   17  C8  UNL     1      14.817  -8.637   6.300  1.00  0.00     0.161 A 
HETATM   18  N1  UNL     1      13.572  -8.105   6.463  1.00  0.00    -0.278 N 
HETATM   19  N2  UNL     1      12.725  -8.912   5.831  1.00  0.00    -0.287 N 
ATOM     20  H1  UNL     1      13.336  -7.253   6.971  1.00  0.00     0.189 HD
HETATM   21  C9  UNL     1      13.389  -9.938   5.273  1.00  0.00     0.093 A 
ATOM     22  H2  UNL     1      11.717  -8.772   5.779  1.00  0.00     0.188 HD
HETATM   23  C10 UNL     1      12.845 -11.062   4.481  1.00  0.00     0.090 C 
HETATM   24  N3  UNL     1      14.688  -9.758   5.570  1.00  0.00    -0.325 N 
ATOM     25  H3  UNL     1      15.451 -10.372   5.287  1.00  0.00     0.169 HD
ENDBRANCH  16  17
ENDBRANCH   1  16
BRANCH   1  26
HETATM   26  C11 UNL     1      18.275  -6.254   6.049  1.00  0.00     0.044 A 
HETATM   27  N4  UNL     1      18.782  -6.284   7.287  1.00  0.00    -0.310 N 
HETATM   28  C12 UNL     1      19.647  -5.321   7.729  1.00  0.00     0.327 A 
ATOM     29  H4  UNL     1      18.517  -7.043   7.916  1.00  0.00     0.170 HD
HETATM   30  O5  UNL     1      20.117  -5.365   8.906  1.00  0.00    -0.247 OA
HETATM   31  N5  UNL     1      20.025  -4.311   6.956  1.00  0.00    -0.275 N 
HETATM   32  C13 UNL     1      19.545  -4.226   5.690  1.00  0.00     0.257 A 
ATOM     33  H5  UNL     1      20.671  -3.605   7.310  1.00  0.00     0.173 HD
HETATM   34  O6  UNL     1      19.920  -3.260   4.982  1.00  0.00    -0.267 OA
HETATM   35  C14 UNL     1      18.662  -5.209   5.237  1.00  0.00     0.030 A 
HETATM   36  C15 UNL     1      18.148  -5.103   3.866  1.00  0.00     0.056 C 
ENDBRANCH   1  26
TORSDOF 7
ENDMDL
MODEL 2
REMARK VINA RESULT: -7.285018427      3.651      6.777
REMARK  7 active torsions:
REMARK  status: ('A' for Active; 'I' for Inactive)
REMARK    1  A    between atoms: C2_2  and  C3_4 
REMARK    2  A    between atoms: C4_5  and  O2_6 
REMARK    3  A    between atoms: C6_11  and  C7_12 
REMARK    4  A    between atoms: C7_12  and  S1_13 
REMARK    5  A    between atoms: C7_12  and  C11_23 
REMARK    6  A    between atoms: S1_13  and  C8_14 
REMARK    7  A    between atoms: C16_34  and  O7_35 
ROOT
HETATM    1  C7  UNL     1      19.110 -10.789   3.178  1.00  0.00     0.148 C 
ENDROOT
BRANCH   1   2
HETATM    2  C6  UNL     1      19.993 -10.971   2.005  1.00  0.00     0.072 A 
HETATM    3  C5  UNL     1      21.327 -11.180   2.232  1.00  0.00     0.300 A 
HETATM    4  O3  UNL     1      22.161 -11.342   1.245  1.00  0.00    -0.250 OA
HETATM    5  O4  UNL     1      21.771 -11.218   3.435  1.00  0.00    -0.259 OA
HETATM    6  C4  UNL     1      21.720 -11.306  -0.011  1.00  0.00     0.203 A 
HETATM    7  C3  UNL     1      20.400 -11.103  -0.342  1.00  0.00     0.101 A 
HETATM    8  C16 UNL     1      19.513 -10.931   0.701  1.00  0.00     0.098 A 
BRANCH   6   9
HETATM    9  O2  UNL     1      22.636 -11.484  -1.051  1.00  0.00    -0.340 OA
ATOM     10  H2  UNL     1      23.553 -11.585  -0.825  1.00  0.00     0.220 HD
ENDBRANCH   6   9
BRANCH   7  11
HETATM   11  C2  UNL     1      19.918 -11.054  -1.700  1.00  0.00     0.163 C 
HETATM   12  C1  UNL     1      20.043 -12.245  -2.616  1.00  0.00     0.097 C 
HETATM   13  O1  UNL     1      19.364 -10.058  -2.242  1.00  0.00    -0.293 OA
ENDBRANCH   7  11
BRANCH   8  14
HETATM   14  O7  UNL     1      18.190 -10.721   0.570  1.00  0.00    -0.359 OA
ATOM     15  H7  UNL     1      17.708 -10.000   0.958  1.00  0.00     0.217 HD
ENDBRANCH   8  14
ENDBRANCH   1   2
BRANCH   1  16
HETATM   16  S1  UNL     1      18.673  -9.030   3.256  1.00  0.00    -0.076 SA
BRANCH  16  17
HETATM   17  C8  UNL     1      17.965  -8.595   4.818  1.00  0.00     0.161 A 
HETATM   18  N1  UNL     1      18.548  -8.602   6.050  1.00  0.00    -0.278 N 
HETATM   19  N2  UNL     1      17.622  -8.201   6.915  1.00  0.00    -0.287 N 
ATOM     20  H1  UNL     1      19.510  -8.866   6.267  1.00  0.00     0.189 HD
HETATM   21  C9  UNL     1      16.471  -7.937   6.275  1.00  0.00     0.093 A 
ATOM     22  H2  UNL     1      17.766  -8.106   7.920  1.00  0.00     0.188 HD
HETATM   23  C10 UNL     1      15.191  -7.466   6.843  1.00  0.00     0.090 C 
HETATM   24  N3  UNL     1      16.694  -8.185   4.973  1.00  0.00    -0.325 N 
ATOM     25  H3  UNL     1      16.011  -8.080   4.223  1.00  0.00     0.169 HD
ENDBRANCH  16  17
ENDBRANCH   1  16
BRANCH   1  26
HETATM   26  C11 UNL     1      17.961 -11.682   3.244  1.00  0.00     0.044 A 
HETATM   27  N4  UNL     1      16.712 -11.203   3.225  1.00  0.00    -0.310 N 
HETATM   28  C12 UNL     1      15.627 -12.036   3.276  1.00  0.00     0.327 A 
ATOM     29  H4  UNL     1      16.565 -10.195   3.171  1.00  0.00     0.170 HD
HETATM   30  O5  UNL     1      14.451 -11.565   3.257  1.00  0.00    -0.247 OA
HETATM   31  N5  UNL     1      15.758 -13.354   3.348  1.00  0.00    -0.275 N 
HETATM   32  C13 UNL     1      17.000 -13.899   3.371  1.00  0.00     0.257 A 
ATOM     33  H5  UNL     1      14.933 -13.952   3.386  1.00  0.00     0.173 HD
HETATM   34  O6  UNL     1      17.094 -15.149   3.441  1.00  0.00    -0.267 OA
HETATM   35  C14 UNL     1      18.109 -13.050   3.319  1.00  0.00     0.030 A 
HETATM   36  C15 UNL     1      19.447 -13.654   3.348  1.00  0.00     0.056 C 
ENDBRANCH   1  26
TORSDOF 7
ENDMDL
MODEL 3
REMARK VINA RESULT: -7.113461840      3.787      6.846
REMARK  7 active torsions:
REMARK  status: ('A' for Active; 'I' for Inactive)
REMARK    1  A    between atoms: C2_2  and  C3_4 
REMARK    2  A    between atoms: C4_5  and  O2_6 
REMARK    3  A    between atoms: C6_11  and  C7_12 
REMARK    4  A    between atoms: C7_12  and  S1_13 
REMARK    5  A    between atoms: C7_12  and  C11_23 
REMARK    6  A    between atoms: S1_13  and  C8_14 
REMARK    7  A    between atoms: C16_34  and  O7_35 
ROOT
HETATM    1  C7  UNL     1      20.264 -10.760   2.955  1.00  0.00     0.148 C 
ENDROOT
BRANCH   1   2
HETATM    2  C6  UNL     1      19.257 -11.836   3.092  1.00  0.00     0.072 A 
HETATM    3  C5  UNL     1      19.677 -13.051   3.564  1.00  0.00     0.300 A 
HETATM    4  O3  UNL     1      18.845 -14.043   3.704  1.00  0.00    -0.250 OA
HETATM    5  O4  UNL     1      20.909 -13.223   3.875  1.00  0.00    -0.259 OA
HETATM    6  C4  UNL     1      17.561 -13.885   3.388  1.00  0.00     0.203 A 
HETATM    7  C3  UNL     1      17.042 -12.704   2.907  1.00  0.00     0.101 A 
HETATM    8  C16 UNL     1      17.921 -11.651   2.756  1.00  0.00     0.098 A 
BRANCH   6   9
HETATM    9  O2  UNL     1      16.689 -14.965   3.548  1.00  0.00    -0.340 OA
ATOM     10  H2  UNL     1      16.317 -15.357   2.767  1.00  0.00     0.220 HD
ENDBRANCH   6   9
BRANCH   7  11
HETATM   11  C2  UNL     1      15.655 -12.529   2.553  1.00  0.00     0.163 C 
HETATM   12  C1  UNL     1      14.598 -12.344   3.611  1.00  0.00     0.097 C 
HETATM   13  O1  UNL     1      15.199 -12.511   1.376  1.00  0.00    -0.293 OA
ENDBRANCH   7  11
BRANCH   8  14
HETATM   14  O7  UNL     1      17.596 -10.426   2.301  1.00  0.00    -0.359 OA
ATOM     15  H7  UNL     1      18.132  -9.648   2.393  1.00  0.00     0.217 HD
ENDBRANCH   8  14
ENDBRANCH   1   2
BRANCH   1  16
HETATM   16  S1  UNL     1      20.441  -9.979   4.583  1.00  0.00    -0.076 SA
BRANCH  16  17
HETATM   17  C8  UNL     1      19.498  -8.486   4.704  1.00  0.00     0.161 A 
HETATM   18  N1  UNL     1      18.866  -7.795   3.713  1.00  0.00    -0.278 N 
HETATM   19  N2  UNL     1      18.295  -6.740   4.286  1.00  0.00    -0.287 N 
ATOM     20  H1  UNL     1      18.836  -8.040   2.723  1.00  0.00     0.189 HD
HETATM   21  C9  UNL     1      18.542  -6.737   5.606  1.00  0.00     0.093 A 
ATOM     22  H2  UNL     1      17.747  -6.035   3.794  1.00  0.00     0.188 HD
HETATM   23  C10 UNL     1      18.101  -5.758   6.622  1.00  0.00     0.090 C 
HETATM   24  N3  UNL     1      19.290  -7.826   5.856  1.00  0.00    -0.325 N 
ATOM     25  H3  UNL     1      19.643  -8.106   6.771  1.00  0.00     0.169 HD
ENDBRANCH  16  17
ENDBRANCH   1  16
BRANCH   1  26
HETATM   26  C11 UNL     1      21.529 -11.157   2.355  1.00  0.00     0.044 A 
HETATM   27  N4  UNL     1      22.650 -11.219   3.082  1.00  0.00    -0.310 N 
HETATM   28  C12 UNL     1      23.841 -11.601   2.528  1.00  0.00     0.327 A 
ATOM     29  H4  UNL     1      22.616 -10.976   4.072  1.00  0.00     0.170 HD
HETATM   30  O5  UNL     1      24.894 -11.654   3.232  1.00  0.00    -0.247 OA
HETATM   31  N5  UNL     1      23.945 -11.928   1.246  1.00  0.00    -0.275 N 
HETATM   32  C13 UNL     1      22.842 -11.884   0.456  1.00  0.00     0.257 A 
ATOM     33  H5  UNL     1      24.845 -12.209   0.857  1.00  0.00     0.173 HD
HETATM   34  O6  UNL     1      22.970 -12.198  -0.752  1.00  0.00    -0.267 OA
HETATM   35  C14 UNL     1      21.625 -11.495   1.022  1.00  0.00     0.030 A 
HETATM   36  C15 UNL     1      20.441 -11.449   0.155  1.00  0.00     0.056 C 
ENDBRANCH   1  26
TORSDOF 7
ENDMDL
MODEL 4
REMARK VINA RESULT: -7.042566518      5.656      9.121
REMARK  7 active torsions:
REMARK  status: ('A' for Active; 'I' for Inactive)
REMARK    1  A    between atoms: C2_2  and  C3_4 
REMARK    2  A    between atoms: C4_5  and  O2_6 
REMARK    3  A    between atoms: C6_11  and  C7_12 
REMARK    4  A    between atoms: C7_12  and  S1_13 
REMARK    5  A    between atoms: C7_12  and  C11_23 
REMARK    6  A    between atoms: S1_13  and  C8_14 
REMARK    7  A    between atoms: C16_34  and  O7_35 
ROOT
HETATM    1  C7  UNL     1      14.565 -13.327   3.072  1.00  0.00     0.148 C 
ENDROOT
BRANCH   1   2
HETATM    2  C6  UNL     1      14.706 -11.963   3.630  1.00  0.00     0.072 A 
HETATM    3  C5  UNL     1      15.837 -11.257   3.318  1.00  0.00     0.300 A 
HETATM    4  O3  UNL     1      16.029 -10.054   3.779  1.00  0.00    -0.250 OA
HETATM    5  O4  UNL     1      16.728 -11.782   2.559  1.00  0.00    -0.259 OA
HETATM    6  C4  UNL     1      15.116  -9.491   4.568  1.00  0.00     0.203 A 
HETATM    7  C3  UNL     1      13.948 -10.118   4.938  1.00  0.00     0.101 A 
HETATM    8  C16 UNL     1      13.742 -11.392   4.452  1.00  0.00     0.098 A 
BRANCH   6   9
HETATM    9  O2  UNL     1      15.346  -8.199   5.048  1.00  0.00    -0.340 OA
ATOM     10  H2  UNL     1      15.237  -7.473   4.444  1.00  0.00     0.220 HD
ENDBRANCH   6   9
BRANCH   7  11
HETATM   11  C2  UNL     1      12.960  -9.517   5.799  1.00  0.00     0.163 C 
HETATM   12  C1  UNL     1      13.205  -9.361   7.278  1.00  0.00     0.097 C 
HETATM   13  O1  UNL     1      11.837  -9.078   5.425  1.00  0.00    -0.293 OA
ENDBRANCH   7  11
BRANCH   8  14
HETATM   14  O7  UNL     1      12.664 -12.157   4.706  1.00  0.00    -0.359 OA
ATOM     15  H7  UNL     1      12.501 -13.017   4.337  1.00  0.00     0.217 HD
ENDBRANCH   8  14
ENDBRANCH   1   2
BRANCH   1  16
HETATM   16  S1  UNL     1      14.645 -14.488   4.464  1.00  0.00    -0.076 SA
BRANCH  16  17
HETATM   17  C8  UNL     1      13.875 -16.034   4.077  1.00  0.00     0.161 A 
HETATM   18  N1  UNL     1      12.898 -16.694   4.761  1.00  0.00    -0.278 N 
HETATM   19  N2  UNL     1      12.647 -17.812   4.087  1.00  0.00    -0.287 N 
ATOM     20  H1  UNL     1      12.446 -16.388   5.623  1.00  0.00     0.189 HD
HETATM   21  C9  UNL     1      13.430 -17.885   2.998  1.00  0.00     0.093 A 
ATOM     22  H2  UNL     1      11.958 -18.512   4.358  1.00  0.00     0.188 HD
HETATM   23  C10 UNL     1      13.483 -18.949   1.974  1.00  0.00     0.090 C 
HETATM   24  N3  UNL     1      14.190 -16.775   3.002  1.00  0.00    -0.325 N 
ATOM     25  H3  UNL     1      14.892 -16.535   2.301  1.00  0.00     0.169 HD
ENDBRANCH  16  17
ENDBRANCH   1  16
BRANCH   1  26
HETATM   26  C11 UNL     1      13.416 -13.533   2.202  1.00  0.00     0.044 A 
HETATM   27  N4  UNL     1      12.176 -13.609   2.701  1.00  0.00    -0.310 N 
HETATM   28  C12 UNL     1      11.090 -13.793   1.889  1.00  0.00     0.327 A 
ATOM     29  H4  UNL     1      12.038 -13.529   3.708  1.00  0.00     0.170 HD
HETATM   30  O5  UNL     1       9.923 -13.863   2.378  1.00  0.00    -0.247 OA
HETATM   31  N5  UNL     1      11.210 -13.904   0.572  1.00  0.00    -0.275 N 
HETATM   32  C13 UNL     1      12.442 -13.835   0.007  1.00  0.00     0.257 A 
ATOM     33  H5  UNL     1      10.384 -14.041  -0.010  1.00  0.00     0.173 HD
HETATM   34  O6  UNL     1      12.525 -13.945  -1.240  1.00  0.00    -0.267 OA
HETATM   35  C14 UNL     1      13.552 -13.648   0.835  1.00  0.00     0.030 A 
HETATM   36  C15 UNL     1      14.879 -13.578   0.211  1.00  0.00     0.056 C 
ENDBRANCH   1  26
TORSDOF 7
ENDMDL
MODEL 5
REMARK VINA RESULT: -7.027460612      4.189      6.928
REMARK  7 active torsions:
REMARK  status: ('A' for Active; 'I' for Inactive)
REMARK    1  A    between atoms: C2_2  and  C3_4 
REMARK    2  A    between atoms: C4_5  and  O2_6 
REMARK    3  A    between atoms: C6_11  and  C7_12 
REMARK    4  A    between atoms: C7_12  and  S1_13 
REMARK    5  A    between atoms: C7_12  and  C11_23 
REMARK    6  A    between atoms: S1_13  and  C8_14 
REMARK    7  A    between atoms: C16_34  and  O7_35 
ROOT
HETATM    1  C7  UNL     1      19.279 -11.740   2.229  1.00  0.00     0.148 C 
ENDROOT
BRANCH   1   2
HETATM    2  C6  UNL     1      19.454 -10.794   3.354  1.00  0.00     0.072 A 
HETATM    3  C5  UNL     1      20.138 -11.231   4.457  1.00  0.00     0.300 A 
HETATM    4  O3  UNL     1      20.324 -10.453   5.485  1.00  0.00    -0.250 OA
HETATM    5  O4  UNL     1      20.606 -12.424   4.487  1.00  0.00    -0.259 OA
HETATM    6  C4  UNL     1      19.846  -9.210   5.474  1.00  0.00     0.203 A 
HETATM    7  C3  UNL     1      19.147  -8.679   4.414  1.00  0.00     0.101 A 
HETATM    8  C16 UNL     1      18.948  -9.500   3.323  1.00  0.00     0.098 A 
BRANCH   6   9
HETATM    9  O2  UNL     1      20.060  -8.395   6.589  1.00  0.00    -0.340 OA
ATOM     10  H2  UNL     1      20.949  -8.313   6.916  1.00  0.00     0.220 HD
ENDBRANCH   6   9
BRANCH   7  11
HETATM   11  C2  UNL     1      18.619  -7.338   4.399  1.00  0.00     0.163 C 
HETATM   12  C1  UNL     1      17.343  -6.993   5.123  1.00  0.00     0.097 C 
HETATM   13  O1  UNL     1      19.143  -6.354   3.806  1.00  0.00    -0.293 OA
ENDBRANCH   7  11
BRANCH   8  14
HETATM   14  O7  UNL     1      18.290  -9.157   2.200  1.00  0.00    -0.359 OA
ATOM     15  H7  UNL     1      17.725  -9.732   1.698  1.00  0.00     0.217 HD
ENDBRANCH   8  14
ENDBRANCH   1   2
BRANCH   1  16
HETATM   16  S1  UNL     1      17.501 -12.068   2.075  1.00  0.00    -0.076 SA
BRANCH  16  17
HETATM   17  C8  UNL     1      17.056 -13.631   2.777  1.00  0.00     0.161 A 
HETATM   18  N1  UNL     1      17.729 -14.815   2.717  1.00  0.00    -0.278 N 
HETATM   19  N2  UNL     1      17.004 -15.703   3.389  1.00  0.00    -0.287 N 
ATOM     20  H1  UNL     1      18.618 -14.986   2.246  1.00  0.00     0.189 HD
HETATM   21  C9  UNL     1      15.893 -15.124   3.875  1.00  0.00     0.093 A 
ATOM     22  H2  UNL     1      17.255 -16.682   3.517  1.00  0.00     0.188 HD
HETATM   23  C10 UNL     1      14.814 -15.736   4.678  1.00  0.00     0.090 C 
HETATM   24  N3  UNL     1      15.936 -13.837   3.489  1.00  0.00    -0.325 N 
ATOM     25  H3  UNL     1      15.231 -13.131   3.702  1.00  0.00     0.169 HD
ENDBRANCH  16  17
ENDBRANCH   1  16
BRANCH   1  26
HETATM   26  C11 UNL     1      19.914 -11.352   0.978  1.00  0.00     0.044 A 
HETATM   27  N4  UNL     1      19.242 -10.669   0.044  1.00  0.00    -0.310 N 
HETATM   28  C12 UNL     1      19.835 -10.292  -1.130  1.00  0.00     0.327 A 
ATOM     29  H4  UNL     1      18.266 -10.425   0.211  1.00  0.00     0.170 HD
HETATM   30  O5  UNL     1      19.183  -9.646  -2.004  1.00  0.00    -0.247 OA
HETATM   31  N5  UNL     1      21.100 -10.584  -1.402  1.00  0.00    -0.275 N 
HETATM   32  C13 UNL     1      21.834 -11.275  -0.493  1.00  0.00     0.257 A 
ATOM     33  H5  UNL     1      21.518 -10.291  -2.285  1.00  0.00     0.173 HD
HETATM   34  O6  UNL     1      23.028 -11.537  -0.777  1.00  0.00    -0.267 OA
HETATM   35  C14 UNL     1      21.230 -11.660   0.707  1.00  0.00     0.030 A 
HETATM   36  C15 UNL     1      22.035 -12.410   1.679  1.00  0.00     0.056 C 
ENDBRANCH   1  26
TORSDOF 7
ENDMDL
