MODEL 1
REMARK VINA RESULT: -6.947287781      0.000      0.000
REMARK  10 active torsions:
REMARK  status: ('A' for Active; 'I' for Inactive)
REMARK    1  A    between atoms: O1_2  and  C2_3 
REMARK    2  A    between atoms: C3_4  and  C4_5 
REMARK    3  A    between atoms: C5_7  and  C6_8 
REMARK    4  A    between atoms: C7_10  and  O4_11 
REMARK    5  A    between atoms: C9_14  and  O5_15 
REMARK    6  A    between atoms: C12_19  and  O6_20 
REMARK    7  A    between atoms: C14_23  and  O7_24 
REMARK    8  A    between atoms: O7_24  and  C15_25 
REMARK    9  A    between atoms: C18_29  and  O9_30 
REMARK   10  A    between atoms: C18_29  and  C19_32 
ROOT
HETATM    1  C2  UNL     1      15.487  -9.383   4.636  1.00  0.00     0.096 A 
HETATM    2  C3  UNL     1      14.815  -8.640   5.576  1.00  0.00     0.052 A 
HETATM    3  C5  UNL     1      15.542  -7.877   6.486  1.00  0.00     0.052 A 
HETATM    4  C7  UNL     1      16.920  -7.866   6.447  1.00  0.00     0.094 A 
HETATM    5  C8  UNL     1      17.548  -8.644   5.469  1.00  0.00     0.050 A 
HETATM    6  C9  UNL     1      18.920  -8.646   5.441  1.00  0.00     0.114 A 
HETATM    7  C10 UNL     1      19.569  -9.399   4.519  1.00  0.00     0.118 A 
HETATM    8  C11 UNL     1      18.934 -10.196   3.576  1.00  0.00     0.042 A 
HETATM    9  C12 UNL     1      17.519 -10.187   3.614  1.00  0.00     0.091 A 
HETATM   10  C13 UNL     1      16.842  -9.410   4.556  1.00  0.00     0.048 A 
HETATM   11  C14 UNL     1      19.728 -10.983   2.610  1.00  0.00     0.176 C 
HETATM   12  C17 UNL     1      20.958 -11.583   3.289  1.00  0.00     0.118 C 
HETATM   13  C18 UNL     1      21.704 -10.565   4.097  1.00  0.00     0.261 C 
HETATM   14  O12 UNL     1      20.960  -9.426   4.459  1.00  0.00    -0.300 OA
ENDROOT
BRANCH  13  15
HETATM   15  O9  UNL     1      22.849 -10.120   3.412  1.00  0.00    -0.357 OA
ATOM     16  H9  UNL     1      23.181  -9.316   3.792  1.00  0.00     0.213 HD
ENDBRANCH  13  15
BRANCH  13  17
HETATM   17  C19 UNL     1      22.181 -11.218   5.343  1.00  0.00     0.239 C 
HETATM   18  O10 UNL     1      21.497 -12.032   6.014  1.00  0.00    -0.644 OA
HETATM   19  O11 UNL     1      23.455 -10.905   5.782  1.00  0.00    -0.644 OA
ENDBRANCH  13  17
BRANCH  11  20
HETATM   20  O7  UNL     1      18.965 -11.963   2.005  1.00  0.00    -0.311 OA
BRANCH  20  21
HETATM   21  C15 UNL     1      18.834 -12.130   0.634  1.00  0.00     0.255 C 
HETATM   22  C16 UNL     1      19.630 -13.159  -0.047  1.00  0.00     0.126 C 
HETATM   23  O8  UNL     1      18.035 -11.386   0.043  1.00  0.00    -0.266 OA
ENDBRANCH  20  21
ENDBRANCH  11  20
BRANCH   6  24
HETATM   24  O5  UNL     1      19.617  -7.878   6.351  1.00  0.00    -0.357 OA
ATOM     25  H5  UNL     1      20.216  -7.211   6.036  1.00  0.00     0.217 HD
ENDBRANCH   6  24
BRANCH   9  26
HETATM   26  O6  UNL     1      16.890 -10.934   2.744  1.00  0.00    -0.359 OA
ATOM     27  H6  UNL     1      16.067 -10.607   2.403  1.00  0.00     0.217 HD
ENDBRANCH   9  26
BRANCH   4  28
HETATM   28  O4  UNL     1      17.695  -7.142   7.304  1.00  0.00    -0.359 OA
ATOM     29  H4  UNL     1      18.626  -7.004   7.183  1.00  0.00     0.217 HD
ENDBRANCH   4  28
BRANCH   1  30
HETATM   30  O1  UNL     1      14.710 -10.109   3.760  1.00  0.00    -0.354 OA
HETATM   31  C1  UNL     1      14.290 -11.391   4.318  1.00  0.00     0.210 C 
ENDBRANCH   1  30
BRANCH   3  32
HETATM   32  C6  UNL     1      14.872  -7.074   7.495  1.00  0.00     0.273 C 
HETATM   33  O3  UNL     1      15.308  -5.913   7.739  1.00  0.00    -0.301 OA
ENDBRANCH   3  32
BRANCH   2  34
HETATM   34  C4  UNL     1      13.365  -8.664   5.601  1.00  0.00     0.273 C 
HETATM   35  O2  UNL     1      12.823  -9.435   6.465  1.00  0.00    -0.301 OA
ENDBRANCH   2  34
TORSDOF 10
ENDMDL
MODEL 2
REMARK VINA RESULT: -6.895863147      1.567      6.458
REMARK  10 active torsions:
REMARK  status: ('A' for Active; 'I' for Inactive)
REMARK    1  A    between atoms: O1_2  and  C2_3 
REMARK    2  A    between atoms: C3_4  and  C4_5 
REMARK    3  A    between atoms: C5_7  and  C6_8 
REMARK    4  A    between atoms: C7_10  and  O4_11 
REMARK    5  A    between atoms: C9_14  and  O5_15 
REMARK    6  A    between atoms: C12_19  and  O6_20 
REMARK    7  A    between atoms: C14_23  and  O7_24 
REMARK    8  A    between atoms: O7_24  and  C15_25 
REMARK    9  A    between atoms: C18_29  and  O9_30 
REMARK   10  A    between atoms: C18_29  and  C19_32 
ROOT
HETATM    1  C2  UNL     1      17.725 -11.266   2.506  1.00  0.00     0.096 A 
HETATM    2  C3  UNL     1      18.857 -11.681   1.848  1.00  0.00     0.052 A 
HETATM    3  C5  UNL     1      20.092 -11.155   2.222  1.00  0.00     0.052 A 
HETATM    4  C7  UNL     1      20.179 -10.229   3.240  1.00  0.00     0.094 A 
HETATM    5  C8  UNL     1      18.991  -9.844   3.870  1.00  0.00     0.050 A 
HETATM    6  C9  UNL     1      19.076  -8.909   4.872  1.00  0.00     0.114 A 
HETATM    7  C10 UNL     1      17.947  -8.496   5.498  1.00  0.00     0.118 A 
HETATM    8  C11 UNL     1      16.674  -8.956   5.194  1.00  0.00     0.042 A 
HETATM    9  C12 UNL     1      16.597  -9.919   4.159  1.00  0.00     0.091 A 
HETATM   10  C13 UNL     1      17.755 -10.354   3.511  1.00  0.00     0.048 A 
HETATM   11  C14 UNL     1      15.501  -8.445   5.933  1.00  0.00     0.176 C 
HETATM   12  C17 UNL     1      15.639  -6.946   6.190  1.00  0.00     0.118 C 
HETATM   13  C18 UNL     1      16.986  -6.595   6.745  1.00  0.00     0.261 C 
HETATM   14  O12 UNL     1      17.994  -7.550   6.519  1.00  0.00    -0.300 OA
ENDROOT
BRANCH  13  15
HETATM   15  O9  UNL     1      16.915  -6.373   8.132  1.00  0.00    -0.357 OA
ATOM     16  H9  UNL     1      17.729  -6.009   8.459  1.00  0.00     0.213 HD
ENDBRANCH  13  15
BRANCH  13  17
HETATM   17  C19 UNL     1      17.421  -5.313   6.132  1.00  0.00     0.239 C 
HETATM   18  O10 UNL     1      18.625  -4.978   5.988  1.00  0.00    -0.644 OA
HETATM   19  O11 UNL     1      16.436  -4.444   5.696  1.00  0.00    -0.644 OA
ENDBRANCH  13  17
BRANCH  11  20
HETATM   20  O7  UNL     1      14.321  -8.731   5.274  1.00  0.00    -0.311 OA
BRANCH  20  21
HETATM   21  C15 UNL     1      13.248  -9.412   5.832  1.00  0.00     0.255 C 
HETATM   22  C16 UNL     1      12.785  -9.050   7.177  1.00  0.00     0.126 C 
HETATM   23  O8  UNL     1      12.726 -10.309   5.151  1.00  0.00    -0.266 OA
ENDBRANCH  20  21
ENDBRANCH  11  20
BRANCH   6  24
HETATM   24  O5  UNL     1      20.311  -8.407   5.226  1.00  0.00    -0.357 OA
ATOM     25  H5  UNL     1      20.360  -7.633   5.774  1.00  0.00     0.217 HD
ENDBRANCH   6  24
BRANCH   9  26
HETATM   26  O6  UNL     1      15.410 -10.366   3.841  1.00  0.00    -0.359 OA
ATOM     27  H6  UNL     1      15.310 -11.305   3.742  1.00  0.00     0.217 HD
ENDBRANCH   9  26
BRANCH   4  28
HETATM   28  O4  UNL     1      21.352  -9.674   3.658  1.00  0.00    -0.359 OA
ATOM     29  H4  UNL     1      21.501  -8.738   3.714  1.00  0.00     0.217 HD
ENDBRANCH   4  28
BRANCH   1  30
HETATM   30  O1  UNL     1      16.537 -11.830   2.094  1.00  0.00    -0.354 OA
HETATM   31  C1  UNL     1      16.317 -13.152   2.675  1.00  0.00     0.210 C 
ENDBRANCH   1  30
BRANCH   3  32
HETATM   32  C6  UNL     1      21.315 -11.568   1.556  1.00  0.00     0.273 C 
HETATM   33  O3  UNL     1      22.249 -12.064   2.247  1.00  0.00    -0.301 OA
ENDBRANCH   3  32
BRANCH   2  34
HETATM   34  C4  UNL     1      18.746 -12.656   0.781  1.00  0.00     0.273 C 
HETATM   35  O2  UNL     1      18.529 -12.195  -0.392  1.00  0.00    -0.301 OA
ENDBRANCH   2  34
TORSDOF 10
ENDMDL
MODEL 3
REMARK VINA RESULT: -6.841319908      4.220      7.096
REMARK  10 active torsions:
REMARK  status: ('A' for Active; 'I' for Inactive)
REMARK    1  A    between atoms: O1_2  and  C2_3 
REMARK    2  A    between atoms: C3_4  and  C4_5 
REMARK    3  A    between atoms: C5_7  and  C6_8 
REMARK    4  A    between atoms: C7_10  and  O4_11 
REMARK    5  A    between atoms: C9_14  and  O5_15 
REMARK    6  A    between atoms: C12_19  and  O6_20 
REMARK    7  A    between atoms: C14_23  and  O7_24 
REMARK    8  A    between atoms: O7_24  and  C15_25 
REMARK    9  A    between atoms: C18_29  and  O9_30 
REMARK   10  A    between atoms: C18_29  and  C19_32 
ROOT
HETATM    1  C2  UNL     1      22.272 -11.597   1.071  1.00  0.00     0.096 A 
HETATM    2  C3  UNL     1      21.068 -11.442   0.428  1.00  0.00     0.052 A 
HETATM    3  C5  UNL     1      19.941 -11.098   1.170  1.00  0.00     0.052 A 
HETATM    4  C7  UNL     1      20.029 -10.916   2.534  1.00  0.00     0.094 A 
HETATM    5  C8  UNL     1      21.282 -11.090   3.131  1.00  0.00     0.050 A 
HETATM    6  C9  UNL     1      21.366 -10.924   4.491  1.00  0.00     0.114 A 
HETATM    7  C10 UNL     1      22.558 -11.099   5.114  1.00  0.00     0.118 A 
HETATM    8  C11 UNL     1      23.734 -11.446   4.463  1.00  0.00     0.042 A 
HETATM    9  C12 UNL     1      23.636 -11.615   3.060  1.00  0.00     0.091 A 
HETATM   10  C13 UNL     1      22.413 -11.432   2.410  1.00  0.00     0.048 A 
HETATM   11  C14 UNL     1      24.987 -11.615   5.227  1.00  0.00     0.176 C 
HETATM   12  C17 UNL     1      24.714 -12.314   6.558  1.00  0.00     0.118 C 
HETATM   13  C18 UNL     1      23.560 -11.697   7.288  1.00  0.00     0.261 C 
HETATM   14  O12 UNL     1      22.683 -10.939   6.491  1.00  0.00    -0.300 OA
ENDROOT
BRANCH  13  15
HETATM   15  O9  UNL     1      24.012 -10.865   8.329  1.00  0.00    -0.357 OA
ATOM     16  H9  UNL     1      23.573 -11.072   9.144  1.00  0.00     0.213 HD
ENDBRANCH  13  15
BRANCH  13  17
HETATM   17  C19 UNL     1      22.777 -12.786   7.926  1.00  0.00     0.239 C 
HETATM   18  O10 UNL     1      22.339 -12.739   9.104  1.00  0.00    -0.644 OA
HETATM   19  O11 UNL     1      22.520 -13.917   7.170  1.00  0.00    -0.644 OA
ENDBRANCH  13  17
BRANCH  11  20
HETATM   20  O7  UNL     1      25.941 -12.293   4.495  1.00  0.00    -0.311 OA
BRANCH  20  21
HETATM   21  C15 UNL     1      26.528 -13.491   4.876  1.00  0.00     0.255 C 
HETATM   22  C16 UNL     1      27.744 -13.470   5.699  1.00  0.00     0.126 C 
HETATM   23  O8  UNL     1      25.983 -14.539   4.494  1.00  0.00    -0.266 OA
ENDBRANCH  20  21
ENDBRANCH  11  20
BRANCH   6  24
HETATM   24  O5  UNL     1      20.235 -10.580   5.203  1.00  0.00    -0.357 OA
ATOM     25  H5  UNL     1      19.471 -10.262   4.737  1.00  0.00     0.217 HD
ENDBRANCH   6  24
BRANCH   9  26
HETATM   26  O6  UNL     1      24.724 -11.952   2.418  1.00  0.00    -0.359 OA
ATOM     27  H6  UNL     1      24.690 -11.942   1.470  1.00  0.00     0.217 HD
ENDBRANCH   9  26
BRANCH   4  28
HETATM   28  O4  UNL     1      18.969 -10.578   3.321  1.00  0.00    -0.359 OA
ATOM     29  H4  UNL     1      18.913  -9.765   3.808  1.00  0.00     0.217 HD
ENDBRANCH   4  28
BRANCH   1  30
HETATM   30  O1  UNL     1      23.350 -11.928   0.279  1.00  0.00    -0.354 OA
HETATM   31  C1  UNL     1      23.303 -13.315  -0.175  1.00  0.00     0.210 C 
ENDBRANCH   1  30
BRANCH   3  32
HETATM   32  C6  UNL     1      18.648 -10.922   0.530  1.00  0.00     0.273 C 
HETATM   33  O3  UNL     1      17.679 -11.642   0.905  1.00  0.00    -0.301 OA
ENDBRANCH   3  32
BRANCH   2  34
HETATM   34  C4  UNL     1      20.995 -11.638  -1.007  1.00  0.00     0.273 C 
HETATM   35  O2  UNL     1      21.221 -10.612  -1.736  1.00  0.00    -0.301 OA
ENDBRANCH   2  34
TORSDOF 10
ENDMDL
MODEL 4
REMARK VINA RESULT: -6.839862362      2.086      7.295
REMARK  10 active torsions:
REMARK  status: ('A' for Active; 'I' for Inactive)
REMARK    1  A    between atoms: O1_2  and  C2_3 
REMARK    2  A    between atoms: C3_4  and  C4_5 
REMARK    3  A    between atoms: C5_7  and  C6_8 
REMARK    4  A    between atoms: C7_10  and  O4_11 
REMARK    5  A    between atoms: C9_14  and  O5_15 
REMARK    6  A    between atoms: C12_19  and  O6_20 
REMARK    7  A    between atoms: C14_23  and  O7_24 
REMARK    8  A    between atoms: O7_24  and  C15_25 
REMARK    9  A    between atoms: C18_29  and  O9_30 
REMARK   10  A    between atoms: C18_29  and  C19_32 
ROOT
HETATM    1  C2  UNL     1      20.332 -10.930   4.786  1.00  0.00     0.096 A 
HETATM    2  C3  UNL     1      20.095 -12.029   3.997  1.00  0.00     0.052 A 
HETATM    3  C5  UNL     1      18.919 -12.092   3.254  1.00  0.00     0.052 A 
HETATM    4  C7  UNL     1      18.001 -11.064   3.307  1.00  0.00     0.094 A 
HETATM    5  C8  UNL     1      18.297  -9.972   4.130  1.00  0.00     0.050 A 
HETATM    6  C9  UNL     1      17.376  -8.957   4.196  1.00  0.00     0.114 A 
HETATM    7  C10 UNL     1      17.616  -7.888   4.994  1.00  0.00     0.118 A 
HETATM    8  C11 UNL     1      18.753  -7.736   5.775  1.00  0.00     0.042 A 
HETATM    9  C12 UNL     1      19.697  -8.790   5.700  1.00  0.00     0.091 A 
HETATM   10  C13 UNL     1      19.461  -9.893   4.877  1.00  0.00     0.048 A 
HETATM   11  C14 UNL     1      18.927  -6.533   6.613  1.00  0.00     0.176 C 
HETATM   12  C17 UNL     1      17.601  -6.132   7.258  1.00  0.00     0.118 C 
HETATM   13  C18 UNL     1      16.481  -6.100   6.263  1.00  0.00     0.261 C 
HETATM   14  O12 UNL     1      16.705  -6.838   5.086  1.00  0.00    -0.300 OA
ENDROOT
BRANCH  13  15
HETATM   15  O9  UNL     1      16.184  -4.779   5.884  1.00  0.00    -0.357 OA
ATOM     16  H9  UNL     1      15.679  -4.762   5.080  1.00  0.00     0.213 HD
ENDBRANCH  13  15
BRANCH  13  17
HETATM   17  C19 UNL     1      15.261  -6.639   6.918  1.00  0.00     0.239 C 
HETATM   18  O10 UNL     1      14.665  -7.680   6.542  1.00  0.00    -0.644 OA
HETATM   19  O11 UNL     1      14.759  -5.945   8.005  1.00  0.00    -0.644 OA
ENDBRANCH  13  17
BRANCH  11  20
HETATM   20  O7  UNL     1      19.909  -6.715   7.567  1.00  0.00    -0.311 OA
BRANCH  20  21
HETATM   21  C15 UNL     1      20.414  -5.714   8.384  1.00  0.00     0.255 C 
HETATM   22  C16 UNL     1      20.669  -6.001   9.802  1.00  0.00     0.126 C 
HETATM   23  O8  UNL     1      20.629  -4.608   7.864  1.00  0.00    -0.266 OA
ENDBRANCH  20  21
ENDBRANCH  11  20
BRANCH   6  24
HETATM   24  O5  UNL     1      16.221  -9.042   3.447  1.00  0.00    -0.357 OA
ATOM     25  H5  UNL     1      15.418  -9.337   3.860  1.00  0.00     0.217 HD
ENDBRANCH   6  24
BRANCH   9  26
HETATM   26  O6  UNL     1      20.775  -8.682   6.431  1.00  0.00    -0.359 OA
ATOM     27  H6  UNL     1      21.474  -9.305   6.270  1.00  0.00     0.217 HD
ENDBRANCH   9  26
BRANCH   4  28
HETATM   28  O4  UNL     1      16.832 -11.058   2.607  1.00  0.00    -0.359 OA
ATOM     29  H4  UNL     1      16.521 -10.313   2.108  1.00  0.00     0.217 HD
ENDBRANCH   4  28
BRANCH   1  30
HETATM   30  O1  UNL     1      21.517 -10.925   5.489  1.00  0.00    -0.354 OA
HETATM   31  C1  UNL     1      22.675 -10.704   4.627  1.00  0.00     0.210 C 
ENDBRANCH   1  30
BRANCH   3  32
HETATM   32  C6  UNL     1      18.629 -13.235   2.405  1.00  0.00     0.273 C 
HETATM   33  O3  UNL     1      17.645 -13.974   2.691  1.00  0.00    -0.301 OA
ENDBRANCH   3  32
BRANCH   2  34
HETATM   34  C4  UNL     1      21.072 -13.100   3.954  1.00  0.00     0.273 C 
HETATM   35  O2  UNL     1      20.921 -14.044   4.803  1.00  0.00    -0.301 OA
ENDBRANCH   2  34
TORSDOF 10
ENDMDL
MODEL 5
REMARK VINA RESULT: -6.764764891      2.685      5.534
REMARK  10 active torsions:
REMARK  status: ('A' for Active; 'I' for Inactive)
REMARK    1  A    between atoms: O1_2  and  C2_3 
REMARK    2  A    between atoms: C3_4  and  C4_5 
REMARK    3  A    between atoms: C5_7  and  C6_8 
REMARK    4  A    between atoms: C7_10  and  O4_11 
REMARK    5  A    between atoms: C9_14  and  O5_15 
REMARK    6  A    between atoms: C12_19  and  O6_20 
REMARK    7  A    between atoms: C14_23  and  O7_24 
REMARK    8  A    between atoms: O7_24  and  C15_25 
REMARK    9  A    between atoms: C18_29  and  O9_30 
REMARK   10  A    between atoms: C18_29  and  C19_32 
ROOT
HETATM    1  C2  UNL     1      16.227  -8.718   4.820  1.00  0.00     0.096 A 
HETATM    2  C3  UNL     1      15.487  -7.988   5.719  1.00  0.00     0.052 A 
HETATM    3  C5  UNL     1      14.247  -8.471   6.129  1.00  0.00     0.052 A 
HETATM    4  C7  UNL     1      13.765  -9.667   5.641  1.00  0.00     0.094 A 
HETATM    5  C8  UNL     1      14.563 -10.363   4.727  1.00  0.00     0.050 A 
HETATM    6  C9  UNL     1      14.076 -11.546   4.228  1.00  0.00     0.114 A 
HETATM    7  C10 UNL     1      14.809 -12.245   3.328  1.00  0.00     0.118 A 
HETATM    8  C11 UNL     1      16.051 -11.844   2.854  1.00  0.00     0.042 A 
HETATM    9  C12 UNL     1      16.545 -10.622   3.375  1.00  0.00     0.091 A 
HETATM   10  C13 UNL     1      15.798  -9.898   4.306  1.00  0.00     0.048 A 
HETATM   11  C14 UNL     1      16.778 -12.674   1.872  1.00  0.00     0.176 C 
HETATM   12  C17 UNL     1      15.811 -13.253   0.840  1.00  0.00     0.118 C 
HETATM   13  C18 UNL     1      14.610 -13.875   1.485  1.00  0.00     0.261 C 
HETATM   14  O12 UNL     1      14.349 -13.449   2.800  1.00  0.00    -0.300 OA
ENDROOT
BRANCH  13  15
HETATM   15  O9  UNL     1      14.723 -15.277   1.510  1.00  0.00    -0.357 OA
ATOM     16  H9  UNL     1      13.869 -15.687   1.449  1.00  0.00     0.213 HD
ENDBRANCH  13  15
BRANCH  13  17
HETATM   17  C19 UNL     1      13.420 -13.559   0.654  1.00  0.00     0.239 C 
HETATM   18  O10 UNL     1      13.482 -13.142  -0.530  1.00  0.00    -0.644 OA
HETATM   19  O11 UNL     1      12.173 -13.737   1.228  1.00  0.00    -0.644 OA
ENDBRANCH  13  17
BRANCH  11  20
HETATM   20  O7  UNL     1      17.793 -11.965   1.260  1.00  0.00    -0.311 OA
BRANCH  20  21
HETATM   21  C15 UNL     1      18.063 -11.984  -0.101  1.00  0.00     0.255 C 
HETATM   22  C16 UNL     1      18.965 -13.009  -0.643  1.00  0.00     0.126 C 
HETATM   23  O8  UNL     1      17.518 -11.118  -0.803  1.00  0.00    -0.266 OA
ENDBRANCH  20  21
ENDBRANCH  11  20
BRANCH   6  24
HETATM   24  O5  UNL     1      12.846 -12.005   4.654  1.00  0.00    -0.357 OA
ATOM     25  H5  UNL     1      12.129 -12.059   4.034  1.00  0.00     0.217 HD
ENDBRANCH   6  24
BRANCH   9  26
HETATM   26  O6  UNL     1      17.707 -10.211   2.942  1.00  0.00    -0.359 OA
ATOM     27  H6  UNL     1      18.009  -9.363   3.243  1.00  0.00     0.217 HD
ENDBRANCH   9  26
BRANCH   4  28
HETATM   28  O4  UNL     1      12.563 -10.200   5.999  1.00  0.00    -0.359 OA
ATOM     29  H4  UNL     1      11.739  -9.966   5.588  1.00  0.00     0.217 HD
ENDBRANCH   4  28
BRANCH   1  30
HETATM   30  O1  UNL     1      17.448  -8.189   4.461  1.00  0.00    -0.354 OA
HETATM   31  C1  UNL     1      18.501  -8.520   5.417  1.00  0.00     0.210 C 
ENDBRANCH   1  30
BRANCH   3  32
HETATM   32  C6  UNL     1      13.432  -7.734   7.080  1.00  0.00     0.273 C 
HETATM   33  O3  UNL     1      12.599  -8.366   7.789  1.00  0.00    -0.301 OA
ENDBRANCH   3  32
BRANCH   2  34
HETATM   34  C4  UNL     1      16.010  -6.732   6.221  1.00  0.00     0.273 C 
HETATM   35  O2  UNL     1      16.422  -6.729   7.432  1.00  0.00    -0.301 OA
ENDBRANCH   2  34
TORSDOF 10
ENDMDL
