MODEL 1
REMARK VINA RESULT: -7.448022758      0.000      0.000
REMARK  10 active torsions:
REMARK  status: ('A' for Active; 'I' for Inactive)
REMARK    1  A    between atoms: O1_2  and  C2_3 
REMARK       I    between atoms: C2_3  and  N1_5 
REMARK    2  A    between atoms: C3_7  and  N2_8 
REMARK    3  A    between atoms: C3_7  and  C9_21 
REMARK    4  A    between atoms: N2_8  and  N3_10 
REMARK    5  A    between atoms: C4_12  and  C5_13 
REMARK    6  A    between atoms: C8_16  and  N4_17 
REMARK    7  A    between atoms: C10_22  and  O6_23 
REMARK    8  A    between atoms: C12_27  and  N6_28 
REMARK    9  A    between atoms: C13_33  and  N8_34 
REMARK   10  A    between atoms: N8_34  and  O7_36 
ROOT
HETATM    1  O7  UNL     1      14.648  -0.513   3.022  1.00  0.00    -0.158 OA
HETATM    2  C14 UNL     1      14.855   0.857   2.975  1.00  0.00     0.253 C 
HETATM    3  N9  UNL     1      15.034   1.986   2.919  1.00  0.00    -0.162 NA
ENDROOT
BRANCH   1   4
HETATM    4  N8  UNL     1      15.617  -1.409   2.651  1.00  0.00    -0.232 N 
ATOM      5  H8  UNL     1      15.953  -1.443   1.689  1.00  0.00     0.197 HD
BRANCH   4   6
HETATM    6  C13 UNL     1      16.093  -2.204   3.542  1.00  0.00     0.160 A 
HETATM    7  C9  UNL     1      17.429  -2.003   3.907  1.00  0.00     0.107 A 
HETATM    8  C10 UNL     1      17.935  -2.850   4.861  1.00  0.00     0.175 A 
HETATM    9  N5  UNL     1      17.119  -3.808   5.377  1.00  0.00    -0.170 N 
HETATM   10  C12 UNL     1      15.841  -3.979   5.008  1.00  0.00     0.679 A 
ATOM     11  H5  UNL     1      17.501  -4.433   6.086  1.00  0.00     0.186 HD
HETATM   12  N7  UNL     1      15.332  -3.160   4.077  1.00  0.00    -0.174 N 
ATOM     13  H7  UNL     1      14.363  -3.268   3.778  1.00  0.00     0.186 HD
BRANCH   7  14
HETATM   14  C3  UNL     1      18.172  -0.931   3.301  1.00  0.00     0.142 C 
HETATM   15  N1  UNL     1      18.391   0.158   3.883  1.00  0.00    -0.286 N 
HETATM   16  C2  UNL     1      18.013   0.638   5.129  1.00  0.00     0.365 C 
ATOM     17  H1  UNL     1      18.951   0.813   3.339  1.00  0.00     0.172 HD
HETATM   18  O2  UNL     1      16.852   0.596   5.614  1.00  0.00    -0.238 OA
BRANCH  16  19
HETATM   19  O1  UNL     1      18.986   1.228   5.944  1.00  0.00    -0.309 OA
HETATM   20  C1  UNL     1      19.952   0.441   6.627  1.00  0.00     0.215 C 
ENDBRANCH  16  19
BRANCH  14  21
HETATM   21  N2  UNL     1      18.744  -1.069   1.974  1.00  0.00    -0.285 N 
ATOM     22  H2  UNL     1      18.337  -0.551   1.195  1.00  0.00     0.188 HD
BRANCH  21  23
HETATM   23  N3  UNL     1      19.828  -1.890   1.750  1.00  0.00    -0.308 N 
HETATM   24  C4  UNL     1      19.824  -2.949   1.068  1.00  0.00     0.144 C 
ATOM     25  H3  UNL     1      20.713  -1.616   2.175  1.00  0.00     0.186 HD
BRANCH  24  26
HETATM   26  C5  UNL     1      18.680  -3.517   0.383  1.00  0.00     0.095 A 
HETATM   27  C6  UNL     1      18.689  -4.058  -0.909  1.00  0.00     0.043 A 
HETATM   28  C7  UNL     1      17.400  -4.471  -1.144  1.00  0.00     0.065 A 
HETATM   29  C8  UNL     1      16.655  -4.184  -0.025  1.00  0.00     0.215 A 
HETATM   30  O5  UNL     1      17.466  -3.628   0.824  1.00  0.00    -0.287 OA
BRANCH  29  31
HETATM   31  N4  UNL     1      15.269  -4.462   0.119  1.00  0.00    -0.090 N 
HETATM   32  O3  UNL     1      14.630  -5.048  -0.746  1.00  0.00    -0.530 OA
HETATM   33  O4  UNL     1      14.644  -4.057   1.266  1.00  0.00    -0.530 OA
ENDBRANCH  29  31
ENDBRANCH  24  26
ENDBRANCH  21  23
ENDBRANCH  14  21
ENDBRANCH   7  14
BRANCH   8  34
HETATM   34  O6  UNL     1      19.250  -2.727   5.283  1.00  0.00    -0.340 OA
HETATM   35  C11 UNL     1      20.209  -3.699   4.914  1.00  0.00     0.211 C 
ENDBRANCH   8  34
BRANCH  10  36
HETATM   36  N6  UNL     1      15.116  -4.923   5.548  1.00  0.00    -0.234 N 
ATOM     37  H62 UNL     1      14.986  -4.975   6.559  1.00  0.00     0.174 HD
ATOM     38  H61 UNL     1      14.666  -5.627   4.964  1.00  0.00     0.174 HD
ENDBRANCH  10  36
ENDBRANCH   4   6
ENDBRANCH   1   4
TORSDOF 10
ENDMDL
MODEL 2
REMARK VINA RESULT: -7.340148842      3.024      6.223
REMARK  10 active torsions:
REMARK  status: ('A' for Active; 'I' for Inactive)
REMARK    1  A    between atoms: O1_2  and  C2_3 
REMARK       I    between atoms: C2_3  and  N1_5 
REMARK    2  A    between atoms: C3_7  and  N2_8 
REMARK    3  A    between atoms: C3_7  and  C9_21 
REMARK    4  A    between atoms: N2_8  and  N3_10 
REMARK    5  A    between atoms: C4_12  and  C5_13 
REMARK    6  A    between atoms: C8_16  and  N4_17 
REMARK    7  A    between atoms: C10_22  and  O6_23 
REMARK    8  A    between atoms: C12_27  and  N6_28 
REMARK    9  A    between atoms: C13_33  and  N8_34 
REMARK   10  A    between atoms: N8_34  and  O7_36 
ROOT
HETATM    1  O7  UNL     1      14.357  -0.456   5.952  1.00  0.00    -0.158 OA
HETATM    2  C14 UNL     1      13.444  -0.619   6.982  1.00  0.00     0.253 C 
HETATM    3  N9  UNL     1      12.704  -0.758   7.845  1.00  0.00    -0.162 NA
ENDROOT
BRANCH   1   4
HETATM    4  N8  UNL     1      15.367  -1.355   5.725  1.00  0.00    -0.232 N 
ATOM      5  H8  UNL     1      16.254  -1.278   6.223  1.00  0.00     0.197 HD
BRANCH   4   6
HETATM    6  C13 UNL     1      15.173  -2.297   4.872  1.00  0.00     0.160 A 
HETATM    7  C9  UNL     1      15.426  -1.985   3.532  1.00  0.00     0.107 A 
HETATM    8  C10 UNL     1      15.223  -2.993   2.622  1.00  0.00     0.175 A 
HETATM    9  N5  UNL     1      14.801  -4.203   3.078  1.00  0.00    -0.170 N 
HETATM   10  C12 UNL     1      14.567  -4.475   4.370  1.00  0.00     0.679 A 
ATOM     11  H5  UNL     1      14.653  -4.948   2.397  1.00  0.00     0.186 HD
HETATM   12  N7  UNL     1      14.759  -3.501   5.271  1.00  0.00    -0.174 N 
ATOM     13  H7  UNL     1      14.588  -3.681   6.260  1.00  0.00     0.186 HD
BRANCH   7  14
HETATM   14  C3  UNL     1      15.897  -0.670   3.190  1.00  0.00     0.142 C 
HETATM   15  N1  UNL     1      17.099  -0.427   2.929  1.00  0.00    -0.286 N 
HETATM   16  C2  UNL     1      18.230  -1.232   2.914  1.00  0.00     0.365 C 
ATOM     17  H1  UNL     1      17.280   0.546   2.681  1.00  0.00     0.172 HD
HETATM   18  O2  UNL     1      18.575  -2.034   3.821  1.00  0.00    -0.238 OA
BRANCH  16  19
HETATM   19  O1  UNL     1      19.083  -1.170   1.807  1.00  0.00    -0.309 OA
HETATM   20  C1  UNL     1      20.358  -1.797   1.823  1.00  0.00     0.215 C 
ENDBRANCH  16  19
BRANCH  14  21
HETATM   21  N2  UNL     1      14.985   0.455   3.097  1.00  0.00    -0.285 N 
ATOM     22  H2  UNL     1      13.979   0.289   3.115  1.00  0.00     0.188 HD
BRANCH  21  23
HETATM   23  N3  UNL     1      15.458   1.745   2.986  1.00  0.00    -0.308 N 
HETATM   24  C4  UNL     1      15.033   2.745   3.620  1.00  0.00     0.144 C 
ATOM     25  H3  UNL     1      16.223   1.904   2.330  1.00  0.00     0.186 HD
BRANCH  24  26
HETATM   26  C5  UNL     1      13.959   2.743   4.594  1.00  0.00     0.095 A 
HETATM   27  C6  UNL     1      14.007   3.333   5.863  1.00  0.00     0.043 A 
HETATM   28  C7  UNL     1      12.781   3.085   6.431  1.00  0.00     0.065 A 
HETATM   29  C8  UNL     1      12.033   2.371   5.526  1.00  0.00     0.215 A 
HETATM   30  O5  UNL     1      12.784   2.207   4.478  1.00  0.00    -0.287 OA
BRANCH  29  31
HETATM   31  N4  UNL     1      10.703   1.923   5.747  1.00  0.00    -0.090 N 
HETATM   32  O3  UNL     1      10.326   1.521   6.840  1.00  0.00    -0.530 OA
HETATM   33  O4  UNL     1       9.829   1.951   4.696  1.00  0.00    -0.530 OA
ENDBRANCH  29  31
ENDBRANCH  24  26
ENDBRANCH  21  23
ENDBRANCH  14  21
ENDBRANCH   7  14
BRANCH   8  34
HETATM   34  O6  UNL     1      15.445  -2.775   1.271  1.00  0.00    -0.340 OA
HETATM   35  C11 UNL     1      15.814  -3.849   0.429  1.00  0.00     0.211 C 
ENDBRANCH   8  34
BRANCH  10  36
HETATM   36  N6  UNL     1      14.161  -5.663   4.734  1.00  0.00    -0.234 N 
ATOM     37  H62 UNL     1      14.018  -6.405   4.048  1.00  0.00     0.174 HD
ATOM     38  H61 UNL     1      13.980  -5.868   5.717  1.00  0.00     0.174 HD
ENDBRANCH  10  36
ENDBRANCH   4   6
ENDBRANCH   1   4
TORSDOF 10
ENDMDL
MODEL 3
REMARK VINA RESULT: -7.240983329      2.798      6.275
REMARK  10 active torsions:
REMARK  status: ('A' for Active; 'I' for Inactive)
REMARK    1  A    between atoms: O1_2  and  C2_3 
REMARK       I    between atoms: C2_3  and  N1_5 
REMARK    2  A    between atoms: C3_7  and  N2_8 
REMARK    3  A    between atoms: C3_7  and  C9_21 
REMARK    4  A    between atoms: N2_8  and  N3_10 
REMARK    5  A    between atoms: C4_12  and  C5_13 
REMARK    6  A    between atoms: C8_16  and  N4_17 
REMARK    7  A    between atoms: C10_22  and  O6_23 
REMARK    8  A    between atoms: C12_27  and  N6_28 
REMARK    9  A    between atoms: C13_33  and  N8_34 
REMARK   10  A    between atoms: N8_34  and  O7_36 
ROOT
HETATM    1  O7  UNL     1      15.098  -3.526   0.674  1.00  0.00    -0.158 OA
HETATM    2  C14 UNL     1      15.930  -4.342  -0.078  1.00  0.00     0.253 C 
HETATM    3  N9  UNL     1      16.626  -5.020  -0.683  1.00  0.00    -0.162 NA
ENDROOT
BRANCH   1   4
HETATM    4  N8  UNL     1      15.585  -2.685   1.641  1.00  0.00    -0.232 N 
ATOM      5  H8  UNL     1      16.115  -1.852   1.387  1.00  0.00     0.197 HD
BRANCH   4   6
HETATM    6  C13 UNL     1      15.358  -2.967   2.875  1.00  0.00     0.160 A 
HETATM    7  C9  UNL     1      15.564  -1.936   3.798  1.00  0.00     0.107 A 
HETATM    8  C10 UNL     1      15.317  -2.237   5.114  1.00  0.00     0.175 A 
HETATM    9  N5  UNL     1      14.897  -3.493   5.425  1.00  0.00    -0.170 N 
HETATM   10  C12 UNL     1      14.708  -4.463   4.519  1.00  0.00     0.679 A 
ATOM     11  H5  UNL     1      14.715  -3.710   6.404  1.00  0.00     0.186 HD
HETATM   12  N7  UNL     1      14.945  -4.185   3.229  1.00  0.00    -0.174 N 
ATOM     13  H7  UNL     1      14.809  -4.905   2.519  1.00  0.00     0.186 HD
BRANCH   7  14
HETATM   14  C3  UNL     1      15.984  -0.643   3.330  1.00  0.00     0.142 C 
HETATM   15  N1  UNL     1      17.170  -0.389   3.010  1.00  0.00    -0.286 N 
HETATM   16  C2  UNL     1      18.324  -1.159   3.028  1.00  0.00     0.365 C 
ATOM     17  H1  UNL     1      17.313   0.564   2.675  1.00  0.00     0.172 HD
HETATM   18  O2  UNL     1      18.720  -1.870   3.989  1.00  0.00    -0.238 OA
BRANCH  16  19
HETATM   19  O1  UNL     1      19.142  -1.170   1.893  1.00  0.00    -0.309 OA
HETATM   20  C1  UNL     1      20.358  -1.905   1.868  1.00  0.00     0.215 C 
ENDBRANCH  16  19
BRANCH  14  21
HETATM   21  N2  UNL     1      15.035   0.444   3.170  1.00  0.00    -0.285 N 
ATOM     22  H2  UNL     1      14.035   0.245   3.194  1.00  0.00     0.188 HD
BRANCH  21  23
HETATM   23  N3  UNL     1      15.465   1.741   2.987  1.00  0.00    -0.308 N 
HETATM   24  C4  UNL     1      15.015   2.758   3.577  1.00  0.00     0.144 C 
ATOM     25  H3  UNL     1      16.216   1.890   2.314  1.00  0.00     0.186 HD
BRANCH  24  26
HETATM   26  C5  UNL     1      13.955   2.771   4.564  1.00  0.00     0.095 A 
HETATM   27  C6  UNL     1      13.976   3.473   5.776  1.00  0.00     0.043 A 
HETATM   28  C7  UNL     1      12.776   3.196   6.384  1.00  0.00     0.065 A 
HETATM   29  C8  UNL     1      12.068   2.357   5.557  1.00  0.00     0.215 A 
HETATM   30  O5  UNL     1      12.817   2.151   4.515  1.00  0.00    -0.287 OA
BRANCH  29  31
HETATM   31  N4  UNL     1      10.773   1.844   5.838  1.00  0.00    -0.090 N 
HETATM   32  O3  UNL     1      10.501   1.317   6.909  1.00  0.00    -0.530 OA
HETATM   33  O4  UNL     1       9.812   1.953   4.872  1.00  0.00    -0.530 OA
ENDBRANCH  29  31
ENDBRANCH  24  26
ENDBRANCH  21  23
ENDBRANCH  14  21
ENDBRANCH   7  14
BRANCH   8  34
HETATM   34  O6  UNL     1      15.497  -1.278   6.100  1.00  0.00    -0.340 OA
HETATM   35  C11 UNL     1      14.387  -0.566   6.609  1.00  0.00     0.211 C 
ENDBRANCH   8  34
BRANCH  10  36
HETATM   36  N6  UNL     1      14.302  -5.648   4.892  1.00  0.00    -0.234 N 
ATOM     37  H62 UNL     1      14.953  -6.329   5.284  1.00  0.00     0.174 HD
ATOM     38  H61 UNL     1      13.322  -5.913   4.796  1.00  0.00     0.174 HD
ENDBRANCH  10  36
ENDBRANCH   4   6
ENDBRANCH   1   4
TORSDOF 10
ENDMDL
MODEL 4
REMARK VINA RESULT: -7.092566391      3.003      6.682
REMARK  10 active torsions:
REMARK  status: ('A' for Active; 'I' for Inactive)
REMARK    1  A    between atoms: O1_2  and  C2_3 
REMARK       I    between atoms: C2_3  and  N1_5 
REMARK    2  A    between atoms: C3_7  and  N2_8 
REMARK    3  A    between atoms: C3_7  and  C9_21 
REMARK    4  A    between atoms: N2_8  and  N3_10 
REMARK    5  A    between atoms: C4_12  and  C5_13 
REMARK    6  A    between atoms: C8_16  and  N4_17 
REMARK    7  A    between atoms: C10_22  and  O6_23 
REMARK    8  A    between atoms: C12_27  and  N6_28 
REMARK    9  A    between atoms: C13_33  and  N8_34 
REMARK   10  A    between atoms: N8_34  and  O7_36 
ROOT
HETATM    1  O7  UNL     1      16.595  -2.665   1.596  1.00  0.00    -0.158 OA
HETATM    2  C14 UNL     1      15.593  -3.512   1.150  1.00  0.00     0.253 C 
HETATM    3  N9  UNL     1      14.754  -4.197   0.778  1.00  0.00    -0.162 NA
ENDROOT
BRANCH   1   4
HETATM    4  N8  UNL     1      16.334  -1.596   2.414  1.00  0.00    -0.232 N 
ATOM      5  H8  UNL     1      15.389  -1.224   2.498  1.00  0.00     0.197 HD
BRANCH   4   6
HETATM    6  C13 UNL     1      17.306  -1.074   3.073  1.00  0.00     0.160 A 
HETATM    7  C9  UNL     1      17.001   0.053   3.845  1.00  0.00     0.107 A 
HETATM    8  C10 UNL     1      18.038   0.608   4.552  1.00  0.00     0.175 A 
HETATM    9  N5  UNL     1      19.268   0.034   4.458  1.00  0.00    -0.170 N 
HETATM   10  C12 UNL     1      19.533  -1.047   3.710  1.00  0.00     0.679 A 
ATOM     11  H5  UNL     1      20.034   0.451   4.986  1.00  0.00     0.186 HD
HETATM   12  N7  UNL     1      18.531  -1.600   3.013  1.00  0.00    -0.174 N 
ATOM     13  H7  UNL     1      18.704  -2.423   2.436  1.00  0.00     0.186 HD
BRANCH   7  14
HETATM   14  C3  UNL     1      15.649   0.541   3.877  1.00  0.00     0.142 C 
HETATM   15  N1  UNL     1      14.798   0.129   4.701  1.00  0.00    -0.286 N 
HETATM   16  C2  UNL     1      14.861  -0.829   5.703  1.00  0.00     0.365 C 
ATOM     17  H1  UNL     1      13.888   0.582   4.619  1.00  0.00     0.172 HD
HETATM   18  O2  UNL     1      15.328  -1.992   5.582  1.00  0.00    -0.238 OA
BRANCH  16  19
HETATM   19  O1  UNL     1      14.371  -0.505   6.973  1.00  0.00    -0.309 OA
HETATM   20  C1  UNL     1      13.370  -1.295   7.600  1.00  0.00     0.215 C 
ENDBRANCH  16  19
BRANCH  14  21
HETATM   21  N2  UNL     1      15.200   1.575   2.963  1.00  0.00    -0.285 N 
ATOM     22  H2  UNL     1      14.554   1.336   2.210  1.00  0.00     0.188 HD
BRANCH  21  23
HETATM   23  N3  UNL     1      15.634   2.877   3.096  1.00  0.00    -0.308 N 
HETATM   24  C4  UNL     1      14.955   3.840   3.540  1.00  0.00     0.144 C 
ATOM     25  H3  UNL     1      16.591   3.079   2.809  1.00  0.00     0.186 HD
BRANCH  24  26
HETATM   26  C5  UNL     1      13.582   3.774   3.999  1.00  0.00     0.095 A 
HETATM   27  C6  UNL     1      12.677   4.842   4.022  1.00  0.00     0.043 A 
HETATM   28  C7  UNL     1      11.509   4.325   4.529  1.00  0.00     0.065 A 
HETATM   29  C8  UNL     1      11.719   2.994   4.797  1.00  0.00     0.215 A 
HETATM   30  O5  UNL     1      12.949   2.742   4.464  1.00  0.00    -0.287 OA
BRANCH  29  31
HETATM   31  N4  UNL     1      10.743   2.112   5.334  1.00  0.00    -0.090 N 
HETATM   32  O3  UNL     1       9.553   2.221   5.071  1.00  0.00    -0.530 OA
HETATM   33  O4  UNL     1      11.164   1.114   6.168  1.00  0.00    -0.530 OA
ENDBRANCH  29  31
ENDBRANCH  24  26
ENDBRANCH  21  23
ENDBRANCH  14  21
ENDBRANCH   7  14
BRANCH   8  34
HETATM   34  O6  UNL     1      17.830   1.729   5.342  1.00  0.00    -0.340 OA
HETATM   35  C11 UNL     1      18.632   2.880   5.167  1.00  0.00     0.211 C 
ENDBRANCH   8  34
BRANCH  10  36
HETATM   36  N6  UNL     1      20.741  -1.543   3.667  1.00  0.00    -0.234 N 
ATOM     37  H62 UNL     1      21.460  -1.238   4.324  1.00  0.00     0.174 HD
ATOM     38  H61 UNL     1      20.986  -2.249   2.973  1.00  0.00     0.174 HD
ENDBRANCH  10  36
ENDBRANCH   4   6
ENDBRANCH   1   4
TORSDOF 10
ENDMDL
MODEL 5
REMARK VINA RESULT: -7.029910283      2.768      6.178
REMARK  10 active torsions:
REMARK  status: ('A' for Active; 'I' for Inactive)
REMARK    1  A    between atoms: O1_2  and  C2_3 
REMARK       I    between atoms: C2_3  and  N1_5 
REMARK    2  A    between atoms: C3_7  and  N2_8 
REMARK    3  A    between atoms: C3_7  and  C9_21 
REMARK    4  A    between atoms: N2_8  and  N3_10 
REMARK    5  A    between atoms: C4_12  and  C5_13 
REMARK    6  A    between atoms: C8_16  and  N4_17 
REMARK    7  A    between atoms: C10_22  and  O6_23 
REMARK    8  A    between atoms: C12_27  and  N6_28 
REMARK    9  A    between atoms: C13_33  and  N8_34 
REMARK   10  A    between atoms: N8_34  and  O7_36 
ROOT
HETATM    1  O7  UNL     1      15.126  -3.737   0.572  1.00  0.00    -0.158 OA
HETATM    2  C14 UNL     1      16.300  -4.203  -0.000  1.00  0.00     0.253 C 
HETATM    3  N9  UNL     1      17.277  -4.587  -0.455  1.00  0.00    -0.162 NA
ENDROOT
BRANCH   1   4
HETATM    4  N8  UNL     1      15.121  -2.745   1.518  1.00  0.00    -0.232 N 
ATOM      5  H8  UNL     1      15.104  -1.763   1.241  1.00  0.00     0.197 HD
BRANCH   4   6
HETATM    6  C13 UNL     1      15.138  -3.076   2.760  1.00  0.00     0.160 A 
HETATM    7  C9  UNL     1      15.659  -2.130   3.650  1.00  0.00     0.107 A 
HETATM    8  C10 UNL     1      15.672  -2.484   4.976  1.00  0.00     0.175 A 
HETATM    9  N5  UNL     1      15.185  -3.705   5.328  1.00  0.00    -0.170 N 
HETATM   10  C12 UNL     1      14.691  -4.592   4.453  1.00  0.00     0.679 A 
ATOM     11  H5  UNL     1      15.197  -3.960   6.314  1.00  0.00     0.186 HD
HETATM   12  N7  UNL     1      14.672  -4.263   3.153  1.00  0.00    -0.174 N 
ATOM     13  H7  UNL     1      14.302  -4.919   2.466  1.00  0.00     0.186 HD
BRANCH   7  14
HETATM   14  C3  UNL     1      16.115  -0.863   3.146  1.00  0.00     0.142 C 
HETATM   15  N1  UNL     1      17.272  -0.688   2.695  1.00  0.00    -0.286 N 
HETATM   16  C2  UNL     1      18.362  -1.538   2.575  1.00  0.00     0.365 C 
ATOM     17  H1  UNL     1      17.444   0.257   2.353  1.00  0.00     0.172 HD
HETATM   18  O2  UNL     1      18.813  -2.290   3.479  1.00  0.00    -0.238 OA
BRANCH  16  19
HETATM   19  O1  UNL     1      19.042  -1.589   1.353  1.00  0.00    -0.309 OA
HETATM   20  C1  UNL     1      19.966  -2.630   1.067  1.00  0.00     0.215 C 
ENDBRANCH  16  19
BRANCH  14  21
HETATM   21  N2  UNL     1      15.234   0.290   3.105  1.00  0.00    -0.285 N 
ATOM     22  H2  UNL     1      14.244   0.160   2.898  1.00  0.00     0.188 HD
BRANCH  21  23
HETATM   23  N3  UNL     1      15.716   1.560   3.342  1.00  0.00    -0.308 N 
HETATM   24  C4  UNL     1      15.157   2.444   4.042  1.00  0.00     0.144 C 
ATOM     25  H3  UNL     1      16.607   1.806   2.910  1.00  0.00     0.186 HD
BRANCH  24  26
HETATM   26  C5  UNL     1      13.893   2.305   4.740  1.00  0.00     0.095 A 
HETATM   27  C6  UNL     1      13.725   1.774   6.024  1.00  0.00     0.043 A 
HETATM   28  C7  UNL     1      12.375   1.837   6.275  1.00  0.00     0.065 A 
HETATM   29  C8  UNL     1      11.768   2.388   5.172  1.00  0.00     0.215 A 
HETATM   30  O5  UNL     1      12.713   2.635   4.317  1.00  0.00    -0.287 OA
BRANCH  29  31
HETATM   31  N4  UNL     1      10.371   2.618   5.047  1.00  0.00    -0.090 N 
HETATM   32  O3  UNL     1       9.652   1.900   4.364  1.00  0.00    -0.530 OA
HETATM   33  O4  UNL     1       9.828   3.678   5.718  1.00  0.00    -0.530 OA
ENDBRANCH  29  31
ENDBRANCH  24  26
ENDBRANCH  21  23
ENDBRANCH  14  21
ENDBRANCH   7  14
BRANCH   8  34
HETATM   34  O6  UNL     1      16.173  -1.611   5.931  1.00  0.00    -0.340 OA
HETATM   35  C11 UNL     1      17.370  -1.919   6.616  1.00  0.00     0.211 C 
ENDBRANCH   8  34
BRANCH  10  36
HETATM   36  N6  UNL     1      14.241  -5.748   4.864  1.00  0.00    -0.234 N 
ATOM     37  H62 UNL     1      13.641  -6.321   4.270  1.00  0.00     0.174 HD
ATOM     38  H61 UNL     1      14.484  -6.098   5.791  1.00  0.00     0.174 HD
ENDBRANCH  10  36
ENDBRANCH   4   6
ENDBRANCH   1   4
TORSDOF 10
ENDMDL
