MODEL 1
REMARK VINA RESULT: -7.583453583      0.000      0.000
REMARK  10 active torsions:
REMARK  status: ('A' for Active; 'I' for Inactive)
REMARK    1  A    between atoms: O1_2  and  C2_3 
REMARK    2  A    between atoms: C4_5  and  C5_6 
REMARK    3  A    between atoms: C5_6  and  O2_7 
REMARK    4  A    between atoms: C5_6  and  N1_9 
REMARK    5  A    between atoms: N1_9  and  N2_11 
REMARK    6  A    between atoms: N2_11  and  C6_12 
REMARK    7  A    between atoms: C10_22  and  S2_23 
REMARK    8  A    between atoms: C12_25  and  O4_26 
REMARK    9  A    between atoms: O4_26  and  C13_27 
REMARK   10  A    between atoms: C15_30  and  O6_31 
ROOT
HETATM    1  C2  UNL     1      12.861  -0.006   6.795  1.00  0.00     0.105 A 
HETATM    2  C3  UNL     1      14.083   0.065   6.186  1.00  0.00     0.057 A 
HETATM    3  C4  UNL     1      14.490   1.151   5.394  1.00  0.00     0.039 A 
HETATM    4  C10 UNL     1      13.588   2.191   5.244  1.00  0.00     0.051 A 
HETATM    5  C12 UNL     1      12.343   2.144   5.847  1.00  0.00     0.132 A 
HETATM    6  C15 UNL     1      11.986   1.072   6.607  1.00  0.00     0.135 A 
ENDROOT
BRANCH   3   7
HETATM    7  C5  UNL     1      15.737   1.099   4.734  1.00  0.00     0.177 C 
BRANCH   7   8
HETATM    8  O2  UNL     1      16.749   1.401   5.578  1.00  0.00    -0.344 OA
ATOM      9  H2  UNL     1      17.197   2.194   5.308  1.00  0.00     0.219 HD
ENDBRANCH   7   8
BRANCH   7  10
HETATM   10  N1  UNL     1      16.207   0.821   3.435  1.00  0.00    -0.210 N 
ATOM     11  H1  UNL     1      16.342   1.610   2.802  1.00  0.00     0.204 HD
BRANCH  10  12
HETATM   12  N2  UNL     1      16.483  -0.370   2.984  1.00  0.00    -0.303 NA
BRANCH  12  13
HETATM   13  C6  UNL     1      16.767  -1.460   2.547  1.00  0.00     0.233 A 
HETATM   14  N3  UNL     1      18.036  -1.907   2.642  1.00  0.00    -0.289 N 
HETATM   15  C7  UNL     1      18.506  -3.084   2.234  1.00  0.00     0.292 A 
ATOM     16  H3  UNL     1      18.710  -1.273   3.074  1.00  0.00     0.172 HD
HETATM   17  O3  UNL     1      19.749  -3.387   2.379  1.00  0.00    -0.260 OA
HETATM   18  S1  UNL     1      17.386  -4.152   1.513  1.00  0.00    -0.012 SA
HETATM   19  C8  UNL     1      15.823  -3.479   1.449  1.00  0.00     0.121 A 
HETATM   20  N4  UNL     1      14.682  -4.158   0.894  1.00  0.00    -0.092 NA
HETATM   21  C9  UNL     1      15.720  -2.227   1.972  1.00  0.00     0.138 A 
HETATM   22  N5  UNL     1      14.416  -1.613   1.953  1.00  0.00    -0.095 NA
ENDBRANCH  12  13
ENDBRANCH  10  12
ENDBRANCH   7  10
ENDBRANCH   3   7
BRANCH   4  23
HETATM   23  S2  UNL     1      13.963   3.684   4.367  1.00  0.00    -0.131 SA
HETATM   24  C11 UNL     1      14.912   4.802   5.477  1.00  0.00     0.095 C 
ENDBRANCH   4  23
BRANCH   1  25
HETATM   25  O1  UNL     1      12.435  -1.063   7.577  1.00  0.00    -0.353 OA
HETATM   26  C1  UNL     1      13.278  -1.906   8.325  1.00  0.00     0.210 C 
ENDBRANCH   1  25
BRANCH   5  27
HETATM   27  O4  UNL     1      11.425   3.207   5.670  1.00  0.00    -0.275 OA
BRANCH  27  28
HETATM   28  C13 UNL     1      10.595   3.069   4.547  1.00  0.00     0.260 C 
HETATM   29  C14 UNL     1      10.519   3.986   3.404  1.00  0.00     0.126 C 
HETATM   30  O5  UNL     1       9.828   2.042   4.523  1.00  0.00    -0.265 OA
ENDBRANCH  27  28
ENDBRANCH   5  27
BRANCH   6  31
HETATM   31  O6  UNL     1      10.735   1.054   7.198  1.00  0.00    -0.356 OA
ATOM     32  H6  UNL     1      10.334   1.867   7.480  1.00  0.00     0.218 HD
ENDBRANCH   6  31
TORSDOF 10
ENDMDL
MODEL 2
REMARK VINA RESULT: -7.354330202      3.632      5.625
REMARK  10 active torsions:
REMARK  status: ('A' for Active; 'I' for Inactive)
REMARK    1  A    between atoms: O1_2  and  C2_3 
REMARK    2  A    between atoms: C4_5  and  C5_6 
REMARK    3  A    between atoms: C5_6  and  O2_7 
REMARK    4  A    between atoms: C5_6  and  N1_9 
REMARK    5  A    between atoms: N1_9  and  N2_11 
REMARK    6  A    between atoms: N2_11  and  C6_12 
REMARK    7  A    between atoms: C10_22  and  S2_23 
REMARK    8  A    between atoms: C12_25  and  O4_26 
REMARK    9  A    between atoms: O4_26  and  C13_27 
REMARK   10  A    between atoms: C15_30  and  O6_31 
ROOT
HETATM    1  C2  UNL     1      19.983   1.086   4.650  1.00  0.00     0.105 A 
HETATM    2  C3  UNL     1      19.858   0.048   3.769  1.00  0.00     0.057 A 
HETATM    3  C4  UNL     1      18.620  -0.472   3.358  1.00  0.00     0.039 A 
HETATM    4  C10 UNL     1      17.485   0.119   3.885  1.00  0.00     0.051 A 
HETATM    5  C12 UNL     1      17.581   1.169   4.782  1.00  0.00     0.132 A 
HETATM    6  C15 UNL     1      18.802   1.645   5.157  1.00  0.00     0.135 A 
ENDROOT
BRANCH   3   7
HETATM    7  C5  UNL     1      18.589  -1.601   2.511  1.00  0.00     0.177 C 
BRANCH   7   8
HETATM    8  O2  UNL     1      19.469  -1.470   1.492  1.00  0.00    -0.344 OA
ATOM      9  H2  UNL     1      19.811  -2.315   1.223  1.00  0.00     0.219 HD
ENDBRANCH   7   8
BRANCH   7  10
HETATM   10  N1  UNL     1      17.888  -2.821   2.440  1.00  0.00    -0.210 N 
ATOM     11  H1  UNL     1      17.618  -3.263   3.319  1.00  0.00     0.204 HD
BRANCH  10  12
HETATM   12  N2  UNL     1      17.560  -3.427   1.334  1.00  0.00    -0.303 NA
BRANCH  12  13
HETATM   13  C6  UNL     1      17.227  -3.967   0.306  1.00  0.00     0.233 A 
HETATM   14  N3  UNL     1      18.146  -4.199  -0.654  1.00  0.00    -0.289 N 
HETATM   15  C7  UNL     1      17.948  -4.798  -1.826  1.00  0.00     0.292 A 
ATOM     16  H3  UNL     1      19.096  -3.881  -0.460  1.00  0.00     0.172 HD
HETATM   17  O3  UNL     1      18.914  -4.954  -2.662  1.00  0.00    -0.260 OA
HETATM   18  S1  UNL     1      16.362  -5.337  -2.158  1.00  0.00    -0.012 SA
HETATM   19  C8  UNL     1      15.296  -4.987  -0.877  1.00  0.00     0.121 A 
HETATM   20  N4  UNL     1      13.898  -5.328  -0.886  1.00  0.00    -0.092 NA
HETATM   21  C9  UNL     1      15.866  -4.351   0.181  1.00  0.00     0.138 A 
HETATM   22  N5  UNL     1      15.010  -4.039   1.298  1.00  0.00    -0.095 NA
ENDBRANCH  12  13
ENDBRANCH  10  12
ENDBRANCH   7  10
ENDBRANCH   3   7
BRANCH   4  23
HETATM   23  S2  UNL     1      15.841  -0.335   3.408  1.00  0.00    -0.131 SA
HETATM   24  C11 UNL     1      15.196  -1.574   4.604  1.00  0.00     0.095 C 
ENDBRANCH   4  23
BRANCH   1  25
HETATM   25  O1  UNL     1      21.188   1.615   5.073  1.00  0.00    -0.353 OA
HETATM   26  C1  UNL     1      22.231   2.030   4.224  1.00  0.00     0.210 C 
ENDBRANCH   1  25
BRANCH   5  27
HETATM   27  O4  UNL     1      16.412   1.752   5.327  1.00  0.00    -0.275 OA
BRANCH  27  28
HETATM   28  C13 UNL     1      16.073   2.992   4.766  1.00  0.00     0.260 C 
HETATM   29  C14 UNL     1      15.417   3.213   3.473  1.00  0.00     0.126 C 
HETATM   30  O5  UNL     1      16.370   4.033   5.455  1.00  0.00    -0.265 OA
ENDBRANCH  27  28
ENDBRANCH   5  27
BRANCH   6  31
HETATM   31  O6  UNL     1      18.867   2.696   6.054  1.00  0.00    -0.356 OA
ATOM     32  H6  UNL     1      18.067   3.103   6.364  1.00  0.00     0.218 HD
ENDBRANCH   6  31
TORSDOF 10
ENDMDL
MODEL 3
REMARK VINA RESULT: -7.353893147      1.587      2.150
REMARK  10 active torsions:
REMARK  status: ('A' for Active; 'I' for Inactive)
REMARK    1  A    between atoms: O1_2  and  C2_3 
REMARK    2  A    between atoms: C4_5  and  C5_6 
REMARK    3  A    between atoms: C5_6  and  O2_7 
REMARK    4  A    between atoms: C5_6  and  N1_9 
REMARK    5  A    between atoms: N1_9  and  N2_11 
REMARK    6  A    between atoms: N2_11  and  C6_12 
REMARK    7  A    between atoms: C10_22  and  S2_23 
REMARK    8  A    between atoms: C12_25  and  O4_26 
REMARK    9  A    between atoms: O4_26  and  C13_27 
REMARK   10  A    between atoms: C15_30  and  O6_31 
ROOT
HETATM    1  C2  UNL     1      13.276  -0.655   6.848  1.00  0.00     0.105 A 
HETATM    2  C3  UNL     1      14.498  -0.632   6.236  1.00  0.00     0.057 A 
HETATM    3  C4  UNL     1      15.004   0.491   5.561  1.00  0.00     0.039 A 
HETATM    4  C10 UNL     1      14.204   1.620   5.535  1.00  0.00     0.051 A 
HETATM    5  C12 UNL     1      12.961   1.624   6.143  1.00  0.00     0.132 A 
HETATM    6  C15 UNL     1      12.505   0.513   6.788  1.00  0.00     0.135 A 
ENDROOT
BRANCH   3   7
HETATM    7  C5  UNL     1      16.240   0.396   4.885  1.00  0.00     0.177 C 
BRANCH   7   8
HETATM    8  O2  UNL     1      17.273   0.374   5.757  1.00  0.00    -0.344 OA
ATOM      9  H2  UNL     1      18.065   0.051   5.343  1.00  0.00     0.219 HD
ENDBRANCH   7   8
BRANCH   7  10
HETATM   10  N1  UNL     1      16.684   0.321   3.550  1.00  0.00    -0.210 N 
ATOM     11  H1  UNL     1      16.989   1.186   3.103  1.00  0.00     0.204 HD
BRANCH  10  12
HETATM   12  N2  UNL     1      16.733  -0.774   2.844  1.00  0.00    -0.303 NA
BRANCH  12  13
HETATM   13  C6  UNL     1      16.769  -1.769   2.160  1.00  0.00     0.233 A 
HETATM   14  N3  UNL     1      15.657  -2.518   2.014  1.00  0.00    -0.289 N 
HETATM   15  C7  UNL     1      15.524  -3.624   1.284  1.00  0.00     0.292 A 
ATOM     16  H3  UNL     1      14.827  -2.203   2.518  1.00  0.00     0.172 HD
HETATM   17  O3  UNL     1      14.402  -4.253   1.233  1.00  0.00    -0.260 OA
HETATM   18  S1  UNL     1      16.905  -4.156   0.434  1.00  0.00    -0.012 SA
HETATM   19  C8  UNL     1      18.242  -3.133   0.697  1.00  0.00     0.121 A 
HETATM   20  N4  UNL     1      19.537  -3.342   0.105  1.00  0.00    -0.092 NA
HETATM   21  C9  UNL     1      17.998  -2.079   1.522  1.00  0.00     0.138 A 
HETATM   22  N5  UNL     1      19.093  -1.175   1.772  1.00  0.00    -0.095 NA
ENDBRANCH  12  13
ENDBRANCH  10  12
ENDBRANCH   7  10
ENDBRANCH   3   7
BRANCH   4  23
HETATM   23  S2  UNL     1      14.715   3.158   4.820  1.00  0.00    -0.131 SA
HETATM   24  C11 UNL     1      14.473   3.076   2.999  1.00  0.00     0.095 C 
ENDBRANCH   4  23
BRANCH   1  25
HETATM   25  O1  UNL     1      12.755  -1.747   7.516  1.00  0.00    -0.353 OA
HETATM   26  C1  UNL     1      13.077  -2.118   8.834  1.00  0.00     0.210 C 
ENDBRANCH   1  25
BRANCH   5  27
HETATM   27  O4  UNL     1      12.145   2.780   6.093  1.00  0.00    -0.275 OA
BRANCH  27  28
HETATM   28  C13 UNL     1      11.223   2.788   5.036  1.00  0.00     0.260 C 
HETATM   29  C14 UNL     1      11.066   3.839   4.025  1.00  0.00     0.126 C 
HETATM   30  O5  UNL     1      10.440   1.776   4.951  1.00  0.00    -0.265 OA
ENDBRANCH  27  28
ENDBRANCH   5  27
BRANCH   6  31
HETATM   31  O6  UNL     1      11.259   0.548   7.387  1.00  0.00    -0.356 OA
ATOM     32  H6  UNL     1      11.068   1.209   8.042  1.00  0.00     0.218 HD
ENDBRANCH   6  31
TORSDOF 10
ENDMDL
MODEL 4
REMARK VINA RESULT: -7.345901612      2.739      4.889
REMARK  10 active torsions:
REMARK  status: ('A' for Active; 'I' for Inactive)
REMARK    1  A    between atoms: O1_2  and  C2_3 
REMARK    2  A    between atoms: C4_5  and  C5_6 
REMARK    3  A    between atoms: C5_6  and  O2_7 
REMARK    4  A    between atoms: C5_6  and  N1_9 
REMARK    5  A    between atoms: N1_9  and  N2_11 
REMARK    6  A    between atoms: N2_11  and  C6_12 
REMARK    7  A    between atoms: C10_22  and  S2_23 
REMARK    8  A    between atoms: C12_25  and  O4_26 
REMARK    9  A    between atoms: O4_26  and  C13_27 
REMARK   10  A    between atoms: C15_30  and  O6_31 
ROOT
HETATM    1  C2  UNL     1      17.373   2.130   5.101  1.00  0.00     0.105 A 
HETATM    2  C3  UNL     1      18.084   1.132   4.493  1.00  0.00     0.057 A 
HETATM    3  C4  UNL     1      17.501  -0.050   4.010  1.00  0.00     0.039 A 
HETATM    4  C10 UNL     1      16.132  -0.183   4.166  1.00  0.00     0.051 A 
HETATM    5  C12 UNL     1      15.387   0.809   4.780  1.00  0.00     0.132 A 
HETATM    6  C15 UNL     1      15.991   1.942   5.237  1.00  0.00     0.135 A 
ENDROOT
BRANCH   3   7
HETATM    7  C5  UNL     1      18.326  -1.061   3.473  1.00  0.00     0.177 C 
BRANCH   7   8
HETATM    8  O2  UNL     1      18.666  -1.967   4.419  1.00  0.00    -0.344 OA
ATOM      9  H2  UNL     1      18.942  -2.786   4.026  1.00  0.00     0.219 HD
ENDBRANCH   7   8
BRANCH   7  10
HETATM   10  N1  UNL     1      18.892  -1.378   2.222  1.00  0.00    -0.210 N 
ATOM     11  H1  UNL     1      19.748  -0.894   1.954  1.00  0.00     0.204 HD
BRANCH  10  12
HETATM   12  N2  UNL     1      18.400  -2.246   1.383  1.00  0.00    -0.303 NA
BRANCH  12  13
HETATM   13  C6  UNL     1      17.933  -3.070   0.633  1.00  0.00     0.233 A 
HETATM   14  N3  UNL     1      16.632  -3.411   0.744  1.00  0.00    -0.289 N 
HETATM   15  C7  UNL     1      15.963  -4.279  -0.011  1.00  0.00     0.292 A 
ATOM     16  H3  UNL     1      16.104  -2.954   1.489  1.00  0.00     0.172 HD
HETATM   17  O3  UNL     1      14.717  -4.522   0.204  1.00  0.00    -0.260 OA
HETATM   18  S1  UNL     1      16.836  -5.046  -1.262  1.00  0.00    -0.012 SA
HETATM   19  C8  UNL     1      18.461  -4.536  -1.301  1.00  0.00     0.121 A 
HETATM   20  N4  UNL     1      19.427  -5.018  -2.252  1.00  0.00    -0.092 NA
HETATM   21  C9  UNL     1      18.793  -3.619  -0.353  1.00  0.00     0.138 A 
HETATM   22  N5  UNL     1      20.155  -3.146  -0.346  1.00  0.00    -0.095 NA
ENDBRANCH  12  13
ENDBRANCH  10  12
ENDBRANCH   7  10
ENDBRANCH   3   7
BRANCH   4  23
HETATM   23  S2  UNL     1      15.209  -1.555   3.530  1.00  0.00    -0.131 SA
HETATM   24  C11 UNL     1      15.245  -2.917   4.765  1.00  0.00     0.095 C 
ENDBRANCH   4  23
BRANCH   1  25
HETATM   25  O1  UNL     1      17.923   3.300   5.588  1.00  0.00    -0.353 OA
HETATM   26  C1  UNL     1      18.088   4.485   4.847  1.00  0.00     0.210 C 
ENDBRANCH   1  25
BRANCH   5  27
HETATM   27  O4  UNL     1      13.990   0.651   4.949  1.00  0.00    -0.275 OA
BRANCH  27  28
HETATM   28  C13 UNL     1      13.586   0.498   6.283  1.00  0.00     0.260 C 
HETATM   29  C14 UNL     1      14.099  -0.489   7.240  1.00  0.00     0.126 C 
HETATM   30  O5  UNL     1      12.677   1.299   6.703  1.00  0.00    -0.265 OA
ENDBRANCH  27  28
ENDBRANCH   5  27
BRANCH   6  31
HETATM   31  O6  UNL     1      15.220   2.916   5.846  1.00  0.00    -0.356 OA
ATOM     32  H6  UNL     1      15.124   3.767   5.435  1.00  0.00     0.218 HD
ENDBRANCH   6  31
TORSDOF 10
ENDMDL
MODEL 5
REMARK VINA RESULT: -7.256729916      3.652      5.891
REMARK  10 active torsions:
REMARK  status: ('A' for Active; 'I' for Inactive)
REMARK    1  A    between atoms: O1_2  and  C2_3 
REMARK    2  A    between atoms: C4_5  and  C5_6 
REMARK    3  A    between atoms: C5_6  and  O2_7 
REMARK    4  A    between atoms: C5_6  and  N1_9 
REMARK    5  A    between atoms: N1_9  and  N2_11 
REMARK    6  A    between atoms: N2_11  and  C6_12 
REMARK    7  A    between atoms: C10_22  and  S2_23 
REMARK    8  A    between atoms: C12_25  and  O4_26 
REMARK    9  A    between atoms: O4_26  and  C13_27 
REMARK   10  A    between atoms: C15_30  and  O6_31 
ROOT
HETATM    1  C2  UNL     1      19.963   1.141   4.685  1.00  0.00     0.105 A 
HETATM    2  C3  UNL     1      19.836   0.099   3.809  1.00  0.00     0.057 A 
HETATM    3  C4  UNL     1      18.598  -0.416   3.393  1.00  0.00     0.039 A 
HETATM    4  C10 UNL     1      17.463   0.185   3.910  1.00  0.00     0.051 A 
HETATM    5  C12 UNL     1      17.561   1.239   4.801  1.00  0.00     0.132 A 
HETATM    6  C15 UNL     1      18.782   1.710   5.180  1.00  0.00     0.135 A 
ENDROOT
BRANCH   3   7
HETATM    7  C5  UNL     1      18.565  -1.550   2.552  1.00  0.00     0.177 C 
BRANCH   7   8
HETATM    8  O2  UNL     1      19.389  -1.394   1.491  1.00  0.00    -0.344 OA
ATOM      9  H2  UNL     1      19.474  -2.203   1.001  1.00  0.00     0.219 HD
ENDBRANCH   7   8
BRANCH   7  10
HETATM   10  N1  UNL     1      17.904  -2.794   2.521  1.00  0.00    -0.210 N 
ATOM     11  H1  UNL     1      17.717  -3.253   3.412  1.00  0.00     0.204 HD
BRANCH  10  12
HETATM   12  N2  UNL     1      17.515  -3.401   1.434  1.00  0.00    -0.303 NA
BRANCH  12  13
HETATM   13  C6  UNL     1      17.189  -3.972   0.421  1.00  0.00     0.233 A 
HETATM   14  N3  UNL     1      15.902  -4.332   0.244  1.00  0.00    -0.289 N 
HETATM   15  C7  UNL     1      15.378  -4.944  -0.817  1.00  0.00     0.292 A 
ATOM     16  H3  UNL     1      15.258  -4.111   1.005  1.00  0.00     0.172 HD
HETATM   17  O3  UNL     1      14.126  -5.239  -0.860  1.00  0.00    -0.260 OA
HETATM   18  S1  UNL     1      16.445  -5.315  -2.097  1.00  0.00    -0.012 SA
HETATM   19  C8  UNL     1      18.037  -4.815  -1.756  1.00  0.00     0.121 A 
HETATM   20  N4  UNL     1      19.143  -5.001  -2.658  1.00  0.00    -0.092 NA
HETATM   21  C9  UNL     1      18.199  -4.212  -0.547  1.00  0.00     0.138 A 
HETATM   22  N5  UNL     1      19.526  -3.760  -0.211  1.00  0.00    -0.095 NA
ENDBRANCH  12  13
ENDBRANCH  10  12
ENDBRANCH   7  10
ENDBRANCH   3   7
BRANCH   4  23
HETATM   23  S2  UNL     1      15.819  -0.262   3.426  1.00  0.00    -0.131 SA
HETATM   24  C11 UNL     1      15.190  -1.551   4.577  1.00  0.00     0.095 C 
ENDBRANCH   4  23
BRANCH   1  25
HETATM   25  O1  UNL     1      21.169   1.665   5.111  1.00  0.00    -0.353 OA
HETATM   26  C1  UNL     1      22.301   1.853   4.298  1.00  0.00     0.210 C 
ENDBRANCH   1  25
BRANCH   5  27
HETATM   27  O4  UNL     1      16.392   1.833   5.336  1.00  0.00    -0.275 OA
BRANCH  27  28
HETATM   28  C13 UNL     1      16.054   3.063   4.753  1.00  0.00     0.260 C 
HETATM   29  C14 UNL     1      15.271   3.260   3.528  1.00  0.00     0.126 C 
HETATM   30  O5  UNL     1      16.474   4.116   5.353  1.00  0.00    -0.265 OA
ENDBRANCH  27  28
ENDBRANCH   5  27
BRANCH   6  31
HETATM   31  O6  UNL     1      18.848   2.766   6.072  1.00  0.00    -0.356 OA
ATOM     32  H6  UNL     1      18.050   3.189   6.363  1.00  0.00     0.218 HD
ENDBRANCH   6  31
TORSDOF 10
ENDMDL
