MODEL 1
REMARK VINA RESULT: -6.140863831      0.000      0.000
REMARK  6 active torsions:
REMARK  status: ('A' for Active; 'I' for Inactive)
REMARK    1  A    between atoms: C2_7  and  C3_8 
REMARK    2  A    between atoms: C3_8  and  S1_9 
REMARK    3  A    between atoms: S1_9  and  C4_10 
REMARK    4  A    between atoms: C4_10  and  C5_11 
REMARK    5  A    between atoms: C5_11  and  N3_12 
REMARK    6  A    between atoms: N3_12  and  C6_14 
ROOT
HETATM    1  C3  UNL     1      -8.965  15.677 -38.011  1.00  0.00     0.101 C 
ENDROOT
BRANCH   1   2
HETATM    2  C2  UNL     1      -8.280  16.961 -38.057  1.00  0.00     0.118 C 
HETATM    3  N2  UNL     1      -6.954  17.164 -38.500  1.00  0.00    -0.349 N 
HETATM    4  C1  UNL     1      -6.758  18.594 -38.192  1.00  0.00     0.213 C 
ATOM      5  H2  UNL     1      -6.305  16.499 -38.921  1.00  0.00     0.163 HD
HETATM    6  N1  UNL     1      -5.939  19.331 -38.864  1.00  0.00    -0.365 N 
HETATM    7  O1  UNL     1      -7.586  18.890 -37.122  1.00  0.00    -0.320 OA
ATOM      8  H12 UNL     1      -5.330  19.113 -39.652  1.00  0.00     0.159 HD
ATOM      9  H11 UNL     1      -5.804  20.319 -38.651  1.00  0.00     0.159 HD
HETATM   10  C11 UNL     1      -8.191  17.658 -36.682  1.00  0.00     0.204 C 
ENDBRANCH   1   2
BRANCH   1  11
HETATM   11  S1  UNL     1     -10.470  15.621 -37.140  1.00  0.00    -0.162 SA
BRANCH  11  12
HETATM   12  C4  UNL     1     -10.580  15.122 -35.457  1.00  0.00     0.118 C 
BRANCH  12  13
HETATM   13  C5  UNL     1      -9.348  14.741 -34.738  1.00  0.00     0.066 C 
BRANCH  13  14
HETATM   14  N3  UNL     1      -8.697  13.548 -35.048  1.00  0.00    -0.397 N 
ATOM     15  H3  UNL     1      -9.238  12.757 -35.396  1.00  0.00     0.159 HD
BRANCH  14  16
HETATM   16  C6  UNL     1      -7.324  13.418 -34.890  1.00  0.00     0.080 C 
HETATM   17  C7  UNL     1      -6.683  12.165 -35.374  1.00  0.00     0.025 C 
HETATM   18  C8  UNL     1      -6.381  12.533 -36.846  1.00  0.00     0.002 C 
HETATM   19  C9  UNL     1      -5.855  13.925 -36.739  1.00  0.00     0.002 C 
HETATM   20  C10 UNL     1      -6.509  14.518 -35.535  1.00  0.00     0.025 C 
ENDBRANCH  14  16
ENDBRANCH  13  14
ENDBRANCH  12  13
ENDBRANCH  11  12
ENDBRANCH   1  11
TORSDOF 6
ENDMDL
MODEL 2
REMARK VINA RESULT: -5.995474910      2.315      5.118
REMARK  6 active torsions:
REMARK  status: ('A' for Active; 'I' for Inactive)
REMARK    1  A    between atoms: C2_7  and  C3_8 
REMARK    2  A    between atoms: C3_8  and  S1_9 
REMARK    3  A    between atoms: S1_9  and  C4_10 
REMARK    4  A    between atoms: C4_10  and  C5_11 
REMARK    5  A    between atoms: C5_11  and  N3_12 
REMARK    6  A    between atoms: N3_12  and  C6_14 
ROOT
HETATM    1  C3  UNL     1      -7.920  13.781 -34.685  1.00  0.00     0.101 C 
ENDROOT
BRANCH   1   2
HETATM    2  C2  UNL     1      -9.253  14.235 -35.053  1.00  0.00     0.118 C 
HETATM    3  N2  UNL     1      -9.751  14.321 -36.371  1.00  0.00    -0.349 N 
HETATM    4  C1  UNL     1     -11.061  14.963 -36.148  1.00  0.00     0.213 C 
ATOM      5  H2  UNL     1      -9.321  14.020 -37.246  1.00  0.00     0.163 HD
HETATM    6  N1  UNL     1     -12.058  14.777 -36.946  1.00  0.00    -0.365 N 
HETATM    7  O1  UNL     1     -10.943  15.724 -34.997  1.00  0.00    -0.320 OA
ATOM      8  H12 UNL     1     -12.145  14.216 -37.794  1.00  0.00     0.159 HD
ATOM      9  H11 UNL     1     -12.963  15.221 -36.791  1.00  0.00     0.159 HD
HETATM   10  C11 UNL     1      -9.566  15.669 -34.575  1.00  0.00     0.204 C 
ENDBRANCH   1   2
BRANCH   1  11
HETATM   11  S1  UNL     1      -7.031  12.894 -35.889  1.00  0.00    -0.162 SA
BRANCH  11  12
HETATM   12  C4  UNL     1      -5.967  13.670 -37.054  1.00  0.00     0.118 C 
BRANCH  12  13
HETATM   13  C5  UNL     1      -6.418  14.903 -37.730  1.00  0.00     0.066 C 
BRANCH  13  14
HETATM   14  N3  UNL     1      -6.705  16.045 -36.985  1.00  0.00    -0.397 N 
ATOM     15  H3  UNL     1      -6.310  16.146 -36.049  1.00  0.00     0.159 HD
BRANCH  14  16
HETATM   16  C6  UNL     1      -7.519  17.048 -37.493  1.00  0.00     0.080 C 
HETATM   17  C7  UNL     1      -7.795  18.226 -36.626  1.00  0.00     0.025 C 
HETATM   18  C8  UNL     1      -6.604  19.146 -36.982  1.00  0.00     0.002 C 
HETATM   19  C9  UNL     1      -6.519  19.019 -38.467  1.00  0.00     0.002 C 
HETATM   20  C10 UNL     1      -7.033  17.656 -38.791  1.00  0.00     0.025 C 
ENDBRANCH  14  16
ENDBRANCH  13  14
ENDBRANCH  12  13
ENDBRANCH  11  12
ENDBRANCH   1  11
TORSDOF 6
ENDMDL
MODEL 3
REMARK VINA RESULT: -5.977088110      1.143      1.261
REMARK  6 active torsions:
REMARK  status: ('A' for Active; 'I' for Inactive)
REMARK    1  A    between atoms: C2_7  and  C3_8 
REMARK    2  A    between atoms: C3_8  and  S1_9 
REMARK    3  A    between atoms: S1_9  and  C4_10 
REMARK    4  A    between atoms: C4_10  and  C5_11 
REMARK    5  A    between atoms: C5_11  and  N3_12 
REMARK    6  A    between atoms: N3_12  and  C6_14 
ROOT
HETATM    1  C3  UNL     1      -9.871  15.518 -37.768  1.00  0.00     0.101 C 
ENDROOT
BRANCH   1   2
HETATM    2  C2  UNL     1      -8.757  16.425 -37.534  1.00  0.00     0.118 C 
HETATM    3  N2  UNL     1      -8.859  17.828 -37.410  1.00  0.00    -0.349 N 
HETATM    4  C1  UNL     1      -7.438  18.218 -37.333  1.00  0.00     0.213 C 
ATOM      5  H2  UNL     1      -9.692  18.415 -37.382  1.00  0.00     0.163 HD
HETATM    6  N1  UNL     1      -7.055  19.284 -36.715  1.00  0.00    -0.365 N 
HETATM    7  O1  UNL     1      -6.720  17.254 -38.020  1.00  0.00    -0.320 OA
ATOM      8  H12 UNL     1      -7.584  19.995 -36.209  1.00  0.00     0.159 HD
ATOM      9  H11 UNL     1      -6.072  19.554 -36.662  1.00  0.00     0.159 HD
HETATM   10  C11 UNL     1      -7.666  16.349 -38.623  1.00  0.00     0.204 C 
ENDBRANCH   1   2
BRANCH   1  11
HETATM   11  S1  UNL     1     -11.094  15.440 -36.532  1.00  0.00    -0.162 SA
BRANCH  11  12
HETATM   12  C4  UNL     1     -10.751  14.941 -34.881  1.00  0.00     0.118 C 
BRANCH  12  13
HETATM   13  C5  UNL     1      -9.357  14.647 -34.494  1.00  0.00     0.066 C 
BRANCH  13  14
HETATM   14  N3  UNL     1      -8.677  13.581 -35.079  1.00  0.00    -0.397 N 
ATOM     15  H3  UNL     1      -9.188  12.924 -35.669  1.00  0.00     0.159 HD
BRANCH  14  16
HETATM   16  C6  UNL     1      -7.317  13.398 -34.874  1.00  0.00     0.080 C 
HETATM   17  C7  UNL     1      -6.704  12.134 -35.364  1.00  0.00     0.025 C 
HETATM   18  C8  UNL     1      -6.333  12.523 -36.815  1.00  0.00     0.002 C 
HETATM   19  C9  UNL     1      -5.763  13.892 -36.656  1.00  0.00     0.002 C 
HETATM   20  C10 UNL     1      -6.440  14.482 -35.463  1.00  0.00     0.025 C 
ENDBRANCH  14  16
ENDBRANCH  13  14
ENDBRANCH  12  13
ENDBRANCH  11  12
ENDBRANCH   1  11
TORSDOF 6
ENDMDL
MODEL 4
REMARK VINA RESULT: -5.941994038      0.735      1.084
REMARK  6 active torsions:
REMARK  status: ('A' for Active; 'I' for Inactive)
REMARK    1  A    between atoms: C2_7  and  C3_8 
REMARK    2  A    between atoms: C3_8  and  S1_9 
REMARK    3  A    between atoms: S1_9  and  C4_10 
REMARK    4  A    between atoms: C4_10  and  C5_11 
REMARK    5  A    between atoms: C5_11  and  N3_12 
REMARK    6  A    between atoms: N3_12  and  C6_14 
ROOT
HETATM    1  C3  UNL     1      -9.317  15.819 -38.117  1.00  0.00     0.101 C 
ENDROOT
BRANCH   1   2
HETATM    2  C2  UNL     1      -8.518  17.035 -38.098  1.00  0.00     0.118 C 
HETATM    3  N2  UNL     1      -7.249  17.187 -38.699  1.00  0.00    -0.349 N 
HETATM    4  C1  UNL     1      -6.869  18.539 -38.243  1.00  0.00     0.213 C 
ATOM      5  H2  UNL     1      -6.732  16.537 -39.291  1.00  0.00     0.163 HD
HETATM    6  N1  UNL     1      -6.076  19.292 -38.926  1.00  0.00    -0.365 N 
HETATM    7  O1  UNL     1      -7.514  18.749 -37.035  1.00  0.00    -0.320 OA
ATOM      8  H12 UNL     1      -5.601  19.137 -39.816  1.00  0.00     0.159 HD
ATOM      9  H11 UNL     1      -5.813  20.226 -38.610  1.00  0.00     0.159 HD
HETATM   10  C11 UNL     1      -8.178  17.522 -36.673  1.00  0.00     0.204 C 
ENDBRANCH   1   2
BRANCH   1  11
HETATM   11  S1  UNL     1     -10.821  15.853 -37.244  1.00  0.00    -0.162 SA
BRANCH  11  12
HETATM   12  C4  UNL     1     -11.060  15.006 -35.721  1.00  0.00     0.118 C 
BRANCH  12  13
HETATM   13  C5  UNL     1      -9.935  14.906 -34.770  1.00  0.00     0.066 C 
BRANCH  13  14
HETATM   14  N3  UNL     1      -9.091  13.798 -34.797  1.00  0.00    -0.397 N 
ATOM     15  H3  UNL     1      -9.458  12.882 -34.536  1.00  0.00     0.159 HD
BRANCH  14  16
HETATM   16  C6  UNL     1      -7.761  13.917 -35.173  1.00  0.00     0.080 C 
HETATM   17  C7  UNL     1      -6.722  13.469 -34.206  1.00  0.00     0.025 C 
HETATM   18  C8  UNL     1      -6.591  11.973 -34.576  1.00  0.00     0.002 C 
HETATM   19  C9  UNL     1      -6.596  11.999 -36.068  1.00  0.00     0.002 C 
HETATM   20  C10 UNL     1      -7.401  13.196 -36.454  1.00  0.00     0.025 C 
ENDBRANCH  14  16
ENDBRANCH  13  14
ENDBRANCH  12  13
ENDBRANCH  11  12
ENDBRANCH   1  11
TORSDOF 6
ENDMDL
MODEL 5
REMARK VINA RESULT: -5.931785371      3.465      6.843
REMARK  6 active torsions:
REMARK  status: ('A' for Active; 'I' for Inactive)
REMARK    1  A    between atoms: C2_7  and  C3_8 
REMARK    2  A    between atoms: C3_8  and  S1_9 
REMARK    3  A    between atoms: S1_9  and  C4_10 
REMARK    4  A    between atoms: C4_10  and  C5_11 
REMARK    5  A    between atoms: C5_11  and  N3_12 
REMARK    6  A    between atoms: N3_12  and  C6_14 
ROOT
HETATM    1  C3  UNL     1      -5.226  13.601 -34.009  1.00  0.00     0.101 C 
ENDROOT
BRANCH   1   2
HETATM    2  C2  UNL     1      -5.514  12.223 -33.639  1.00  0.00     0.118 C 
HETATM    3  N2  UNL     1      -6.665  11.499 -34.019  1.00  0.00    -0.349 N 
HETATM    4  C1  UNL     1      -6.490  10.249 -33.255  1.00  0.00     0.213 C 
ATOM      5  H2  UNL     1      -7.418  11.768 -34.653  1.00  0.00     0.163 HD
HETATM    6  N1  UNL     1      -6.981   9.126 -33.659  1.00  0.00    -0.365 N 
HETATM    7  O1  UNL     1      -5.750  10.568 -32.129  1.00  0.00    -0.320 OA
ATOM      8  H12 UNL     1      -7.526   8.891 -34.489  1.00  0.00     0.159 HD
ATOM      9  H11 UNL     1      -6.860   8.262 -33.131  1.00  0.00     0.159 HD
HETATM   10  C11 UNL     1      -5.572  11.998 -32.113  1.00  0.00     0.204 C 
ENDBRANCH   1   2
BRANCH   1  11
HETATM   11  S1  UNL     1      -6.318  14.357 -35.134  1.00  0.00    -0.162 SA
BRANCH  11  12
HETATM   12  C4  UNL     1      -6.114  14.252 -36.878  1.00  0.00     0.118 C 
BRANCH  12  13
HETATM   13  C5  UNL     1      -7.069  14.957 -37.756  1.00  0.00     0.066 C 
BRANCH  13  14
HETATM   14  N3  UNL     1      -6.655  16.060 -38.499  1.00  0.00    -0.397 N 
ATOM     15  H3  UNL     1      -5.772  16.018 -39.009  1.00  0.00     0.159 HD
BRANCH  14  16
HETATM   16  C6  UNL     1      -7.421  17.215 -38.558  1.00  0.00     0.080 C 
HETATM   17  C7  UNL     1      -8.543  17.355 -37.589  1.00  0.00     0.025 C 
HETATM   18  C8  UNL     1      -7.822  18.011 -36.388  1.00  0.00     0.002 C 
HETATM   19  C9  UNL     1      -6.956  19.036 -37.040  1.00  0.00     0.002 C 
HETATM   20  C10 UNL     1      -6.638  18.500 -38.397  1.00  0.00     0.025 C 
ENDBRANCH  14  16
ENDBRANCH  13  14
ENDBRANCH  12  13
ENDBRANCH  11  12
ENDBRANCH   1  11
TORSDOF 6
ENDMDL
