MODEL 1
REMARK VINA RESULT: -6.455879727      0.000      0.000
REMARK  8 active torsions:
REMARK  status: ('A' for Active; 'I' for Inactive)
REMARK    1  A    between atoms: N1_1  and  C1_5 
REMARK    2  A    between atoms: C1_5  and  C2_6 
REMARK    3  A    between atoms: C2_6  and  C3_7 
REMARK    4  A    between atoms: C3_7  and  C4_8 
REMARK    5  A    between atoms: C4_8  and  C5_9 
REMARK    6  A    between atoms: C5_9  and  C6_10 
REMARK    7  A    between atoms: C6_10  and  N2_11 
REMARK    8  A    between atoms: N2_11  and  C7_13 
ROOT
HETATM    1  C7  UNL     1      -8.337  13.887 -36.204  1.00  0.00     0.131 A 
HETATM    2  N3  UNL     1      -9.050  13.864 -35.069  1.00  0.00    -0.337 N 
ATOM      3  H3  UNL     1      -9.253  12.964 -34.635  1.00  0.00     0.168 HD
HETATM    4  C8  UNL     1      -9.503  14.979 -34.487  1.00  0.00     0.182 A 
HETATM    5  N4  UNL     1      -9.234  16.168 -35.059  1.00  0.00    -0.354 N 
ATOM      6  H4  UNL     1      -9.577  17.024 -34.620  1.00  0.00     0.166 HD
HETATM    7  C9  UNL     1      -8.521  16.250 -36.200  1.00  0.00     0.040 A 
HETATM    8  C10 UNL     1      -8.062  15.092 -36.788  1.00  0.00     0.095 A 
HETATM    9  N5  UNL     1      -7.322  15.158 -37.970  1.00  0.00    -0.385 N 
ATOM     10  H5  UNL     1      -7.009  14.295 -38.416  1.00  0.00     0.159 HD
HETATM   11  C11 UNL     1      -6.986  16.453 -38.584  1.00  0.00     0.120 C 
HETATM   12  C12 UNL     1      -8.115  17.400 -38.279  1.00  0.00     0.026 C 
HETATM   13  C13 UNL     1      -8.257  17.579 -36.782  1.00  0.00     0.061 C 
ENDROOT
BRANCH   1  14
HETATM   14  N2  UNL     1      -7.924  12.799 -36.729  1.00  0.00    -0.374 N 
ATOM     15  H2  UNL     1      -8.364  12.437 -37.574  1.00  0.00     0.161 HD
BRANCH  14  16
HETATM   16  C6  UNL     1      -6.818  12.076 -36.111  1.00  0.00     0.121 C 
BRANCH  16  17
HETATM   17  C5  UNL     1      -5.917  13.004 -35.343  1.00  0.00     0.020 C 
BRANCH  17  18
HETATM   18  C4  UNL     1      -5.692  12.462 -33.963  1.00  0.00     0.002 C 
BRANCH  18  19
HETATM   19  C3  UNL     1      -6.372  11.150 -33.796  1.00  0.00     0.002 C 
BRANCH  19  20
HETATM   20  C2  UNL     1      -5.980  10.649 -32.385  1.00  0.00     0.027 C 
BRANCH  20  21
HETATM   21  C1  UNL     1      -6.409   9.206 -32.333  1.00  0.00     0.229 C 
BRANCH  21  22
HETATM   22  N1  UNL     1      -7.421   8.941 -33.326  1.00  0.00    -0.079 N 
ATOM     23  H13 UNL     1      -8.361   9.066 -32.952  1.00  0.00     0.274 HD
ATOM     24  H12 UNL     1      -7.446   9.665 -34.044  1.00  0.00     0.274 HD
ATOM     25  H11 UNL     1      -7.295   8.013 -33.728  1.00  0.00     0.274 HD
ENDBRANCH  21  22
ENDBRANCH  20  21
ENDBRANCH  19  20
ENDBRANCH  18  19
ENDBRANCH  17  18
ENDBRANCH  16  17
ENDBRANCH  14  16
ENDBRANCH   1  14
TORSDOF 8
ENDMDL
MODEL 2
REMARK VINA RESULT: -6.374186624      1.713      3.023
REMARK  8 active torsions:
REMARK  status: ('A' for Active; 'I' for Inactive)
REMARK    1  A    between atoms: N1_1  and  C1_5 
REMARK    2  A    between atoms: C1_5  and  C2_6 
REMARK    3  A    between atoms: C2_6  and  C3_7 
REMARK    4  A    between atoms: C3_7  and  C4_8 
REMARK    5  A    between atoms: C4_8  and  C5_9 
REMARK    6  A    between atoms: C5_9  and  C6_10 
REMARK    7  A    between atoms: C6_10  and  N2_11 
REMARK    8  A    between atoms: N2_11  and  C7_13 
ROOT
HETATM    1  C7  UNL     1      -6.892  13.266 -35.750  1.00  0.00     0.131 A 
HETATM    2  N3  UNL     1      -5.673  13.291 -36.305  1.00  0.00    -0.337 N 
ATOM      3  H3  UNL     1      -4.940  12.701 -35.910  1.00  0.00     0.168 HD
HETATM    4  C8  UNL     1      -5.383  14.061 -37.359  1.00  0.00     0.182 A 
HETATM    5  N4  UNL     1      -6.349  14.839 -37.883  1.00  0.00    -0.354 N 
ATOM      6  H4  UNL     1      -6.136  15.430 -38.686  1.00  0.00     0.166 HD
HETATM    7  C9  UNL     1      -7.593  14.853 -37.364  1.00  0.00     0.040 A 
HETATM    8  C10 UNL     1      -7.876  14.054 -36.278  1.00  0.00     0.095 A 
HETATM    9  N5  UNL     1      -9.160  14.055 -35.728  1.00  0.00    -0.385 N 
ATOM     10  H5  UNL     1      -9.355  13.483 -34.907  1.00  0.00     0.159 HD
HETATM   11  C11 UNL     1     -10.236  14.870 -36.316  1.00  0.00     0.120 C 
HETATM   12  C12 UNL     1      -9.600  16.104 -36.894  1.00  0.00     0.026 C 
HETATM   13  C13 UNL     1      -8.613  15.725 -37.978  1.00  0.00     0.061 C 
ENDROOT
BRANCH   1  14
HETATM   14  N2  UNL     1      -7.128  12.516 -34.743  1.00  0.00    -0.374 N 
ATOM     15  H2  UNL     1      -8.073  12.177 -34.565  1.00  0.00     0.161 HD
BRANCH  14  16
HETATM   16  C6  UNL     1      -6.036  12.149 -33.848  1.00  0.00     0.121 C 
BRANCH  16  17
HETATM   17  C5  UNL     1      -6.306  10.837 -33.163  1.00  0.00     0.020 C 
BRANCH  17  18
HETATM   18  C4  UNL     1      -6.657   9.796 -34.185  1.00  0.00     0.002 C 
BRANCH  18  19
HETATM   19  C3  UNL     1      -6.705   8.446 -33.563  1.00  0.00     0.002 C 
BRANCH  19  20
HETATM   20  C2  UNL     1      -5.983   8.584 -32.201  1.00  0.00     0.027 C 
BRANCH  20  21
HETATM   21  C1  UNL     1      -5.232   7.293 -32.006  1.00  0.00     0.229 C 
BRANCH  21  22
HETATM   22  N1  UNL     1      -5.558   6.703 -30.731  1.00  0.00    -0.079 N 
ATOM     23  H13 UNL     1      -5.457   7.371 -29.967  1.00  0.00     0.274 HD
ATOM     24  H12 UNL     1      -6.558   6.521 -30.642  1.00  0.00     0.274 HD
ATOM     25  H11 UNL     1      -5.005   5.861 -30.573  1.00  0.00     0.274 HD
ENDBRANCH  21  22
ENDBRANCH  20  21
ENDBRANCH  19  20
ENDBRANCH  18  19
ENDBRANCH  17  18
ENDBRANCH  16  17
ENDBRANCH  14  16
ENDBRANCH   1  14
TORSDOF 8
ENDMDL
MODEL 3
REMARK VINA RESULT: -6.352040219      1.530      2.344
REMARK  8 active torsions:
REMARK  status: ('A' for Active; 'I' for Inactive)
REMARK    1  A    between atoms: N1_1  and  C1_5 
REMARK    2  A    between atoms: C1_5  and  C2_6 
REMARK    3  A    between atoms: C2_6  and  C3_7 
REMARK    4  A    between atoms: C3_7  and  C4_8 
REMARK    5  A    between atoms: C4_8  and  C5_9 
REMARK    6  A    between atoms: C5_9  and  C6_10 
REMARK    7  A    between atoms: C6_10  and  N2_11 
REMARK    8  A    between atoms: N2_11  and  C7_13 
ROOT
HETATM    1  C7  UNL     1      -8.405  13.877 -36.239  1.00  0.00     0.131 A 
HETATM    2  N3  UNL     1      -9.142  13.879 -35.120  1.00  0.00    -0.337 N 
ATOM      3  H3  UNL     1      -9.347  12.990 -34.665  1.00  0.00     0.168 HD
HETATM    4  C8  UNL     1      -9.618  15.006 -34.579  1.00  0.00     0.182 A 
HETATM    5  N4  UNL     1      -9.347  16.181 -35.179  1.00  0.00    -0.354 N 
ATOM      6  H4  UNL     1      -9.706  17.045 -34.773  1.00  0.00     0.166 HD
HETATM    7  C9  UNL     1      -8.610  16.237 -36.306  1.00  0.00     0.040 A 
HETATM    8  C10 UNL     1      -8.128  15.067 -36.852  1.00  0.00     0.095 A 
HETATM    9  N5  UNL     1      -7.363  15.106 -38.019  1.00  0.00    -0.385 N 
ATOM     10  H5  UNL     1      -7.033  14.234 -38.433  1.00  0.00     0.159 HD
HETATM   11  C11 UNL     1      -7.025  16.387 -38.662  1.00  0.00     0.120 C 
HETATM   12  C12 UNL     1      -8.169  17.332 -38.409  1.00  0.00     0.026 C 
HETATM   13  C13 UNL     1      -8.345  17.552 -36.921  1.00  0.00     0.061 C 
ENDROOT
BRANCH   1  14
HETATM   14  N2  UNL     1      -7.971  12.778 -36.724  1.00  0.00    -0.374 N 
ATOM     15  H2  UNL     1      -8.559  12.224 -37.347  1.00  0.00     0.161 HD
BRANCH  14  16
HETATM   16  C6  UNL     1      -6.630  12.320 -36.381  1.00  0.00     0.121 C 
BRANCH  16  17
HETATM   17  C5  UNL     1      -6.675  11.160 -35.423  1.00  0.00     0.020 C 
BRANCH  17  18
HETATM   18  C4  UNL     1      -6.337  11.633 -34.041  1.00  0.00     0.002 C 
BRANCH  18  19
HETATM   19  C3  UNL     1      -5.230  12.625 -34.081  1.00  0.00     0.002 C 
BRANCH  19  20
HETATM   20  C2  UNL     1      -5.560  13.668 -32.986  1.00  0.00     0.027 C 
BRANCH  20  21
HETATM   21  C1  UNL     1      -6.036  14.893 -33.722  1.00  0.00     0.229 C 
BRANCH  21  22
HETATM   22  N1  UNL     1      -5.208  15.146 -34.876  1.00  0.00    -0.079 N 
ATOM     23  H13 UNL     1      -5.469  16.012 -35.347  1.00  0.00     0.274 HD
ATOM     24  H12 UNL     1      -4.256  15.399 -34.611  1.00  0.00     0.274 HD
ATOM     25  H11 UNL     1      -5.225  14.350 -35.512  1.00  0.00     0.274 HD
ENDBRANCH  21  22
ENDBRANCH  20  21
ENDBRANCH  19  20
ENDBRANCH  18  19
ENDBRANCH  17  18
ENDBRANCH  16  17
ENDBRANCH  14  16
ENDBRANCH   1  14
TORSDOF 8
ENDMDL
MODEL 4
REMARK VINA RESULT: -6.238505893      1.637      2.716
REMARK  8 active torsions:
REMARK  status: ('A' for Active; 'I' for Inactive)
REMARK    1  A    between atoms: N1_1  and  C1_5 
REMARK    2  A    between atoms: C1_5  and  C2_6 
REMARK    3  A    between atoms: C2_6  and  C3_7 
REMARK    4  A    between atoms: C3_7  and  C4_8 
REMARK    5  A    between atoms: C4_8  and  C5_9 
REMARK    6  A    between atoms: C5_9  and  C6_10 
REMARK    7  A    between atoms: C6_10  and  N2_11 
REMARK    8  A    between atoms: N2_11  and  C7_13 
ROOT
HETATM    1  C7  UNL     1      -7.436  14.881 -37.589  1.00  0.00     0.131 A 
HETATM    2  N3  UNL     1      -6.598  15.788 -38.107  1.00  0.00    -0.337 N 
ATOM      3  H3  UNL     1      -5.600  15.581 -38.129  1.00  0.00     0.168 HD
HETATM    4  C8  UNL     1      -7.024  16.957 -38.599  1.00  0.00     0.182 A 
HETATM    5  N4  UNL     1      -8.342  17.232 -38.573  1.00  0.00    -0.354 N 
ATOM      6  H4  UNL     1      -8.676  18.122 -38.945  1.00  0.00     0.166 HD
HETATM    7  C9  UNL     1      -9.230  16.355 -38.063  1.00  0.00     0.040 A 
HETATM    8  C10 UNL     1      -8.774  15.156 -37.560  1.00  0.00     0.095 A 
HETATM    9  N5  UNL     1      -9.679  14.235 -37.028  1.00  0.00    -0.385 N 
ATOM     10  H5  UNL     1      -9.333  13.362 -36.631  1.00  0.00     0.159 HD
HETATM   11  C11 UNL     1     -11.126  14.506 -37.030  1.00  0.00     0.120 C 
HETATM   12  C12 UNL     1     -11.305  15.994 -36.890  1.00  0.00     0.026 C 
HETATM   13  C13 UNL     1     -10.662  16.710 -38.060  1.00  0.00     0.061 C 
ENDROOT
BRANCH   1  14
HETATM   14  N2  UNL     1      -6.987  13.777 -37.129  1.00  0.00    -0.374 N 
ATOM     15  H2  UNL     1      -7.568  12.940 -37.147  1.00  0.00     0.161 HD
BRANCH  14  16
HETATM   16  C6  UNL     1      -5.638  13.723 -36.577  1.00  0.00     0.121 C 
BRANCH  16  17
HETATM   17  C5  UNL     1      -5.662  13.685 -35.073  1.00  0.00     0.020 C 
BRANCH  17  18
HETATM   18  C4  UNL     1      -6.822  12.858 -34.606  1.00  0.00     0.002 C 
BRANCH  18  19
HETATM   19  C3  UNL     1      -6.418  11.436 -34.439  1.00  0.00     0.002 C 
BRANCH  19  20
HETATM   20  C2  UNL     1      -5.962  11.299 -32.966  1.00  0.00     0.027 C 
BRANCH  20  21
HETATM   21  C1  UNL     1      -6.301   9.887 -32.565  1.00  0.00     0.229 C 
BRANCH  21  22
HETATM   22  N1  UNL     1      -7.000   9.211 -33.631  1.00  0.00    -0.079 N 
ATOM     23  H13 UNL     1      -7.794   9.754 -33.968  1.00  0.00     0.274 HD
ATOM     24  H12 UNL     1      -6.452   9.193 -34.492  1.00  0.00     0.274 HD
ATOM     25  H11 UNL     1      -7.279   8.274 -33.340  1.00  0.00     0.274 HD
ENDBRANCH  21  22
ENDBRANCH  20  21
ENDBRANCH  19  20
ENDBRANCH  18  19
ENDBRANCH  17  18
ENDBRANCH  16  17
ENDBRANCH  14  16
ENDBRANCH   1  14
TORSDOF 8
ENDMDL
MODEL 5
REMARK VINA RESULT: -6.178690210      1.583      1.816
REMARK  8 active torsions:
REMARK  status: ('A' for Active; 'I' for Inactive)
REMARK    1  A    between atoms: N1_1  and  C1_5 
REMARK    2  A    between atoms: C1_5  and  C2_6 
REMARK    3  A    between atoms: C2_6  and  C3_7 
REMARK    4  A    between atoms: C3_7  and  C4_8 
REMARK    5  A    between atoms: C4_8  and  C5_9 
REMARK    6  A    between atoms: C5_9  and  C6_10 
REMARK    7  A    between atoms: C6_10  and  N2_11 
REMARK    8  A    between atoms: N2_11  and  C7_13 
ROOT
HETATM    1  C7  UNL     1      -8.334  13.890 -36.164  1.00  0.00     0.131 A 
HETATM    2  N3  UNL     1      -9.066  13.890 -35.042  1.00  0.00    -0.337 N 
ATOM      3  H3  UNL     1      -9.237  13.005 -34.566  1.00  0.00     0.168 HD
HETATM    4  C8  UNL     1      -9.580  15.012 -34.525  1.00  0.00     0.182 A 
HETATM    5  N4  UNL     1      -9.353  16.182 -35.152  1.00  0.00    -0.354 N 
ATOM      6  H4  UNL     1      -9.742  17.042 -34.764  1.00  0.00     0.166 HD
HETATM    7  C9  UNL     1      -8.623  16.239 -36.284  1.00  0.00     0.040 A 
HETATM    8  C10 UNL     1      -8.102  15.075 -36.805  1.00  0.00     0.095 A 
HETATM    9  N5  UNL     1      -7.342  15.115 -37.976  1.00  0.00    -0.385 N 
ATOM     10  H5  UNL     1      -6.983  14.246 -38.372  1.00  0.00     0.159 HD
HETATM   11  C11 UNL     1      -7.053  16.392 -38.649  1.00  0.00     0.120 C 
HETATM   12  C12 UNL     1      -8.229  17.301 -38.412  1.00  0.00     0.026 C 
HETATM   13  C13 UNL     1      -8.408  17.548 -36.929  1.00  0.00     0.061 C 
ENDROOT
BRANCH   1  14
HETATM   14  N2  UNL     1      -7.862  12.796 -36.626  1.00  0.00    -0.374 N 
ATOM     15  H2  UNL     1      -8.215  12.415 -37.503  1.00  0.00     0.161 HD
BRANCH  14  16
HETATM   16  C6  UNL     1      -6.815  12.097 -35.891  1.00  0.00     0.121 C 
BRANCH  16  17
HETATM   17  C5  UNL     1      -5.638  12.994 -35.625  1.00  0.00     0.020 C 
BRANCH  17  18
HETATM   18  C4  UNL     1      -5.287  12.950 -34.167  1.00  0.00     0.002 C 
BRANCH  18  19
HETATM   19  C3  UNL     1      -6.003  11.837 -33.489  1.00  0.00     0.002 C 
BRANCH  19  20
HETATM   20  C2  UNL     1      -5.681  11.986 -31.982  1.00  0.00     0.027 C 
BRANCH  20  21
HETATM   21  C1  UNL     1      -5.310  13.433 -31.787  1.00  0.00     0.229 C 
BRANCH  21  22
HETATM   22  N1  UNL     1      -5.335  13.779 -30.387  1.00  0.00    -0.079 N 
ATOM     23  H13 UNL     1      -4.726  13.175 -29.836  1.00  0.00     0.274 HD
ATOM     24  H12 UNL     1      -4.869  14.669 -30.208  1.00  0.00     0.274 HD
ATOM     25  H11 UNL     1      -6.292  13.776 -30.033  1.00  0.00     0.274 HD
ENDBRANCH  21  22
ENDBRANCH  20  21
ENDBRANCH  19  20
ENDBRANCH  18  19
ENDBRANCH  17  18
ENDBRANCH  16  17
ENDBRANCH  14  16
ENDBRANCH   1  14
TORSDOF 8
ENDMDL
