MODEL 1
REMARK VINA RESULT: -6.460653142      0.000      0.000
REMARK  6 active torsions:
REMARK  status: ('A' for Active; 'I' for Inactive)
REMARK    1  A    between atoms: C2_2  and  C3_3 
REMARK    2  A    between atoms: C6_6  and  O1_7 
REMARK    3  A    between atoms: C7_9  and  O2_10 
REMARK    4  A    between atoms: N1_19  and  C14_20 
REMARK    5  A    between atoms: C14_20  and  C15_21 
REMARK    6  A    between atoms: C20_26  and  O4_27 
ROOT
HETATM    1  C3  UNL     1       6.583   7.870  20.893  1.00  0.00     0.016 C 
HETATM    2  C4  UNL     1       6.942   7.329  22.233  1.00  0.00     0.022 C 
HETATM    3  C5  UNL     1       6.934   8.351  23.312  1.00  0.00     0.022 C 
HETATM    4  C6  UNL     1       7.832   9.477  22.906  1.00  0.00     0.159 C 
HETATM    5  C7  UNL     1       7.220  10.402  21.906  1.00  0.00     0.156 C 
HETATM    6  C8  UNL     1       5.811  10.131  21.608  1.00  0.00     0.076 C 
HETATM    7  C9  UNL     1       5.510   8.888  20.856  1.00  0.00     0.135 C 
HETATM    8  O3  UNL     1       4.411   8.716  21.685  1.00  0.00    -0.378 OA
HETATM    9  C10 UNL     1       4.944   9.589  22.673  1.00  0.00     0.143 C 
HETATM   10  C11 UNL     1       5.555   8.776  23.726  1.00  0.00     0.029 C 
HETATM   11  C12 UNL     1       4.702   7.519  23.903  1.00  0.00     0.060 C 
HETATM   12  C13 UNL     1       5.316   6.547  24.878  1.00  0.00     0.059 C 
HETATM   13  N1  UNL     1       6.698   6.503  24.722  1.00  0.00    -0.387 N 
HETATM   14  C18 UNL     1       7.396   7.730  24.630  1.00  0.00     0.098 C 
HETATM   15  C19 UNL     1       6.827   8.645  25.720  1.00  0.00     0.058 C 
HETATM   16  C20 UNL     1       5.660   9.370  25.086  1.00  0.00     0.132 C 
ENDROOT
BRANCH  13  17
HETATM   17  C14 UNL     1       7.400   5.311  24.718  1.00  0.00     0.127 C 
BRANCH  17  18
HETATM   18  C15 UNL     1       6.501   4.206  24.148  1.00  0.00     0.003 A 
HETATM   19  C16 UNL     1       6.648   2.834  24.631  1.00  0.00     0.007 A 
HETATM   20  C17 UNL     1       7.210   3.191  23.277  1.00  0.00     0.007 A 
ENDBRANCH  17  18
ENDBRANCH  13  17
BRANCH   4  21
HETATM   21  O1  UNL     1       8.384  10.166  23.990  1.00  0.00    -0.392 OA
ATOM     22  H1  UNL     1       8.372  11.109  23.884  1.00  0.00     0.210 HD
ENDBRANCH   4  21
BRANCH  16  23
HETATM   23  O4  UNL     1       5.786  10.737  25.124  1.00  0.00    -0.395 OA
ATOM     24  H4  UNL     1       5.867  11.115  25.991  1.00  0.00     0.210 HD
ENDBRANCH  16  23
BRANCH   1  25
HETATM   25  C2  UNL     1       6.309   6.684  19.995  1.00  0.00     0.002 C 
HETATM   26  C1  UNL     1       5.678   5.523  20.686  1.00  0.00     0.005 C 
ENDBRANCH   1  25
BRANCH   5  27
HETATM   27  O2  UNL     1       7.348  11.759  22.295  1.00  0.00    -0.392 OA
ATOM     28  H2  UNL     1       6.546  12.093  22.679  1.00  0.00     0.210 HD
ENDBRANCH   5  27
TORSDOF 6
ENDMDL
MODEL 2
REMARK VINA RESULT: -6.229433003      1.411      1.808
REMARK  6 active torsions:
REMARK  status: ('A' for Active; 'I' for Inactive)
REMARK    1  A    between atoms: C2_2  and  C3_3 
REMARK    2  A    between atoms: C6_6  and  O1_7 
REMARK    3  A    between atoms: C7_9  and  O2_10 
REMARK    4  A    between atoms: N1_19  and  C14_20 
REMARK    5  A    between atoms: C14_20  and  C15_21 
REMARK    6  A    between atoms: C20_26  and  O4_27 
ROOT
HETATM    1  C3  UNL     1       7.696   9.452  21.258  1.00  0.00     0.016 C 
HETATM    2  C4  UNL     1       7.641   8.192  22.051  1.00  0.00     0.022 C 
HETATM    3  C5  UNL     1       6.849   8.309  23.304  1.00  0.00     0.022 C 
HETATM    4  C6  UNL     1       7.393   9.449  24.105  1.00  0.00     0.159 C 
HETATM    5  C7  UNL     1       6.966  10.791  23.607  1.00  0.00     0.156 C 
HETATM    6  C8  UNL     1       5.983  10.752  22.520  1.00  0.00     0.076 C 
HETATM    7  C9  UNL     1       6.455  10.256  21.205  1.00  0.00     0.135 C 
HETATM    8  O3  UNL     1       5.245   9.588  21.082  1.00  0.00    -0.378 OA
HETATM    9  C10 UNL     1       5.000   9.652  22.481  1.00  0.00     0.143 C 
HETATM   10  C11 UNL     1       5.367   8.364  23.073  1.00  0.00     0.029 C 
HETATM   11  C12 UNL     1       4.998   7.267  22.074  1.00  0.00     0.060 C 
HETATM   12  C13 UNL     1       5.454   5.904  22.532  1.00  0.00     0.059 C 
HETATM   13  N1  UNL     1       6.704   5.983  23.136  1.00  0.00    -0.387 N 
HETATM   14  C18 UNL     1       6.917   7.002  24.093  1.00  0.00     0.098 C 
HETATM   15  C19 UNL     1       5.681   7.023  24.999  1.00  0.00     0.058 C 
HETATM   16  C20 UNL     1       4.702   7.972  24.345  1.00  0.00     0.132 C 
ENDROOT
BRANCH  13  17
HETATM   17  C14 UNL     1       7.706   5.066  22.874  1.00  0.00     0.127 C 
BRANCH  17  18
HETATM   18  C15 UNL     1       7.160   3.651  23.107  1.00  0.00     0.003 A 
HETATM   19  C16 UNL     1       7.006   3.151  24.472  1.00  0.00     0.007 A 
HETATM   20  C17 UNL     1       8.167   2.657  23.645  1.00  0.00     0.007 A 
ENDBRANCH  17  18
ENDBRANCH  13  17
BRANCH   4  21
HETATM   21  O1  UNL     1       7.188   9.309  25.480  1.00  0.00    -0.392 OA
ATOM     22  H1  UNL     1       7.116   8.404  25.761  1.00  0.00     0.210 HD
ENDBRANCH   4  21
BRANCH  16  23
HETATM   23  O4  UNL     1       4.329   9.013  25.160  1.00  0.00    -0.395 OA
ATOM     24  H4  UNL     1       3.430   8.990  25.464  1.00  0.00     0.210 HD
ENDBRANCH  16  23
BRANCH   1  25
HETATM   25  C2  UNL     1       8.231   9.090  19.890  1.00  0.00     0.002 C 
HETATM   26  C1  UNL     1       8.117   7.644  19.547  1.00  0.00     0.005 C 
ENDBRANCH   1  25
BRANCH   5  27
HETATM   27  O2  UNL     1       6.456  11.602  24.650  1.00  0.00    -0.392 OA
ATOM     28  H2  UNL     1       5.913  12.306  24.317  1.00  0.00     0.210 HD
ENDBRANCH   5  27
TORSDOF 6
ENDMDL
MODEL 3
REMARK VINA RESULT: -6.149553655      1.717      4.306
REMARK  6 active torsions:
REMARK  status: ('A' for Active; 'I' for Inactive)
REMARK    1  A    between atoms: C2_2  and  C3_3 
REMARK    2  A    between atoms: C6_6  and  O1_7 
REMARK    3  A    between atoms: C7_9  and  O2_10 
REMARK    4  A    between atoms: N1_19  and  C14_20 
REMARK    5  A    between atoms: C14_20  and  C15_21 
REMARK    6  A    between atoms: C20_26  and  O4_27 
ROOT
HETATM    1  C3  UNL     1       6.785   6.128  24.960  1.00  0.00     0.016 C 
HETATM    2  C4  UNL     1       6.322   6.746  23.687  1.00  0.00     0.022 C 
HETATM    3  C5  UNL     1       5.812   8.133  23.845  1.00  0.00     0.022 C 
HETATM    4  C6  UNL     1       4.738   8.128  24.886  1.00  0.00     0.159 C 
HETATM    5  C7  UNL     1       5.258   8.066  26.286  1.00  0.00     0.156 C 
HETATM    6  C8  UNL     1       6.715   8.164  26.399  1.00  0.00     0.076 C 
HETATM    7  C9  UNL     1       7.507   7.013  25.901  1.00  0.00     0.135 C 
HETATM    8  O3  UNL     1       8.411   7.928  25.379  1.00  0.00    -0.378 OA
HETATM    9  C10 UNL     1       7.457   8.982  25.419  1.00  0.00     0.143 C 
HETATM   10  C11 UNL     1       6.895   9.147  24.077  1.00  0.00     0.029 C 
HETATM   11  C12 UNL     1       8.014   8.888  23.065  1.00  0.00     0.060 C 
HETATM   12  C13 UNL     1       7.510   8.905  21.644  1.00  0.00     0.059 C 
HETATM   13  N1  UNL     1       6.262   8.296  21.559  1.00  0.00    -0.387 N 
HETATM   14  C18 UNL     1       5.281   8.655  22.511  1.00  0.00     0.098 C 
HETATM   15  C19 UNL     1       5.325  10.182  22.638  1.00  0.00     0.058 C 
HETATM   16  C20 UNL     1       6.343  10.480  23.716  1.00  0.00     0.132 C 
ENDROOT
BRANCH  13  17
HETATM   17  C14 UNL     1       5.945   7.410  20.545  1.00  0.00     0.127 C 
BRANCH  17  18
HETATM   18  C15 UNL     1       7.231   6.730  20.057  1.00  0.00     0.003 A 
HETATM   19  C16 UNL     1       7.420   6.483  18.628  1.00  0.00     0.007 A 
HETATM   20  C17 UNL     1       7.049   5.326  19.523  1.00  0.00     0.007 A 
ENDBRANCH  17  18
ENDBRANCH  13  17
BRANCH   4  21
HETATM   21  O1  UNL     1       3.799   9.150  24.719  1.00  0.00    -0.392 OA
ATOM     22  H1  UNL     1       3.316   9.089  23.904  1.00  0.00     0.210 HD
ENDBRANCH   4  21
BRANCH  16  23
HETATM   23  O4  UNL     1       5.830  11.207  24.761  1.00  0.00    -0.395 OA
ATOM     24  H4  UNL     1       6.263  11.082  25.596  1.00  0.00     0.210 HD
ENDBRANCH  16  23
BRANCH   1  25
HETATM   25  C2  UNL     1       7.567   4.886  24.592  1.00  0.00     0.002 C 
HETATM   26  C1  UNL     1       7.585   4.581  23.133  1.00  0.00     0.005 C 
ENDBRANCH   1  25
BRANCH   5  27
HETATM   27  O2  UNL     1       4.671   9.057  27.110  1.00  0.00    -0.392 OA
ATOM     28  H2  UNL     1       5.007   9.022  27.998  1.00  0.00     0.210 HD
ENDBRANCH   5  27
TORSDOF 6
ENDMDL
MODEL 4
REMARK VINA RESULT: -5.992722367      2.244      4.680
REMARK  6 active torsions:
REMARK  status: ('A' for Active; 'I' for Inactive)
REMARK    1  A    between atoms: C2_2  and  C3_3 
REMARK    2  A    between atoms: C6_6  and  O1_7 
REMARK    3  A    between atoms: C7_9  and  O2_10 
REMARK    4  A    between atoms: N1_19  and  C14_20 
REMARK    5  A    between atoms: C14_20  and  C15_21 
REMARK    6  A    between atoms: C20_26  and  O4_27 
ROOT
HETATM    1  C3  UNL     1       5.685  12.238  22.806  1.00  0.00     0.016 C 
HETATM    2  C4  UNL     1       5.530  10.980  23.589  1.00  0.00     0.022 C 
HETATM    3  C5  UNL     1       5.608   9.747  22.763  1.00  0.00     0.022 C 
HETATM    4  C6  UNL     1       4.597   9.848  21.664  1.00  0.00     0.159 C 
HETATM    5  C7  UNL     1       5.021  10.734  20.538  1.00  0.00     0.156 C 
HETATM    6  C8  UNL     1       6.396  11.231  20.638  1.00  0.00     0.076 C 
HETATM    7  C9  UNL     1       6.678  12.217  21.710  1.00  0.00     0.135 C 
HETATM    8  O3  UNL     1       7.881  11.559  21.925  1.00  0.00    -0.378 OA
HETATM    9  C10 UNL     1       7.421  10.381  21.274  1.00  0.00     0.143 C 
HETATM   10  C11 UNL     1       6.999   9.423  22.298  1.00  0.00     0.029 C 
HETATM   11  C12 UNL     1       7.945   9.565  23.492  1.00  0.00     0.060 C 
HETATM   12  C13 UNL     1       7.519   8.711  24.659  1.00  0.00     0.059 C 
HETATM   13  N1  UNL     1       6.135   8.716  24.792  1.00  0.00    -0.387 N 
HETATM   14  C18 UNL     1       5.355   8.515  23.630  1.00  0.00     0.098 C 
HETATM   15  C19 UNL     1       5.997   7.353  22.863  1.00  0.00     0.058 C 
HETATM   16  C20 UNL     1       7.027   7.978  21.948  1.00  0.00     0.132 C 
ENDROOT
BRANCH  13  17
HETATM   17  C14 UNL     1       5.515   8.849  26.021  1.00  0.00     0.127 C 
BRANCH  17  18
HETATM   18  C15 UNL     1       6.555   8.639  27.129  1.00  0.00     0.003 A 
HETATM   19  C16 UNL     1       6.246   7.756  28.253  1.00  0.00     0.007 A 
HETATM   20  C17 UNL     1       6.196   9.248  28.467  1.00  0.00     0.007 A 
ENDBRANCH  17  18
ENDBRANCH  13  17
BRANCH   4  21
HETATM   21  O1  UNL     1       4.143   8.605  21.213  1.00  0.00    -0.392 OA
ATOM     22  H1  UNL     1       4.319   8.451  20.292  1.00  0.00     0.210 HD
ENDBRANCH   4  21
BRANCH  16  23
HETATM   23  O4  UNL     1       6.821   7.689  20.622  1.00  0.00    -0.395 OA
ATOM     24  H4  UNL     1       7.599   7.453  20.131  1.00  0.00     0.210 HD
ENDBRANCH  16  23
BRANCH   1  25
HETATM   25  C2  UNL     1       5.919  13.353  23.801  1.00  0.00     0.002 C 
HETATM   26  C1  UNL     1       6.037  14.707  23.190  1.00  0.00     0.005 C 
ENDBRANCH   1  25
BRANCH   5  27
HETATM   27  O2  UNL     1       4.857  10.103  19.281  1.00  0.00    -0.392 OA
ATOM     28  H2  UNL     1       4.049   9.604  19.239  1.00  0.00     0.210 HD
ENDBRANCH   5  27
TORSDOF 6
ENDMDL
MODEL 5
REMARK VINA RESULT: -5.989148187      2.071      3.268
REMARK  6 active torsions:
REMARK  status: ('A' for Active; 'I' for Inactive)
REMARK    1  A    between atoms: C2_2  and  C3_3 
REMARK    2  A    between atoms: C6_6  and  O1_7 
REMARK    3  A    between atoms: C7_9  and  O2_10 
REMARK    4  A    between atoms: N1_19  and  C14_20 
REMARK    5  A    between atoms: C14_20  and  C15_21 
REMARK    6  A    between atoms: C20_26  and  O4_27 
ROOT
HETATM    1  C3  UNL     1       7.981   9.055  21.904  1.00  0.00     0.016 C 
HETATM    2  C4  UNL     1       8.069   8.931  23.386  1.00  0.00     0.022 C 
HETATM    3  C5  UNL     1       6.779   9.170  24.084  1.00  0.00     0.022 C 
HETATM    4  C6  UNL     1       6.254  10.508  23.667  1.00  0.00     0.159 C 
HETATM    5  C7  UNL     1       5.622  10.510  22.314  1.00  0.00     0.156 C 
HETATM    6  C8  UNL     1       5.499   9.186  21.697  1.00  0.00     0.076 C 
HETATM    7  C9  UNL     1       6.755   8.525  21.267  1.00  0.00     0.135 C 
HETATM    8  O3  UNL     1       6.230   7.333  21.745  1.00  0.00    -0.378 OA
HETATM    9  C10 UNL     1       5.282   8.009  22.563  1.00  0.00     0.143 C 
HETATM   10  C11 UNL     1       5.797   8.044  23.933  1.00  0.00     0.029 C 
HETATM   11  C12 UNL     1       6.536   6.730  24.190  1.00  0.00     0.060 C 
HETATM   12  C13 UNL     1       7.219   6.715  25.534  1.00  0.00     0.059 C 
HETATM   13  N1  UNL     1       7.775   7.959  25.815  1.00  0.00    -0.387 N 
HETATM   14  C18 UNL     1       6.979   9.107  25.598  1.00  0.00     0.098 C 
HETATM   15  C19 UNL     1       5.591   8.798  26.168  1.00  0.00     0.058 C 
HETATM   16  C20 UNL     1       4.811   8.160  25.040  1.00  0.00     0.132 C 
ENDROOT
BRANCH  13  17
HETATM   17  C14 UNL     1       9.042   8.092  26.353  1.00  0.00     0.127 C 
BRANCH  17  18
HETATM   18  C15 UNL     1       9.077   7.403  27.723  1.00  0.00     0.003 A 
HETATM   19  C16 UNL     1       8.483   8.068  28.882  1.00  0.00     0.007 A 
HETATM   20  C17 UNL     1       9.985   8.055  28.744  1.00  0.00     0.007 A 
ENDBRANCH  17  18
ENDBRANCH  13  17
BRANCH   4  21
HETATM   21  O1  UNL     1       5.438  11.108  24.630  1.00  0.00    -0.392 OA
ATOM     22  H1  UNL     1       4.641  11.478  24.270  1.00  0.00     0.210 HD
ENDBRANCH   4  21
BRANCH  16  23
HETATM   23  O4  UNL     1       3.655   8.834  24.731  1.00  0.00    -0.395 OA
ATOM     24  H4  UNL     1       3.772   9.643  24.248  1.00  0.00     0.210 HD
ENDBRANCH  16  23
BRANCH   1  25
HETATM   25  C2  UNL     1       9.252   8.466  21.334  1.00  0.00     0.002 C 
HETATM   26  C1  UNL     1       9.403   8.639  19.861  1.00  0.00     0.005 C 
ENDBRANCH   1  25
BRANCH   5  27
HETATM   27  O2  UNL     1       4.345  11.123  22.329  1.00  0.00    -0.392 OA
ATOM     28  H2  UNL     1       4.408  12.066  22.422  1.00  0.00     0.210 HD
ENDBRANCH   5  27
TORSDOF 6
ENDMDL
