MODEL 1
REMARK VINA RESULT: -7.036082203      0.000      0.000
REMARK  8 active torsions:
REMARK  status: ('A' for Active; 'I' for Inactive)
REMARK       I    between atoms: C2_2  and  N1_4 
REMARK    1  A    between atoms: N1_4  and  C3_6 
REMARK    2  A    between atoms: C3_6  and  C4_7 
REMARK    3  A    between atoms: N2_12  and  C9_13 
REMARK    4  A    between atoms: C9_13  and  N3_14 
REMARK    5  A    between atoms: C9_13  and  C14_19 
REMARK    6  A    between atoms: N3_14  and  C10_15 
REMARK    7  A    between atoms: C14_19  and  N4_21 
REMARK       I    between atoms: N4_21  and  C16_23 
REMARK    8  A    between atoms: C16_23  and  C17_25 
ROOT
HETATM    1  C9  UNL     1      17.824  15.999  -7.885  1.00  0.00     0.174 C 
ENDROOT
BRANCH   1   2
HETATM    2  N2  UNL     1      19.289  15.842  -7.912  1.00  0.00    -0.338 N 
HETATM    3  C8  UNL     1      20.016  17.020  -7.535  1.00  0.00     0.130 C 
HETATM    4  C7  UNL     1      21.302  17.026  -8.339  1.00  0.00     0.020 C 
HETATM    5  C6  UNL     1      22.274  16.170  -7.515  1.00  0.00     0.002 C 
HETATM    6  C5  UNL     1      22.216  14.768  -7.972  1.00  0.00     0.011 C 
HETATM    7  C4  UNL     1      20.983  14.011  -7.743  1.00  0.00     0.042 C 
HETATM    8  C21 UNL     1      19.717  14.569  -8.319  1.00  0.00     0.072 C 
BRANCH   7   9
HETATM    9  C3  UNL     1      20.710  13.657  -6.302  1.00  0.00     0.132 C 
BRANCH   9  10
HETATM   10  N1  UNL     1      20.395  12.275  -6.072  1.00  0.00    -0.361 N 
HETATM   11  C2  UNL     1      19.504  11.786  -5.118  1.00  0.00     0.213 C 
HETATM   12  C1  UNL     1      19.286  10.308  -5.016  1.00  0.00     0.117 C 
HETATM   13  O1  UNL     1      18.857  12.520  -4.320  1.00  0.00    -0.274 OA
ATOM     14  H1  UNL     1      20.866  11.588  -6.661  1.00  0.00     0.162 HD
ENDBRANCH   9  10
ENDBRANCH   7   9
ENDBRANCH   1   2
BRANCH   1  15
HETATM   15  N3  UNL     1      17.388  17.057  -8.237  1.00  0.00    -0.422 NA
BRANCH  15  16
HETATM   16  C10 UNL     1      16.628  18.166  -8.365  1.00  0.00     0.084 C 
HETATM   17  C11 UNL     1      17.322  19.506  -8.659  1.00  0.00     0.053 C 
HETATM   18  C12 UNL     1      15.917  18.459  -7.021  1.00  0.00     0.053 C 
HETATM   19  C13 UNL     1      15.521  18.094  -9.420  1.00  0.00     0.053 C 
ENDBRANCH  15  16
ENDBRANCH   1  15
BRANCH   1  20
HETATM   20  C14 UNL     1      17.041  14.858  -7.385  1.00  0.00     0.163 C 
HETATM   21  C15 UNL     1      16.789  14.974  -5.879  1.00  0.00     0.041 C 
BRANCH  20  22
HETATM   22  N4  UNL     1      15.810  14.558  -8.050  1.00  0.00    -0.343 N 
HETATM   23  C16 UNL     1      15.714  13.396  -8.946  1.00  0.00     0.276 C 
HETATM   24  O2  UNL     1      16.733  12.744  -9.056  1.00  0.00    -0.265 OA
ATOM     25  H4  UNL     1      14.996  15.154  -7.901  1.00  0.00     0.163 HD
BRANCH  23  26
HETATM   26  C17 UNL     1      14.334  13.226  -9.572  1.00  0.00     0.142 A 
HETATM   27  N5  UNL     1      14.947  13.375 -11.063  1.00  0.00    -0.349 N 
HETATM   28  C18 UNL     1      14.245  13.315 -12.040  1.00  0.00     0.013 A 
ATOM     29  H5  UNL     1      15.950  13.523 -11.178  1.00  0.00     0.166 HD
HETATM   30  C19 UNL     1      14.724  13.452 -13.502  1.00  0.00     0.068 C 
HETATM   31  C20 UNL     1      12.891  13.116 -11.853  1.00  0.00     0.076 A 
HETATM   32  S1  UNL     1      12.920  13.052 -10.214  1.00  0.00    -0.077 SA
ENDBRANCH  23  26
ENDBRANCH  20  22
ENDBRANCH   1  20
TORSDOF 8
ENDMDL
MODEL 2
REMARK VINA RESULT: -6.974596500      3.745      7.753
REMARK  8 active torsions:
REMARK  status: ('A' for Active; 'I' for Inactive)
REMARK       I    between atoms: C2_2  and  N1_4 
REMARK    1  A    between atoms: N1_4  and  C3_6 
REMARK    2  A    between atoms: C3_6  and  C4_7 
REMARK    3  A    between atoms: N2_12  and  C9_13 
REMARK    4  A    between atoms: C9_13  and  N3_14 
REMARK    5  A    between atoms: C9_13  and  C14_19 
REMARK    6  A    between atoms: N3_14  and  C10_15 
REMARK    7  A    between atoms: C14_19  and  N4_21 
REMARK       I    between atoms: N4_21  and  C16_23 
REMARK    8  A    between atoms: C16_23  and  C17_25 
ROOT
HETATM    1  C9  UNL     1      18.006  15.133  -7.060  1.00  0.00     0.174 C 
ENDROOT
BRANCH   1   2
HETATM    2  N2  UNL     1      17.768  16.565  -7.316  1.00  0.00    -0.338 N 
HETATM    3  C8  UNL     1      17.273  17.292  -6.183  1.00  0.00     0.130 C 
HETATM    4  C7  UNL     1      16.354  18.375  -6.717  1.00  0.00     0.020 C 
HETATM    5  C6  UNL     1      17.290  19.544  -7.051  1.00  0.00     0.002 C 
HETATM    6  C5  UNL     1      17.706  19.463  -8.464  1.00  0.00     0.011 C 
HETATM    7  C4  UNL     1      18.564  18.349  -8.875  1.00  0.00     0.042 C 
HETATM    8  C21 UNL     1      18.053  16.961  -8.631  1.00  0.00     0.072 C 
BRANCH   7   9
HETATM    9  C3  UNL     1      19.980  18.410  -8.359  1.00  0.00     0.132 C 
BRANCH   9  10
HETATM   10  N1  UNL     1      20.899  19.120  -9.204  1.00  0.00    -0.361 N 
HETATM   11  C2  UNL     1      21.262  20.460  -9.074  1.00  0.00     0.213 C 
HETATM   12  C1  UNL     1      22.244  21.045 -10.042  1.00  0.00     0.117 C 
HETATM   13  O1  UNL     1      20.812  21.226  -8.177  1.00  0.00    -0.274 OA
ATOM     14  H1  UNL     1      21.323  18.597  -9.970  1.00  0.00     0.162 HD
ENDBRANCH   9  10
ENDBRANCH   7   9
ENDBRANCH   1   2
BRANCH   1  15
HETATM   15  N3  UNL     1      17.272  14.358  -7.602  1.00  0.00    -0.422 NA
BRANCH  15  16
HETATM   16  C10 UNL     1      16.187  13.640  -7.964  1.00  0.00     0.084 C 
HETATM   17  C11 UNL     1      16.354  12.535  -9.021  1.00  0.00     0.053 C 
HETATM   18  C12 UNL     1      15.154  14.576  -8.638  1.00  0.00     0.053 C 
HETATM   19  C13 UNL     1      15.442  12.941  -6.825  1.00  0.00     0.053 C 
ENDBRANCH  15  16
ENDBRANCH   1  15
BRANCH   1  20
HETATM   20  C14 UNL     1      19.094  14.795  -6.127  1.00  0.00     0.163 C 
HETATM   21  C15 UNL     1      18.788  13.505  -5.361  1.00  0.00     0.041 C 
BRANCH  20  22
HETATM   22  N4  UNL     1      20.421  14.729  -6.655  1.00  0.00    -0.343 N 
HETATM   23  C16 UNL     1      21.506  15.507  -6.037  1.00  0.00     0.276 C 
HETATM   24  O2  UNL     1      21.178  16.175  -5.077  1.00  0.00    -0.265 OA
ATOM     25  H4  UNL     1      20.617  14.138  -7.464  1.00  0.00     0.163 HD
BRANCH  23  26
HETATM   26  C17 UNL     1      22.853  15.322  -6.726  1.00  0.00     0.142 A 
HETATM   27  N5  UNL     1      23.606  16.169  -5.571  1.00  0.00    -0.349 N 
HETATM   28  C18 UNL     1      24.796  16.358  -5.605  1.00  0.00     0.013 A 
ATOM     29  H5  UNL     1      23.062  16.551  -4.796  1.00  0.00     0.166 HD
HETATM   30  C19 UNL     1      25.610  17.155  -4.562  1.00  0.00     0.068 C 
HETATM   31  C20 UNL     1      25.506  15.832  -6.666  1.00  0.00     0.076 A 
HETATM   32  S1  UNL     1      24.234  15.133  -7.433  1.00  0.00    -0.077 SA
ENDBRANCH  23  26
ENDBRANCH  20  22
ENDBRANCH   1  20
TORSDOF 8
ENDMDL
MODEL 3
REMARK VINA RESULT: -6.705504464      1.212      1.640
REMARK  8 active torsions:
REMARK  status: ('A' for Active; 'I' for Inactive)
REMARK       I    between atoms: C2_2  and  N1_4 
REMARK    1  A    between atoms: N1_4  and  C3_6 
REMARK    2  A    between atoms: C3_6  and  C4_7 
REMARK    3  A    between atoms: N2_12  and  C9_13 
REMARK    4  A    between atoms: C9_13  and  N3_14 
REMARK    5  A    between atoms: C9_13  and  C14_19 
REMARK    6  A    between atoms: N3_14  and  C10_15 
REMARK    7  A    between atoms: C14_19  and  N4_21 
REMARK       I    between atoms: N4_21  and  C16_23 
REMARK    8  A    between atoms: C16_23  and  C17_25 
ROOT
HETATM    1  C9  UNL     1      18.063  16.182  -7.870  1.00  0.00     0.174 C 
ENDROOT
BRANCH   1   2
HETATM    2  N2  UNL     1      19.516  15.941  -7.921  1.00  0.00    -0.338 N 
HETATM    3  C8  UNL     1      20.315  17.077  -7.561  1.00  0.00     0.130 C 
HETATM    4  C7  UNL     1      21.586  17.007  -8.387  1.00  0.00     0.020 C 
HETATM    5  C6  UNL     1      22.521  16.100  -7.575  1.00  0.00     0.002 C 
HETATM    6  C5  UNL     1      22.375  14.702  -8.025  1.00  0.00     0.011 C 
HETATM    7  C4  UNL     1      21.106  14.017  -7.771  1.00  0.00     0.042 C 
HETATM    8  C21 UNL     1      19.863  14.645  -8.329  1.00  0.00     0.072 C 
BRANCH   7   9
HETATM    9  C3  UNL     1      20.837  13.685  -6.324  1.00  0.00     0.132 C 
BRANCH   9  10
HETATM   10  N1  UNL     1      20.476  12.316  -6.079  1.00  0.00    -0.361 N 
HETATM   11  C2  UNL     1      19.532  11.872  -5.155  1.00  0.00     0.213 C 
HETATM   12  C1  UNL     1      19.271  10.402  -5.032  1.00  0.00     0.117 C 
HETATM   13  O1  UNL     1      18.868  12.640  -4.404  1.00  0.00    -0.274 OA
ATOM     14  H1  UNL     1      20.955  11.605  -6.631  1.00  0.00     0.162 HD
ENDBRANCH   9  10
ENDBRANCH   7   9
ENDBRANCH   1   2
BRANCH   1  15
HETATM   15  N3  UNL     1      17.684  17.269  -8.200  1.00  0.00    -0.422 NA
BRANCH  15  16
HETATM   16  C10 UNL     1      17.029  18.448  -8.259  1.00  0.00     0.084 C 
HETATM   17  C11 UNL     1      17.777  19.680  -8.795  1.00  0.00     0.053 C 
HETATM   18  C12 UNL     1      16.653  18.898  -6.826  1.00  0.00     0.053 C 
HETATM   19  C13 UNL     1      15.723  18.444  -9.057  1.00  0.00     0.053 C 
ENDBRANCH  15  16
ENDBRANCH   1  15
BRANCH   1  20
HETATM   20  C14 UNL     1      17.222  15.080  -7.375  1.00  0.00     0.163 C 
HETATM   21  C15 UNL     1      16.648  15.396  -5.991  1.00  0.00     0.041 C 
BRANCH  20  22
HETATM   22  N4  UNL     1      16.172  14.614  -8.228  1.00  0.00    -0.343 N 
HETATM   23  C16 UNL     1      16.194  13.239  -8.749  1.00  0.00     0.276 C 
HETATM   24  O2  UNL     1      17.143  12.569  -8.395  1.00  0.00    -0.265 OA
ATOM     25  H4  UNL     1      15.405  15.239  -8.476  1.00  0.00     0.163 HD
BRANCH  23  26
HETATM   26  C17 UNL     1      15.003  12.910  -9.643  1.00  0.00     0.142 A 
HETATM   27  N5  UNL     1      14.732  11.529  -8.844  1.00  0.00    -0.349 N 
HETATM   28  C18 UNL     1      13.828  10.794  -9.149  1.00  0.00     0.013 A 
ATOM     29  H5  UNL     1      15.341  11.275  -8.065  1.00  0.00     0.166 HD
HETATM   30  C19 UNL     1      13.487   9.454  -8.461  1.00  0.00     0.068 C 
HETATM   31  C20 UNL     1      13.022  11.163 -10.208  1.00  0.00     0.076 A 
HETATM   32  S1  UNL     1      13.783  12.573 -10.559  1.00  0.00    -0.077 SA
ENDBRANCH  23  26
ENDBRANCH  20  22
ENDBRANCH   1  20
TORSDOF 8
ENDMDL
MODEL 4
REMARK VINA RESULT: -6.687805845      3.042      5.835
REMARK  8 active torsions:
REMARK  status: ('A' for Active; 'I' for Inactive)
REMARK       I    between atoms: C2_2  and  N1_4 
REMARK    1  A    between atoms: N1_4  and  C3_6 
REMARK    2  A    between atoms: C3_6  and  C4_7 
REMARK    3  A    between atoms: N2_12  and  C9_13 
REMARK    4  A    between atoms: C9_13  and  N3_14 
REMARK    5  A    between atoms: C9_13  and  C14_19 
REMARK    6  A    between atoms: N3_14  and  C10_15 
REMARK    7  A    between atoms: C14_19  and  N4_21 
REMARK       I    between atoms: N4_21  and  C16_23 
REMARK    8  A    between atoms: C16_23  and  C17_25 
ROOT
HETATM    1  C9  UNL     1      17.716  14.625  -6.989  1.00  0.00     0.174 C 
ENDROOT
BRANCH   1   2
HETATM    2  N2  UNL     1      18.813  15.421  -7.566  1.00  0.00    -0.338 N 
HETATM    3  C8  UNL     1      18.582  16.837  -7.560  1.00  0.00     0.130 C 
HETATM    4  C7  UNL     1      19.258  17.403  -8.794  1.00  0.00     0.020 C 
HETATM    5  C6  UNL     1      20.710  17.645  -8.360  1.00  0.00     0.002 C 
HETATM    6  C5  UNL     1      21.531  16.462  -8.684  1.00  0.00     0.011 C 
HETATM    7  C4  UNL     1      21.274  15.216  -7.959  1.00  0.00     0.042 C 
HETATM    8  C21 UNL     1      19.888  14.650  -8.036  1.00  0.00     0.072 C 
BRANCH   7   9
HETATM    9  C3  UNL     1      21.682  15.226  -6.507  1.00  0.00     0.132 C 
BRANCH   9  10
HETATM   10  N1  UNL     1      22.930  15.883  -6.237  1.00  0.00    -0.361 N 
HETATM   11  C2  UNL     1      24.199  15.345  -6.441  1.00  0.00     0.213 C 
HETATM   12  C1  UNL     1      25.402  16.174  -6.111  1.00  0.00     0.117 C 
HETATM   13  O1  UNL     1      24.406  14.185  -6.896  1.00  0.00    -0.274 OA
ATOM     14  H1  UNL     1      22.883  16.830  -5.861  1.00  0.00     0.162 HD
ENDBRANCH   9  10
ENDBRANCH   7   9
ENDBRANCH   1   2
BRANCH   1  15
HETATM   15  N3  UNL     1      16.929  14.153  -7.758  1.00  0.00    -0.422 NA
BRANCH  15  16
HETATM   16  C10 UNL     1      15.824  13.600  -8.303  1.00  0.00     0.084 C 
HETATM   17  C11 UNL     1      15.998  12.526  -9.390  1.00  0.00     0.053 C 
HETATM   18  C12 UNL     1      15.022  14.691  -9.055  1.00  0.00     0.053 C 
HETATM   19  C13 UNL     1      14.844  12.961  -7.317  1.00  0.00     0.053 C 
ENDBRANCH  15  16
ENDBRANCH   1  15
BRANCH   1  20
HETATM   20  C14 UNL     1      17.665  14.525  -5.521  1.00  0.00     0.163 C 
HETATM   21  C15 UNL     1      16.660  15.517  -4.930  1.00  0.00     0.041 C 
BRANCH  20  22
HETATM   22  N4  UNL     1      17.442  13.231  -4.954  1.00  0.00    -0.343 N 
HETATM   23  C16 UNL     1      18.562  12.291  -4.785  1.00  0.00     0.276 C 
HETATM   24  O2  UNL     1      19.642  12.706  -5.152  1.00  0.00    -0.265 OA
ATOM     25  H4  UNL     1      16.503  12.959  -4.664  1.00  0.00     0.163 HD
BRANCH  23  26
HETATM   26  C17 UNL     1      18.148  10.960  -4.169  1.00  0.00     0.142 A 
HETATM   27  N5  UNL     1      17.329  11.711  -2.993  1.00  0.00    -0.349 N 
HETATM   28  C18 UNL     1      16.744  11.093  -2.140  1.00  0.00     0.013 A 
ATOM     29  H5  UNL     1      17.307  12.732  -2.973  1.00  0.00     0.166 HD
HETATM   30  C19 UNL     1      15.941  11.709  -0.973  1.00  0.00     0.068 C 
HETATM   31  C20 UNL     1      16.792   9.714  -2.192  1.00  0.00     0.076 A 
HETATM   32  S1  UNL     1      17.724   9.595  -3.537  1.00  0.00    -0.077 SA
ENDBRANCH  23  26
ENDBRANCH  20  22
ENDBRANCH   1  20
TORSDOF 8
ENDMDL
MODEL 5
REMARK VINA RESULT: -6.552425427      3.009      5.382
REMARK  8 active torsions:
REMARK  status: ('A' for Active; 'I' for Inactive)
REMARK       I    between atoms: C2_2  and  N1_4 
REMARK    1  A    between atoms: N1_4  and  C3_6 
REMARK    2  A    between atoms: C3_6  and  C4_7 
REMARK    3  A    between atoms: N2_12  and  C9_13 
REMARK    4  A    between atoms: C9_13  and  N3_14 
REMARK    5  A    between atoms: C9_13  and  C14_19 
REMARK    6  A    between atoms: N3_14  and  C10_15 
REMARK    7  A    between atoms: C14_19  and  N4_21 
REMARK       I    between atoms: N4_21  and  C16_23 
REMARK    8  A    between atoms: C16_23  and  C17_25 
ROOT
HETATM    1  C9  UNL     1      17.298  14.351  -6.712  1.00  0.00     0.174 C 
ENDROOT
BRANCH   1   2
HETATM    2  N2  UNL     1      18.375  15.214  -7.229  1.00  0.00    -0.338 N 
HETATM    3  C8  UNL     1      18.376  16.544  -6.693  1.00  0.00     0.130 C 
HETATM    4  C7  UNL     1      18.881  17.465  -7.787  1.00  0.00     0.020 C 
HETATM    5  C6  UNL     1      20.410  17.417  -7.653  1.00  0.00     0.002 C 
HETATM    6  C5  UNL     1      20.956  16.372  -8.540  1.00  0.00     0.011 C 
HETATM    7  C4  UNL     1      20.651  14.972  -8.238  1.00  0.00     0.042 C 
HETATM    8  C21 UNL     1      19.204  14.584  -8.171  1.00  0.00     0.072 C 
BRANCH   7   9
HETATM    9  C3  UNL     1      21.327  14.422  -7.007  1.00  0.00     0.132 C 
BRANCH   9  10
HETATM   10  N1  UNL     1      22.762  14.478  -7.034  1.00  0.00    -0.361 N 
HETATM   11  C2  UNL     1      23.556  15.408  -6.365  1.00  0.00     0.213 C 
HETATM   12  C1  UNL     1      25.046  15.319  -6.495  1.00  0.00     0.117 C 
HETATM   13  O1  UNL     1      23.096  16.335  -5.642  1.00  0.00    -0.274 OA
ATOM     14  H1  UNL     1      23.243  13.775  -7.593  1.00  0.00     0.162 HD
ENDBRANCH   9  10
ENDBRANCH   7   9
ENDBRANCH   1   2
BRANCH   1  15
HETATM   15  N3  UNL     1      16.626  13.782  -7.523  1.00  0.00    -0.422 NA
BRANCH  15  16
HETATM   16  C10 UNL     1      15.583  13.317  -8.243  1.00  0.00     0.084 C 
HETATM   17  C11 UNL     1      14.497  12.499  -7.524  1.00  0.00     0.053 C 
HETATM   18  C12 UNL     1      16.097  12.309  -9.300  1.00  0.00     0.053 C 
HETATM   19  C13 UNL     1      14.788  14.371  -9.018  1.00  0.00     0.053 C 
ENDBRANCH  15  16
ENDBRANCH   1  15
BRANCH   1  20
HETATM   20  C14 UNL     1      17.122  14.310  -5.251  1.00  0.00     0.163 C 
HETATM   21  C15 UNL     1      15.977  15.223  -4.803  1.00  0.00     0.041 C 
BRANCH  20  22
HETATM   22  N4  UNL     1      16.970  13.026  -4.640  1.00  0.00    -0.343 N 
HETATM   23  C16 UNL     1      18.148  12.185  -4.376  1.00  0.00     0.276 C 
HETATM   24  O2  UNL     1      19.211  12.669  -4.708  1.00  0.00    -0.265 OA
ATOM     25  H4  UNL     1      16.040  12.692  -4.385  1.00  0.00     0.163 HD
BRANCH  23  26
HETATM   26  C17 UNL     1      17.806  10.850  -3.724  1.00  0.00     0.142 A 
HETATM   27  N5  UNL     1      16.374  10.802  -4.477  1.00  0.00    -0.349 N 
HETATM   28  C18 UNL     1      15.611   9.883  -4.318  1.00  0.00     0.013 A 
ATOM     29  H5  UNL     1      16.112  11.566  -5.101  1.00  0.00     0.166 HD
HETATM   30  C19 UNL     1      14.222   9.742  -4.980  1.00  0.00     0.068 C 
HETATM   31  C20 UNL     1      15.992   8.864  -3.468  1.00  0.00     0.076 A 
HETATM   32  S1  UNL     1      17.455   9.482  -3.055  1.00  0.00    -0.077 SA
ENDBRANCH  23  26
ENDBRANCH  20  22
ENDBRANCH   1  20
TORSDOF 8
ENDMDL
