MODEL 1
REMARK VINA RESULT: -9.476947183      0.000      0.000
REMARK  8 active torsions:
REMARK  status: ('A' for Active; 'I' for Inactive)
REMARK    1  A    between atoms: C2_2  and  C3_3 
REMARK    2  A    between atoms: C3_3  and  C4_4 
REMARK    3  A    between atoms: C3_3  and  N1_6 
REMARK    4  A    between atoms: N1_6  and  C5_8 
REMARK    5  A    between atoms: C6_9  and  C7_10 
REMARK       I    between atoms: C7_10  and  N2_12 
REMARK       I    between atoms: N2_12  and  C8_14 
REMARK    6  A    between atoms: C12_24  and  N6_25 
REMARK    7  A    between atoms: C14_27  and  C15_28 
REMARK    8  A    between atoms: C16_29  and  O3_30 
ROOT
HETATM    1  C5  UNL     1      19.013   3.356   1.843  1.00  0.00     0.158 A 
HETATM    2  C6  UNL     1      17.883   3.610   1.125  1.00  0.00     0.148 A 
HETATM    3  N5  UNL     1      17.567   2.434   0.465  1.00  0.00    -0.333 N 
ATOM      4  H5  UNL     1      16.772   2.290  -0.157  1.00  0.00     0.168 HD
HETATM    5  C9  UNL     1      18.484   1.526   0.784  1.00  0.00     0.130 A 
HETATM    6  C10 UNL     1      18.586   0.184   0.361  1.00  0.00     0.054 A 
HETATM    7  C11 UNL     1      19.648  -0.524   0.860  1.00  0.00     0.056 A 
HETATM    8  C12 UNL     1      20.571   0.025   1.723  1.00  0.00     0.143 A 
HETATM    9  N11 UNL     1      20.404   1.299   2.073  1.00  0.00    -0.274 N 
ATOM     10  H11 UNL     1      21.076   1.725   2.711  1.00  0.00     0.189 HD
HETATM   11  N12 UNL     1      19.384   2.043   1.619  1.00  0.00    -0.220 N 
ENDROOT
BRANCH   8  12
HETATM   12  N6  UNL     1      21.674  -0.763   2.222  1.00  0.00    -0.233 N 
HETATM   13  C13 UNL     1      21.677  -2.082   2.478  1.00  0.00     0.152 A 
HETATM   14  C14 UNL     1      22.939  -2.459   2.948  1.00  0.00     0.087 A 
HETATM   15  N9  UNL     1      23.644  -1.312   2.947  1.00  0.00    -0.283 N 
HETATM   16  N10 UNL     1      22.878  -0.321   2.514  1.00  0.00    -0.234 N 
ATOM     17  H9  UNL     1      24.619  -1.220   3.236  1.00  0.00     0.188 HD
ATOM     18  H10 UNL     1      23.180   0.649   2.420  1.00  0.00     0.209 HD
BRANCH  14  19
HETATM   19  C15 UNL     1      23.355  -3.802   3.338  1.00  0.00     0.112 A 
HETATM   20  C16 UNL     1      22.424  -4.828   3.354  1.00  0.00     0.162 A 
HETATM   21  N7  UNL     1      22.802  -6.082   3.716  1.00  0.00    -0.288 N 
HETATM   22  C17 UNL     1      24.077  -6.337   4.061  1.00  0.00     0.329 A 
ATOM     23  H7  UNL     1      22.115  -6.835   3.728  1.00  0.00     0.172 HD
HETATM   24  O4  UNL     1      24.428  -7.516   4.401  1.00  0.00    -0.247 OA
HETATM   25  N8  UNL     1      25.018  -5.362   4.058  1.00  0.00    -0.275 N 
HETATM   26  C18 UNL     1      24.640  -4.127   3.700  1.00  0.00     0.266 A 
ATOM     27  H8  UNL     1      25.984  -5.562   4.321  1.00  0.00     0.173 HD
HETATM   28  O5  UNL     1      25.501  -3.215   3.693  1.00  0.00    -0.267 OA
BRANCH  20  29
HETATM   29  O3  UNL     1      21.107  -4.606   3.007  1.00  0.00    -0.345 OA
ATOM     30  H3  UNL     1      20.745  -4.952   2.199  1.00  0.00     0.219 HD
ENDBRANCH  20  29
ENDBRANCH  14  19
ENDBRANCH   8  12
BRANCH   1  31
HETATM   31  N1  UNL     1      19.708   4.136   2.778  1.00  0.00    -0.361 N 
ATOM     32  H1  UNL     1      19.899   5.077   2.436  1.00  0.00     0.162 HD
BRANCH  31  33
HETATM   33  C3  UNL     1      20.208   3.923   4.088  1.00  0.00     0.152 C 
BRANCH  33  34
HETATM   34  C2  UNL     1      19.911   5.209   4.955  1.00  0.00    -0.017 A 
HETATM   35  C1  UNL     1      19.485   6.401   4.138  1.00  0.00     0.018 C 
HETATM   36  C19 UNL     1      20.982   5.492   6.010  1.00  0.00     0.012 A 
HETATM   37  C20 UNL     1      19.550   5.038   6.366  1.00  0.00     0.012 A 
ENDBRANCH  33  34
BRANCH  33  38
HETATM   38  C4  UNL     1      21.715   3.952   4.034  1.00  0.00     0.256 C 
HETATM   39  O1  UNL     1      22.390   3.154   3.450  1.00  0.00    -0.305 OA
ENDBRANCH  33  38
ENDBRANCH  31  33
ENDBRANCH   1  31
BRANCH   2  40
HETATM   40  C7  UNL     1      17.113   4.819   0.898  1.00  0.00     0.278 C 
HETATM   41  O2  UNL     1      17.046   5.768   1.645  1.00  0.00    -0.265 OA
HETATM   42  N2  UNL     1      16.347   4.902  -0.337  1.00  0.00    -0.296 N 
HETATM   43  C8  UNL     1      15.578   6.054  -0.602  1.00  0.00     0.188 C 
ATOM     44  H2  UNL     1      16.365   4.132  -1.006  1.00  0.00     0.171 HD
HETATM   45  N3  UNL     1      14.918   6.099  -1.686  1.00  0.00    -0.373 N 
HETATM   46  N4  UNL     1      15.523   7.146   0.296  1.00  0.00    -0.064 NA
ATOM     47  H32 UNL     1      14.958   5.313  -2.333  1.00  0.00     0.158 HD
ATOM     48  H31 UNL     1      14.362   6.933  -1.878  1.00  0.00     0.158 HD
ENDBRANCH   2  40
TORSDOF 8
ENDMDL
MODEL 2
REMARK VINA RESULT: -9.463787965      1.830      2.414
REMARK  8 active torsions:
REMARK  status: ('A' for Active; 'I' for Inactive)
REMARK    1  A    between atoms: C2_2  and  C3_3 
REMARK    2  A    between atoms: C3_3  and  C4_4 
REMARK    3  A    between atoms: C3_3  and  N1_6 
REMARK    4  A    between atoms: N1_6  and  C5_8 
REMARK    5  A    between atoms: C6_9  and  C7_10 
REMARK       I    between atoms: C7_10  and  N2_12 
REMARK       I    between atoms: N2_12  and  C8_14 
REMARK    6  A    between atoms: C12_24  and  N6_25 
REMARK    7  A    between atoms: C14_27  and  C15_28 
REMARK    8  A    between atoms: C16_29  and  O3_30 
ROOT
HETATM    1  C5  UNL     1      19.923   2.613   2.314  1.00  0.00     0.158 A 
HETATM    2  C6  UNL     1      19.147   3.198   1.360  1.00  0.00     0.148 A 
HETATM    3  N5  UNL     1      18.870   2.214   0.424  1.00  0.00    -0.333 N 
ATOM      4  H5  UNL     1      18.307   2.330  -0.418  1.00  0.00     0.168 HD
HETATM    5  C9  UNL     1      19.468   1.095   0.818  1.00  0.00     0.130 A 
HETATM    6  C10 UNL     1      19.476  -0.171   0.194  1.00  0.00     0.054 A 
HETATM    7  C11 UNL     1      20.185  -1.153   0.838  1.00  0.00     0.056 A 
HETATM    8  C12 UNL     1      20.856  -0.934   2.021  1.00  0.00     0.143 A 
HETATM    9  N11 UNL     1      20.800   0.289   2.544  1.00  0.00    -0.274 N 
ATOM     10  H11 UNL     1      21.291   0.471   3.419  1.00  0.00     0.189 HD
HETATM   11  N12 UNL     1      20.122   1.290   1.962  1.00  0.00    -0.220 N 
ENDROOT
BRANCH   8  12
HETATM   12  N6  UNL     1      21.590  -2.002   2.660  1.00  0.00    -0.233 N 
HETATM   13  C13 UNL     1      22.891  -2.302   2.498  1.00  0.00     0.152 A 
HETATM   14  C14 UNL     1      23.213  -3.405   3.294  1.00  0.00     0.087 A 
HETATM   15  N9  UNL     1      22.055  -3.716   3.907  1.00  0.00    -0.283 N 
HETATM   16  N10 UNL     1      21.108  -2.874   3.519  1.00  0.00    -0.234 N 
ATOM     17  H9  UNL     1      21.927  -4.482   4.569  1.00  0.00     0.188 HD
ATOM     18  H10 UNL     1      20.141  -2.898   3.841  1.00  0.00     0.209 HD
BRANCH  14  19
HETATM   19  C15 UNL     1      24.521  -4.043   3.405  1.00  0.00     0.112 A 
HETATM   20  C16 UNL     1      24.672  -5.364   3.017  1.00  0.00     0.162 A 
HETATM   21  N7  UNL     1      25.886  -5.966   3.117  1.00  0.00    -0.288 N 
HETATM   22  C17 UNL     1      26.947  -5.288   3.591  1.00  0.00     0.329 A 
ATOM     23  H7  UNL     1      25.994  -6.939   2.831  1.00  0.00     0.172 HD
HETATM   24  O4  UNL     1      28.085  -5.858   3.683  1.00  0.00    -0.247 OA
HETATM   25  N8  UNL     1      26.841  -3.995   3.981  1.00  0.00    -0.275 N 
HETATM   26  C18 UNL     1      25.641  -3.406   3.881  1.00  0.00     0.266 A 
ATOM     27  H8  UNL     1      27.649  -3.486   4.341  1.00  0.00     0.173 HD
HETATM   28  O5  UNL     1      25.530  -2.208   4.239  1.00  0.00    -0.267 OA
BRANCH  20  29
HETATM   29  O3  UNL     1      23.608  -6.093   2.525  1.00  0.00    -0.345 OA
ATOM     30  H3  UNL     1      23.737  -6.783   1.885  1.00  0.00     0.219 HD
ENDBRANCH  20  29
ENDBRANCH  14  19
ENDBRANCH   8  12
BRANCH   1  31
HETATM   31  N1  UNL     1      20.397   3.094   3.543  1.00  0.00    -0.361 N 
ATOM     32  H1  UNL     1      20.455   2.363   4.252  1.00  0.00     0.162 HD
BRANCH  31  33
HETATM   33  C3  UNL     1      20.814   4.358   4.033  1.00  0.00     0.152 C 
BRANCH  33  34
HETATM   34  C2  UNL     1      22.368   4.304   4.308  1.00  0.00    -0.017 A 
HETATM   35  C1  UNL     1      22.773   4.957   5.603  1.00  0.00     0.018 C 
HETATM   36  C19 UNL     1      23.215   4.686   3.093  1.00  0.00     0.012 A 
HETATM   37  C20 UNL     1      23.160   3.251   3.663  1.00  0.00     0.012 A 
ENDBRANCH  33  34
BRANCH  33  38
HETATM   38  C4  UNL     1      20.278   4.528   5.433  1.00  0.00     0.256 C 
HETATM   39  O1  UNL     1      19.134   4.756   5.699  1.00  0.00    -0.305 OA
ENDBRANCH  33  38
ENDBRANCH  31  33
ENDBRANCH   1  31
BRANCH   2  40
HETATM   40  C7  UNL     1      18.705   4.565   1.153  1.00  0.00     0.278 C 
HETATM   41  O2  UNL     1      18.343   5.331   2.017  1.00  0.00    -0.265 OA
HETATM   42  N2  UNL     1      18.690   5.063  -0.213  1.00  0.00    -0.296 N 
HETATM   43  C8  UNL     1      18.264   6.384  -0.467  1.00  0.00     0.188 C 
ATOM     44  H2  UNL     1      18.985   4.462  -0.983  1.00  0.00     0.171 HD
HETATM   45  N3  UNL     1      18.260   6.792  -1.670  1.00  0.00    -0.373 N 
HETATM   46  N4  UNL     1      17.848   7.253   0.568  1.00  0.00    -0.064 NA
ATOM     47  H32 UNL     1      18.560   6.165  -2.416  1.00  0.00     0.158 HD
ATOM     48  H31 UNL     1      17.952   7.747  -1.853  1.00  0.00     0.158 HD
ENDBRANCH   2  40
TORSDOF 8
ENDMDL
MODEL 3
REMARK VINA RESULT: -9.429210560      1.687      2.022
REMARK  8 active torsions:
REMARK  status: ('A' for Active; 'I' for Inactive)
REMARK    1  A    between atoms: C2_2  and  C3_3 
REMARK    2  A    between atoms: C3_3  and  C4_4 
REMARK    3  A    between atoms: C3_3  and  N1_6 
REMARK    4  A    between atoms: N1_6  and  C5_8 
REMARK    5  A    between atoms: C6_9  and  C7_10 
REMARK       I    between atoms: C7_10  and  N2_12 
REMARK       I    between atoms: N2_12  and  C8_14 
REMARK    6  A    between atoms: C12_24  and  N6_25 
REMARK    7  A    between atoms: C14_27  and  C15_28 
REMARK    8  A    between atoms: C16_29  and  O3_30 
ROOT
HETATM    1  C5  UNL     1      19.860   2.627   2.339  1.00  0.00     0.158 A 
HETATM    2  C6  UNL     1      19.106   3.216   1.369  1.00  0.00     0.148 A 
HETATM    3  N5  UNL     1      18.871   2.243   0.412  1.00  0.00    -0.333 N 
ATOM      4  H5  UNL     1      18.333   2.363  -0.446  1.00  0.00     0.168 HD
HETATM    5  C9  UNL     1      19.471   1.125   0.808  1.00  0.00     0.130 A 
HETATM    6  C10 UNL     1      19.515  -0.132   0.168  1.00  0.00     0.054 A 
HETATM    7  C11 UNL     1      20.216  -1.113   0.820  1.00  0.00     0.056 A 
HETATM    8  C12 UNL     1      20.847  -0.904   2.026  1.00  0.00     0.143 A 
HETATM    9  N11 UNL     1      20.758   0.311   2.564  1.00  0.00    -0.274 N 
ATOM     10  H11 UNL     1      21.219   0.487   3.457  1.00  0.00     0.189 HD
HETATM   11  N12 UNL     1      20.086   1.312   1.975  1.00  0.00    -0.220 N 
ENDROOT
BRANCH   8  12
HETATM   12  N6  UNL     1      21.574  -1.971   2.673  1.00  0.00    -0.233 N 
HETATM   13  C13 UNL     1      22.872  -2.282   2.512  1.00  0.00     0.152 A 
HETATM   14  C14 UNL     1      23.188  -3.381   3.317  1.00  0.00     0.087 A 
HETATM   15  N9  UNL     1      22.029  -3.677   3.935  1.00  0.00    -0.283 N 
HETATM   16  N10 UNL     1      21.088  -2.832   3.541  1.00  0.00    -0.234 N 
ATOM     17  H9  UNL     1      21.896  -4.437   4.603  1.00  0.00     0.188 HD
ATOM     18  H10 UNL     1      20.121  -2.846   3.865  1.00  0.00     0.209 HD
BRANCH  14  19
HETATM   19  C15 UNL     1      24.491  -4.027   3.431  1.00  0.00     0.112 A 
HETATM   20  C16 UNL     1      24.632  -5.353   3.053  1.00  0.00     0.162 A 
HETATM   21  N7  UNL     1      25.841  -5.963   3.156  1.00  0.00    -0.288 N 
HETATM   22  C17 UNL     1      26.908  -5.289   3.622  1.00  0.00     0.329 A 
ATOM     23  H7  UNL     1      25.941  -6.939   2.877  1.00  0.00     0.172 HD
HETATM   24  O4  UNL     1      28.042  -5.866   3.717  1.00  0.00    -0.247 OA
HETATM   25  N8  UNL     1      26.812  -3.992   4.003  1.00  0.00    -0.275 N 
HETATM   26  C18 UNL     1      25.617  -3.395   3.899  1.00  0.00     0.266 A 
ATOM     27  H8  UNL     1      27.625  -3.487   4.357  1.00  0.00     0.173 HD
HETATM   28  O5  UNL     1      25.515  -2.194   4.248  1.00  0.00    -0.267 OA
BRANCH  20  29
HETATM   29  O3  UNL     1      23.561  -6.078   2.568  1.00  0.00    -0.345 OA
ATOM     30  H3  UNL     1      23.667  -6.973   2.270  1.00  0.00     0.219 HD
ENDBRANCH  20  29
ENDBRANCH  14  19
ENDBRANCH   8  12
BRANCH   1  31
HETATM   31  N1  UNL     1      20.289   3.097   3.589  1.00  0.00    -0.361 N 
ATOM     32  H1  UNL     1      19.587   2.966   4.317  1.00  0.00     0.162 HD
BRANCH  31  33
HETATM   33  C3  UNL     1      21.470   3.711   4.079  1.00  0.00     0.152 C 
BRANCH  33  34
HETATM   34  C2  UNL     1      21.330   5.275   3.913  1.00  0.00    -0.017 A 
HETATM   35  C1  UNL     1      21.838   5.788   2.591  1.00  0.00     0.018 C 
HETATM   36  C19 UNL     1      21.795   6.061   5.140  1.00  0.00     0.012 A 
HETATM   37  C20 UNL     1      20.316   5.978   4.706  1.00  0.00     0.012 A 
ENDBRANCH  33  34
BRANCH  33  38
HETATM   38  C4  UNL     1      22.594   3.417   3.117  1.00  0.00     0.256 C 
HETATM   39  O1  UNL     1      23.213   2.393   3.086  1.00  0.00    -0.305 OA
ENDBRANCH  33  38
ENDBRANCH  31  33
ENDBRANCH   1  31
BRANCH   2  40
HETATM   40  C7  UNL     1      18.653   4.580   1.168  1.00  0.00     0.278 C 
HETATM   41  O2  UNL     1      18.265   5.333   2.031  1.00  0.00    -0.265 OA
HETATM   42  N2  UNL     1      18.660   5.093  -0.194  1.00  0.00    -0.296 N 
HETATM   43  C8  UNL     1      18.226   6.411  -0.443  1.00  0.00     0.188 C 
ATOM     44  H2  UNL     1      18.978   4.502  -0.964  1.00  0.00     0.171 HD
HETATM   45  N3  UNL     1      18.241   6.832  -1.641  1.00  0.00    -0.373 N 
HETATM   46  N4  UNL     1      17.779   7.265   0.592  1.00  0.00    -0.064 NA
ATOM     47  H32 UNL     1      18.564   6.217  -2.387  1.00  0.00     0.158 HD
ATOM     48  H31 UNL     1      17.927   7.786  -1.821  1.00  0.00     0.158 HD
ENDBRANCH   2  40
TORSDOF 8
ENDMDL
MODEL 4
REMARK VINA RESULT: -9.401821711      1.872      2.743
REMARK  8 active torsions:
REMARK  status: ('A' for Active; 'I' for Inactive)
REMARK    1  A    between atoms: C2_2  and  C3_3 
REMARK    2  A    between atoms: C3_3  and  C4_4 
REMARK    3  A    between atoms: C3_3  and  N1_6 
REMARK    4  A    between atoms: N1_6  and  C5_8 
REMARK    5  A    between atoms: C6_9  and  C7_10 
REMARK       I    between atoms: C7_10  and  N2_12 
REMARK       I    between atoms: N2_12  and  C8_14 
REMARK    6  A    between atoms: C12_24  and  N6_25 
REMARK    7  A    between atoms: C14_27  and  C15_28 
REMARK    8  A    between atoms: C16_29  and  O3_30 
ROOT
HETATM    1  C5  UNL     1      19.964   2.669   2.249  1.00  0.00     0.158 A 
HETATM    2  C6  UNL     1      19.104   3.237   1.358  1.00  0.00     0.148 A 
HETATM    3  N5  UNL     1      18.776   2.247   0.447  1.00  0.00    -0.333 N 
ATOM      4  H5  UNL     1      18.147   2.349  -0.349  1.00  0.00     0.168 HD
HETATM    5  C9  UNL     1      19.425   1.140   0.793  1.00  0.00     0.130 A 
HETATM    6  C10 UNL     1      19.411  -0.127   0.170  1.00  0.00     0.054 A 
HETATM    7  C11 UNL     1      20.187  -1.092   0.756  1.00  0.00     0.056 A 
HETATM    8  C12 UNL     1      20.943  -0.859   1.884  1.00  0.00     0.143 A 
HETATM    9  N11 UNL     1      20.903   0.364   2.410  1.00  0.00    -0.274 N 
ATOM     10  H11 UNL     1      21.456   0.558   3.244  1.00  0.00     0.189 HD
HETATM   11  N12 UNL     1      20.161   1.350   1.883  1.00  0.00    -0.220 N 
ENDROOT
BRANCH   8  12
HETATM   12  N6  UNL     1      21.746  -1.910   2.464  1.00  0.00    -0.233 N 
HETATM   13  C13 UNL     1      23.077  -1.901   2.659  1.00  0.00     0.152 A 
HETATM   14  C14 UNL     1      23.466  -3.109   3.245  1.00  0.00     0.087 A 
HETATM   15  N9  UNL     1      22.316  -3.796   3.374  1.00  0.00    -0.283 N 
HETATM   16  N10 UNL     1      21.311  -3.070   2.907  1.00  0.00    -0.234 N 
ATOM     17  H9  UNL     1      22.231  -4.733   3.770  1.00  0.00     0.188 HD
ATOM     18  H10 UNL     1      20.335  -3.368   2.892  1.00  0.00     0.209 HD
BRANCH  14  19
HETATM   19  C15 UNL     1      24.823  -3.496   3.617  1.00  0.00     0.112 A 
HETATM   20  C16 UNL     1      25.627  -2.597   4.300  1.00  0.00     0.162 A 
HETATM   21  N7  UNL     1      26.892  -2.949   4.650  1.00  0.00    -0.288 N 
HETATM   22  C17 UNL     1      27.373  -4.166   4.340  1.00  0.00     0.329 A 
ATOM     23  H7  UNL     1      27.481  -2.285   5.152  1.00  0.00     0.172 HD
HETATM   24  O4  UNL     1      28.561  -4.492   4.670  1.00  0.00    -0.247 OA
HETATM   25  N8  UNL     1      26.619  -5.074   3.673  1.00  0.00    -0.275 N 
HETATM   26  C18 UNL     1      25.372  -4.722   3.330  1.00  0.00     0.266 A 
ATOM     27  H8  UNL     1      26.989  -5.995   3.440  1.00  0.00     0.173 HD
HETATM   28  O5  UNL     1      24.663  -5.553   2.712  1.00  0.00    -0.267 OA
BRANCH  20  29
HETATM   29  O3  UNL     1      25.170  -1.339   4.637  1.00  0.00    -0.345 OA
ATOM     30  H3  UNL     1      25.609  -0.556   4.327  1.00  0.00     0.219 HD
ENDBRANCH  20  29
ENDBRANCH  14  19
ENDBRANCH   8  12
BRANCH   1  31
HETATM   31  N1  UNL     1      20.522   3.162   3.438  1.00  0.00    -0.361 N 
ATOM     32  H1  UNL     1      20.676   2.429   4.130  1.00  0.00     0.162 HD
BRANCH  31  33
HETATM   33  C3  UNL     1      20.923   4.440   3.904  1.00  0.00     0.152 C 
BRANCH  33  34
HETATM   34  C2  UNL     1      22.450   4.375   4.301  1.00  0.00    -0.017 A 
HETATM   35  C1  UNL     1      22.757   5.030   5.621  1.00  0.00     0.018 C 
HETATM   36  C19 UNL     1      23.393   4.745   3.155  1.00  0.00     0.012 A 
HETATM   37  C20 UNL     1      23.282   3.314   3.723  1.00  0.00     0.012 A 
ENDBRANCH  33  34
BRANCH  33  38
HETATM   38  C4  UNL     1      20.284   4.679   5.250  1.00  0.00     0.256 C 
HETATM   39  O1  UNL     1      19.109   4.614   5.466  1.00  0.00    -0.305 OA
ENDBRANCH  33  38
ENDBRANCH  31  33
ENDBRANCH   1  31
BRANCH   2  40
HETATM   40  C7  UNL     1      18.620   4.594   1.187  1.00  0.00     0.278 C 
HETATM   41  O2  UNL     1      18.218   5.320   2.067  1.00  0.00    -0.265 OA
HETATM   42  N2  UNL     1      18.611   5.135  -0.164  1.00  0.00    -0.296 N 
HETATM   43  C8  UNL     1      18.145   6.448  -0.384  1.00  0.00     0.188 C 
ATOM     44  H2  UNL     1      18.939   4.569  -0.947  1.00  0.00     0.171 HD
HETATM   45  N3  UNL     1      18.147   6.894  -1.573  1.00  0.00    -0.373 N 
HETATM   46  N4  UNL     1      17.683   7.270   0.670  1.00  0.00    -0.064 NA
ATOM     47  H32 UNL     1      18.481   6.302  -2.333  1.00  0.00     0.158 HD
ATOM     48  H31 UNL     1      17.811   7.844  -1.732  1.00  0.00     0.158 HD
ENDBRANCH   2  40
TORSDOF 8
ENDMDL
MODEL 5
REMARK VINA RESULT: -9.360094523      5.852     12.625
REMARK  8 active torsions:
REMARK  status: ('A' for Active; 'I' for Inactive)
REMARK    1  A    between atoms: C2_2  and  C3_3 
REMARK    2  A    between atoms: C3_3  and  C4_4 
REMARK    3  A    between atoms: C3_3  and  N1_6 
REMARK    4  A    between atoms: N1_6  and  C5_8 
REMARK    5  A    between atoms: C6_9  and  C7_10 
REMARK       I    between atoms: C7_10  and  N2_12 
REMARK       I    between atoms: N2_12  and  C8_14 
REMARK    6  A    between atoms: C12_24  and  N6_25 
REMARK    7  A    between atoms: C14_27  and  C15_28 
REMARK    8  A    between atoms: C16_29  and  O3_30 
ROOT
HETATM    1  C5  UNL     1      30.554  -3.638   6.061  1.00  0.00     0.158 A 
HETATM    2  C6  UNL     1      31.769  -4.253   6.057  1.00  0.00     0.148 A 
HETATM    3  N5  UNL     1      31.593  -5.463   5.407  1.00  0.00    -0.333 N 
ATOM      4  H5  UNL     1      32.315  -6.162   5.236  1.00  0.00     0.168 HD
HETATM    5  C9  UNL     1      30.317  -5.553   5.047  1.00  0.00     0.130 A 
HETATM    6  C10 UNL     1      29.661  -6.597   4.362  1.00  0.00     0.054 A 
HETATM    7  C11 UNL     1      28.324  -6.412   4.123  1.00  0.00     0.056 A 
HETATM    8  C12 UNL     1      27.645  -5.281   4.520  1.00  0.00     0.143 A 
HETATM    9  N11 UNL     1      28.336  -4.342   5.163  1.00  0.00    -0.274 N 
ATOM     10  H11 UNL     1      27.852  -3.497   5.466  1.00  0.00     0.189 HD
HETATM   11  N12 UNL     1      29.647  -4.465   5.425  1.00  0.00    -0.220 N 
ENDROOT
BRANCH   8  12
HETATM   12  N6  UNL     1      26.234  -5.133   4.244  1.00  0.00    -0.233 N 
HETATM   13  C13 UNL     1      25.635  -4.107   3.615  1.00  0.00     0.152 A 
HETATM   14  C14 UNL     1      24.259  -4.346   3.550  1.00  0.00     0.087 A 
HETATM   15  N9  UNL     1      24.103  -5.535   4.161  1.00  0.00    -0.283 N 
HETATM   16  N10 UNL     1      25.284  -5.984   4.564  1.00  0.00    -0.234 N 
ATOM     17  H9  UNL     1      23.214  -6.017   4.294  1.00  0.00     0.188 HD
ATOM     18  H10 UNL     1      25.434  -6.866   5.054  1.00  0.00     0.209 HD
BRANCH  14  19
HETATM   19  C15 UNL     1      23.255  -3.476   2.947  1.00  0.00     0.112 A 
HETATM   20  C16 UNL     1      23.372  -2.101   3.079  1.00  0.00     0.162 A 
HETATM   21  N7  UNL     1      22.442  -1.284   2.521  1.00  0.00    -0.288 N 
HETATM   22  C17 UNL     1      21.404  -1.798   1.837  1.00  0.00     0.329 A 
ATOM     23  H7  UNL     1      22.532  -0.273   2.620  1.00  0.00     0.172 HD
HETATM   24  O4  UNL     1      20.532  -1.026   1.315  1.00  0.00    -0.247 OA
HETATM   25  N8  UNL     1      21.252  -3.136   1.685  1.00  0.00    -0.275 N 
HETATM   26  C18 UNL     1      22.172  -3.938   2.238  1.00  0.00     0.266 A 
ATOM     27  H8  UNL     1      20.462  -3.520   1.167  1.00  0.00     0.173 HD
HETATM   28  O5  UNL     1      22.044  -5.179   2.104  1.00  0.00    -0.267 OA
BRANCH  20  29
HETATM   29  O3  UNL     1      24.424  -1.536   3.771  1.00  0.00    -0.345 OA
ATOM     30  H3  UNL     1      24.275  -0.901   4.462  1.00  0.00     0.219 HD
ENDBRANCH  20  29
ENDBRANCH  14  19
ENDBRANCH   8  12
BRANCH   1  31
HETATM   31  N1  UNL     1      30.169  -2.354   6.474  1.00  0.00    -0.361 N 
ATOM     32  H1  UNL     1      30.341  -1.647   5.759  1.00  0.00     0.162 HD
BRANCH  31  33
HETATM   33  C3  UNL     1      29.597  -1.808   7.651  1.00  0.00     0.152 C 
BRANCH  33  34
HETATM   34  C2  UNL     1      28.028  -1.771   7.478  1.00  0.00    -0.017 A 
HETATM   35  C1  UNL     1      27.578  -1.112   6.200  1.00  0.00     0.018 C 
HETATM   36  C19 UNL     1      27.287  -1.321   8.739  1.00  0.00     0.012 A 
HETATM   37  C20 UNL     1      27.219  -2.764   8.192  1.00  0.00     0.012 A 
ENDBRANCH  33  34
BRANCH  33  38
HETATM   38  C4  UNL     1      29.917  -0.334   7.697  1.00  0.00     0.256 C 
HETATM   39  O1  UNL     1      30.657   0.177   8.488  1.00  0.00    -0.305 OA
ENDBRANCH  33  38
ENDBRANCH  31  33
ENDBRANCH   1  31
BRANCH   2  40
HETATM   40  C7  UNL     1      33.047  -3.910   6.655  1.00  0.00     0.278 C 
HETATM   41  O2  UNL     1      33.839  -3.105   6.221  1.00  0.00    -0.265 OA
HETATM   42  N2  UNL     1      33.416  -4.597   7.883  1.00  0.00    -0.296 N 
HETATM   43  C8  UNL     1      34.650  -4.302   8.501  1.00  0.00     0.188 C 
ATOM     44  H2  UNL     1      32.787  -5.286   8.296  1.00  0.00     0.171 HD
HETATM   45  N3  UNL     1      34.947  -4.917   9.571  1.00  0.00    -0.373 N 
HETATM   46  N4  UNL     1      35.552  -3.353   7.965  1.00  0.00    -0.064 NA
ATOM     47  H32 UNL     1      34.297  -5.601   9.957  1.00  0.00     0.158 HD
ATOM     48  H31 UNL     1      35.839  -4.704  10.018  1.00  0.00     0.158 HD
ENDBRANCH   2  40
TORSDOF 8
ENDMDL
