MODEL 1
REMARK VINA RESULT: -8.445419559      0.000      0.000
REMARK  3 active torsions:
REMARK  status: ('A' for Active; 'I' for Inactive)
REMARK    1  A    between atoms: O1_2  and  C2_3 
REMARK    2  A    between atoms: C2_3  and  C3_5 
REMARK    3  A    between atoms: C8_14  and  N3_15 
ROOT
HETATM    1  C3  UNL     1      21.988  -8.962  10.116  1.00  0.00     0.113 A 
HETATM    2  C4  UNL     1      22.463  -8.319  11.247  1.00  0.00     0.072 A 
HETATM    3  C5  UNL     1      23.773  -8.473  11.689  1.00  0.00     0.122 A 
HETATM    4  C6  UNL     1      24.610  -9.298  10.964  1.00  0.00     0.176 A 
HETATM    5  C7  UNL     1      24.094  -9.914   9.848  1.00  0.00     0.278 A 
HETATM    6  O3  UNL     1      24.850 -10.674   9.172  1.00  0.00    -0.266 OA
HETATM    7  N1  UNL     1      22.828  -9.746   9.448  1.00  0.00    -0.316 N 
ATOM      8  H1  UNL     1      22.500 -10.230   8.612  1.00  0.00     0.169 HD
HETATM    9  N2  UNL     1      25.592  -9.026  11.833  1.00  0.00    -0.048 N 
HETATM   10  C8  UNL     1      26.789  -9.000  12.468  1.00  0.00     0.721 A 
HETATM   11  N4  UNL     1      26.673  -8.199  13.524  1.00  0.00    -0.068 N 
ATOM     12  H4  UNL     1      27.409  -7.981  14.196  1.00  0.00     0.216 HD
HETATM   13  O4  UNL     1      25.471  -7.750  13.545  1.00  0.00    -0.118 OA
HETATM   14  N5  UNL     1      24.797  -8.226  12.546  1.00  0.00    -0.111 N 
ENDROOT
BRANCH   1  15
HETATM   15  C2  UNL     1      20.588  -8.759   9.698  1.00  0.00     0.309 C 
HETATM   16  O2  UNL     1      20.011  -7.663   9.911  1.00  0.00    -0.258 OA
BRANCH  15  17
HETATM   17  O1  UNL     1      19.886  -9.754   9.068  1.00  0.00    -0.321 OA
HETATM   18  C1  UNL     1      18.492  -9.961   9.201  1.00  0.00     0.213 C 
ENDBRANCH  15  17
ENDBRANCH   1  15
BRANCH  10  19
HETATM   19  N3  UNL     1      27.851  -9.629  12.127  1.00  0.00    -0.231 N 
ATOM     20  H32 UNL     1      27.922 -10.637  11.990  1.00  0.00     0.174 HD
ATOM     21  H31 UNL     1      28.768  -9.223  11.944  1.00  0.00     0.174 HD
ENDBRANCH  10  19
TORSDOF 3
ENDMDL
MODEL 2
REMARK VINA RESULT: -8.090834181      0.619      1.156
REMARK  3 active torsions:
REMARK  status: ('A' for Active; 'I' for Inactive)
REMARK    1  A    between atoms: O1_2  and  C2_3 
REMARK    2  A    between atoms: C2_3  and  C3_5 
REMARK    3  A    between atoms: C8_14  and  N3_15 
ROOT
HETATM    1  C3  UNL     1      22.016  -9.091  10.204  1.00  0.00     0.113 A 
HETATM    2  C4  UNL     1      22.485  -8.456  11.341  1.00  0.00     0.072 A 
HETATM    3  C5  UNL     1      23.808  -8.564  11.755  1.00  0.00     0.122 A 
HETATM    4  C6  UNL     1      24.666  -9.335  10.995  1.00  0.00     0.176 A 
HETATM    5  C7  UNL     1      24.154  -9.946   9.874  1.00  0.00     0.278 A 
HETATM    6  O3  UNL     1      24.930 -10.657   9.165  1.00  0.00    -0.266 OA
HETATM    7  N1  UNL     1      22.875  -9.823   9.502  1.00  0.00    -0.316 N 
ATOM      8  H1  UNL     1      22.552 -10.301   8.660  1.00  0.00     0.169 HD
HETATM    9  N2  UNL     1      25.652  -9.042  11.852  1.00  0.00    -0.048 N 
HETATM   10  C8  UNL     1      26.858  -8.980  12.465  1.00  0.00     0.721 A 
HETATM   11  N4  UNL     1      26.729  -8.209  13.543  1.00  0.00    -0.068 N 
ATOM     12  H4  UNL     1      27.468  -7.976  14.207  1.00  0.00     0.216 HD
HETATM   13  O4  UNL     1      25.509  -7.813  13.597  1.00  0.00    -0.118 OA
HETATM   14  N5  UNL     1      24.837  -8.294  12.599  1.00  0.00    -0.111 N 
ENDROOT
BRANCH   1  15
HETATM   15  C2  UNL     1      20.601  -8.939   9.816  1.00  0.00     0.309 C 
HETATM   16  O2  UNL     1      20.096  -9.686   8.939  1.00  0.00    -0.258 OA
BRANCH  15  17
HETATM   17  O1  UNL     1      19.805  -7.988  10.399  1.00  0.00    -0.321 OA
HETATM   18  C1  UNL     1      19.626  -6.675   9.901  1.00  0.00     0.213 C 
ENDBRANCH  15  17
ENDBRANCH   1  15
BRANCH  10  19
HETATM   19  N3  UNL     1      27.940  -9.554  12.090  1.00  0.00    -0.231 N 
ATOM     20  H32 UNL     1      28.008 -10.507  11.732  1.00  0.00     0.174 HD
ATOM     21  H31 UNL     1      28.877  -9.152  12.092  1.00  0.00     0.174 HD
ENDBRANCH  10  19
TORSDOF 3
ENDMDL
MODEL 3
REMARK VINA RESULT: -7.749523824      1.747      5.771
REMARK  3 active torsions:
REMARK  status: ('A' for Active; 'I' for Inactive)
REMARK    1  A    between atoms: O1_2  and  C2_3 
REMARK    2  A    between atoms: C2_3  and  C3_5 
REMARK    3  A    between atoms: C8_14  and  N3_15 
ROOT
HETATM    1  C3  UNL     1      24.850  -8.892  11.783  1.00  0.00     0.113 A 
HETATM    2  C4  UNL     1      23.649  -8.250  12.041  1.00  0.00     0.072 A 
HETATM    3  C5  UNL     1      22.544  -8.389  11.210  1.00  0.00     0.122 A 
HETATM    4  C6  UNL     1      22.666  -9.195  10.096  1.00  0.00     0.176 A 
HETATM    5  C7  UNL     1      23.877  -9.812   9.880  1.00  0.00     0.278 A 
HETATM    6  O3  UNL     1      24.005 -10.556   8.861  1.00  0.00    -0.266 OA
HETATM    7  N1  UNL     1      24.923  -9.659  10.700  1.00  0.00    -0.316 N 
ATOM      8  H1  UNL     1      25.797 -10.141  10.489  1.00  0.00     0.169 HD
HETATM    9  N2  UNL     1      21.395  -8.916   9.782  1.00  0.00    -0.048 N 
HETATM   10  C8  UNL     1      20.194  -8.878   9.156  1.00  0.00     0.721 A 
HETATM   11  N4  UNL     1      19.391  -8.085   9.861  1.00  0.00    -0.068 N 
ATOM     12  H4  UNL     1      18.421  -7.860   9.638  1.00  0.00     0.216 HD
HETATM   13  O4  UNL     1      20.055  -7.653  10.872  1.00  0.00    -0.118 OA
HETATM   14  N5  UNL     1      21.259  -8.132  10.854  1.00  0.00    -0.111 N 
ENDROOT
BRANCH   1  15
HETATM   15  C2  UNL     1      25.987  -8.706  12.702  1.00  0.00     0.309 C 
HETATM   16  O2  UNL     1      25.971  -7.786  13.560  1.00  0.00    -0.258 OA
BRANCH  15  17
HETATM   17  O1  UNL     1      27.085  -9.526  12.648  1.00  0.00    -0.321 OA
HETATM   18  C1  UNL     1      28.380  -9.166  13.092  1.00  0.00     0.213 C 
ENDBRANCH  15  17
ENDBRANCH   1  15
BRANCH  10  19
HETATM   19  N3  UNL     1      19.873  -9.488   8.077  1.00  0.00    -0.231 N 
ATOM     20  H32 UNL     1      18.931  -9.546   7.689  1.00  0.00     0.174 HD
ATOM     21  H31 UNL     1      20.499  -9.998   7.455  1.00  0.00     0.174 HD
ENDBRANCH  10  19
TORSDOF 3
ENDMDL
MODEL 4
REMARK VINA RESULT: -6.488466541      1.845      5.580
REMARK  3 active torsions:
REMARK  status: ('A' for Active; 'I' for Inactive)
REMARK    1  A    between atoms: O1_2  and  C2_3 
REMARK    2  A    between atoms: C2_3  and  C3_5 
REMARK    3  A    between atoms: C8_14  and  N3_15 
ROOT
HETATM    1  C3  UNL     1      25.115  -9.099  11.623  1.00  0.00     0.113 A 
HETATM    2  C4  UNL     1      23.955  -8.441  11.995  1.00  0.00     0.072 A 
HETATM    3  C5  UNL     1      22.789  -8.515  11.241  1.00  0.00     0.122 A 
HETATM    4  C6  UNL     1      22.809  -9.272  10.087  1.00  0.00     0.176 A 
HETATM    5  C7  UNL     1      23.985  -9.907   9.757  1.00  0.00     0.278 A 
HETATM    6  O3  UNL     1      24.019 -10.607   8.700  1.00  0.00    -0.266 OA
HETATM    7  N1  UNL     1      25.091  -9.816  10.504  1.00  0.00    -0.316 N 
ATOM      8  H1  UNL     1      25.934 -10.309  10.210  1.00  0.00     0.169 HD
HETATM    9  N2  UNL     1      21.527  -8.949   9.879  1.00  0.00    -0.048 N 
HETATM   10  C8  UNL     1      20.286  -8.854   9.344  1.00  0.00     0.721 A 
HETATM   11  N4  UNL     1      19.557  -8.075  10.139  1.00  0.00    -0.068 N 
ATOM     12  H4  UNL     1      18.580  -7.817   9.997  1.00  0.00     0.216 HD
HETATM   13  O4  UNL     1      20.303  -7.706  11.117  1.00  0.00    -0.118 OA
HETATM   14  N5  UNL     1      21.489  -8.212  10.991  1.00  0.00    -0.111 N 
ENDROOT
BRANCH   1  15
HETATM   15  C2  UNL     1      26.321  -8.981  12.464  1.00  0.00     0.309 C 
HETATM   16  O2  UNL     1      27.376  -9.591  12.156  1.00  0.00    -0.258 OA
BRANCH  15  17
HETATM   17  O1  UNL     1      26.322  -8.208  13.596  1.00  0.00    -0.321 OA
HETATM   18  C1  UNL     1      25.217  -7.452  14.055  1.00  0.00     0.213 C 
ENDBRANCH  15  17
ENDBRANCH   1  15
BRANCH  10  19
HETATM   19  N3  UNL     1      19.872  -9.407   8.265  1.00  0.00    -0.231 N 
ATOM     20  H32 UNL     1      19.783 -10.411   8.113  1.00  0.00     0.174 HD
ATOM     21  H31 UNL     1      19.574  -8.934   7.412  1.00  0.00     0.174 HD
ENDBRANCH  10  19
TORSDOF 3
ENDMDL
MODEL 5
REMARK VINA RESULT: -5.822810442      1.985      5.952
REMARK  3 active torsions:
REMARK  status: ('A' for Active; 'I' for Inactive)
REMARK    1  A    between atoms: O1_2  and  C2_3 
REMARK    2  A    between atoms: C2_3  and  C3_5 
REMARK    3  A    between atoms: C8_14  and  N3_15 
ROOT
HETATM    1  C3  UNL     1      26.399  -9.298  12.229  1.00  0.00     0.113 A 
HETATM    2  C4  UNL     1      25.169  -8.837  12.668  1.00  0.00     0.072 A 
HETATM    3  C5  UNL     1      24.057  -8.791  11.834  1.00  0.00     0.122 A 
HETATM    4  C6  UNL     1      24.204  -9.222  10.531  1.00  0.00     0.176 A 
HETATM    5  C7  UNL     1      25.444  -9.672  10.140  1.00  0.00     0.278 A 
HETATM    6  O3  UNL     1      25.595 -10.072   8.946  1.00  0.00    -0.266 OA
HETATM    7  N1  UNL     1      26.496  -9.704  10.967  1.00  0.00    -0.316 N 
ATOM      8  H1  UNL     1      27.392 -10.048  10.621  1.00  0.00     0.169 HD
HETATM    9  N2  UNL     1      22.913  -8.941  10.316  1.00  0.00    -0.048 N 
HETATM   10  C8  UNL     1      21.700  -8.793   9.731  1.00  0.00     0.721 A 
HETATM   11  N4  UNL     1      20.866  -8.296  10.641  1.00  0.00    -0.068 N 
ATOM     12  H4  UNL     1      19.880  -8.075  10.496  1.00  0.00     0.216 HD
HETATM   13  O4  UNL     1      21.523  -8.142  11.733  1.00  0.00    -0.118 OA
HETATM   14  N5  UNL     1      22.753  -8.519  11.572  1.00  0.00    -0.111 N 
ENDROOT
BRANCH   1  15
HETATM   15  C2  UNL     1      27.542  -9.322  13.160  1.00  0.00     0.309 C 
HETATM   16  O2  UNL     1      27.770 -10.339  13.865  1.00  0.00    -0.258 OA
BRANCH  15  17
HETATM   17  O1  UNL     1      28.382  -8.246  13.280  1.00  0.00    -0.321 OA
HETATM   18  C1  UNL     1      29.739  -8.325  13.675  1.00  0.00     0.213 C 
ENDBRANCH  15  17
ENDBRANCH   1  15
BRANCH  10  19
HETATM   19  N3  UNL     1      21.393  -9.076   8.520  1.00  0.00    -0.231 N 
ATOM     20  H32 UNL     1      20.715  -9.781   8.232  1.00  0.00     0.174 HD
ATOM     21  H31 UNL     1      21.774  -8.645   7.678  1.00  0.00     0.174 HD
ENDBRANCH  10  19
TORSDOF 3
ENDMDL
