MODEL 1
REMARK VINA RESULT: -7.483987543      0.000      0.000
REMARK  1 active torsions:
REMARK  status: ('A' for Active; 'I' for Inactive)
REMARK    1  A    between atoms: O1_2  and  C2_3 
REMARK       I    between atoms: N1_5  and  C4_6 
REMARK       I    between atoms: C4_6  and  N3_10 
ROOT
HETATM    1  C2  UNL     1      25.373  -8.596  12.164  1.00  0.00     0.153 A 
HETATM    2  C3  UNL     1      24.114  -8.226  11.720  1.00  0.00     0.162 A 
HETATM    3  N1  UNL     1      23.592  -8.732  10.590  1.00  0.00    -0.101 N 
HETATM    4  C4  UNL     1      22.301  -8.360  10.123  1.00  0.00     0.730 C 
HETATM    5  N2  UNL     1      22.201  -7.468   9.173  1.00  0.00    -0.231 N 
ATOM      6  H21 UNL     1      21.275  -7.201   8.838  1.00  0.00     0.174 HD
ATOM      7  H22 UNL     1      23.060  -7.066   8.796  1.00  0.00     0.174 HD
HETATM    8  N3  UNL     1      21.103  -8.922  10.649  1.00  0.00     0.155 N 
HETATM    9  O2  UNL     1      20.580  -9.038  11.834  1.00  0.00    -0.106 OA
HETATM   10  N4  UNL     1      19.517  -9.655  11.420  1.00  0.00    -0.068 N 
ATOM     11  H4  UNL     1      18.678 -10.039  11.854  1.00  0.00     0.216 HD
HETATM   12  C5  UNL     1      20.005  -9.567  10.168  1.00  0.00     0.741 A 
HETATM   13  N5  UNL     1      19.629  -9.925   8.995  1.00  0.00    -0.230 N 
ATOM     14  H51 UNL     1      18.806 -10.408   8.635  1.00  0.00     0.174 HD
ATOM     15  H52 UNL     1      19.998  -9.858   8.046  1.00  0.00     0.174 HD
HETATM   16  C6  UNL     1      24.332  -9.613   9.900  1.00  0.00     0.347 A 
HETATM   17  O3  UNL     1      23.886 -10.114   8.837  1.00  0.00    -0.245 OA
HETATM   18  N6  UNL     1      25.560 -10.005  10.293  1.00  0.00    -0.272 N 
ATOM     19  H6  UNL     1      26.081 -10.680   9.732  1.00  0.00     0.173 HD
HETATM   20  C7  UNL     1      26.101  -9.511  11.419  1.00  0.00     0.284 A 
HETATM   21  O4  UNL     1      27.257  -9.879  11.788  1.00  0.00    -0.265 OA
ENDROOT
BRANCH   1  22
HETATM   22  O1  UNL     1      25.932  -8.087  13.328  1.00  0.00    -0.350 OA
HETATM   23  C1  UNL     1      25.110  -7.273  14.144  1.00  0.00     0.210 C 
ENDBRANCH   1  22
TORSDOF 1
ENDMDL
MODEL 2
REMARK VINA RESULT: -6.453003904      1.147      1.163
REMARK  1 active torsions:
REMARK  status: ('A' for Active; 'I' for Inactive)
REMARK    1  A    between atoms: O1_2  and  C2_3 
REMARK       I    between atoms: N1_5  and  C4_6 
REMARK       I    between atoms: C4_6  and  N3_10 
ROOT
HETATM    1  C2  UNL     1      24.306  -8.982  11.959  1.00  0.00     0.153 A 
HETATM    2  C3  UNL     1      23.017  -8.621  11.602  1.00  0.00     0.162 A 
HETATM    3  N1  UNL     1      22.589  -8.719  10.331  1.00  0.00    -0.101 N 
HETATM    4  C4  UNL     1      21.269  -8.351   9.951  1.00  0.00     0.730 C 
HETATM    5  N2  UNL     1      21.068  -7.184   9.399  1.00  0.00    -0.231 N 
ATOM      6  H21 UNL     1      20.121  -6.920   9.126  1.00  0.00     0.174 HD
ATOM      7  H22 UNL     1      21.872  -6.571   9.258  1.00  0.00     0.174 HD
HETATM    8  N3  UNL     1      20.147  -9.206  10.147  1.00  0.00     0.155 N 
HETATM    9  O2  UNL     1      19.622  -9.823  11.165  1.00  0.00    -0.106 OA
HETATM   10  N4  UNL     1      18.659 -10.356  10.480  1.00  0.00    -0.068 N 
ATOM     11  H4  UNL     1      17.871 -10.971  10.681  1.00  0.00     0.216 HD
HETATM   12  C5  UNL     1      19.154  -9.744   9.387  1.00  0.00     0.741 A 
HETATM   13  N5  UNL     1      18.850  -9.672   8.143  1.00  0.00    -0.230 N 
ATOM     14  H51 UNL     1      18.106 -10.075   7.574  1.00  0.00     0.174 HD
ATOM     15  H52 UNL     1      19.225  -9.208   7.315  1.00  0.00     0.174 HD
HETATM   16  C6  UNL     1      23.452  -9.179   9.415  1.00  0.00     0.347 A 
HETATM   17  O3  UNL     1      23.097  -9.289   8.214  1.00  0.00    -0.245 OA
HETATM   18  N6  UNL     1      24.714  -9.544   9.715  1.00  0.00    -0.272 N 
ATOM     19  H6  UNL     1      25.331  -9.891   8.979  1.00  0.00     0.173 HD
HETATM   20  C7  UNL     1      25.164  -9.455  10.977  1.00  0.00     0.284 A 
HETATM   21  O4  UNL     1      26.351  -9.798  11.260  1.00  0.00    -0.265 OA
ENDROOT
BRANCH   1  22
HETATM   22  O1  UNL     1      24.771  -8.891  13.264  1.00  0.00    -0.350 OA
HETATM   23  C1  UNL     1      25.166  -7.612  13.726  1.00  0.00     0.210 C 
ENDBRANCH   1  22
TORSDOF 1
ENDMDL
MODEL 3
REMARK VINA RESULT: -5.808629043      2.223      5.412
REMARK  1 active torsions:
REMARK  status: ('A' for Active; 'I' for Inactive)
REMARK    1  A    between atoms: O1_2  and  C2_3 
REMARK       I    between atoms: N1_5  and  C4_6 
REMARK       I    between atoms: C4_6  and  N3_10 
ROOT
HETATM    1  C2  UNL     1      21.234  -8.461  10.136  1.00  0.00     0.153 A 
HETATM    2  C3  UNL     1      22.366  -9.197  10.446  1.00  0.00     0.162 A 
HETATM    3  N1  UNL     1      23.577  -8.854   9.975  1.00  0.00    -0.101 N 
HETATM    4  C4  UNL     1      24.746  -9.601  10.285  1.00  0.00     0.730 C 
HETATM    5  N2  UNL     1      25.205 -10.457   9.411  1.00  0.00    -0.231 N 
ATOM      6  H21 UNL     1      26.044 -10.993   9.634  1.00  0.00     0.174 HD
ATOM      7  H22 UNL     1      24.704 -10.561   8.528  1.00  0.00     0.174 HD
HETATM    8  N3  UNL     1      25.445  -9.456  11.518  1.00  0.00     0.155 N 
HETATM    9  O2  UNL     1      25.126  -9.538  12.777  1.00  0.00    -0.106 OA
HETATM   10  N4  UNL     1      26.321  -9.277  13.206  1.00  0.00    -0.068 N 
ATOM     11  H4  UNL     1      26.767  -9.185  14.118  1.00  0.00     0.216 HD
HETATM   12  C5  UNL     1      26.715  -9.178  11.922  1.00  0.00     0.741 A 
HETATM   13  N5  UNL     1      27.809  -8.928  11.300  1.00  0.00    -0.230 N 
ATOM     14  H51 UNL     1      28.760  -8.720  11.602  1.00  0.00     0.174 HD
ATOM     15  H52 UNL     1      28.107  -8.853  10.327  1.00  0.00     0.174 HD
HETATM   16  C6  UNL     1      23.657  -7.769   9.190  1.00  0.00     0.347 A 
HETATM   17  O3  UNL     1      24.768  -7.408   8.725  1.00  0.00    -0.245 OA
HETATM   18  N6  UNL     1      22.585  -7.021   8.862  1.00  0.00    -0.272 N 
ATOM     19  H6  UNL     1      22.701  -6.204   8.262  1.00  0.00     0.173 HD
HETATM   20  C7  UNL     1      21.365  -7.346   9.321  1.00  0.00     0.284 A 
HETATM   21  O4  UNL     1      20.357  -6.643   9.012  1.00  0.00    -0.265 OA
ENDROOT
BRANCH   1  22
HETATM   22  O1  UNL     1      19.973  -8.795  10.611  1.00  0.00    -0.350 OA
HETATM   23  C1  UNL     1      19.198  -9.686   9.829  1.00  0.00     0.210 C 
ENDBRANCH   1  22
TORSDOF 1
ENDMDL
MODEL 4
REMARK VINA RESULT: -4.006180849      2.357      5.321
REMARK  1 active torsions:
REMARK  status: ('A' for Active; 'I' for Inactive)
REMARK    1  A    between atoms: O1_2  and  C2_3 
REMARK       I    between atoms: N1_5  and  C4_6 
REMARK       I    between atoms: C4_6  and  N3_10 
ROOT
HETATM    1  C2  UNL     1      21.048  -7.607   9.607  1.00  0.00     0.153 A 
HETATM    2  C3  UNL     1      21.968  -8.359  10.318  1.00  0.00     0.162 A 
HETATM    3  N1  UNL     1      23.285  -8.288  10.055  1.00  0.00    -0.101 N 
HETATM    4  C4  UNL     1      24.240  -9.055  10.777  1.00  0.00     0.730 C 
HETATM    5  N2  UNL     1      24.706 -10.154  10.246  1.00  0.00    -0.231 N 
ATOM      6  H21 UNL     1      25.391 -10.705  10.764  1.00  0.00     0.174 HD
ATOM      7  H22 UNL     1      24.365 -10.427   9.324  1.00  0.00     0.174 HD
HETATM    8  N3  UNL     1      24.716  -8.674  12.065  1.00  0.00     0.155 N 
HETATM    9  O2  UNL     1      24.163  -8.390  13.207  1.00  0.00    -0.106 OA
HETATM   10  N4  UNL     1      25.285  -8.162  13.814  1.00  0.00    -0.068 N 
ATOM     11  H4  UNL     1      25.566  -7.887  14.755  1.00  0.00     0.216 HD
HETATM   12  C5  UNL     1      25.918  -8.444  12.659  1.00  0.00     0.741 A 
HETATM   13  N5  UNL     1      27.134  -8.489  12.251  1.00  0.00    -0.230 N 
ATOM     14  H51 UNL     1      28.035  -8.317  12.696  1.00  0.00     0.174 HD
ATOM     15  H52 UNL     1      27.613  -8.703  11.376  1.00  0.00     0.174 HD
HETATM   16  C6  UNL     1      23.682  -7.460   9.078  1.00  0.00     0.347 A 
HETATM   17  O3  UNL     1      24.903  -7.359   8.796  1.00  0.00    -0.245 OA
HETATM   18  N6  UNL     1      22.825  -6.708   8.360  1.00  0.00    -0.272 N 
ATOM     19  H6  UNL     1      23.180  -6.093   7.628  1.00  0.00     0.173 HD
HETATM   20  C7  UNL     1      21.506  -6.764   8.605  1.00  0.00     0.284 A 
HETATM   21  O4  UNL     1      20.699  -6.056   7.930  1.00  0.00    -0.265 OA
ENDROOT
BRANCH   1  22
HETATM   22  O1  UNL     1      19.684  -7.663   9.860  1.00  0.00    -0.350 OA
HETATM   23  C1  UNL     1      19.116  -6.602  10.608  1.00  0.00     0.210 C 
ENDBRANCH   1  22
TORSDOF 1
ENDMDL
MODEL 5
REMARK VINA RESULT: -3.878573818      1.982      3.243
REMARK  1 active torsions:
REMARK  status: ('A' for Active; 'I' for Inactive)
REMARK    1  A    between atoms: O1_2  and  C2_3 
REMARK       I    between atoms: N1_5  and  C4_6 
REMARK       I    between atoms: C4_6  and  N3_10 
ROOT
HETATM    1  C2  UNL     1      25.060  -9.571  10.236  1.00  0.00     0.153 A 
HETATM    2  C3  UNL     1      23.896  -9.374   9.512  1.00  0.00     0.162 A 
HETATM    3  N1  UNL     1      22.740  -9.052  10.117  1.00  0.00    -0.101 N 
HETATM    4  C4  UNL     1      21.538  -8.847   9.385  1.00  0.00     0.730 C 
HETATM    5  N2  UNL     1      20.657  -9.810   9.327  1.00  0.00    -0.231 N 
ATOM      6  H21 UNL     1      19.795  -9.662   8.801  1.00  0.00     0.174 HD
ATOM      7  H22 UNL     1      20.863 -10.683   9.812  1.00  0.00     0.174 HD
HETATM    8  N3  UNL     1      21.250  -7.627   8.708  1.00  0.00     0.155 N 
HETATM    9  O2  UNL     1      21.854  -6.903   7.812  1.00  0.00    -0.106 OA
HETATM   10  N4  UNL     1      20.926  -5.999   7.765  1.00  0.00    -0.068 N 
ATOM     11  H4  UNL     1      20.774  -5.132   7.249  1.00  0.00     0.216 HD
HETATM   12  C5  UNL     1      20.251  -6.703   8.693  1.00  0.00     0.741 A 
HETATM   13  N5  UNL     1      19.139  -6.588   9.322  1.00  0.00    -0.230 N 
ATOM     14  H51 UNL     1      18.390  -5.895   9.310  1.00  0.00     0.174 HD
ATOM     15  H52 UNL     1      18.627  -7.121  10.025  1.00  0.00     0.174 HD
HETATM   16  C6  UNL     1      22.748  -8.927  11.452  1.00  0.00     0.347 A 
HETATM   17  O3  UNL     1      21.691  -8.628  12.063  1.00  0.00    -0.245 OA
HETATM   18  N6  UNL     1      23.855  -9.108  12.199  1.00  0.00    -0.272 N 
ATOM     19  H6  UNL     1      23.807  -9.000  13.212  1.00  0.00     0.173 HD
HETATM   20  C7  UNL     1      25.021  -9.431  11.615  1.00  0.00     0.284 A 
HETATM   21  O4  UNL     1      26.062  -9.601  12.318  1.00  0.00    -0.265 OA
ENDROOT
BRANCH   1  22
HETATM   22  O1  UNL     1      26.266  -9.903   9.633  1.00  0.00    -0.350 OA
HETATM   23  C1  UNL     1      27.219  -8.868   9.470  1.00  0.00     0.210 C 
ENDBRANCH   1  22
TORSDOF 1
ENDMDL
