MODEL 1
REMARK VINA RESULT: -9.681418892      0.000      0.000
REMARK  16 active torsions:
REMARK  status: ('A' for Active; 'I' for Inactive)
REMARK    1  A    between atoms: C2_2  and  C3_3 
REMARK       I    between atoms: C3_3  and  N1_5 
REMARK    2  A    between atoms: N1_5  and  C4_7 
REMARK    3  A    between atoms: C4_7  and  C5_8 
REMARK    4  A    between atoms: C5_8  and  C6_9 
REMARK    5  A    between atoms: C6_9  and  C7_10 
REMARK    6  A    between atoms: C7_10  and  N2_11 
REMARK       I    between atoms: N2_11  and  C8_13 
REMARK    7  A    between atoms: C8_13  and  C9_15 
REMARK    8  A    between atoms: N3_19  and  C13_20 
REMARK    9  A    between atoms: C13_20  and  O3_21 
REMARK   10  A    between atoms: C13_20  and  C14_23 
REMARK   11  A    between atoms: C14_23  and  C15_24 
REMARK   12  A    between atoms: C14_23  and  C19_32 
REMARK   13  A    between atoms: C15_24  and  C16_25 
REMARK   14  A    between atoms: C16_25  and  C17_26 
REMARK   15  A    between atoms: C17_26  and  N4_27 
REMARK   16  A    between atoms: C19_32  and  C20_33 
ROOT
HETATM    1  C9  UNL     1       2.668  22.009   6.340  1.00  0.00     0.174 C 
HETATM    2  C10 UNL     1       2.684  21.084   7.583  1.00  0.00     0.036 C 
HETATM    3  C11 UNL     1       2.332  22.009   8.694  1.00  0.00     0.022 C 
HETATM    4  C12 UNL     1       1.830  23.275   8.079  1.00  0.00     0.120 C 
HETATM    5  N3  UNL     1       1.832  23.072   6.631  1.00  0.00    -0.374 N 
ENDROOT
BRANCH   5   6
HETATM    6  C13 UNL     1       0.616  23.357   6.070  1.00  0.00     0.220 C 
BRANCH   6   7
HETATM    7  O3  UNL     1       0.807  24.414   5.127  1.00  0.00    -0.377 OA
ATOM      8  H3  UNL     1      -0.016  24.547   4.670  1.00  0.00     0.212 HD
ENDBRANCH   6   7
BRANCH   6   9
HETATM    9  C14 UNL     1      -0.618  23.630   6.879  1.00  0.00     0.034 C 
BRANCH   9  10
HETATM   10  C15 UNL     1      -1.023  25.071   6.676  1.00  0.00     0.010 C 
BRANCH  10  11
HETATM   11  C16 UNL     1      -0.701  25.957   7.865  1.00  0.00     0.020 C 
BRANCH  11  12
HETATM   12  C17 UNL     1      -1.930  26.201   8.713  1.00  0.00     0.122 C 
BRANCH  12  13
HETATM   13  N4  UNL     1      -2.774  27.240   8.188  1.00  0.00    -0.367 N 
HETATM   14  C18 UNL     1      -3.973  27.444   8.621  1.00  0.00     0.196 C 
HETATM   15  N5  UNL     1      -4.809  28.461   8.113  1.00  0.00    -0.067 NA
HETATM   16  N6  UNL     1      -4.446  26.589   9.655  1.00  0.00    -0.067 NA
ATOM     17  H4  UNL     1      -2.411  27.839   7.446  1.00  0.00     0.161 HD
ENDBRANCH  12  13
ENDBRANCH  11  12
ENDBRANCH  10  11
ENDBRANCH   9  10
BRANCH   9  18
HETATM   18  C19 UNL     1      -1.752  22.705   6.662  1.00  0.00     0.013 C 
BRANCH  18  19
HETATM   19  C20 UNL     1      -2.704  22.427   7.766  1.00  0.00    -0.014 C 
HETATM   20  C21 UNL     1      -3.878  23.344   7.853  1.00  0.00     0.005 C 
HETATM   21  C22 UNL     1      -5.036  22.874   8.637  1.00  0.00     0.000 C 
HETATM   22  C23 UNL     1      -4.726  21.670   9.530  1.00  0.00     0.000 C 
HETATM   23  C24 UNL     1      -4.248  20.599   8.573  1.00  0.00     0.000 C 
HETATM   24  C25 UNL     1      -2.872  21.007   8.111  1.00  0.00     0.005 C 
ENDBRANCH  18  19
ENDBRANCH   9  18
ENDBRANCH   6   9
ENDBRANCH   5   6
BRANCH   1  25
HETATM   25  C8  UNL     1       4.127  22.441   6.172  1.00  0.00     0.244 C 
HETATM   26  N2  UNL     1       4.450  23.574   5.446  1.00  0.00    -0.335 N 
ATOM     27  H2  UNL     1       3.631  24.034   5.049  1.00  0.00     0.168 HD
HETATM   28  O2  UNL     1       4.987  21.721   6.720  1.00  0.00    -0.271 OA
BRANCH  26  29
HETATM   29  C7  UNL     1       5.651  24.235   5.132  1.00  0.00     0.091 C 
BRANCH  29  30
HETATM   30  C6  UNL     1       6.958  23.678   5.517  1.00  0.00     0.018 C 
BRANCH  30  31
HETATM   31  C5  UNL     1       8.044  23.459   4.572  1.00  0.00     0.018 C 
BRANCH  31  32
HETATM   32  C4  UNL     1       9.046  24.490   4.251  1.00  0.00     0.091 C 
BRANCH  32  33
HETATM   33  N1  UNL     1       9.531  24.618   2.943  1.00  0.00    -0.334 N 
HETATM   34  C3  UNL     1       8.914  25.002   1.749  1.00  0.00     0.244 C 
HETATM   35  O1  UNL     1       7.695  25.312   1.615  1.00  0.00    -0.268 OA
ATOM     36  H1  UNL     1      10.520  24.387   2.843  1.00  0.00     0.168 HD
BRANCH  34  37
HETATM   37  C2  UNL     1       9.659  25.086   0.465  1.00  0.00     0.064 C 
HETATM   38  C1  UNL     1       9.966  24.024  -0.201  1.00  0.00     0.017 C 
ENDBRANCH  34  37
ENDBRANCH  32  33
ENDBRANCH  31  32
ENDBRANCH  30  31
ENDBRANCH  29  30
ENDBRANCH  26  29
ENDBRANCH   1  25
TORSDOF 16
ENDMDL
MODEL 2
REMARK VINA RESULT: -9.644325002      1.335      1.718
REMARK  16 active torsions:
REMARK  status: ('A' for Active; 'I' for Inactive)
REMARK    1  A    between atoms: C2_2  and  C3_3 
REMARK       I    between atoms: C3_3  and  N1_5 
REMARK    2  A    between atoms: N1_5  and  C4_7 
REMARK    3  A    between atoms: C4_7  and  C5_8 
REMARK    4  A    between atoms: C5_8  and  C6_9 
REMARK    5  A    between atoms: C6_9  and  C7_10 
REMARK    6  A    between atoms: C7_10  and  N2_11 
REMARK       I    between atoms: N2_11  and  C8_13 
REMARK    7  A    between atoms: C8_13  and  C9_15 
REMARK    8  A    between atoms: N3_19  and  C13_20 
REMARK    9  A    between atoms: C13_20  and  O3_21 
REMARK   10  A    between atoms: C13_20  and  C14_23 
REMARK   11  A    between atoms: C14_23  and  C15_24 
REMARK   12  A    between atoms: C14_23  and  C19_32 
REMARK   13  A    between atoms: C15_24  and  C16_25 
REMARK   14  A    between atoms: C16_25  and  C17_26 
REMARK   15  A    between atoms: C17_26  and  N4_27 
REMARK   16  A    between atoms: C19_32  and  C20_33 
ROOT
HETATM    1  C9  UNL     1       2.696  21.985   6.395  1.00  0.00     0.174 C 
HETATM    2  C10 UNL     1       2.711  21.134   7.689  1.00  0.00     0.036 C 
HETATM    3  C11 UNL     1       2.372  22.124   8.746  1.00  0.00     0.022 C 
HETATM    4  C12 UNL     1       1.876  23.356   8.062  1.00  0.00     0.120 C 
HETATM    5  N3  UNL     1       1.870  23.069   6.628  1.00  0.00    -0.374 N 
ENDROOT
BRANCH   5   6
HETATM    6  C13 UNL     1       0.652  23.331   6.057  1.00  0.00     0.220 C 
BRANCH   6   7
HETATM    7  O3  UNL     1       0.841  24.353   5.076  1.00  0.00    -0.377 OA
ATOM      8  H3  UNL     1      -0.009  24.735   4.887  1.00  0.00     0.212 HD
ENDBRANCH   6   7
BRANCH   6   9
HETATM    9  C14 UNL     1      -0.582  23.631   6.857  1.00  0.00     0.034 C 
BRANCH   9  10
HETATM   10  C15 UNL     1      -0.996  25.060   6.593  1.00  0.00     0.010 C 
BRANCH  10  11
HETATM   11  C16 UNL     1      -0.835  25.964   7.801  1.00  0.00     0.020 C 
BRANCH  11  12
HETATM   12  C17 UNL     1      -0.985  27.419   7.418  1.00  0.00     0.122 C 
BRANCH  12  13
HETATM   13  N4  UNL     1       0.191  28.196   7.702  1.00  0.00    -0.367 N 
HETATM   14  C18 UNL     1       0.155  29.275   8.410  1.00  0.00     0.196 C 
HETATM   15  N5  UNL     1       1.303  30.045   8.694  1.00  0.00    -0.067 NA
HETATM   16  N6  UNL     1      -1.113  29.683   8.910  1.00  0.00    -0.067 NA
ATOM     17  H4  UNL     1       1.088  27.882   7.331  1.00  0.00     0.161 HD
ENDBRANCH  12  13
ENDBRANCH  11  12
ENDBRANCH  10  11
ENDBRANCH   9  10
BRANCH   9  18
HETATM   18  C19 UNL     1      -1.710  22.692   6.681  1.00  0.00     0.013 C 
BRANCH  18  19
HETATM   19  C20 UNL     1      -2.687  22.492   7.781  1.00  0.00    -0.014 C 
HETATM   20  C21 UNL     1      -3.809  23.475   7.835  1.00  0.00     0.005 C 
HETATM   21  C22 UNL     1      -4.999  23.087   8.617  1.00  0.00     0.000 C 
HETATM   22  C23 UNL     1      -4.764  21.889   9.540  1.00  0.00     0.000 C 
HETATM   23  C24 UNL     1      -4.337  20.772   8.612  1.00  0.00     0.000 C 
HETATM   24  C25 UNL     1      -2.936  21.092   8.156  1.00  0.00     0.005 C 
ENDBRANCH  18  19
ENDBRANCH   9  18
ENDBRANCH   6   9
ENDBRANCH   5   6
BRANCH   1  25
HETATM   25  C8  UNL     1       4.157  22.395   6.195  1.00  0.00     0.244 C 
HETATM   26  N2  UNL     1       4.482  23.509   5.441  1.00  0.00    -0.335 N 
ATOM     27  H2  UNL     1       3.662  23.971   5.047  1.00  0.00     0.168 HD
HETATM   28  O2  UNL     1       5.016  21.675   6.745  1.00  0.00    -0.271 OA
BRANCH  26  29
HETATM   29  C7  UNL     1       5.686  24.148   5.094  1.00  0.00     0.091 C 
BRANCH  29  30
HETATM   30  C6  UNL     1       6.985  23.656   5.581  1.00  0.00     0.018 C 
BRANCH  30  31
HETATM   31  C5  UNL     1       8.127  23.416   4.711  1.00  0.00     0.018 C 
BRANCH  31  32
HETATM   32  C4  UNL     1       9.067  24.478   4.313  1.00  0.00     0.091 C 
BRANCH  32  33
HETATM   33  N1  UNL     1       9.523  24.555   2.990  1.00  0.00    -0.334 N 
HETATM   34  C3  UNL     1       8.891  24.941   1.803  1.00  0.00     0.244 C 
HETATM   35  O1  UNL     1       7.683  25.302   1.694  1.00  0.00    -0.268 OA
ATOM     36  H1  UNL     1      10.498  24.279   2.869  1.00  0.00     0.168 HD
BRANCH  34  37
HETATM   37  C2  UNL     1       9.604  24.965   0.499  1.00  0.00     0.064 C 
HETATM   38  C1  UNL     1      10.222  26.024   0.095  1.00  0.00     0.017 C 
ENDBRANCH  34  37
ENDBRANCH  32  33
ENDBRANCH  31  32
ENDBRANCH  30  31
ENDBRANCH  29  30
ENDBRANCH  26  29
ENDBRANCH   1  25
TORSDOF 16
ENDMDL
MODEL 3
REMARK VINA RESULT: -9.593790076      2.173      2.888
REMARK  16 active torsions:
REMARK  status: ('A' for Active; 'I' for Inactive)
REMARK    1  A    between atoms: C2_2  and  C3_3 
REMARK       I    between atoms: C3_3  and  N1_5 
REMARK    2  A    between atoms: N1_5  and  C4_7 
REMARK    3  A    between atoms: C4_7  and  C5_8 
REMARK    4  A    between atoms: C5_8  and  C6_9 
REMARK    5  A    between atoms: C6_9  and  C7_10 
REMARK    6  A    between atoms: C7_10  and  N2_11 
REMARK       I    between atoms: N2_11  and  C8_13 
REMARK    7  A    between atoms: C8_13  and  C9_15 
REMARK    8  A    between atoms: N3_19  and  C13_20 
REMARK    9  A    between atoms: C13_20  and  O3_21 
REMARK   10  A    between atoms: C13_20  and  C14_23 
REMARK   11  A    between atoms: C14_23  and  C15_24 
REMARK   12  A    between atoms: C14_23  and  C19_32 
REMARK   13  A    between atoms: C15_24  and  C16_25 
REMARK   14  A    between atoms: C16_25  and  C17_26 
REMARK   15  A    between atoms: C17_26  and  N4_27 
REMARK   16  A    between atoms: C19_32  and  C20_33 
ROOT
HETATM    1  C9  UNL     1       2.738  22.427   6.098  1.00  0.00     0.174 C 
HETATM    2  C10 UNL     1       2.987  21.184   6.990  1.00  0.00     0.036 C 
HETATM    3  C11 UNL     1       2.693  21.688   8.358  1.00  0.00     0.022 C 
HETATM    4  C12 UNL     1       2.011  23.009   8.211  1.00  0.00     0.120 C 
HETATM    5  N3  UNL     1       1.854  23.246   6.777  1.00  0.00    -0.374 N 
ENDROOT
BRANCH   5   6
HETATM    6  C13 UNL     1       0.558  23.536   6.442  1.00  0.00     0.220 C 
BRANCH   6   7
HETATM    7  O3  UNL     1       0.585  24.502   5.388  1.00  0.00    -0.377 OA
ATOM      8  H3  UNL     1       0.268  24.078   4.599  1.00  0.00     0.212 HD
ENDBRANCH   6   7
BRANCH   6   9
HETATM    9  C14 UNL     1      -0.482  23.929   7.450  1.00  0.00     0.034 C 
BRANCH   9  10
HETATM   10  C15 UNL     1      -0.267  25.375   7.831  1.00  0.00     0.010 C 
BRANCH  10  11
HETATM   11  C16 UNL     1      -1.540  26.200   7.793  1.00  0.00     0.020 C 
BRANCH  11  12
HETATM   12  C17 UNL     1      -1.301  27.543   7.139  1.00  0.00     0.122 C 
BRANCH  12  13
HETATM   13  N4  UNL     1      -0.036  28.123   7.500  1.00  0.00    -0.367 N 
HETATM   14  C18 UNL     1       0.061  29.128   8.305  1.00  0.00     0.196 C 
HETATM   15  N5  UNL     1       1.297  29.705   8.666  1.00  0.00    -0.067 NA
HETATM   16  N6  UNL     1      -1.150  29.658   8.834  1.00  0.00    -0.067 NA
ATOM     17  H4  UNL     1       0.817  27.725   7.107  1.00  0.00     0.161 HD
ENDBRANCH  12  13
ENDBRANCH  11  12
ENDBRANCH  10  11
ENDBRANCH   9  10
BRANCH   9  18
HETATM   18  C19 UNL     1      -1.886  23.665   7.068  1.00  0.00     0.013 C 
BRANCH  18  19
HETATM   19  C20 UNL     1      -2.727  22.773   7.905  1.00  0.00    -0.014 C 
HETATM   20  C21 UNL     1      -4.115  23.253   8.166  1.00  0.00     0.005 C 
HETATM   21  C22 UNL     1      -5.096  22.247   8.617  1.00  0.00     0.000 C 
HETATM   22  C23 UNL     1      -4.461  20.935   9.084  1.00  0.00     0.000 C 
HETATM   23  C24 UNL     1      -3.687  20.438   7.881  1.00  0.00     0.000 C 
HETATM   24  C25 UNL     1      -2.482  21.332   7.735  1.00  0.00     0.005 C 
ENDBRANCH  18  19
ENDBRANCH   9  18
ENDBRANCH   6   9
ENDBRANCH   5   6
BRANCH   1  25
HETATM   25  C8  UNL     1       4.123  23.062   5.941  1.00  0.00     0.244 C 
HETATM   26  N2  UNL     1       5.248  22.434   6.443  1.00  0.00    -0.335 N 
ATOM     27  H2  UNL     1       5.033  21.559   6.919  1.00  0.00     0.168 HD
HETATM   28  O2  UNL     1       4.167  24.157   5.344  1.00  0.00    -0.271 OA
BRANCH  26  29
HETATM   29  C7  UNL     1       6.624  22.730   6.445  1.00  0.00     0.091 C 
BRANCH  29  30
HETATM   30  C6  UNL     1       7.428  22.658   5.215  1.00  0.00     0.018 C 
BRANCH  30  31
HETATM   31  C5  UNL     1       8.087  23.812   4.621  1.00  0.00     0.018 C 
BRANCH  31  32
HETATM   32  C4  UNL     1       7.347  24.956   4.061  1.00  0.00     0.091 C 
BRANCH  32  33
HETATM   33  N1  UNL     1       7.330  26.183   4.737  1.00  0.00    -0.334 N 
HETATM   34  C3  UNL     1       8.350  27.072   5.089  1.00  0.00     0.244 C 
HETATM   35  O1  UNL     1       9.584  26.908   4.860  1.00  0.00    -0.268 OA
ATOM     36  H1  UNL     1       6.399  26.484   5.027  1.00  0.00     0.168 HD
BRANCH  34  37
HETATM   37  C2  UNL     1       8.076  28.350   5.798  1.00  0.00     0.064 C 
HETATM   38  C1  UNL     1       7.695  28.362   7.032  1.00  0.00     0.017 C 
ENDBRANCH  34  37
ENDBRANCH  32  33
ENDBRANCH  31  32
ENDBRANCH  30  31
ENDBRANCH  29  30
ENDBRANCH  26  29
ENDBRANCH   1  25
TORSDOF 16
ENDMDL
MODEL 4
REMARK VINA RESULT: -9.592337549      0.977      1.134
REMARK  16 active torsions:
REMARK  status: ('A' for Active; 'I' for Inactive)
REMARK    1  A    between atoms: C2_2  and  C3_3 
REMARK       I    between atoms: C3_3  and  N1_5 
REMARK    2  A    between atoms: N1_5  and  C4_7 
REMARK    3  A    between atoms: C4_7  and  C5_8 
REMARK    4  A    between atoms: C5_8  and  C6_9 
REMARK    5  A    between atoms: C6_9  and  C7_10 
REMARK    6  A    between atoms: C7_10  and  N2_11 
REMARK       I    between atoms: N2_11  and  C8_13 
REMARK    7  A    between atoms: C8_13  and  C9_15 
REMARK    8  A    between atoms: N3_19  and  C13_20 
REMARK    9  A    between atoms: C13_20  and  O3_21 
REMARK   10  A    between atoms: C13_20  and  C14_23 
REMARK   11  A    between atoms: C14_23  and  C15_24 
REMARK   12  A    between atoms: C14_23  and  C19_32 
REMARK   13  A    between atoms: C15_24  and  C16_25 
REMARK   14  A    between atoms: C16_25  and  C17_26 
REMARK   15  A    between atoms: C17_26  and  N4_27 
REMARK   16  A    between atoms: C19_32  and  C20_33 
ROOT
HETATM    1  C9  UNL     1       2.995  22.308   6.085  1.00  0.00     0.174 C 
HETATM    2  C10 UNL     1       3.258  21.322   7.252  1.00  0.00     0.036 C 
HETATM    3  C11 UNL     1       2.781  22.076   8.442  1.00  0.00     0.022 C 
HETATM    4  C12 UNL     1       2.003  23.251   7.944  1.00  0.00     0.120 C 
HETATM    5  N3  UNL     1       1.976  23.153   6.486  1.00  0.00    -0.374 N 
ENDROOT
BRANCH   5   6
HETATM    6  C13 UNL     1       0.701  23.219   5.989  1.00  0.00     0.220 C 
BRANCH   6   7
HETATM    7  O3  UNL     1       0.717  24.098   4.862  1.00  0.00    -0.377 OA
ATOM      8  H3  UNL     1       1.371  23.775   4.252  1.00  0.00     0.212 HD
ENDBRANCH   6   7
BRANCH   6   9
HETATM    9  C14 UNL     1      -0.497  23.525   6.841  1.00  0.00     0.034 C 
BRANCH   9  10
HETATM   10  C15 UNL     1      -0.887  24.969   6.629  1.00  0.00     0.010 C 
BRANCH  10  11
HETATM   11  C16 UNL     1      -0.688  25.831   7.861  1.00  0.00     0.020 C 
BRANCH  11  12
HETATM   12  C17 UNL     1      -1.208  27.233   7.636  1.00  0.00     0.122 C 
BRANCH  12  13
HETATM   13  N4  UNL     1      -2.644  27.302   7.630  1.00  0.00    -0.367 N 
HETATM   14  C18 UNL     1      -3.292  28.301   8.130  1.00  0.00     0.196 C 
HETATM   15  N5  UNL     1      -4.702  28.378   8.129  1.00  0.00    -0.067 NA
HETATM   16  N6  UNL     1      -2.525  29.354   8.701  1.00  0.00    -0.067 NA
ATOM     17  H4  UNL     1      -3.171  26.534   7.215  1.00  0.00     0.161 HD
ENDBRANCH  12  13
ENDBRANCH  11  12
ENDBRANCH  10  11
ENDBRANCH   9  10
BRANCH   9  18
HETATM   18  C19 UNL     1      -1.651  22.615   6.683  1.00  0.00     0.013 C 
BRANCH  18  19
HETATM   19  C20 UNL     1      -2.656  22.497   7.770  1.00  0.00    -0.014 C 
HETATM   20  C21 UNL     1      -3.749  23.512   7.751  1.00  0.00     0.005 C 
HETATM   21  C22 UNL     1      -4.966  23.198   8.524  1.00  0.00     0.000 C 
HETATM   22  C23 UNL     1      -4.787  22.039   9.509  1.00  0.00     0.000 C 
HETATM   23  C24 UNL     1      -4.374  20.867   8.645  1.00  0.00     0.000 C 
HETATM   24  C25 UNL     1      -2.955  21.123   8.205  1.00  0.00     0.005 C 
ENDBRANCH  18  19
ENDBRANCH   9  18
ENDBRANCH   6   9
ENDBRANCH   5   6
BRANCH   1  25
HETATM   25  C8  UNL     1       4.326  23.041   5.902  1.00  0.00     0.244 C 
HETATM   26  N2  UNL     1       5.518  22.444   6.274  1.00  0.00    -0.335 N 
ATOM     27  H2  UNL     1       5.385  21.518   6.680  1.00  0.00     0.168 HD
HETATM   28  O2  UNL     1       4.267  24.185   5.406  1.00  0.00    -0.271 OA
BRANCH  26  29
HETATM   29  C7  UNL     1       6.871  22.826   6.218  1.00  0.00     0.091 C 
BRANCH  29  30
HETATM   30  C6  UNL     1       7.555  23.048   4.935  1.00  0.00     0.018 C 
BRANCH  30  31
HETATM   31  C5  UNL     1       8.888  23.625   4.828  1.00  0.00     0.018 C 
BRANCH  31  32
HETATM   32  C4  UNL     1       9.132  24.978   4.299  1.00  0.00     0.091 C 
BRANCH  32  33
HETATM   33  N1  UNL     1       9.603  25.148   2.990  1.00  0.00    -0.334 N 
HETATM   34  C3  UNL     1       8.940  25.282   1.767  1.00  0.00     0.244 C 
HETATM   35  O1  UNL     1       7.686  25.251   1.600  1.00  0.00    -0.268 OA
ATOM     36  H1  UNL     1      10.620  25.180   2.916  1.00  0.00     0.168 HD
BRANCH  34  37
HETATM   37  C2  UNL     1       9.671  25.480   0.488  1.00  0.00     0.064 C 
HETATM   38  C1  UNL     1      10.709  26.245   0.423  1.00  0.00     0.017 C 
ENDBRANCH  34  37
ENDBRANCH  32  33
ENDBRANCH  31  32
ENDBRANCH  30  31
ENDBRANCH  29  30
ENDBRANCH  26  29
ENDBRANCH   1  25
TORSDOF 16
ENDMDL
MODEL 5
REMARK VINA RESULT: -9.577619266      1.780      2.477
REMARK  16 active torsions:
REMARK  status: ('A' for Active; 'I' for Inactive)
REMARK    1  A    between atoms: C2_2  and  C3_3 
REMARK       I    between atoms: C3_3  and  N1_5 
REMARK    2  A    between atoms: N1_5  and  C4_7 
REMARK    3  A    between atoms: C4_7  and  C5_8 
REMARK    4  A    between atoms: C5_8  and  C6_9 
REMARK    5  A    between atoms: C6_9  and  C7_10 
REMARK    6  A    between atoms: C7_10  and  N2_11 
REMARK       I    between atoms: N2_11  and  C8_13 
REMARK    7  A    between atoms: C8_13  and  C9_15 
REMARK    8  A    between atoms: N3_19  and  C13_20 
REMARK    9  A    between atoms: C13_20  and  O3_21 
REMARK   10  A    between atoms: C13_20  and  C14_23 
REMARK   11  A    between atoms: C14_23  and  C15_24 
REMARK   12  A    between atoms: C14_23  and  C19_32 
REMARK   13  A    between atoms: C15_24  and  C16_25 
REMARK   14  A    between atoms: C16_25  and  C17_26 
REMARK   15  A    between atoms: C17_26  and  N4_27 
REMARK   16  A    between atoms: C19_32  and  C20_33 
ROOT
HETATM    1  C9  UNL     1       2.893  22.363   6.049  1.00  0.00     0.174 C 
HETATM    2  C10 UNL     1       3.102  21.260   7.117  1.00  0.00     0.036 C 
HETATM    3  C11 UNL     1       2.669  21.925   8.375  1.00  0.00     0.022 C 
HETATM    4  C12 UNL     1       1.958  23.183   7.994  1.00  0.00     0.120 C 
HETATM    5  N3  UNL     1       1.924  23.223   6.533  1.00  0.00    -0.374 N 
ENDROOT
BRANCH   5   6
HETATM    6  C13 UNL     1       0.654  23.407   6.053  1.00  0.00     0.220 C 
BRANCH   6   7
HETATM    7  O3  UNL     1       0.699  24.467   5.095  1.00  0.00    -0.377 OA
ATOM      8  H3  UNL     1       0.109  24.241   4.385  1.00  0.00     0.212 HD
ENDBRANCH   6   7
BRANCH   6   9
HETATM    9  C14 UNL     1      -0.541  23.591   6.943  1.00  0.00     0.034 C 
BRANCH   9  10
HETATM   10  C15 UNL     1      -0.981  25.034   6.872  1.00  0.00     0.010 C 
BRANCH  10  11
HETATM   11  C16 UNL     1      -0.672  25.817   8.134  1.00  0.00     0.020 C 
BRANCH  11  12
HETATM   12  C17 UNL     1      -1.777  26.801   8.449  1.00  0.00     0.122 C 
BRANCH  12  13
HETATM   13  N4  UNL     1      -2.696  26.312   9.440  1.00  0.00    -0.367 N 
HETATM   14  C18 UNL     1      -3.926  26.700   9.496  1.00  0.00     0.196 C 
HETATM   15  N5  UNL     1      -4.837  26.225  10.465  1.00  0.00    -0.067 NA
HETATM   16  N6  UNL     1      -4.354  27.649   8.527  1.00  0.00    -0.067 NA
ATOM     17  H4  UNL     1      -2.364  25.632  10.124  1.00  0.00     0.161 HD
ENDBRANCH  12  13
ENDBRANCH  11  12
ENDBRANCH  10  11
ENDBRANCH   9  10
BRANCH   9  18
HETATM   18  C19 UNL     1      -1.667  22.661   6.712  1.00  0.00     0.013 C 
BRANCH  18  19
HETATM   19  C20 UNL     1      -2.662  22.419   7.788  1.00  0.00    -0.014 C 
HETATM   20  C21 UNL     1      -3.816  23.364   7.825  1.00  0.00     0.005 C 
HETATM   21  C22 UNL     1      -5.009  22.930   8.576  1.00  0.00     0.000 C 
HETATM   22  C23 UNL     1      -4.757  21.732   9.494  1.00  0.00     0.000 C 
HETATM   23  C24 UNL     1      -4.272  20.638   8.567  1.00  0.00     0.000 C 
HETATM   24  C25 UNL     1      -2.873  21.008   8.146  1.00  0.00     0.005 C 
ENDBRANCH  18  19
ENDBRANCH   9  18
ENDBRANCH   6   9
ENDBRANCH   5   6
BRANCH   1  25
HETATM   25  C8  UNL     1       4.264  23.035   5.926  1.00  0.00     0.244 C 
HETATM   26  N2  UNL     1       5.402  22.406   6.396  1.00  0.00    -0.335 N 
ATOM     27  H2  UNL     1       5.205  21.503   6.828  1.00  0.00     0.168 HD
HETATM   28  O2  UNL     1       4.285  24.159   5.385  1.00  0.00    -0.271 OA
BRANCH  26  29
HETATM   29  C7  UNL     1       6.771  22.731   6.415  1.00  0.00     0.091 C 
BRANCH  29  30
HETATM   30  C6  UNL     1       7.590  22.684   5.194  1.00  0.00     0.018 C 
BRANCH  30  31
HETATM   31  C5  UNL     1       8.245  23.852   4.624  1.00  0.00     0.018 C 
BRANCH  31  32
HETATM   32  C4  UNL     1       7.502  24.963   4.004  1.00  0.00     0.091 C 
BRANCH  32  33
HETATM   33  N1  UNL     1       7.287  26.151   4.716  1.00  0.00    -0.334 N 
HETATM   34  C3  UNL     1       8.166  27.123   5.202  1.00  0.00     0.244 C 
HETATM   35  O1  UNL     1       9.427  27.097   5.097  1.00  0.00    -0.268 OA
ATOM     36  H1  UNL     1       6.305  26.342   4.918  1.00  0.00     0.168 HD
BRANCH  34  37
HETATM   37  C2  UNL     1       7.688  28.333   5.922  1.00  0.00     0.064 C 
HETATM   38  C1  UNL     1       7.820  28.446   7.202  1.00  0.00     0.017 C 
ENDBRANCH  34  37
ENDBRANCH  32  33
ENDBRANCH  31  32
ENDBRANCH  30  31
ENDBRANCH  29  30
ENDBRANCH  26  29
ENDBRANCH   1  25
TORSDOF 16
ENDMDL
