MODEL 1
REMARK VINA RESULT: -7.996537362      0.000      0.000
REMARK  7 active torsions:
REMARK  status: ('A' for Active; 'I' for Inactive)
REMARK    1  A    between atoms: C4_4  and  C5_5 
REMARK    2  A    between atoms: N2_14  and  C13_15 
REMARK    3  A    between atoms: C13_15  and  C14_16 
REMARK    4  A    between atoms: C14_16  and  C15_17 
REMARK    5  A    between atoms: C15_17  and  C16_18 
REMARK    6  A    between atoms: C16_18  and  N3_19 
REMARK    7  A    between atoms: C19_27  and  N6_28 
REMARK       I    between atoms: N6_28  and  C20_30 
ROOT
HETATM    1  C15 UNL     1      15.206  -8.365  13.897  1.00  0.00     0.022 C 
ENDROOT
BRANCH   1   2
HETATM    2  C14 UNL     1      15.952  -9.585  14.380  1.00  0.00     0.022 C 
BRANCH   2   3
HETATM    3  C13 UNL     1      17.291  -9.726  13.679  1.00  0.00     0.128 C 
BRANCH   3   4
HETATM    4  N2  UNL     1      17.224 -10.849  12.769  1.00  0.00    -0.360 N 
HETATM    5  C2  UNL     1      17.780 -10.778  11.552  1.00  0.00     0.008 A 
HETATM    6  C1  UNL     1      18.472  -9.542  11.143  1.00  0.00     0.068 C 
HETATM    7  C3  UNL     1      17.732 -11.824  10.660  1.00  0.00     0.037 A 
HETATM    8  C4  UNL     1      17.099 -12.989  11.008  1.00  0.00    -0.021 A 
HETATM    9  C11 UNL     1      16.522 -13.081  12.256  1.00  0.00     0.029 A 
HETATM   10  C12 UNL     1      16.597 -12.006  13.111  1.00  0.00     0.092 A 
BRANCH   8  11
HETATM   11  C5  UNL     1      17.036 -14.131  10.064  1.00  0.00    -0.010 A 
HETATM   12  C6  UNL     1      16.333 -13.980   8.896  1.00  0.00     0.015 A 
HETATM   13  C7  UNL     1      16.295 -15.079   8.030  1.00  0.00     0.018 A 
HETATM   14  C8  UNL     1      16.951 -16.239   8.384  1.00  0.00     0.090 A 
HETATM   15  N1  UNL     1      17.639 -16.377   9.533  1.00  0.00    -0.370 N 
HETATM   16  C9  UNL     1      18.305 -17.632   9.833  1.00  0.00     0.154 C 
HETATM   17  C10 UNL     1      17.671 -15.319  10.358  1.00  0.00     0.102 A 
ENDBRANCH   8  11
ENDBRANCH   3   4
ENDBRANCH   2   3
ENDBRANCH   1   2
BRANCH   1  18
HETATM   18  C16 UNL     1      16.056  -7.455  13.073  1.00  0.00     0.148 C 
BRANCH  18  19
HETATM   19  N3  UNL     1      16.148  -6.175  13.784  1.00  0.00    -0.179 N 
HETATM   20  C17 UNL     1      16.168  -6.086  15.114  1.00  0.00     0.205 A 
HETATM   21  N4  UNL     1      16.253  -4.904  15.748  1.00  0.00    -0.303 N 
HETATM   22  C18 UNL     1      16.320  -3.766  15.036  1.00  0.00     0.339 A 
ATOM     23  H4  UNL     1      16.266  -4.871  16.767  1.00  0.00     0.171 HD
HETATM   24  O1  UNL     1      16.401  -2.627  15.586  1.00  0.00    -0.246 OA
HETATM   25  N5  UNL     1      16.302  -3.834  13.683  1.00  0.00    -0.141 N 
HETATM   26  C19 UNL     1      16.217  -5.023  13.060  1.00  0.00     0.691 A 
ATOM     27  H5  UNL     1      16.352  -2.976  13.133  1.00  0.00     0.189 HD
BRANCH  26  28
HETATM   28  N6  UNL     1      16.200  -5.098  11.761  1.00  0.00    -0.163 N 
HETATM   29  C20 UNL     1      16.740  -4.014  11.011  1.00  0.00     0.200 C 
HETATM   30  N7  UNL     1      17.998  -3.879  10.792  1.00  0.00    -0.373 N 
HETATM   31  N8  UNL     1      15.803  -3.064  10.505  1.00  0.00    -0.063 NA
ATOM     32  H72 UNL     1      18.668  -4.558  11.154  1.00  0.00     0.158 HD
ATOM     33  H71 UNL     1      18.385  -3.103  10.256  1.00  0.00     0.158 HD
ATOM     34  H6  UNL     1      15.809  -5.914  11.291  1.00  0.00     0.187 HD
ENDBRANCH  26  28
ENDBRANCH  18  19
ENDBRANCH   1  18
TORSDOF 7
ENDMDL
MODEL 2
REMARK VINA RESULT: -7.955817062      2.163      3.291
REMARK  7 active torsions:
REMARK  status: ('A' for Active; 'I' for Inactive)
REMARK    1  A    between atoms: C4_4  and  C5_5 
REMARK    2  A    between atoms: N2_14  and  C13_15 
REMARK    3  A    between atoms: C13_15  and  C14_16 
REMARK    4  A    between atoms: C14_16  and  C15_17 
REMARK    5  A    between atoms: C15_17  and  C16_18 
REMARK    6  A    between atoms: C16_18  and  N3_19 
REMARK    7  A    between atoms: C19_27  and  N6_28 
REMARK       I    between atoms: N6_28  and  C20_30 
ROOT
HETATM    1  C15 UNL     1      19.362  -6.708  11.816  1.00  0.00     0.022 C 
ENDROOT
BRANCH   1   2
HETATM    2  C14 UNL     1      18.609  -7.954  11.415  1.00  0.00     0.022 C 
BRANCH   2   3
HETATM    3  C13 UNL     1      18.853  -9.085  12.397  1.00  0.00     0.128 C 
BRANCH   3   4
HETATM    4  N2  UNL     1      18.519 -10.338  11.755  1.00  0.00    -0.360 N 
HETATM    5  C2  UNL     1      17.494 -11.081  12.196  1.00  0.00     0.008 A 
HETATM    6  C1  UNL     1      16.699 -10.609  13.344  1.00  0.00     0.068 C 
HETATM    7  C3  UNL     1      17.151 -12.278  11.613  1.00  0.00     0.037 A 
HETATM    8  C4  UNL     1      17.868 -12.746  10.542  1.00  0.00    -0.021 A 
HETATM    9  C11 UNL     1      18.925 -11.995  10.074  1.00  0.00     0.029 A 
HETATM   10  C12 UNL     1      19.227 -10.804  10.693  1.00  0.00     0.092 A 
BRANCH   8  11
HETATM   11  C5  UNL     1      17.516 -14.034   9.896  1.00  0.00    -0.010 A 
HETATM   12  C6  UNL     1      16.711 -14.015   8.786  1.00  0.00     0.015 A 
HETATM   13  C7  UNL     1      16.400 -15.249   8.204  1.00  0.00     0.018 A 
HETATM   14  C8  UNL     1      16.906 -16.404   8.763  1.00  0.00     0.090 A 
HETATM   15  N1  UNL     1      17.696 -16.412   9.852  1.00  0.00    -0.370 N 
HETATM   16  C9  UNL     1      18.190 -17.672  10.380  1.00  0.00     0.154 C 
HETATM   17  C10 UNL     1      17.990 -15.224  10.404  1.00  0.00     0.102 A 
ENDBRANCH   8  11
ENDBRANCH   3   4
ENDBRANCH   2   3
ENDBRANCH   1   2
BRANCH   1  18
HETATM   18  C16 UNL     1      19.548  -5.753  10.684  1.00  0.00     0.148 C 
BRANCH  18  19
HETATM   19  N3  UNL     1      18.396  -4.845  10.679  1.00  0.00    -0.179 N 
HETATM   20  C17 UNL     1      17.787  -4.445  11.794  1.00  0.00     0.205 A 
HETATM   21  N4  UNL     1      16.732  -3.613  11.770  1.00  0.00    -0.303 N 
HETATM   22  C18 UNL     1      16.262  -3.161  10.594  1.00  0.00     0.339 A 
ATOM     23  H4  UNL     1      16.288  -3.324  12.642  1.00  0.00     0.171 HD
HETATM   24  O1  UNL     1      15.270  -2.375  10.518  1.00  0.00    -0.246 OA
HETATM   25  N5  UNL     1      16.867  -3.557   9.449  1.00  0.00    -0.141 N 
HETATM   26  C19 UNL     1      17.923  -4.389   9.485  1.00  0.00     0.691 A 
ATOM     27  H5  UNL     1      16.519  -3.220   8.551  1.00  0.00     0.189 HD
BRANCH  26  28
HETATM   28  N6  UNL     1      18.511  -4.774   8.391  1.00  0.00    -0.163 N 
HETATM   29  C20 UNL     1      18.953  -3.778   7.473  1.00  0.00     0.200 C 
HETATM   30  N7  UNL     1      20.061  -3.145   7.615  1.00  0.00    -0.373 N 
HETATM   31  N8  UNL     1      18.093  -3.509   6.366  1.00  0.00    -0.063 NA
ATOM     32  H72 UNL     1      20.676  -3.337   8.406  1.00  0.00     0.158 HD
ATOM     33  H71 UNL     1      20.378  -2.432   6.958  1.00  0.00     0.158 HD
ATOM     34  H6  UNL     1      18.652  -5.765   8.195  1.00  0.00     0.187 HD
ENDBRANCH  26  28
ENDBRANCH  18  19
ENDBRANCH   1  18
TORSDOF 7
ENDMDL
MODEL 3
REMARK VINA RESULT: -7.937887345      2.603      3.933
REMARK  7 active torsions:
REMARK  status: ('A' for Active; 'I' for Inactive)
REMARK    1  A    between atoms: C4_4  and  C5_5 
REMARK    2  A    between atoms: N2_14  and  C13_15 
REMARK    3  A    between atoms: C13_15  and  C14_16 
REMARK    4  A    between atoms: C14_16  and  C15_17 
REMARK    5  A    between atoms: C15_17  and  C16_18 
REMARK    6  A    between atoms: C16_18  and  N3_19 
REMARK    7  A    between atoms: C19_27  and  N6_28 
REMARK       I    between atoms: N6_28  and  C20_30 
ROOT
HETATM    1  C15 UNL     1      20.294  -5.624  11.614  1.00  0.00     0.022 C 
ENDROOT
BRANCH   1   2
HETATM    2  C14 UNL     1      20.634  -7.078  11.833  1.00  0.00     0.022 C 
BRANCH   2   3
HETATM    3  C13 UNL     1      19.661  -7.733  12.796  1.00  0.00     0.128 C 
BRANCH   3   4
HETATM    4  N2  UNL     1      19.225  -8.992  12.233  1.00  0.00    -0.360 N 
HETATM    5  C2  UNL     1      17.922  -9.302  12.176  1.00  0.00     0.008 A 
HETATM    6  C1  UNL     1      16.927  -8.343  12.690  1.00  0.00     0.068 C 
HETATM    7  C3  UNL     1      17.472 -10.490  11.651  1.00  0.00     0.037 A 
HETATM    8  C4  UNL     1      18.370 -11.404  11.162  1.00  0.00    -0.021 A 
HETATM    9  C11 UNL     1      19.714 -11.102  11.212  1.00  0.00     0.029 A 
HETATM   10  C12 UNL     1      20.112  -9.900  11.748  1.00  0.00     0.092 A 
BRANCH   8  11
HETATM   11  C5  UNL     1      17.908 -12.692  10.590  1.00  0.00    -0.010 A 
HETATM   12  C6  UNL     1      16.685 -12.736   9.972  1.00  0.00     0.015 A 
HETATM   13  C7  UNL     1      16.282 -13.969   9.445  1.00  0.00     0.018 A 
HETATM   14  C8  UNL     1      17.117 -15.060   9.570  1.00  0.00     0.090 A 
HETATM   15  N1  UNL     1      18.316 -15.006  10.178  1.00  0.00    -0.370 N 
HETATM   16  C9  UNL     1      19.138 -16.200  10.268  1.00  0.00     0.154 C 
HETATM   17  C10 UNL     1      18.695 -13.821  10.681  1.00  0.00     0.102 A 
ENDBRANCH   8  11
ENDBRANCH   3   4
ENDBRANCH   2   3
ENDBRANCH   1   2
BRANCH   1  18
HETATM   18  C16 UNL     1      19.939  -5.318  10.197  1.00  0.00     0.148 C 
BRANCH  18  19
HETATM   19  N3  UNL     1      18.562  -4.814  10.186  1.00  0.00    -0.179 N 
HETATM   20  C17 UNL     1      17.627  -5.248  11.031  1.00  0.00     0.205 A 
HETATM   21  N4  UNL     1      16.369  -4.775  11.006  1.00  0.00    -0.303 N 
HETATM   22  C18 UNL     1      16.025  -3.836  10.107  1.00  0.00     0.339 A 
ATOM     23  H4  UNL     1      15.677  -5.127  11.667  1.00  0.00     0.171 HD
HETATM   24  O1  UNL     1      14.853  -3.358  10.043  1.00  0.00    -0.246 OA
HETATM   25  N5  UNL     1      16.960  -3.382   9.239  1.00  0.00    -0.141 N 
HETATM   26  C19 UNL     1      18.216  -3.863   9.274  1.00  0.00     0.691 A 
ATOM     27  H5  UNL     1      16.710  -2.669   8.553  1.00  0.00     0.189 HD
BRANCH  26  28
HETATM   28  N6  UNL     1      19.121  -3.432   8.445  1.00  0.00    -0.163 N 
HETATM   29  C20 UNL     1      18.951  -3.696   7.056  1.00  0.00     0.200 C 
HETATM   30  N7  UNL     1      18.198  -2.982   6.300  1.00  0.00    -0.373 N 
HETATM   31  N8  UNL     1      19.667  -4.813   6.530  1.00  0.00    -0.063 NA
ATOM     32  H72 UNL     1      17.686  -2.183   6.675  1.00  0.00     0.158 HD
ATOM     33  H71 UNL     1      18.075  -3.171   5.305  1.00  0.00     0.158 HD
ATOM     34  H6  UNL     1      19.934  -2.916   8.783  1.00  0.00     0.187 HD
ENDBRANCH  26  28
ENDBRANCH  18  19
ENDBRANCH   1  18
TORSDOF 7
ENDMDL
MODEL 4
REMARK VINA RESULT: -7.851805499      1.230      2.425
REMARK  7 active torsions:
REMARK  status: ('A' for Active; 'I' for Inactive)
REMARK    1  A    between atoms: C4_4  and  C5_5 
REMARK    2  A    between atoms: N2_14  and  C13_15 
REMARK    3  A    between atoms: C13_15  and  C14_16 
REMARK    4  A    between atoms: C14_16  and  C15_17 
REMARK    5  A    between atoms: C15_17  and  C16_18 
REMARK    6  A    between atoms: C16_18  and  N3_19 
REMARK    7  A    between atoms: C19_27  and  N6_28 
REMARK       I    between atoms: N6_28  and  C20_30 
ROOT
HETATM    1  C15 UNL     1      15.204  -8.208  14.137  1.00  0.00     0.022 C 
ENDROOT
BRANCH   1   2
HETATM    2  C14 UNL     1      15.795  -9.549  14.502  1.00  0.00     0.022 C 
BRANCH   2   3
HETATM    3  C13 UNL     1      17.176  -9.726  13.898  1.00  0.00     0.128 C 
BRANCH   3   4
HETATM    4  N2  UNL     1      17.134 -10.822  12.955  1.00  0.00    -0.360 N 
HETATM    5  C2  UNL     1      17.668 -10.694  11.732  1.00  0.00     0.008 A 
HETATM    6  C1  UNL     1      18.308  -9.422  11.351  1.00  0.00     0.068 C 
HETATM    7  C3  UNL     1      17.642 -11.713  10.809  1.00  0.00     0.037 A 
HETATM    8  C4  UNL     1      17.056 -12.911  11.131  1.00  0.00    -0.021 A 
HETATM    9  C11 UNL     1      16.503 -13.061  12.384  1.00  0.00     0.029 A 
HETATM   10  C12 UNL     1      16.554 -12.010  13.270  1.00  0.00     0.092 A 
BRANCH   8  11
HETATM   11  C5  UNL     1      17.018 -14.025  10.152  1.00  0.00    -0.010 A 
HETATM   12  C6  UNL     1      16.274 -13.872   9.011  1.00  0.00     0.015 A 
HETATM   13  C7  UNL     1      16.261 -14.945   8.111  1.00  0.00     0.018 A 
HETATM   14  C8  UNL     1      16.982 -16.082   8.409  1.00  0.00     0.090 A 
HETATM   15  N1  UNL     1      17.709 -16.222   9.533  1.00  0.00    -0.370 N 
HETATM   16  C9  UNL     1      18.442 -17.453   9.773  1.00  0.00     0.154 C 
HETATM   17  C10 UNL     1      17.717 -15.189  10.390  1.00  0.00     0.102 A 
ENDBRANCH   8  11
ENDBRANCH   3   4
ENDBRANCH   2   3
ENDBRANCH   1   2
BRANCH   1  18
HETATM   18  C16 UNL     1      15.898  -7.068  14.805  1.00  0.00     0.148 C 
BRANCH  18  19
HETATM   19  N3  UNL     1      16.220  -6.079  13.770  1.00  0.00    -0.179 N 
HETATM   20  C17 UNL     1      16.351  -6.398  12.483  1.00  0.00     0.205 A 
HETATM   21  N4  UNL     1      16.648  -5.479  11.548  1.00  0.00    -0.303 N 
HETATM   22  C18 UNL     1      16.821  -4.194  11.904  1.00  0.00     0.339 A 
ATOM     23  H4  UNL     1      16.740  -5.755  10.571  1.00  0.00     0.171 HD
HETATM   24  O1  UNL     1      17.101  -3.290  11.061  1.00  0.00    -0.246 OA
HETATM   25  N5  UNL     1      16.692  -3.849  13.208  1.00  0.00    -0.141 N 
HETATM   26  C19 UNL     1      16.395  -4.778  14.134  1.00  0.00     0.691 A 
ATOM     27  H5  UNL     1      16.822  -2.877  13.489  1.00  0.00     0.189 HD
BRANCH  26  28
HETATM   28  N6  UNL     1      16.268  -4.456  15.388  1.00  0.00    -0.163 N 
HETATM   29  C20 UNL     1      15.511  -3.295  15.717  1.00  0.00     0.200 C 
HETATM   30  N7  UNL     1      14.230  -3.299  15.790  1.00  0.00    -0.373 N 
HETATM   31  N8  UNL     1      16.255  -2.103  15.967  1.00  0.00    -0.063 NA
ATOM     32  H72 UNL     1      13.697  -4.150  15.611  1.00  0.00     0.158 HD
ATOM     33  H71 UNL     1      13.688  -2.467  16.025  1.00  0.00     0.158 HD
ATOM     34  H6  UNL     1      16.700  -5.023  16.118  1.00  0.00     0.187 HD
ENDBRANCH  26  28
ENDBRANCH  18  19
ENDBRANCH   1  18
TORSDOF 7
ENDMDL
MODEL 5
REMARK VINA RESULT: -7.699454558      2.560      3.706
REMARK  7 active torsions:
REMARK  status: ('A' for Active; 'I' for Inactive)
REMARK    1  A    between atoms: C4_4  and  C5_5 
REMARK    2  A    between atoms: N2_14  and  C13_15 
REMARK    3  A    between atoms: C13_15  and  C14_16 
REMARK    4  A    between atoms: C14_16  and  C15_17 
REMARK    5  A    between atoms: C15_17  and  C16_18 
REMARK    6  A    between atoms: C16_18  and  N3_19 
REMARK    7  A    between atoms: C19_27  and  N6_28 
REMARK       I    between atoms: N6_28  and  C20_30 
ROOT
HETATM    1  C15 UNL     1      16.197  -7.014  12.576  1.00  0.00     0.022 C 
ENDROOT
BRANCH   1   2
HETATM    2  C14 UNL     1      15.871  -8.250  13.380  1.00  0.00     0.022 C 
BRANCH   2   3
HETATM    3  C13 UNL     1      17.121  -9.058  13.678  1.00  0.00     0.128 C 
BRANCH   3   4
HETATM    4  N2  UNL     1      17.129 -10.232  12.833  1.00  0.00    -0.360 N 
HETATM    5  C2  UNL     1      16.599 -11.386  13.259  1.00  0.00     0.008 A 
HETATM    6  C1  UNL     1      15.998 -11.454  14.603  1.00  0.00     0.068 C 
HETATM    7  C3  UNL     1      16.593 -12.522  12.483  1.00  0.00     0.037 A 
HETATM    8  C4  UNL     1      17.141 -12.494  11.227  1.00  0.00    -0.021 A 
HETATM    9  C11 UNL     1      17.690 -11.315  10.772  1.00  0.00     0.029 A 
HETATM   10  C12 UNL     1      17.672 -10.207  11.587  1.00  0.00     0.092 A 
BRANCH   8  11
HETATM   11  C5  UNL     1      17.145 -13.706  10.372  1.00  0.00    -0.010 A 
HETATM   12  C6  UNL     1      16.401 -13.700   9.220  1.00  0.00     0.015 A 
HETATM   13  C7  UNL     1      16.429 -14.862   8.439  1.00  0.00     0.018 A 
HETATM   14  C8  UNL     1      17.186 -15.936   8.856  1.00  0.00     0.090 A 
HETATM   15  N1  UNL     1      17.913 -15.931   9.989  1.00  0.00    -0.370 N 
HETATM   16  C9  UNL     1      18.686 -17.104  10.359  1.00  0.00     0.154 C 
HETATM   17  C10 UNL     1      17.882 -14.814  10.732  1.00  0.00     0.102 A 
ENDBRANCH   8  11
ENDBRANCH   3   4
ENDBRANCH   2   3
ENDBRANCH   1   2
BRANCH   1  18
HETATM   18  C16 UNL     1      17.572  -6.498  12.837  1.00  0.00     0.148 C 
BRANCH  18  19
HETATM   19  N3  UNL     1      18.025  -5.813  11.622  1.00  0.00    -0.179 N 
HETATM   20  C17 UNL     1      17.317  -4.853  11.027  1.00  0.00     0.205 A 
HETATM   21  N4  UNL     1      17.748  -4.237   9.913  1.00  0.00    -0.303 N 
HETATM   22  C18 UNL     1      18.925  -4.587   9.367  1.00  0.00     0.339 A 
ATOM     23  H4  UNL     1      17.183  -3.505   9.482  1.00  0.00     0.171 HD
HETATM   24  O1  UNL     1      19.376  -4.036   8.318  1.00  0.00    -0.246 OA
HETATM   25  N5  UNL     1      19.660  -5.560   9.956  1.00  0.00    -0.141 N 
HETATM   26  C19 UNL     1      19.219  -6.170  11.071  1.00  0.00     0.691 A 
ATOM     27  H5  UNL     1      20.556  -5.834   9.550  1.00  0.00     0.189 HD
BRANCH  26  28
HETATM   28  N6  UNL     1      19.918  -7.105  11.644  1.00  0.00    -0.163 N 
HETATM   29  C20 UNL     1      21.165  -6.753  12.238  1.00  0.00     0.200 C 
HETATM   30  N7  UNL     1      21.255  -6.237  13.410  1.00  0.00    -0.373 N 
HETATM   31  N8  UNL     1      22.333  -7.003  11.456  1.00  0.00    -0.063 NA
ATOM     32  H72 UNL     1      20.421  -6.058  13.969  1.00  0.00     0.158 HD
ATOM     33  H71 UNL     1      22.147  -5.985  13.835  1.00  0.00     0.158 HD
ATOM     34  H6  UNL     1      19.582  -8.068  11.668  1.00  0.00     0.187 HD
ENDBRANCH  26  28
ENDBRANCH  18  19
ENDBRANCH   1  18
TORSDOF 7
ENDMDL
