MODEL 1
REMARK VINA RESULT: -7.919764253      0.000      0.000
REMARK  10 active torsions:
REMARK  status: ('A' for Active; 'I' for Inactive)
REMARK    1  A    between atoms: C2_2  and  O1_3 
REMARK    2  A    between atoms: O1_3  and  C3_4 
REMARK    3  A    between atoms: C14_18  and  C15_19 
REMARK    4  A    between atoms: C15_19  and  C16_20 
REMARK    5  A    between atoms: C15_19  and  C19_25 
REMARK    6  A    between atoms: C17_21  and  C18_22 
REMARK    7  A    between atoms: C18_22  and  O2_23 
REMARK    8  A    between atoms: C25_32  and  C27_34 
REMARK    9  A    between atoms: C27_34  and  O4_35 
REMARK   10  A    between atoms: C28_37  and  O5_38 
ROOT
HETATM    1  C3  UNL     1      73.871  86.622  47.820  1.00  0.00     0.151 C 
HETATM    2  C4  UNL     1      73.937  86.831  49.276  1.00  0.00     0.044 C 
HETATM    3  C5  UNL     1      74.973  85.931  49.952  1.00  0.00    -0.033 C 
HETATM    4  C6  UNL     1      74.553  86.064  51.425  1.00  0.00     0.016 C 
HETATM    5  C7  UNL     1      76.304  86.517  49.656  1.00  0.00    -0.001 C 
HETATM    6  C8  UNL     1      76.486  87.945  50.090  1.00  0.00     0.006 C 
HETATM    7  C9  UNL     1      77.949  88.336  50.192  1.00  0.00     0.012 C 
HETATM    8  C10 UNL     1      78.755  87.578  51.151  1.00  0.00    -0.009 C 
HETATM    9  C11 UNL     1      80.098  87.113  50.666  1.00  0.00     0.018 C 
HETATM   10  C12 UNL     1      77.858  86.340  51.478  1.00  0.00     0.026 C 
HETATM   11  C13 UNL     1      78.761  85.685  52.421  1.00  0.00     0.238 C 
HETATM   12  N1  UNL     1      79.251  86.784  53.238  1.00  0.00    -0.069 N 
ATOM     13  H11 UNL     1      80.247  86.718  53.442  1.00  0.00     0.277 HD
ATOM     14  H12 UNL     1      78.918  86.746  54.202  1.00  0.00     0.277 HD
HETATM   15  C14 UNL     1      78.881  88.034  52.545  1.00  0.00     0.209 C 
HETATM   16  C21 UNL     1      77.491  85.719  50.219  1.00  0.00    -0.003 C 
HETATM   17  C22 UNL     1      77.289  84.247  50.185  1.00  0.00     0.006 C 
HETATM   18  C23 UNL     1      76.255  83.977  49.080  1.00  0.00     0.007 C 
HETATM   19  C24 UNL     1      74.886  84.520  49.509  1.00  0.00     0.007 C 
HETATM   20  C25 UNL     1      73.916  84.164  48.463  1.00  0.00     0.010 C 
HETATM   21  C26 UNL     1      72.670  83.527  49.116  1.00  0.00     0.020 C 
HETATM   22  C28 UNL     1      73.419  85.225  47.571  1.00  0.00     0.157 C 
ENDROOT
BRANCH  15  23
HETATM   23  C15 UNL     1      79.928  89.089  52.786  1.00  0.00     0.108 C 
BRANCH  23  24
HETATM   24  C16 UNL     1      79.551  90.449  52.372  1.00  0.00    -0.015 C 
HETATM   25  C17 UNL     1      80.001  91.161  51.375  1.00  0.00    -0.004 C 
BRANCH  25  26
HETATM   26  C18 UNL     1      81.027  90.725  50.419  1.00  0.00     0.191 C 
BRANCH  26  27
HETATM   27  O2  UNL     1      81.186  91.719  49.432  1.00  0.00    -0.397 OA
ATOM     28  H2  UNL     1      81.515  92.511  49.841  1.00  0.00     0.209 HD
ENDBRANCH  26  27
ENDBRANCH  25  26
ENDBRANCH  23  24
BRANCH  23  29
HETATM   29  C19 UNL     1      80.136  89.208  54.302  1.00  0.00     0.132 C 
HETATM   30  C20 UNL     1      81.473  89.551  54.823  1.00  0.00     0.091 C 
HETATM   31  O3  UNL     1      79.228  89.027  55.081  1.00  0.00    -0.298 OA
ENDBRANCH  23  29
ENDBRANCH  15  23
BRANCH   1  32
HETATM   32  O1  UNL     1      72.991  87.483  47.190  1.00  0.00    -0.384 OA
BRANCH  32  33
HETATM   33  C2  UNL     1      73.505  88.737  46.936  1.00  0.00     0.163 C 
HETATM   34  C1  UNL     1      72.661  89.837  47.542  1.00  0.00     0.033 C 
ENDBRANCH  32  33
ENDBRANCH   1  32
BRANCH  20  35
HETATM   35  C27 UNL     1      74.427  83.012  47.573  1.00  0.00     0.176 C 
BRANCH  35  36
HETATM   36  O4  UNL     1      73.782  81.822  47.902  1.00  0.00    -0.400 OA
ATOM     37  H4  UNL     1      74.394  81.212  48.297  1.00  0.00     0.209 HD
ENDBRANCH  35  36
ENDBRANCH  20  35
BRANCH  22  38
HETATM   38  O5  UNL     1      73.726  84.984  46.206  1.00  0.00    -0.392 OA
ATOM     39  H5  UNL     1      74.565  85.408  46.069  1.00  0.00     0.210 HD
ENDBRANCH  22  38
TORSDOF 10
ENDMDL
MODEL 2
REMARK VINA RESULT: -7.381325353      2.018      7.855
REMARK  10 active torsions:
REMARK  status: ('A' for Active; 'I' for Inactive)
REMARK    1  A    between atoms: C2_2  and  O1_3 
REMARK    2  A    between atoms: O1_3  and  C3_4 
REMARK    3  A    between atoms: C14_18  and  C15_19 
REMARK    4  A    between atoms: C15_19  and  C16_20 
REMARK    5  A    between atoms: C15_19  and  C19_25 
REMARK    6  A    between atoms: C17_21  and  C18_22 
REMARK    7  A    between atoms: C18_22  and  O2_23 
REMARK    8  A    between atoms: C25_32  and  C27_34 
REMARK    9  A    between atoms: C27_34  and  O4_35 
REMARK   10  A    between atoms: C28_37  and  O5_38 
ROOT
HETATM    1  C3  UNL     1      80.658  88.861  52.027  1.00  0.00     0.151 C 
HETATM    2  C4  UNL     1      80.410  88.212  50.729  1.00  0.00     0.044 C 
HETATM    3  C5  UNL     1      79.705  86.862  50.874  1.00  0.00    -0.033 C 
HETATM    4  C6  UNL     1      79.936  86.265  49.475  1.00  0.00     0.016 C 
HETATM    5  C7  UNL     1      78.280  87.153  51.169  1.00  0.00    -0.001 C 
HETATM    6  C8  UNL     1      77.577  88.007  50.150  1.00  0.00     0.006 C 
HETATM    7  C9  UNL     1      76.066  87.893  50.244  1.00  0.00     0.012 C 
HETATM    8  C10 UNL     1      75.505  86.559  50.024  1.00  0.00    -0.009 C 
HETATM    9  C11 UNL     1      74.451  86.115  50.998  1.00  0.00     0.018 C 
HETATM   10  C12 UNL     1      76.750  85.619  50.134  1.00  0.00     0.026 C 
HETATM   11  C13 UNL     1      76.063  84.352  49.902  1.00  0.00     0.238 C 
HETATM   12  N1  UNL     1      75.158  84.654  48.804  1.00  0.00    -0.069 N 
ATOM     13  H11 UNL     1      74.234  84.238  48.920  1.00  0.00     0.277 HD
ATOM     14  H12 UNL     1      75.406  84.179  47.937  1.00  0.00     0.277 HD
HETATM   15  C14 UNL     1      75.120  86.124  48.671  1.00  0.00     0.209 C 
HETATM   16  C21 UNL     1      77.407  85.909  51.395  1.00  0.00    -0.003 C 
HETATM   17  C22 UNL     1      78.113  84.806  52.097  1.00  0.00     0.006 C 
HETATM   18  C23 UNL     1      79.259  85.459  52.888  1.00  0.00     0.007 C 
HETATM   19  C24 UNL     1      80.314  86.003  51.915  1.00  0.00     0.007 C 
HETATM   20  C25 UNL     1      81.425  86.539  52.715  1.00  0.00     0.010 C 
HETATM   21  C26 UNL     1      82.761  85.987  52.169  1.00  0.00     0.020 C 
HETATM   22  C28 UNL     1      81.588  87.999  52.808  1.00  0.00     0.157 C 
ENDROOT
BRANCH  15  23
HETATM   23  C15 UNL     1      73.754  86.568  48.217  1.00  0.00     0.108 C 
BRANCH  23  24
HETATM   24  C16 UNL     1      73.748  87.654  47.225  1.00  0.00    -0.015 C 
HETATM   25  C17 UNL     1      73.115  88.795  47.257  1.00  0.00    -0.004 C 
BRANCH  25  26
HETATM   26  C18 UNL     1      72.236  89.245  48.344  1.00  0.00     0.191 C 
BRANCH  26  27
HETATM   27  O2  UNL     1      70.894  89.065  47.953  1.00  0.00    -0.397 OA
ATOM     28  H2  UNL     1      70.550  88.287  48.376  1.00  0.00     0.209 HD
ENDBRANCH  26  27
ENDBRANCH  25  26
ENDBRANCH  23  24
BRANCH  23  29
HETATM   29  C19 UNL     1      73.098  85.391  47.481  1.00  0.00     0.132 C 
HETATM   30  C20 UNL     1      71.975  84.676  48.118  1.00  0.00     0.091 C 
HETATM   31  O3  UNL     1      73.481  85.035  46.390  1.00  0.00    -0.298 OA
ENDBRANCH  23  29
ENDBRANCH  15  23
BRANCH   1  32
HETATM   32  O1  UNL     1      81.226  90.115  51.903  1.00  0.00    -0.384 OA
BRANCH  32  33
HETATM   33  C2  UNL     1      80.705  90.879  50.881  1.00  0.00     0.163 C 
HETATM   34  C1  UNL     1      79.519  91.705  51.329  1.00  0.00     0.033 C 
ENDBRANCH  32  33
ENDBRANCH   1  32
BRANCH  20  35
HETATM   35  C27 UNL     1      81.420  85.980  54.153  1.00  0.00     0.176 C 
BRANCH  35  36
HETATM   36  O4  UNL     1      82.724  85.834  54.621  1.00  0.00    -0.400 OA
ATOM     37  H4  UNL     1      83.121  85.052  54.256  1.00  0.00     0.209 HD
ENDBRANCH  35  36
ENDBRANCH  20  35
BRANCH  22  38
HETATM   38  O5  UNL     1      81.491  88.478  54.141  1.00  0.00    -0.392 OA
ATOM     39  H5  UNL     1      81.195  87.730  54.646  1.00  0.00     0.210 HD
ENDBRANCH  22  38
TORSDOF 10
ENDMDL
MODEL 3
REMARK VINA RESULT: -7.233928646      1.738      2.119
REMARK  10 active torsions:
REMARK  status: ('A' for Active; 'I' for Inactive)
REMARK    1  A    between atoms: C2_2  and  O1_3 
REMARK    2  A    between atoms: O1_3  and  C3_4 
REMARK    3  A    between atoms: C14_18  and  C15_19 
REMARK    4  A    between atoms: C15_19  and  C16_20 
REMARK    5  A    between atoms: C15_19  and  C19_25 
REMARK    6  A    between atoms: C17_21  and  C18_22 
REMARK    7  A    between atoms: C18_22  and  O2_23 
REMARK    8  A    between atoms: C25_32  and  C27_34 
REMARK    9  A    between atoms: C27_34  and  O4_35 
REMARK   10  A    between atoms: C28_37  and  O5_38 
ROOT
HETATM    1  C3  UNL     1      74.605  87.629  47.913  1.00  0.00     0.151 C 
HETATM    2  C4  UNL     1      74.743  87.724  49.376  1.00  0.00     0.044 C 
HETATM    3  C5  UNL     1      75.287  86.437  49.999  1.00  0.00    -0.033 C 
HETATM    4  C6  UNL     1      74.954  86.671  51.482  1.00  0.00     0.016 C 
HETATM    5  C7  UNL     1      76.743  86.406  49.713  1.00  0.00    -0.001 C 
HETATM    6  C8  UNL     1      77.517  87.597  50.206  1.00  0.00     0.006 C 
HETATM    7  C9  UNL     1      79.006  87.317  50.307  1.00  0.00     0.012 C 
HETATM    8  C10 UNL     1      79.401  86.244  51.221  1.00  0.00    -0.009 C 
HETATM    9  C11 UNL     1      80.417  85.270  50.700  1.00  0.00     0.018 C 
HETATM   10  C12 UNL     1      78.057  85.498  51.506  1.00  0.00     0.026 C 
HETATM   11  C13 UNL     1      78.584  84.477  52.408  1.00  0.00     0.238 C 
HETATM   12  N1  UNL     1      79.491  85.221  53.266  1.00  0.00    -0.069 N 
ATOM     13  H11 UNL     1      80.362  84.725  53.454  1.00  0.00     0.277 HD
ATOM     14  H12 UNL     1      79.168  85.287  54.231  1.00  0.00     0.277 HD
HETATM   15  C14 UNL     1      79.700  86.539  52.633  1.00  0.00     0.209 C 
HETATM   16  C21 UNL     1      77.468  85.152  50.225  1.00  0.00    -0.003 C 
HETATM   17  C22 UNL     1      76.654  83.913  50.129  1.00  0.00     0.006 C 
HETATM   18  C23 UNL     1      75.612  84.162  49.027  1.00  0.00     0.007 C 
HETATM   19  C24 UNL     1      74.606  85.221  49.496  1.00  0.00     0.007 C 
HETATM   20  C25 UNL     1      73.585  85.364  48.448  1.00  0.00     0.010 C 
HETATM   21  C26 UNL     1      72.181  85.295  49.088  1.00  0.00     0.020 C 
HETATM   22  C28 UNL     1      73.598  86.574  47.609  1.00  0.00     0.157 C 
ENDROOT
BRANCH  15  23
HETATM   23  C15 UNL     1      81.097  87.030  52.906  1.00  0.00     0.108 C 
BRANCH  23  24
HETATM   24  C16 UNL     1      81.257  88.492  52.904  1.00  0.00    -0.015 C 
HETATM   25  C17 UNL     1      80.367  89.418  53.139  1.00  0.00    -0.004 C 
BRANCH  25  26
HETATM   26  C18 UNL     1      78.957  89.172  53.468  1.00  0.00     0.191 C 
BRANCH  26  27
HETATM   27  O2  UNL     1      78.830  89.029  54.864  1.00  0.00    -0.397 OA
ATOM     28  H2  UNL     1      77.996  89.393  55.138  1.00  0.00     0.209 HD
ENDBRANCH  26  27
ENDBRANCH  25  26
ENDBRANCH  23  24
BRANCH  23  29
HETATM   29  C19 UNL     1      81.467  86.620  54.338  1.00  0.00     0.132 C 
HETATM   30  C20 UNL     1      82.789  86.018  54.598  1.00  0.00     0.091 C 
HETATM   31  O3  UNL     1      80.701  86.779  55.261  1.00  0.00    -0.298 OA
ENDBRANCH  23  29
ENDBRANCH  15  23
BRANCH   1  32
HETATM   32  O1  UNL     1      74.185  88.812  47.333  1.00  0.00    -0.384 OA
BRANCH  32  33
HETATM   33  C2  UNL     1      72.996  89.300  47.830  1.00  0.00     0.163 C 
HETATM   34  C1  UNL     1      72.569  90.579  47.144  1.00  0.00     0.033 C 
ENDBRANCH  32  33
ENDBRANCH   1  32
BRANCH  20  35
HETATM   35  C27 UNL     1      73.559  84.145  47.502  1.00  0.00     0.176 C 
BRANCH  35  36
HETATM   36  O4  UNL     1      72.247  83.822  47.163  1.00  0.00    -0.400 OA
ATOM     37  H4  UNL     1      72.232  83.257  46.400  1.00  0.00     0.209 HD
ENDBRANCH  35  36
ENDBRANCH  20  35
BRANCH  22  38
HETATM   38  O5  UNL     1      73.783  86.286  46.232  1.00  0.00    -0.392 OA
ATOM     39  H5  UNL     1      74.476  85.637  46.211  1.00  0.00     0.210 HD
ENDBRANCH  22  38
TORSDOF 10
ENDMDL
MODEL 4
REMARK VINA RESULT: -7.013249349      1.471      1.593
REMARK  10 active torsions:
REMARK  status: ('A' for Active; 'I' for Inactive)
REMARK    1  A    between atoms: C2_2  and  O1_3 
REMARK    2  A    between atoms: O1_3  and  C3_4 
REMARK    3  A    between atoms: C14_18  and  C15_19 
REMARK    4  A    between atoms: C15_19  and  C16_20 
REMARK    5  A    between atoms: C15_19  and  C19_25 
REMARK    6  A    between atoms: C17_21  and  C18_22 
REMARK    7  A    between atoms: C18_22  and  O2_23 
REMARK    8  A    between atoms: C25_32  and  C27_34 
REMARK    9  A    between atoms: C27_34  and  O4_35 
REMARK   10  A    between atoms: C28_37  and  O5_38 
ROOT
HETATM    1  C3  UNL     1      74.582  87.649  47.866  1.00  0.00     0.151 C 
HETATM    2  C4  UNL     1      74.779  87.842  49.313  1.00  0.00     0.044 C 
HETATM    3  C5  UNL     1      75.422  86.627  49.985  1.00  0.00    -0.033 C 
HETATM    4  C6  UNL     1      75.142  86.935  51.465  1.00  0.00     0.016 C 
HETATM    5  C7  UNL     1      76.863  86.657  49.632  1.00  0.00    -0.001 C 
HETATM    6  C8  UNL     1      77.590  87.915  50.016  1.00  0.00     0.006 C 
HETATM    7  C9  UNL     1      79.095  87.723  50.063  1.00  0.00     0.012 C 
HETATM    8  C10 UNL     1      79.589  86.731  51.020  1.00  0.00    -0.009 C 
HETATM    9  C11 UNL     1      80.635  85.782  50.510  1.00  0.00     0.018 C 
HETATM   10  C12 UNL     1      78.304  85.934  51.412  1.00  0.00     0.026 C 
HETATM   11  C13 UNL     1      78.926  85.001  52.347  1.00  0.00     0.238 C 
HETATM   12  N1  UNL     1      79.828  85.844  53.115  1.00  0.00    -0.069 N 
ATOM     13  H11 UNL     1      80.732  85.408  53.291  1.00  0.00     0.277 HD
ATOM     14  H12 UNL     1      79.544  85.953  54.089  1.00  0.00     0.277 HD
HETATM   15  C14 UNL     1      79.933  87.129  52.395  1.00  0.00     0.209 C 
HETATM   16  C21 UNL     1      77.679  85.477  50.183  1.00  0.00    -0.003 C 
HETATM   17  C22 UNL     1      76.933  84.193  50.201  1.00  0.00     0.006 C 
HETATM   18  C23 UNL     1      75.831  84.317  49.136  1.00  0.00     0.007 C 
HETATM   19  C24 UNL     1      74.789  85.348  49.589  1.00  0.00     0.007 C 
HETATM   20  C25 UNL     1      73.716  85.370  48.583  1.00  0.00     0.010 C 
HETATM   21  C26 UNL     1      72.347  85.266  49.292  1.00  0.00     0.020 C 
HETATM   22  C28 UNL     1      73.624  86.524  47.674  1.00  0.00     0.157 C 
ENDROOT
BRANCH  15  23
HETATM   23  C15 UNL     1      81.312  87.710  52.572  1.00  0.00     0.108 C 
BRANCH  23  24
HETATM   24  C16 UNL     1      81.348  89.150  52.872  1.00  0.00    -0.015 C 
HETATM   25  C17 UNL     1      81.514  90.157  52.058  1.00  0.00    -0.004 C 
BRANCH  25  26
HETATM   26  C18 UNL     1      81.709  90.048  50.607  1.00  0.00     0.191 C 
BRANCH  26  27
HETATM   27  O2  UNL     1      80.761  90.862  49.954  1.00  0.00    -0.397 OA
ATOM     28  H2  UNL     1      80.015  90.990  50.529  1.00  0.00     0.209 HD
ENDBRANCH  26  27
ENDBRANCH  25  26
ENDBRANCH  23  24
BRANCH  23  29
HETATM   29  C19 UNL     1      81.941  87.058  53.811  1.00  0.00     0.132 C 
HETATM   30  C20 UNL     1      81.795  87.714  55.125  1.00  0.00     0.091 C 
HETATM   31  O3  UNL     1      82.554  86.018  53.736  1.00  0.00    -0.298 OA
ENDBRANCH  23  29
ENDBRANCH  15  23
BRANCH   1  32
HETATM   32  O1  UNL     1      74.071  88.769  47.237  1.00  0.00    -0.384 OA
BRANCH  32  33
HETATM   33  C2  UNL     1      72.939  89.288  47.827  1.00  0.00     0.163 C 
HETATM   34  C1  UNL     1      72.508  90.593  47.194  1.00  0.00     0.033 C 
ENDBRANCH  32  33
ENDBRANCH   1  32
BRANCH  20  35
HETATM   35  C27 UNL     1      73.716  84.095  47.715  1.00  0.00     0.176 C 
BRANCH  35  36
HETATM   36  O4  UNL     1      72.425  83.803  47.280  1.00  0.00    -0.400 OA
ATOM     37  H4  UNL     1      71.811  84.448  47.610  1.00  0.00     0.209 HD
ENDBRANCH  35  36
ENDBRANCH  20  35
BRANCH  22  38
HETATM   38  O5  UNL     1      73.763  86.161  46.309  1.00  0.00    -0.392 OA
ATOM     39  H5  UNL     1      72.874  86.021  46.004  1.00  0.00     0.210 HD
ENDBRANCH  22  38
TORSDOF 10
ENDMDL
MODEL 5
REMARK VINA RESULT: -6.753964461      2.445      2.798
REMARK  10 active torsions:
REMARK  status: ('A' for Active; 'I' for Inactive)
REMARK    1  A    between atoms: C2_2  and  O1_3 
REMARK    2  A    between atoms: O1_3  and  C3_4 
REMARK    3  A    between atoms: C14_18  and  C15_19 
REMARK    4  A    between atoms: C15_19  and  C16_20 
REMARK    5  A    between atoms: C15_19  and  C19_25 
REMARK    6  A    between atoms: C17_21  and  C18_22 
REMARK    7  A    between atoms: C18_22  and  O2_23 
REMARK    8  A    between atoms: C25_32  and  C27_34 
REMARK    9  A    between atoms: C27_34  and  O4_35 
REMARK   10  A    between atoms: C28_37  and  O5_38 
ROOT
HETATM    1  C3  UNL     1      74.751  87.400  47.871  1.00  0.00     0.151 C 
HETATM    2  C4  UNL     1      75.265  87.870  49.168  1.00  0.00     0.044 C 
HETATM    3  C5  UNL     1      75.596  86.719  50.120  1.00  0.00    -0.033 C 
HETATM    4  C6  UNL     1      75.711  87.474  51.455  1.00  0.00     0.016 C 
HETATM    5  C7  UNL     1      76.878  86.135  49.654  1.00  0.00    -0.001 C 
HETATM    6  C8  UNL     1      78.029  87.099  49.574  1.00  0.00     0.006 C 
HETATM    7  C9  UNL     1      79.373  86.394  49.549  1.00  0.00     0.012 C 
HETATM    8  C10 UNL     1      79.692  85.569  50.717  1.00  0.00    -0.009 C 
HETATM    9  C11 UNL     1      80.262  84.210  50.433  1.00  0.00     0.018 C 
HETATM   10  C12 UNL     1      78.314  85.419  51.440  1.00  0.00     0.026 C 
HETATM   11  C13 UNL     1      78.766  84.595  52.559  1.00  0.00     0.238 C 
HETATM   12  N1  UNL     1      80.017  85.221  52.955  1.00  0.00    -0.069 N 
ATOM     13  H11 UNL     1      80.750  84.548  53.178  1.00  0.00     0.277 HD
ATOM     14  H12 UNL     1      79.970  85.669  53.870  1.00  0.00     0.277 HD
HETATM   15  C14 UNL     1      80.394  86.152  51.872  1.00  0.00     0.209 C 
HETATM   16  C21 UNL     1      77.359  84.922  50.466  1.00  0.00    -0.003 C 
HETATM   17  C22 UNL     1      76.256  84.045  50.937  1.00  0.00     0.006 C 
HETATM   18  C23 UNL     1      75.075  84.283  49.982  1.00  0.00     0.007 C 
HETATM   19  C24 UNL     1      74.523  85.700  50.186  1.00  0.00     0.007 C 
HETATM   20  C25 UNL     1      73.347  85.852  49.317  1.00  0.00     0.010 C 
HETATM   21  C26 UNL     1      72.175  86.434  50.137  1.00  0.00     0.020 C 
HETATM   22  C28 UNL     1      73.464  86.689  48.111  1.00  0.00     0.157 C 
ENDROOT
BRANCH  15  23
HETATM   23  C15 UNL     1      81.894  86.220  51.747  1.00  0.00     0.108 C 
BRANCH  23  24
HETATM   24  C16 UNL     1      82.407  87.392  51.021  1.00  0.00    -0.015 C 
HETATM   25  C17 UNL     1      82.984  87.449  49.852  1.00  0.00    -0.004 C 
BRANCH  25  26
HETATM   26  C18 UNL     1      83.250  86.295  48.983  1.00  0.00     0.191 C 
BRANCH  26  27
HETATM   27  O2  UNL     1      84.451  86.519  48.279  1.00  0.00    -0.397 OA
ATOM     28  H2  UNL     1      84.892  87.273  48.652  1.00  0.00     0.209 HD
ENDBRANCH  26  27
ENDBRANCH  25  26
ENDBRANCH  23  24
BRANCH  23  29
HETATM   29  C19 UNL     1      82.477  86.374  53.158  1.00  0.00     0.132 C 
HETATM   30  C20 UNL     1      82.604  87.722  53.744  1.00  0.00     0.091 C 
HETATM   31  O3  UNL     1      82.835  85.415  53.803  1.00  0.00    -0.298 OA
ENDBRANCH  23  29
ENDBRANCH  15  23
BRANCH   1  32
HETATM   32  O1  UNL     1      74.520  88.429  46.977  1.00  0.00    -0.384 OA
BRANCH  32  33
HETATM   33  C2  UNL     1      73.486  89.270  47.330  1.00  0.00     0.163 C 
HETATM   34  C1  UNL     1      73.287  90.386  46.328  1.00  0.00     0.033 C 
ENDBRANCH  32  33
ENDBRANCH   1  32
BRANCH  20  35
HETATM   35  C27 UNL     1      72.776  84.487  48.879  1.00  0.00     0.176 C 
BRANCH  35  36
HETATM   36  O4  UNL     1      71.419  84.601  48.584  1.00  0.00    -0.400 OA
ATOM     37  H4  UNL     1      71.299  84.997  47.729  1.00  0.00     0.209 HD
ENDBRANCH  35  36
ENDBRANCH  20  35
BRANCH  22  38
HETATM   38  O5  UNL     1      73.223  85.965  46.914  1.00  0.00    -0.392 OA
ATOM     39  H5  UNL     1      72.348  85.610  47.018  1.00  0.00     0.210 HD
ENDBRANCH  22  38
TORSDOF 10
ENDMDL
