MODEL 1
REMARK VINA RESULT: -5.991232833      0.000      0.000
REMARK  4 active torsions:
REMARK  status: ('A' for Active; 'I' for Inactive)
REMARK    1  A    between atoms: N1_2  and  C2_3 
REMARK    2  A    between atoms: N1_2  and  N3_7 
REMARK       I    between atoms: N3_7  and  C3_9 
REMARK    3  A    between atoms: C3_9  and  C4_11 
REMARK    4  A    between atoms: C5_15  and  N5_16 
ROOT
HETATM    1  C4  UNL     1      22.741 -16.239   6.692  1.00  0.00     0.331 A 
HETATM    2  N4  UNL     1      23.301 -15.716   5.449  1.00  0.00    -0.034 N 
ATOM      3  H41 UNL     1      22.946 -15.179   4.657  1.00  0.00     0.281 HD
ATOM      4  H42 UNL     1      23.629 -16.118   4.570  1.00  0.00     0.281 HD
HETATM    5  C5  UNL     1      23.897 -15.401   6.730  1.00  0.00     0.339 A 
ENDROOT
BRANCH   1   6
HETATM    6  C3  UNL     1      21.388 -15.786   7.121  1.00  0.00     0.267 C 
HETATM    7  N3  UNL     1      20.238 -16.415   6.620  1.00  0.00    -0.283 N 
ATOM      8  H3  UNL     1      20.374 -17.181   5.961  1.00  0.00     0.184 HD
HETATM    9  O1  UNL     1      21.326 -14.853   7.921  1.00  0.00    -0.270 OA
BRANCH   7  10
HETATM   10  N1  UNL     1      18.929 -16.080   6.948  1.00  0.00    -0.194 NA
HETATM   11  C1  UNL     1      17.957 -17.097   6.653  1.00  0.00     0.143 C 
BRANCH  10  12
HETATM   12  C2  UNL     1      18.556 -14.929   6.182  1.00  0.00     0.164 C 
HETATM   13  N2  UNL     1      18.380 -13.829   6.767  1.00  0.00    -0.398 N 
ATOM     14  H22 UNL     1      18.505 -13.774   7.777  1.00  0.00     0.156 HD
ATOM     15  H21 UNL     1      18.114 -13.009   6.221  1.00  0.00     0.156 HD
ENDBRANCH  10  12
ENDBRANCH   7  10
ENDBRANCH   1   6
BRANCH   5  16
HETATM   16  N5  UNL     1      23.868 -13.999   7.055  1.00  0.00    -0.310 N 
HETATM   17  N6  UNL     1      24.963 -13.383   6.981  1.00  0.00    -0.347 N 
ATOM     18  H62 UNL     1      25.818 -13.866   6.705  1.00  0.00     0.176 HD
ATOM     19  H61 UNL     1      24.943 -12.390   7.211  1.00  0.00     0.176 HD
ATOM     20  H5  UNL     1      23.006 -13.530   7.330  1.00  0.00     0.182 HD
ENDBRANCH   5  16
TORSDOF 4
ENDMDL
MODEL 2
REMARK VINA RESULT: -5.664827604      2.566      3.816
REMARK  4 active torsions:
REMARK  status: ('A' for Active; 'I' for Inactive)
REMARK    1  A    between atoms: N1_2  and  C2_3 
REMARK    2  A    between atoms: N1_2  and  N3_7 
REMARK       I    between atoms: N3_7  and  C3_9 
REMARK    3  A    between atoms: C3_9  and  C4_11 
REMARK    4  A    between atoms: C5_15  and  N5_16 
ROOT
HETATM    1  C4  UNL     1      25.813 -13.813   6.635  1.00  0.00     0.331 A 
HETATM    2  N4  UNL     1      25.856 -12.382   6.921  1.00  0.00    -0.034 N 
ATOM      3  H41 UNL     1      25.252 -11.714   7.400  1.00  0.00     0.281 HD
ATOM      4  H42 UNL     1      25.767 -11.526   6.373  1.00  0.00     0.281 HD
HETATM    5  C5  UNL     1      26.944 -13.257   7.305  1.00  0.00     0.339 A 
ENDROOT
BRANCH   1   6
HETATM    6  C3  UNL     1      24.790 -14.655   7.319  1.00  0.00     0.267 C 
HETATM    7  N3  UNL     1      23.630 -15.054   6.637  1.00  0.00    -0.283 N 
ATOM      8  H3  UNL     1      23.526 -14.744   5.671  1.00  0.00     0.184 HD
HETATM    9  O1  UNL     1      25.006 -14.979   8.485  1.00  0.00    -0.270 OA
BRANCH   7  10
HETATM   10  N1  UNL     1      22.612 -15.837   7.170  1.00  0.00    -0.194 NA
HETATM   11  C1  UNL     1      21.899 -16.630   6.206  1.00  0.00     0.143 C 
BRANCH  10  12
HETATM   12  C2  UNL     1      21.647 -14.967   7.772  1.00  0.00     0.164 C 
HETATM   13  N2  UNL     1      21.024 -15.350   8.796  1.00  0.00    -0.398 N 
ATOM     14  H22 UNL     1      21.217 -16.275   9.181  1.00  0.00     0.156 HD
ATOM     15  H21 UNL     1      20.337 -14.731   9.225  1.00  0.00     0.156 HD
ENDBRANCH  10  12
ENDBRANCH   7  10
ENDBRANCH   1   6
BRANCH   5  16
HETATM   16  N5  UNL     1      27.157 -13.328   8.727  1.00  0.00    -0.310 N 
HETATM   17  N6  UNL     1      28.354 -13.327   9.117  1.00  0.00    -0.347 N 
ATOM     18  H62 UNL     1      29.122 -13.279   8.447  1.00  0.00     0.176 HD
ATOM     19  H61 UNL     1      28.505 -13.377  10.124  1.00  0.00     0.176 HD
ATOM     20  H5  UNL     1      26.379 -13.375   9.384  1.00  0.00     0.182 HD
ENDBRANCH   5  16
TORSDOF 4
ENDMDL
MODEL 3
REMARK VINA RESULT: -5.591177543      1.430      2.001
REMARK  4 active torsions:
REMARK  status: ('A' for Active; 'I' for Inactive)
REMARK    1  A    between atoms: N1_2  and  C2_3 
REMARK    2  A    between atoms: N1_2  and  N3_7 
REMARK       I    between atoms: N3_7  and  C3_9 
REMARK    3  A    between atoms: C3_9  and  C4_11 
REMARK    4  A    between atoms: C5_15  and  N5_16 
ROOT
HETATM    1  C4  UNL     1      22.681 -16.088   8.187  1.00  0.00     0.331 A 
HETATM    2  N4  UNL     1      23.815 -16.978   7.959  1.00  0.00    -0.034 N 
ATOM      3  H41 UNL     1      24.071 -17.669   7.252  1.00  0.00     0.281 HD
ATOM      4  H42 UNL     1      24.182 -17.821   8.401  1.00  0.00     0.281 HD
HETATM    5  C5  UNL     1      24.004 -15.553   8.129  1.00  0.00     0.339 A 
ENDROOT
BRANCH   1   6
HETATM    6  C3  UNL     1      21.677 -15.905   7.101  1.00  0.00     0.267 C 
HETATM    7  N3  UNL     1      20.304 -15.938   7.392  1.00  0.00    -0.283 N 
ATOM      8  H3  UNL     1      20.036 -16.091   8.364  1.00  0.00     0.184 HD
HETATM    9  O1  UNL     1      22.098 -15.726   5.959  1.00  0.00    -0.270 OA
BRANCH   7  10
HETATM   10  N1  UNL     1      19.280 -15.780   6.464  1.00  0.00    -0.194 NA
HETATM   11  C1  UNL     1      18.689 -14.470   6.441  1.00  0.00     0.143 C 
BRANCH  10  12
HETATM   12  C2  UNL     1      18.229 -16.693   6.799  1.00  0.00     0.164 C 
HETATM   13  N2  UNL     1      18.520 -17.838   7.232  1.00  0.00    -0.398 N 
ATOM     14  H22 UNL     1      19.501 -18.097   7.338  1.00  0.00     0.156 HD
ATOM     15  H21 UNL     1      17.771 -18.488   7.470  1.00  0.00     0.156 HD
ENDBRANCH  10  12
ENDBRANCH   7  10
ENDBRANCH   1   6
BRANCH   5  16
HETATM   16  N5  UNL     1      24.561 -14.899   6.974  1.00  0.00    -0.310 N 
HETATM   17  N6  UNL     1      24.429 -13.648   6.919  1.00  0.00    -0.347 N 
ATOM     18  H62 UNL     1      23.949 -13.140   7.662  1.00  0.00     0.176 HD
ATOM     19  H61 UNL     1      24.824 -13.185   6.101  1.00  0.00     0.176 HD
ATOM     20  H5  UNL     1      25.037 -15.421   6.240  1.00  0.00     0.182 HD
ENDBRANCH   5  16
TORSDOF 4
ENDMDL
MODEL 4
REMARK VINA RESULT: -5.559913728      1.380      1.653
REMARK  4 active torsions:
REMARK  status: ('A' for Active; 'I' for Inactive)
REMARK    1  A    between atoms: N1_2  and  C2_3 
REMARK    2  A    between atoms: N1_2  and  N3_7 
REMARK       I    between atoms: N3_7  and  C3_9 
REMARK    3  A    between atoms: C3_9  and  C4_11 
REMARK    4  A    between atoms: C5_15  and  N5_16 
ROOT
HETATM    1  C4  UNL     1      22.395 -16.564   6.004  1.00  0.00     0.331 A 
HETATM    2  N4  UNL     1      22.621 -15.522   5.007  1.00  0.00    -0.034 N 
ATOM      3  H41 UNL     1      22.061 -14.779   4.588  1.00  0.00     0.281 HD
ATOM      4  H42 UNL     1      22.761 -15.496   3.996  1.00  0.00     0.281 HD
HETATM    5  C5  UNL     1      23.475 -15.645   6.169  1.00  0.00     0.339 A 
ENDROOT
BRANCH   1   6
HETATM    6  C3  UNL     1      21.152 -16.522   6.825  1.00  0.00     0.267 C 
HETATM    7  N3  UNL     1      20.419 -17.695   7.061  1.00  0.00    -0.283 N 
ATOM      8  H3  UNL     1      20.773 -18.559   6.650  1.00  0.00     0.184 HD
HETATM    9  O1  UNL     1      20.805 -15.433   7.279  1.00  0.00    -0.270 OA
BRANCH   7  10
HETATM   10  N1  UNL     1      19.249 -17.777   7.809  1.00  0.00    -0.194 NA
HETATM   11  C1  UNL     1      19.022 -19.054   8.429  1.00  0.00     0.143 C 
BRANCH  10  12
HETATM   12  C2  UNL     1      18.140 -17.550   6.931  1.00  0.00     0.164 C 
HETATM   13  N2  UNL     1      17.699 -16.380   6.785  1.00  0.00    -0.398 N 
ATOM     14  H22 UNL     1      18.139 -15.613   7.293  1.00  0.00     0.156 HD
ATOM     15  H21 UNL     1      16.909 -16.218   6.160  1.00  0.00     0.156 HD
ENDBRANCH  10  12
ENDBRANCH   7  10
ENDBRANCH   1   6
BRANCH   5  16
HETATM   16  N5  UNL     1      23.436 -14.501   7.042  1.00  0.00    -0.310 N 
HETATM   17  N6  UNL     1      24.399 -13.695   6.956  1.00  0.00    -0.347 N 
ATOM     18  H62 UNL     1      25.160 -13.859   6.297  1.00  0.00     0.176 HD
ATOM     19  H61 UNL     1      24.371 -12.885   7.574  1.00  0.00     0.176 HD
ATOM     20  H5  UNL     1      22.668 -14.351   7.696  1.00  0.00     0.182 HD
ENDBRANCH   5  16
TORSDOF 4
ENDMDL
MODEL 5
REMARK VINA RESULT: -5.372578031      2.209      5.686
REMARK  4 active torsions:
REMARK  status: ('A' for Active; 'I' for Inactive)
REMARK    1  A    between atoms: N1_2  and  C2_3 
REMARK    2  A    between atoms: N1_2  and  N3_7 
REMARK       I    between atoms: N3_7  and  C3_9 
REMARK    3  A    between atoms: C3_9  and  C4_11 
REMARK    4  A    between atoms: C5_15  and  N5_16 
ROOT
HETATM    1  C4  UNL     1      22.749 -15.622   6.543  1.00  0.00     0.331 A 
HETATM    2  N4  UNL     1      22.223 -16.909   6.989  1.00  0.00    -0.034 N 
ATOM      3  H41 UNL     1      22.460 -17.581   7.719  1.00  0.00     0.281 HD
ATOM      4  H42 UNL     1      22.204 -17.859   6.617  1.00  0.00     0.281 HD
HETATM    5  C5  UNL     1      21.370 -15.742   6.894  1.00  0.00     0.339 A 
ENDROOT
BRANCH   1   6
HETATM    6  C3  UNL     1      23.752 -14.918   7.392  1.00  0.00     0.267 C 
HETATM    7  N3  UNL     1      24.561 -13.911   6.845  1.00  0.00    -0.283 N 
ATOM      8  H3  UNL     1      24.430 -13.690   5.857  1.00  0.00     0.184 HD
HETATM    9  O1  UNL     1      23.836 -15.254   8.572  1.00  0.00    -0.270 OA
BRANCH   7  10
HETATM   10  N1  UNL     1      25.526 -13.188   7.537  1.00  0.00    -0.194 NA
HETATM   11  C1  UNL     1      26.005 -12.018   6.853  1.00  0.00     0.143 C 
BRANCH  10  12
HETATM   12  C2  UNL     1      26.663 -14.035   7.736  1.00  0.00     0.164 C 
HETATM   13  N2  UNL     1      27.717 -13.549   8.222  1.00  0.00    -0.398 N 
ATOM     14  H22 UNL     1      27.745 -12.560   8.467  1.00  0.00     0.156 HD
ATOM     15  H21 UNL     1      28.527 -14.153   8.363  1.00  0.00     0.156 HD
ENDBRANCH  10  12
ENDBRANCH   7  10
ENDBRANCH   1   6
BRANCH   5  16
HETATM   16  N5  UNL     1      20.819 -15.322   8.155  1.00  0.00    -0.310 N 
HETATM   17  N6  UNL     1      20.247 -14.200   8.173  1.00  0.00    -0.347 N 
ATOM     18  H62 UNL     1      20.186 -13.631   7.328  1.00  0.00     0.176 HD
ATOM     19  H61 UNL     1      19.857 -13.902   9.066  1.00  0.00     0.176 HD
ATOM     20  H5  UNL     1      20.888 -15.901   8.991  1.00  0.00     0.182 HD
ENDBRANCH   5  16
TORSDOF 4
ENDMDL
