MODEL 1
REMARK VINA RESULT: -7.474347637      0.000      0.000
REMARK  8 active torsions:
REMARK  status: ('A' for Active; 'I' for Inactive)
REMARK    1  A    between atoms: C2_2  and  C3_3 
REMARK    2  A    between atoms: C4_4  and  C5_5 
REMARK    3  A    between atoms: C11_12  and  N1_13 
REMARK    4  A    between atoms: C16_18  and  C17_19 
REMARK    5  A    between atoms: C19_21  and  O2_22 
REMARK    6  A    between atoms: C22_26  and  C23_27 
REMARK    7  A    between atoms: C23_27  and  O3_28 
REMARK    8  A    between atoms: C24_30  and  O4_31 
ROOT
HETATM    1  C5  UNL     1     -24.892   4.599  -4.455  1.00  0.00     0.000 C 
HETATM    2  C6  UNL     1     -24.188   3.260  -4.700  1.00  0.00     0.022 C 
HETATM    3  C7  UNL     1     -23.879   5.660  -4.241  1.00  0.00     0.019 C 
HETATM    4  C8  UNL     1     -23.832   6.369  -2.958  1.00  0.00     0.040 C 
HETATM    5  C9  UNL     1     -25.118   6.442  -2.163  1.00  0.00     0.072 C 
HETATM    6  C10 UNL     1     -25.993   7.395  -2.911  1.00  0.00     0.047 C 
HETATM    7  O1  UNL     1     -24.747   6.805  -0.909  1.00  0.00    -0.345 OA
HETATM    8  C11 UNL     1     -25.561   7.547  -0.138  1.00  0.00     0.355 C 
HETATM    9  C19 UNL     1     -26.953   7.049   0.013  1.00  0.00     0.175 C 
HETATM   10  C20 UNL     1     -27.087   5.549  -0.019  1.00  0.00     0.037 C 
HETATM   11  C21 UNL     1     -27.050   5.032  -1.393  1.00  0.00     0.020 C 
HETATM   12  C22 UNL     1     -25.694   5.059  -2.093  1.00  0.00     0.039 C 
HETATM   13  C24 UNL     1     -25.980   4.488  -3.468  1.00  0.00     0.143 C 
ENDROOT
BRANCH   8  14
HETATM   14  N1  UNL     1     -24.886   7.790   1.131  1.00  0.00    -0.038 N 
HETATM   15  C12 UNL     1     -25.375   8.996   1.740  1.00  0.00     0.276 C 
HETATM   16  C13 UNL     1     -24.908   6.734   2.071  1.00  0.00     0.240 C 
HETATM   17  C14 UNL     1     -23.998   7.322   3.168  1.00  0.00     0.030 C 
HETATM   18  C15 UNL     1     -22.918   7.961   2.294  1.00  0.00     0.035 C 
HETATM   19  C16 UNL     1     -23.445   7.873   0.878  1.00  0.00     0.193 C 
BRANCH  19  20
HETATM   20  C17 UNL     1     -23.075   9.060   0.047  1.00  0.00     0.029 C 
HETATM   21  C18 UNL     1     -21.802   8.681  -0.709  1.00  0.00     0.007 C 
ENDBRANCH  19  20
ENDBRANCH   8  14
BRANCH   9  22
HETATM   22  O2  UNL     1     -27.584   7.588   1.159  1.00  0.00    -0.391 OA
ATOM     23  H2  UNL     1     -28.455   7.231   1.284  1.00  0.00     0.210 HD
ENDBRANCH   9  22
BRANCH  12  24
HETATM   24  C23 UNL     1     -24.830   4.124  -1.284  1.00  0.00     0.179 C 
BRANCH  24  25
HETATM   25  O3  UNL     1     -25.396   2.936  -0.921  1.00  0.00    -0.400 OA
ATOM     26  H3  UNL     1     -24.830   2.174  -0.946  1.00  0.00     0.209 HD
ENDBRANCH  24  25
ENDBRANCH  12  24
BRANCH  13  27
HETATM   27  O4  UNL     1     -26.304   3.148  -3.246  1.00  0.00    -0.394 OA
ATOM     28  H4  UNL     1     -25.914   2.841  -2.435  1.00  0.00     0.210 HD
ENDBRANCH  13  27
BRANCH   1  29
HETATM   29  C4  UNL     1     -25.560   4.897  -5.782  1.00  0.00    -0.019 C 
HETATM   30  C3  UNL     1     -25.350   6.087  -6.326  1.00  0.00    -0.030 C 
BRANCH  30  31
HETATM   31  C2  UNL     1     -25.958   6.476  -7.623  1.00  0.00     0.022 C 
HETATM   32  C1  UNL     1     -25.299   7.769  -8.111  1.00  0.00     0.009 C 
ENDBRANCH  30  31
ENDBRANCH   1  29
TORSDOF 8
ENDMDL
MODEL 2
REMARK VINA RESULT: -7.191827806      2.273      6.852
REMARK  8 active torsions:
REMARK  status: ('A' for Active; 'I' for Inactive)
REMARK    1  A    between atoms: C2_2  and  C3_3 
REMARK    2  A    between atoms: C4_4  and  C5_5 
REMARK    3  A    between atoms: C11_12  and  N1_13 
REMARK    4  A    between atoms: C16_18  and  C17_19 
REMARK    5  A    between atoms: C19_21  and  O2_22 
REMARK    6  A    between atoms: C22_26  and  C23_27 
REMARK    7  A    between atoms: C23_27  and  O3_28 
REMARK    8  A    between atoms: C24_30  and  O4_31 
ROOT
HETATM    1  C5  UNL     1     -25.718   6.343  -0.465  1.00  0.00     0.000 C 
HETATM    2  C6  UNL     1     -26.862   5.704   0.330  1.00  0.00     0.022 C 
HETATM    3  C7  UNL     1     -26.222   7.536  -1.187  1.00  0.00     0.019 C 
HETATM    4  C8  UNL     1     -26.182   7.565  -2.653  1.00  0.00     0.040 C 
HETATM    5  C9  UNL     1     -25.131   6.714  -3.332  1.00  0.00     0.072 C 
HETATM    6  C10 UNL     1     -23.831   7.398  -3.061  1.00  0.00     0.047 C 
HETATM    7  O1  UNL     1     -25.519   6.627  -4.630  1.00  0.00    -0.345 OA
HETATM    8  C11 UNL     1     -24.611   6.522  -5.614  1.00  0.00     0.355 C 
HETATM    9  C19 UNL     1     -23.594   5.448  -5.455  1.00  0.00     0.175 C 
HETATM   10  C20 UNL     1     -24.090   4.221  -4.737  1.00  0.00     0.037 C 
HETATM   11  C21 UNL     1     -24.111   4.418  -3.281  1.00  0.00     0.020 C 
HETATM   12  C22 UNL     1     -25.198   5.339  -2.736  1.00  0.00     0.039 C 
HETATM   13  C24 UNL     1     -24.953   5.351  -1.240  1.00  0.00     0.143 C 
ENDROOT
BRANCH   8  14
HETATM   14  N1  UNL     1     -25.323   6.468  -6.885  1.00  0.00    -0.038 N 
HETATM   15  C12 UNL     1     -24.397   6.428  -7.982  1.00  0.00     0.276 C 
HETATM   16  C13 UNL     1     -26.283   5.440  -7.029  1.00  0.00     0.240 C 
HETATM   17  C14 UNL     1     -26.883   5.813  -8.399  1.00  0.00     0.030 C 
HETATM   18  C15 UNL     1     -26.951   7.333  -8.248  1.00  0.00     0.035 C 
HETATM   19  C16 UNL     1     -26.195   7.642  -6.973  1.00  0.00     0.193 C 
BRANCH  19  20
HETATM   20  C17 UNL     1     -25.428   8.924  -7.050  1.00  0.00     0.029 C 
HETATM   21  C18 UNL     1     -26.041   9.861  -6.012  1.00  0.00     0.007 C 
ENDBRANCH  19  20
ENDBRANCH   8  14
BRANCH   9  22
HETATM   22  O2  UNL     1     -22.995   5.103  -6.690  1.00  0.00    -0.391 OA
ATOM     23  H2  UNL     1     -22.096   4.818  -6.579  1.00  0.00     0.210 HD
ENDBRANCH   9  22
BRANCH  12  24
HETATM   24  C23 UNL     1     -26.491   4.638  -3.069  1.00  0.00     0.179 C 
BRANCH  24  25
HETATM   25  O3  UNL     1     -26.453   3.274  -3.097  1.00  0.00    -0.400 OA
ATOM     26  H3  UNL     1     -26.744   2.860  -3.901  1.00  0.00     0.209 HD
ENDBRANCH  24  25
ENDBRANCH  12  24
BRANCH  13  27
HETATM   27  O4  UNL     1     -25.253   4.057  -0.811  1.00  0.00    -0.394 OA
ATOM     28  H4  UNL     1     -24.642   3.432  -1.183  1.00  0.00     0.210 HD
ENDBRANCH  13  27
BRANCH   1  29
HETATM   29  C4  UNL     1     -24.779   6.850   0.609  1.00  0.00    -0.019 C 
HETATM   30  C3  UNL     1     -24.610   8.160   0.715  1.00  0.00    -0.030 C 
BRANCH  30  31
HETATM   31  C2  UNL     1     -23.712   8.758   1.734  1.00  0.00     0.022 C 
HETATM   32  C1  UNL     1     -23.421   7.711   2.813  1.00  0.00     0.009 C 
ENDBRANCH  30  31
ENDBRANCH   1  29
TORSDOF 8
ENDMDL
MODEL 3
REMARK VINA RESULT: -7.157895173      7.143      9.467
REMARK  8 active torsions:
REMARK  status: ('A' for Active; 'I' for Inactive)
REMARK    1  A    between atoms: C2_2  and  C3_3 
REMARK    2  A    between atoms: C4_4  and  C5_5 
REMARK    3  A    between atoms: C11_12  and  N1_13 
REMARK    4  A    between atoms: C16_18  and  C17_19 
REMARK    5  A    between atoms: C19_21  and  O2_22 
REMARK    6  A    between atoms: C22_26  and  C23_27 
REMARK    7  A    between atoms: C23_27  and  O3_28 
REMARK    8  A    between atoms: C24_30  and  O4_31 
ROOT
HETATM    1  C5  UNL     1     -29.590  -4.010  -4.518  1.00  0.00     0.000 C 
HETATM    2  C6  UNL     1     -29.455  -5.274  -5.374  1.00  0.00     0.022 C 
HETATM    3  C7  UNL     1     -29.179  -2.827  -5.312  1.00  0.00     0.019 C 
HETATM    4  C8  UNL     1     -28.030  -2.026  -4.877  1.00  0.00     0.040 C 
HETATM    5  C9  UNL     1     -27.697  -2.043  -3.401  1.00  0.00     0.072 C 
HETATM    6  C10 UNL     1     -28.781  -1.253  -2.741  1.00  0.00     0.047 C 
HETATM    7  O1  UNL     1     -26.436  -1.549  -3.309  1.00  0.00    -0.345 OA
HETATM    8  C11 UNL     1     -26.047  -0.851  -2.229  1.00  0.00     0.355 C 
HETATM    9  C19 UNL     1     -26.295  -1.492  -0.910  1.00  0.00     0.175 C 
HETATM   10  C20 UNL     1     -26.208  -2.995  -0.922  1.00  0.00     0.037 C 
HETATM   11  C21 UNL     1     -27.436  -3.604  -1.449  1.00  0.00     0.020 C 
HETATM   12  C22 UNL     1     -27.668  -3.473  -2.952  1.00  0.00     0.039 C 
HETATM   13  C24 UNL     1     -28.993  -4.172  -3.181  1.00  0.00     0.143 C 
ENDROOT
BRANCH   8  14
HETATM   14  N1  UNL     1     -24.663  -0.440  -2.428  1.00  0.00    -0.038 N 
HETATM   15  C12 UNL     1     -24.182   0.286  -1.286  1.00  0.00     0.276 C 
HETATM   16  C13 UNL     1     -23.745  -1.459  -2.771  1.00  0.00     0.240 C 
HETATM   17  C14 UNL     1     -22.479  -0.616  -3.024  1.00  0.00     0.030 C 
HETATM   18  C15 UNL     1     -23.099   0.567  -3.769  1.00  0.00     0.035 C 
HETATM   19  C16 UNL     1     -24.596   0.379  -3.641  1.00  0.00     0.193 C 
BRANCH  19  20
HETATM   20  C17 UNL     1     -25.333   1.673  -3.503  1.00  0.00     0.029 C 
HETATM   21  C18 UNL     1     -25.039   2.478  -4.767  1.00  0.00     0.007 C 
ENDBRANCH  19  20
ENDBRANCH   8  14
BRANCH   9  22
HETATM   22  O2  UNL     1     -25.472  -0.946   0.104  1.00  0.00    -0.391 OA
ATOM     23  H2  UNL     1     -24.908  -1.603   0.493  1.00  0.00     0.210 HD
ENDBRANCH   9  22
BRANCH  12  24
HETATM   24  C23 UNL     1     -26.532  -4.242  -3.579  1.00  0.00     0.179 C 
BRANCH  24  25
HETATM   25  O3  UNL     1     -26.055  -5.307  -2.871  1.00  0.00    -0.400 OA
ATOM     26  H3  UNL     1     -25.594  -5.972  -3.368  1.00  0.00     0.209 HD
ENDBRANCH  24  25
ENDBRANCH  12  24
BRANCH  13  27
HETATM   27  O4  UNL     1     -28.745  -5.521  -2.917  1.00  0.00    -0.394 OA
ATOM     28  H4  UNL     1     -29.466  -6.058  -3.224  1.00  0.00     0.210 HD
ENDBRANCH  13  27
BRANCH   1  29
HETATM   29  C4  UNL     1     -31.084  -3.887  -4.298  1.00  0.00    -0.019 C 
HETATM   30  C3  UNL     1     -31.633  -2.689  -4.434  1.00  0.00    -0.030 C 
BRANCH  30  31
HETATM   31  C2  UNL     1     -33.087  -2.464  -4.240  1.00  0.00     0.022 C 
HETATM   32  C1  UNL     1     -33.375  -0.964  -4.350  1.00  0.00     0.009 C 
ENDBRANCH  30  31
ENDBRANCH   1  29
TORSDOF 8
ENDMDL
MODEL 4
REMARK VINA RESULT: -7.119203365      5.867      8.792
REMARK  8 active torsions:
REMARK  status: ('A' for Active; 'I' for Inactive)
REMARK    1  A    between atoms: C2_2  and  C3_3 
REMARK    2  A    between atoms: C4_4  and  C5_5 
REMARK    3  A    between atoms: C11_12  and  N1_13 
REMARK    4  A    between atoms: C16_18  and  C17_19 
REMARK    5  A    between atoms: C19_21  and  O2_22 
REMARK    6  A    between atoms: C22_26  and  C23_27 
REMARK    7  A    between atoms: C23_27  and  O3_28 
REMARK    8  A    between atoms: C24_30  and  O4_31 
ROOT
HETATM    1  C5  UNL     1     -25.514   2.798  -2.313  1.00  0.00     0.000 C 
HETATM    2  C6  UNL     1     -25.130   3.853  -1.268  1.00  0.00     0.022 C 
HETATM    3  C7  UNL     1     -26.852   2.247  -1.993  1.00  0.00     0.019 C 
HETATM    4  C8  UNL     1     -26.992   0.821  -1.680  1.00  0.00     0.040 C 
HETATM    5  C9  UNL     1     -25.957  -0.117  -2.260  1.00  0.00     0.072 C 
HETATM    6  C10 UNL     1     -26.254  -0.181  -3.723  1.00  0.00     0.047 C 
HETATM    7  O1  UNL     1     -26.083  -1.273  -1.558  1.00  0.00    -0.345 OA
HETATM    8  C11 UNL     1     -25.827  -2.459  -2.134  1.00  0.00     0.355 C 
HETATM    9  C19 UNL     1     -24.517  -2.582  -2.826  1.00  0.00     0.175 C 
HETATM   10  C20 UNL     1     -23.405  -1.778  -2.206  1.00  0.00     0.037 C 
HETATM   11  C21 UNL     1     -23.479  -0.364  -2.595  1.00  0.00     0.020 C 
HETATM   12  C22 UNL     1     -24.602   0.457  -1.968  1.00  0.00     0.039 C 
HETATM   13  C24 UNL     1     -24.425   1.838  -2.565  1.00  0.00     0.143 C 
ENDROOT
BRANCH   8  14
HETATM   14  N1  UNL     1     -26.067  -3.504  -1.146  1.00  0.00    -0.038 N 
HETATM   15  C12 UNL     1     -25.016  -4.483  -1.181  1.00  0.00     0.276 C 
HETATM   16  C13 UNL     1     -26.283  -3.079   0.185  1.00  0.00     0.240 C 
HETATM   17  C14 UNL     1     -26.627  -4.424   0.853  1.00  0.00     0.030 C 
HETATM   18  C15 UNL     1     -27.509  -5.037  -0.237  1.00  0.00     0.035 C 
HETATM   19  C16 UNL     1     -27.367  -4.116  -1.430  1.00  0.00     0.193 C 
BRANCH  19  20
HETATM   20  C17 UNL     1     -27.386  -4.849  -2.733  1.00  0.00     0.029 C 
HETATM   21  C18 UNL     1     -28.695  -4.474  -3.425  1.00  0.00     0.007 C 
ENDBRANCH  19  20
ENDBRANCH   8  14
BRANCH   9  22
HETATM   22  O2  UNL     1     -24.132  -3.935  -2.988  1.00  0.00    -0.391 OA
ATOM     23  H2  UNL     1     -23.510  -4.043  -3.697  1.00  0.00     0.210 HD
ENDBRANCH   9  22
BRANCH  12  24
HETATM   24  C23 UNL     1     -24.292   0.458  -0.492  1.00  0.00     0.179 C 
BRANCH  24  25
HETATM   25  O3  UNL     1     -22.971   0.427  -0.149  1.00  0.00    -0.400 OA
ATOM     26  H3  UNL     1     -22.601  -0.429   0.029  1.00  0.00     0.209 HD
ENDBRANCH  24  25
ENDBRANCH  12  24
BRANCH  13  27
HETATM   27  O4  UNL     1     -23.223   2.313  -2.038  1.00  0.00    -0.394 OA
ATOM     28  H4  UNL     1     -22.995   1.836  -1.248  1.00  0.00     0.210 HD
ENDBRANCH  13  27
BRANCH   1  29
HETATM   29  C4  UNL     1     -25.668   3.601  -3.588  1.00  0.00    -0.019 C 
HETATM   30  C3  UNL     1     -25.337   4.884  -3.555  1.00  0.00    -0.030 C 
BRANCH  30  31
HETATM   31  C2  UNL     1     -25.450   5.756  -4.750  1.00  0.00     0.022 C 
HETATM   32  C1  UNL     1     -24.638   7.032  -4.511  1.00  0.00     0.009 C 
ENDBRANCH  30  31
ENDBRANCH   1  29
TORSDOF 8
ENDMDL
MODEL 5
REMARK VINA RESULT: -7.028113476      5.494      8.999
REMARK  8 active torsions:
REMARK  status: ('A' for Active; 'I' for Inactive)
REMARK    1  A    between atoms: C2_2  and  C3_3 
REMARK    2  A    between atoms: C4_4  and  C5_5 
REMARK    3  A    between atoms: C11_12  and  N1_13 
REMARK    4  A    between atoms: C16_18  and  C17_19 
REMARK    5  A    between atoms: C19_21  and  O2_22 
REMARK    6  A    between atoms: C22_26  and  C23_27 
REMARK    7  A    between atoms: C23_27  and  O3_28 
REMARK    8  A    between atoms: C24_30  and  O4_31 
ROOT
HETATM    1  C5  UNL     1     -26.060  13.091  -8.407  1.00  0.00     0.000 C 
HETATM    2  C6  UNL     1     -25.154  13.866  -9.370  1.00  0.00     0.022 C 
HETATM    3  C7  UNL     1     -25.274  12.652  -7.230  1.00  0.00     0.019 C 
HETATM    4  C8  UNL     1     -25.117  11.220  -6.957  1.00  0.00     0.040 C 
HETATM    5  C9  UNL     1     -26.198  10.296  -7.474  1.00  0.00     0.072 C 
HETATM    6  C10 UNL     1     -27.389  10.558  -6.610  1.00  0.00     0.047 C 
HETATM    7  O1  UNL     1     -25.664   9.049  -7.421  1.00  0.00    -0.345 OA
HETATM    8  C11 UNL     1     -26.441   7.977  -7.193  1.00  0.00     0.355 C 
HETATM    9  C19 UNL     1     -27.635   7.836  -8.067  1.00  0.00     0.175 C 
HETATM   10  C20 UNL     1     -27.451   8.364  -9.466  1.00  0.00     0.037 C 
HETATM   11  C21 UNL     1     -27.587   9.826  -9.514  1.00  0.00     0.020 C 
HETATM   12  C22 UNL     1     -26.441  10.635  -8.915  1.00  0.00     0.039 C 
HETATM   13  C24 UNL     1     -26.874  12.076  -9.099  1.00  0.00     0.143 C 
ENDROOT
BRANCH   8  14
HETATM   14  N1  UNL     1     -25.589   6.795  -7.173  1.00  0.00    -0.038 N 
HETATM   15  C12 UNL     1     -26.378   5.606  -7.014  1.00  0.00     0.276 C 
HETATM   16  C13 UNL     1     -24.698   6.639  -8.260  1.00  0.00     0.240 C 
HETATM   17  C14 UNL     1     -23.913   5.396  -7.799  1.00  0.00     0.030 C 
HETATM   18  C15 UNL     1     -23.749   5.729  -6.315  1.00  0.00     0.035 C 
HETATM   19  C16 UNL     1     -24.626   6.940  -6.078  1.00  0.00     0.193 C 
BRANCH  19  20
HETATM   20  C17 UNL     1     -25.280   6.928  -4.733  1.00  0.00     0.029 C 
HETATM   21  C18 UNL     1     -24.868   8.224  -4.038  1.00  0.00     0.007 C 
ENDBRANCH  19  20
ENDBRANCH   8  14
BRANCH   9  22
HETATM   22  O2  UNL     1     -28.118   6.506  -8.089  1.00  0.00    -0.391 OA
ATOM     23  H2  UNL     1     -28.365   6.205  -7.223  1.00  0.00     0.210 HD
ENDBRANCH   9  22
BRANCH  12  24
HETATM   24  C23 UNL     1     -25.251  10.309  -9.783  1.00  0.00     0.179 C 
BRANCH  24  25
HETATM   25  O3  UNL     1     -25.521   9.721 -10.985  1.00  0.00    -0.400 OA
ATOM     26  H3  UNL     1     -25.177  10.159 -11.755  1.00  0.00     0.209 HD
ENDBRANCH  24  25
ENDBRANCH  12  24
BRANCH  13  27
HETATM   27  O4  UNL     1     -26.854  12.290 -10.478  1.00  0.00    -0.394 OA
ATOM     28  H4  UNL     1     -26.032  12.687 -10.741  1.00  0.00     0.210 HD
ENDBRANCH  13  27
BRANCH   1  29
HETATM   29  C4  UNL     1     -27.034  14.141  -7.913  1.00  0.00    -0.019 C 
HETATM   30  C3  UNL     1     -27.310  15.156  -8.719  1.00  0.00    -0.030 C 
BRANCH  30  31
HETATM   31  C2  UNL     1     -28.250  16.236  -8.329  1.00  0.00     0.022 C 
HETATM   32  C1  UNL     1     -29.230  16.481  -9.480  1.00  0.00     0.009 C 
ENDBRANCH  30  31
ENDBRANCH   1  29
TORSDOF 8
ENDMDL
