MODEL 1
REMARK VINA RESULT: -8.266263892      0.000      0.000
REMARK  8 active torsions:
REMARK  status: ('A' for Active; 'I' for Inactive)
REMARK    1  A    between atoms: C7_7  and  N1_8 
REMARK    2  A    between atoms: C7_7  and  C16_25 
REMARK       I    between atoms: N1_8  and  C8_10 
REMARK    3  A    between atoms: C8_10  and  C9_12 
REMARK    4  A    between atoms: C9_12  and  C10_13 
REMARK    5  A    between atoms: C10_13  and  S1_14 
REMARK    6  A    between atoms: S1_14  and  C11_15 
REMARK    7  A    between atoms: C16_25  and  O2_26 
REMARK    8  A    between atoms: C16_25  and  N4_28 
ROOT
HETATM    1  N1  UNL     1     -25.205   9.070  -1.181  1.00  0.00    -0.343 N 
ATOM      2  H1  UNL     1     -26.102   9.283  -0.744  1.00  0.00     0.163 HD
HETATM    3  C8  UNL     1     -24.854   9.685  -2.417  1.00  0.00     0.219 C 
HETATM    4  O1  UNL     1     -23.746   9.410  -2.924  1.00  0.00    -0.274 OA
ENDROOT
BRANCH   1   5
HETATM    5  C7  UNL     1     -24.274   8.123  -0.530  1.00  0.00     0.104 C 
HETATM    6  C2  UNL     1     -24.963   7.683   0.731  1.00  0.00    -0.015 C 
HETATM    7  C1  UNL     1     -25.779   6.424   0.571  1.00  0.00     0.018 C 
HETATM    8  C3  UNL     1     -25.970   8.752   1.209  1.00  0.00     0.018 C 
HETATM    9  C4  UNL     1     -23.940   7.621   1.822  1.00  0.00     0.012 C 
HETATM   10  C5  UNL     1     -23.008   8.752   1.437  1.00  0.00     0.004 C 
HETATM   11  C6  UNL     1     -23.055   8.817  -0.080  1.00  0.00     0.040 C 
BRANCH   5  12
HETATM   12  C16 UNL     1     -24.010   7.006  -1.458  1.00  0.00     0.143 C 
BRANCH  12  13
HETATM   13  O2  UNL     1     -22.704   6.774  -1.649  1.00  0.00    -0.347 OA
ATOM     14  H2  UNL     1     -22.354   6.103  -1.075  1.00  0.00     0.219 HD
ENDBRANCH  12  13
BRANCH  12  15
HETATM   15  N4  UNL     1     -24.790   6.138  -2.175  1.00  0.00    -0.363 N 
HETATM   16  C17 UNL     1     -25.819   6.391  -3.109  1.00  0.00     0.124 C 
HETATM   17  C18 UNL     1     -25.495   5.847  -4.498  1.00  0.00     0.020 C 
HETATM   18  C19 UNL     1     -25.118   4.405  -4.371  1.00  0.00     0.003 C 
HETATM   19  C20 UNL     1     -25.294   3.887  -2.960  1.00  0.00     0.020 C 
HETATM   20  C21 UNL     1     -24.535   4.677  -1.952  1.00  0.00     0.124 C 
ENDBRANCH  12  15
ENDBRANCH   5  12
ENDBRANCH   1   5
BRANCH   3  21
HETATM   21  C9  UNL     1     -25.739  10.633  -3.124  1.00  0.00     0.113 C 
BRANCH  21  22
HETATM   22  C10 UNL     1     -26.401   9.942  -4.294  1.00  0.00     0.084 C 
BRANCH  22  23
HETATM   23  S1  UNL     1     -25.678  10.432  -5.865  1.00  0.00    -0.156 SA
BRANCH  23  24
HETATM   24  C11 UNL     1     -26.619  11.817  -6.583  1.00  0.00     0.114 C 
HETATM   25  C12 UNL     1     -27.057  11.394  -7.966  1.00  0.00     0.024 C 
HETATM   26  C13 UNL     1     -27.090  12.572  -8.896  1.00  0.00     0.021 C 
HETATM   27  C14 UNL     1     -25.627  12.937  -9.178  1.00  0.00     0.121 C 
HETATM   28  N2  UNL     1     -25.092  13.331  -7.874  1.00  0.00    -0.379 N 
HETATM   29  C15 UNL     1     -25.778  13.038  -6.668  1.00  0.00     0.084 C 
ATOM     30  H2  UNL     1     -24.203  13.830  -7.832  1.00  0.00     0.160 HD
HETATM   31  N3  UNL     1     -25.695  13.812  -5.625  1.00  0.00    -0.388 N 
ATOM     32  H32 UNL     1     -26.188  13.601  -4.758  1.00  0.00     0.157 HD
ATOM     33  H31 UNL     1     -25.117  14.651  -5.684  1.00  0.00     0.157 HD
ENDBRANCH  23  24
ENDBRANCH  22  23
ENDBRANCH  21  22
ENDBRANCH   3  21
TORSDOF 8
ENDMDL
MODEL 2
REMARK VINA RESULT: -8.228725417      3.879      8.469
REMARK  8 active torsions:
REMARK  status: ('A' for Active; 'I' for Inactive)
REMARK    1  A    between atoms: C7_7  and  N1_8 
REMARK    2  A    between atoms: C7_7  and  C16_25 
REMARK       I    between atoms: N1_8  and  C8_10 
REMARK    3  A    between atoms: C8_10  and  C9_12 
REMARK    4  A    between atoms: C9_12  and  C10_13 
REMARK    5  A    between atoms: C10_13  and  S1_14 
REMARK    6  A    between atoms: S1_14  and  C11_15 
REMARK    7  A    between atoms: C16_25  and  O2_26 
REMARK    8  A    between atoms: C16_25  and  N4_28 
ROOT
HETATM    1  N1  UNL     1     -24.226   6.309  -2.277  1.00  0.00    -0.343 N 
ATOM      2  H1  UNL     1     -23.219   6.346  -2.438  1.00  0.00     0.163 HD
HETATM    3  C8  UNL     1     -24.931   5.086  -2.472  1.00  0.00     0.219 C 
HETATM    4  O1  UNL     1     -26.162   5.071  -2.261  1.00  0.00    -0.274 OA
ENDROOT
BRANCH   1   5
HETATM    5  C7  UNL     1     -24.949   7.524  -1.844  1.00  0.00     0.104 C 
HETATM    6  C2  UNL     1     -23.911   8.404  -1.206  1.00  0.00    -0.015 C 
HETATM    7  C1  UNL     1     -23.280   9.389  -2.159  1.00  0.00     0.018 C 
HETATM    8  C3  UNL     1     -22.734   7.564  -0.665  1.00  0.00     0.018 C 
HETATM    9  C4  UNL     1     -24.516   9.026   0.014  1.00  0.00     0.012 C 
HETATM   10  C5  UNL     1     -25.446   7.929   0.492  1.00  0.00     0.004 C 
HETATM   11  C6  UNL     1     -25.901   7.207  -0.765  1.00  0.00     0.040 C 
BRANCH   5  12
HETATM   12  C16 UNL     1     -25.580   8.145  -3.024  1.00  0.00     0.143 C 
BRANCH  12  13
HETATM   13  O2  UNL     1     -26.713   8.799  -2.737  1.00  0.00    -0.347 OA
ATOM     14  H2  UNL     1     -26.641   9.358  -1.972  1.00  0.00     0.219 HD
ENDBRANCH  12  13
BRANCH  12  15
HETATM   15  N4  UNL     1     -25.277   8.217  -4.359  1.00  0.00    -0.363 N 
HETATM   16  C17 UNL     1     -24.627   7.288  -5.200  1.00  0.00     0.124 C 
HETATM   17  C18 UNL     1     -25.521   6.805  -6.340  1.00  0.00     0.020 C 
HETATM   18  C19 UNL     1     -26.076   7.999  -7.051  1.00  0.00     0.003 C 
HETATM   19  C20 UNL     1     -25.496   9.297  -6.532  1.00  0.00     0.020 C 
HETATM   20  C21 UNL     1     -25.688   9.474  -5.065  1.00  0.00     0.124 C 
ENDBRANCH  12  15
ENDBRANCH   5  12
ENDBRANCH   1   5
BRANCH   3  21
HETATM   21  C9  UNL     1     -24.273   3.839  -2.910  1.00  0.00     0.113 C 
BRANCH  21  22
HETATM   22  C10 UNL     1     -25.249   2.687  -2.827  1.00  0.00     0.084 C 
BRANCH  22  23
HETATM   23  S1  UNL     1     -24.770   1.485  -1.579  1.00  0.00    -0.156 SA
BRANCH  23  24
HETATM   24  C11 UNL     1     -23.077   0.892  -1.896  1.00  0.00     0.114 C 
HETATM   25  C12 UNL     1     -23.026   0.427  -3.333  1.00  0.00     0.024 C 
HETATM   26  C13 UNL     1     -22.084  -0.732  -3.484  1.00  0.00     0.021 C 
HETATM   27  C14 UNL     1     -22.779  -1.937  -2.836  1.00  0.00     0.121 C 
HETATM   28  N2  UNL     1     -22.913  -1.566  -1.427  1.00  0.00    -0.379 N 
HETATM   29  C15 UNL     1     -22.732  -0.230  -0.988  1.00  0.00     0.084 C 
ATOM     30  H2  UNL     1     -23.141  -2.288  -0.743  1.00  0.00     0.160 HD
HETATM   31  N3  UNL     1     -22.267   0.047   0.197  1.00  0.00    -0.388 N 
ATOM     32  H32 UNL     1     -22.137   1.008   0.512  1.00  0.00     0.157 HD
ATOM     33  H31 UNL     1     -22.031  -0.724   0.821  1.00  0.00     0.157 HD
ENDBRANCH  23  24
ENDBRANCH  22  23
ENDBRANCH  21  22
ENDBRANCH   3  21
TORSDOF 8
ENDMDL
MODEL 3
REMARK VINA RESULT: -8.201159340      1.013      1.442
REMARK  8 active torsions:
REMARK  status: ('A' for Active; 'I' for Inactive)
REMARK    1  A    between atoms: C7_7  and  N1_8 
REMARK    2  A    between atoms: C7_7  and  C16_25 
REMARK       I    between atoms: N1_8  and  C8_10 
REMARK    3  A    between atoms: C8_10  and  C9_12 
REMARK    4  A    between atoms: C9_12  and  C10_13 
REMARK    5  A    between atoms: C10_13  and  S1_14 
REMARK    6  A    between atoms: S1_14  and  C11_15 
REMARK    7  A    between atoms: C16_25  and  O2_26 
REMARK    8  A    between atoms: C16_25  and  N4_28 
ROOT
HETATM    1  N1  UNL     1     -25.291   8.996  -1.362  1.00  0.00    -0.343 N 
ATOM      2  H1  UNL     1     -26.195   9.141  -0.912  1.00  0.00     0.163 HD
HETATM    3  C8  UNL     1     -25.008   9.628  -2.607  1.00  0.00     0.219 C 
HETATM    4  O1  UNL     1     -23.890   9.437  -3.129  1.00  0.00    -0.274 OA
ENDROOT
BRANCH   1   5
HETATM    5  C7  UNL     1     -24.278   8.131  -0.719  1.00  0.00     0.104 C 
HETATM    6  C2  UNL     1     -24.888   7.698   0.585  1.00  0.00    -0.015 C 
HETATM    7  C1  UNL     1     -25.630   6.388   0.503  1.00  0.00     0.018 C 
HETATM    8  C3  UNL     1     -25.937   8.721   1.069  1.00  0.00     0.018 C 
HETATM    9  C4  UNL     1     -23.819   7.737   1.633  1.00  0.00     0.012 C 
HETATM   10  C5  UNL     1     -22.974   8.907   1.169  1.00  0.00     0.004 C 
HETATM   11  C6  UNL     1     -23.086   8.913  -0.345  1.00  0.00     0.040 C 
BRANCH   5  12
HETATM   12  C16 UNL     1     -23.984   6.999  -1.618  1.00  0.00     0.143 C 
BRANCH  12  13
HETATM   13  O2  UNL     1     -22.673   6.805  -1.815  1.00  0.00    -0.347 OA
ATOM     14  H2  UNL     1     -22.238   6.399  -1.075  1.00  0.00     0.219 HD
ENDBRANCH  12  13
BRANCH  12  15
HETATM   15  N4  UNL     1     -24.741   6.086  -2.305  1.00  0.00    -0.363 N 
HETATM   16  C17 UNL     1     -25.782   6.279  -3.239  1.00  0.00     0.124 C 
HETATM   17  C18 UNL     1     -25.448   5.704  -4.614  1.00  0.00     0.020 C 
HETATM   18  C19 UNL     1     -25.025   4.278  -4.447  1.00  0.00     0.003 C 
HETATM   19  C20 UNL     1     -25.178   3.798  -3.020  1.00  0.00     0.020 C 
HETATM   20  C21 UNL     1     -24.439   4.641  -2.040  1.00  0.00     0.124 C 
ENDBRANCH  12  15
ENDBRANCH   5  12
ENDBRANCH   1   5
BRANCH   3  21
HETATM   21  C9  UNL     1     -25.976  10.497  -3.306  1.00  0.00     0.113 C 
BRANCH  21  22
HETATM   22  C10 UNL     1     -25.580  10.642  -4.758  1.00  0.00     0.084 C 
BRANCH  22  23
HETATM   23  S1  UNL     1     -26.568  11.882  -5.607  1.00  0.00    -0.156 SA
BRANCH  23  24
HETATM   24  C11 UNL     1     -25.534  12.802  -6.792  1.00  0.00     0.114 C 
HETATM   25  C12 UNL     1     -25.660  14.269  -6.453  1.00  0.00     0.024 C 
HETATM   26  C13 UNL     1     -25.577  15.110  -7.694  1.00  0.00     0.021 C 
HETATM   27  C14 UNL     1     -26.896  14.894  -8.448  1.00  0.00     0.121 C 
HETATM   28  N2  UNL     1     -26.890  13.472  -8.793  1.00  0.00    -0.379 N 
HETATM   29  C15 UNL     1     -25.987  12.562  -8.185  1.00  0.00     0.084 C 
ATOM     30  H2  UNL     1     -27.551  13.127  -9.489  1.00  0.00     0.160 HD
HETATM   31  N3  UNL     1     -25.539  11.515  -8.815  1.00  0.00    -0.388 N 
ATOM     32  H32 UNL     1     -24.891  10.860  -8.378  1.00  0.00     0.157 HD
ATOM     33  H31 UNL     1     -25.852  11.350  -9.772  1.00  0.00     0.157 HD
ENDBRANCH  23  24
ENDBRANCH  22  23
ENDBRANCH  21  22
ENDBRANCH   3  21
TORSDOF 8
ENDMDL
MODEL 4
REMARK VINA RESULT: -8.187708573      4.965      8.180
REMARK  8 active torsions:
REMARK  status: ('A' for Active; 'I' for Inactive)
REMARK    1  A    between atoms: C7_7  and  N1_8 
REMARK    2  A    between atoms: C7_7  and  C16_25 
REMARK       I    between atoms: N1_8  and  C8_10 
REMARK    3  A    between atoms: C8_10  and  C9_12 
REMARK    4  A    between atoms: C9_12  and  C10_13 
REMARK    5  A    between atoms: C10_13  and  S1_14 
REMARK    6  A    between atoms: S1_14  and  C11_15 
REMARK    7  A    between atoms: C16_25  and  O2_26 
REMARK    8  A    between atoms: C16_25  and  N4_28 
ROOT
HETATM    1  N1  UNL     1     -26.109   1.765  -1.369  1.00  0.00    -0.343 N 
ATOM      2  H1  UNL     1     -26.058   1.619  -0.360  1.00  0.00     0.163 HD
HETATM    3  C8  UNL     1     -26.318   3.075  -1.887  1.00  0.00     0.219 C 
HETATM    4  O1  UNL     1     -26.370   3.222  -3.126  1.00  0.00    -0.274 OA
ENDROOT
BRANCH   1   5
HETATM    5  C7  UNL     1     -25.967   0.615  -2.288  1.00  0.00     0.104 C 
HETATM    6  C2  UNL     1     -25.119  -0.386  -1.553  1.00  0.00    -0.015 C 
HETATM    7  C1  UNL     1     -25.917  -1.397  -0.768  1.00  0.00     0.018 C 
HETATM    8  C3  UNL     1     -24.224   0.314  -0.508  1.00  0.00     0.018 C 
HETATM    9  C4  UNL     1     -24.154  -0.983  -2.529  1.00  0.00     0.012 C 
HETATM   10  C5  UNL     1     -23.889   0.186  -3.457  1.00  0.00     0.004 C 
HETATM   11  C6  UNL     1     -25.177   0.990  -3.474  1.00  0.00     0.040 C 
BRANCH   5  12
HETATM   12  C16 UNL     1     -27.311   0.099  -2.612  1.00  0.00     0.143 C 
BRANCH  12  13
HETATM   13  O2  UNL     1     -28.301   0.864  -2.132  1.00  0.00    -0.347 OA
ATOM     14  H2  UNL     1     -29.101   0.806  -2.642  1.00  0.00     0.219 HD
ENDBRANCH  12  13
BRANCH  12  15
HETATM   15  N4  UNL     1     -27.794  -0.985  -3.297  1.00  0.00    -0.363 N 
HETATM   16  C17 UNL     1     -27.162  -1.830  -4.235  1.00  0.00     0.124 C 
HETATM   17  C18 UNL     1     -27.093  -3.280  -3.764  1.00  0.00     0.020 C 
HETATM   18  C19 UNL     1     -28.467  -3.719  -3.365  1.00  0.00     0.003 C 
HETATM   19  C20 UNL     1     -29.515  -2.670  -3.666  1.00  0.00     0.020 C 
HETATM   20  C21 UNL     1     -29.222  -1.356  -3.029  1.00  0.00     0.124 C 
ENDBRANCH  12  15
ENDBRANCH   5  12
ENDBRANCH   1   5
BRANCH   3  21
HETATM   21  C9  UNL     1     -26.476   4.265  -1.026  1.00  0.00     0.113 C 
BRANCH  21  22
HETATM   22  C10 UNL     1     -25.220   5.105  -1.077  1.00  0.00     0.084 C 
BRANCH  22  23
HETATM   23  S1  UNL     1     -25.244   6.430   0.138  1.00  0.00    -0.156 SA
BRANCH  23  24
HETATM   24  C11 UNL     1     -24.937   8.031  -0.675  1.00  0.00     0.114 C 
HETATM   25  C12 UNL     1     -23.884   7.802  -1.734  1.00  0.00     0.024 C 
HETATM   26  C13 UNL     1     -23.009   9.013  -1.885  1.00  0.00     0.021 C 
HETATM   27  C14 UNL     1     -22.124   9.061  -0.633  1.00  0.00     0.121 C 
HETATM   28  N2  UNL     1     -23.065   9.246   0.472  1.00  0.00    -0.379 N 
HETATM   29  C15 UNL     1     -24.458   9.038   0.306  1.00  0.00     0.084 C 
ATOM     30  H2  UNL     1     -22.710   9.531   1.385  1.00  0.00     0.160 HD
HETATM   31  N3  UNL     1     -25.340   9.709   0.991  1.00  0.00    -0.388 N 
ATOM     32  H32 UNL     1     -26.341   9.560   0.871  1.00  0.00     0.157 HD
ATOM     33  H31 UNL     1     -25.011  10.400   1.665  1.00  0.00     0.157 HD
ENDBRANCH  23  24
ENDBRANCH  22  23
ENDBRANCH  21  22
ENDBRANCH   3  21
TORSDOF 8
ENDMDL
MODEL 5
REMARK VINA RESULT: -8.174399746      3.994      9.082
REMARK  8 active torsions:
REMARK  status: ('A' for Active; 'I' for Inactive)
REMARK    1  A    between atoms: C7_7  and  N1_8 
REMARK    2  A    between atoms: C7_7  and  C16_25 
REMARK       I    between atoms: N1_8  and  C8_10 
REMARK    3  A    between atoms: C8_10  and  C9_12 
REMARK    4  A    between atoms: C9_12  and  C10_13 
REMARK    5  A    between atoms: C10_13  and  S1_14 
REMARK    6  A    between atoms: S1_14  and  C11_15 
REMARK    7  A    between atoms: C16_25  and  O2_26 
REMARK    8  A    between atoms: C16_25  and  N4_28 
ROOT
HETATM    1  N1  UNL     1     -25.555   4.889  -3.685  1.00  0.00    -0.343 N 
ATOM      2  H1  UNL     1     -26.473   4.908  -4.129  1.00  0.00     0.163 HD
HETATM    3  C8  UNL     1     -25.332   4.056  -2.551  1.00  0.00     0.219 C 
HETATM    4  O1  UNL     1     -24.196   4.050  -2.034  1.00  0.00    -0.274 OA
ENDROOT
BRANCH   1   5
HETATM    5  C7  UNL     1     -24.459   5.727  -4.220  1.00  0.00     0.104 C 
HETATM    6  C2  UNL     1     -25.049   6.459  -5.393  1.00  0.00    -0.015 C 
HETATM    7  C1  UNL     1     -25.614   7.813  -5.043  1.00  0.00     0.018 C 
HETATM    8  C3  UNL     1     -26.237   5.675  -5.991  1.00  0.00     0.018 C 
HETATM    9  C4  UNL     1     -24.028   6.481  -6.488  1.00  0.00     0.012 C 
HETATM   10  C5  UNL     1     -23.326   5.153  -6.283  1.00  0.00     0.004 C 
HETATM   11  C6  UNL     1     -23.391   4.887  -4.789  1.00  0.00     0.040 C 
BRANCH   5  12
HETATM   12  C16 UNL     1     -23.994   6.634  -3.154  1.00  0.00     0.143 C 
BRANCH  12  13
HETATM   13  O2  UNL     1     -22.676   6.553  -2.926  1.00  0.00    -0.347 OA
ATOM     14  H2  UNL     1     -22.463   6.204  -2.069  1.00  0.00     0.219 HD
ENDBRANCH  12  13
BRANCH  12  15
HETATM   15  N4  UNL     1     -24.594   7.553  -2.333  1.00  0.00    -0.363 N 
HETATM   16  C17 UNL     1     -25.734   7.435  -1.508  1.00  0.00     0.124 C 
HETATM   17  C18 UNL     1     -25.413   7.650  -0.031  1.00  0.00     0.020 C 
HETATM   18  C19 UNL     1     -24.676   8.944   0.115  1.00  0.00     0.003 C 
HETATM   19  C20 UNL     1     -24.588   9.705  -1.190  1.00  0.00     0.020 C 
HETATM   20  C21 UNL     1     -23.962   8.912  -2.285  1.00  0.00     0.124 C 
ENDBRANCH  12  15
ENDBRANCH   5  12
ENDBRANCH   1   5
BRANCH   3  21
HETATM   21  C9  UNL     1     -26.382   3.202  -1.962  1.00  0.00     0.113 C 
BRANCH  21  22
HETATM   22  C10 UNL     1     -26.216   1.778  -2.444  1.00  0.00     0.084 C 
BRANCH  22  23
HETATM   23  S1  UNL     1     -25.287   0.774  -1.278  1.00  0.00    -0.156 SA
BRANCH  23  24
HETATM   24  C11 UNL     1     -23.524   0.755  -1.733  1.00  0.00     0.114 C 
HETATM   25  C12 UNL     1     -23.444   0.444  -3.210  1.00  0.00     0.024 C 
HETATM   26  C13 UNL     1     -22.211  -0.355  -3.519  1.00  0.00     0.021 C 
HETATM   27  C14 UNL     1     -22.461  -1.763  -2.960  1.00  0.00     0.121 C 
HETATM   28  N2  UNL     1     -22.592  -1.564  -1.516  1.00  0.00    -0.379 N 
HETATM   29  C15 UNL     1     -22.789  -0.275  -0.957  1.00  0.00     0.084 C 
ATOM     30  H2  UNL     1     -22.541  -2.372  -0.896  1.00  0.00     0.160 HD
HETATM   31  N3  UNL     1     -22.341   0.036   0.225  1.00  0.00    -0.388 N 
ATOM     32  H32 UNL     1     -22.483   0.963   0.627  1.00  0.00     0.157 HD
ATOM     33  H31 UNL     1     -21.837  -0.672   0.758  1.00  0.00     0.157 HD
ENDBRANCH  23  24
ENDBRANCH  22  23
ENDBRANCH  21  22
ENDBRANCH   3  21
TORSDOF 8
ENDMDL
