MODEL 1
REMARK VINA RESULT: -9.055217659      0.000      0.000
REMARK  10 active torsions:
REMARK  status: ('A' for Active; 'I' for Inactive)
REMARK    1  A    between atoms: C3_3  and  C4_4 
REMARK    2  A    between atoms: C5_5  and  C6_6 
REMARK    3  A    between atoms: C6_6  and  O1_7 
REMARK    4  A    between atoms: C7_9  and  C8_10 
REMARK    5  A    between atoms: C9_11  and  C10_12 
REMARK    6  A    between atoms: C10_12  and  C11_13 
REMARK    7  A    between atoms: C11_13  and  C12_14 
REMARK    8  A    between atoms: C12_14  and  C13_15 
REMARK    9  A    between atoms: C13_15  and  C14_16 
REMARK   10  A    between atoms: C14_16  and  C15_17 
ROOT
HETATM    1  C1  UNL     1     -25.802  10.155  -9.864  1.00  0.00     0.018 C 
HETATM    2  C2  UNL     1     -26.365  10.095  -8.489  1.00  0.00    -0.010 C 
HETATM    3  C3  UNL     1     -26.573   8.629  -8.084  1.00  0.00     0.034 C 
HETATM    4  C7  UNL     1     -26.224   9.078  -6.673  1.00  0.00     0.078 C 
HETATM    5  C16 UNL     1     -25.370  10.165  -7.346  1.00  0.00     0.013 C 
HETATM    6  C17 UNL     1     -25.514  11.517  -6.729  1.00  0.00     0.014 C 
HETATM    7  C18 UNL     1     -26.748  12.165  -7.313  1.00  0.00     0.019 C 
HETATM    8  C19 UNL     1     -26.380  13.084  -8.448  1.00  0.00     0.038 C 
HETATM    9  C20 UNL     1     -26.194  14.503  -8.018  1.00  0.00     0.018 C 
HETATM   10  C21 UNL     1     -27.225  15.452  -8.565  1.00  0.00     0.079 C 
HETATM   11  C22 UNL     1     -27.609  15.191  -9.952  1.00  0.00     0.132 C 
HETATM   12  O4  UNL     1     -27.830  16.130 -10.698  1.00  0.00    -0.298 OA
HETATM   13  C23 UNL     1     -27.754  13.828 -10.533  1.00  0.00     0.130 C 
HETATM   14  C24 UNL     1     -27.418  12.863  -9.438  1.00  0.00    -0.006 C 
HETATM   15  N1  UNL     1     -27.982  11.740  -9.229  1.00  0.00    -0.390 N 
ATOM     16  H1  UNL     1     -28.742  11.376  -9.805  1.00  0.00     0.159 HD
HETATM   17  C25 UNL     1     -27.445  11.042  -8.108  1.00  0.00     0.095 C 
ENDROOT
BRANCH   4  18
HETATM   18  C8  UNL     1     -25.422   8.098  -5.941  1.00  0.00    -0.101 C 
HETATM   19  C9  UNL     1     -24.741   7.261  -5.343  1.00  0.00    -0.106 C 
BRANCH  19  20
HETATM   20  C10 UNL     1     -23.993   6.254  -4.620  1.00  0.00     0.094 C 
BRANCH  20  21
HETATM   21  C11 UNL     1     -24.105   6.332  -3.161  1.00  0.00     0.012 C 
BRANCH  21  22
HETATM   22  C12 UNL     1     -25.105   7.254  -2.591  1.00  0.00     0.001 C 
BRANCH  22  23
HETATM   23  C13 UNL     1     -24.604   8.212  -1.594  1.00  0.00     0.010 C 
BRANCH  23  24
HETATM   24  C14 UNL     1     -23.334   8.949  -2.028  1.00  0.00     0.113 C 
BRANCH  24  25
HETATM   25  C15 UNL     1     -22.203   8.801  -1.112  1.00  0.00     0.172 C 
HETATM   26  O2  UNL     1     -22.078   9.502  -0.103  1.00  0.00    -0.648 OA
HETATM   27  O3  UNL     1     -21.264   7.813  -1.444  1.00  0.00    -0.648 OA
ENDBRANCH  24  25
ENDBRANCH  23  24
ENDBRANCH  22  23
ENDBRANCH  21  22
ENDBRANCH  20  21
ENDBRANCH  19  20
ENDBRANCH   4  18
BRANCH   3  28
HETATM   28  C4  UNL     1     -27.921   8.106  -8.293  1.00  0.00    -0.022 C 
HETATM   29  C5  UNL     1     -28.178   6.828  -8.401  1.00  0.00    -0.005 C 
BRANCH  29  30
HETATM   30  C6  UNL     1     -27.168   5.770  -8.327  1.00  0.00     0.191 C 
BRANCH  30  31
HETATM   31  O1  UNL     1     -27.839   4.557  -8.639  1.00  0.00    -0.397 OA
ATOM     32  H1  UNL     1     -27.477   3.896  -8.061  1.00  0.00     0.209 HD
ENDBRANCH  30  31
ENDBRANCH  29  30
ENDBRANCH   3  28
TORSDOF 10
ENDMDL
MODEL 2
REMARK VINA RESULT: -8.818906947      2.658      4.153
REMARK  10 active torsions:
REMARK  status: ('A' for Active; 'I' for Inactive)
REMARK    1  A    between atoms: C3_3  and  C4_4 
REMARK    2  A    between atoms: C5_5  and  C6_6 
REMARK    3  A    between atoms: C6_6  and  O1_7 
REMARK    4  A    between atoms: C7_9  and  C8_10 
REMARK    5  A    between atoms: C9_11  and  C10_12 
REMARK    6  A    between atoms: C10_12  and  C11_13 
REMARK    7  A    between atoms: C11_13  and  C12_14 
REMARK    8  A    between atoms: C12_14  and  C13_15 
REMARK    9  A    between atoms: C13_15  and  C14_16 
REMARK   10  A    between atoms: C14_16  and  C15_17 
ROOT
HETATM    1  C1  UNL     1     -27.856  10.732  -5.481  1.00  0.00     0.018 C 
HETATM    2  C2  UNL     1     -26.424  10.459  -5.776  1.00  0.00    -0.010 C 
HETATM    3  C3  UNL     1     -25.900   9.381  -4.819  1.00  0.00     0.034 C 
HETATM    4  C7  UNL     1     -25.026   8.924  -5.977  1.00  0.00     0.078 C 
HETATM    5  C16 UNL     1     -26.138   9.468  -6.889  1.00  0.00     0.013 C 
HETATM    6  C17 UNL     1     -25.636  10.258  -8.053  1.00  0.00     0.014 C 
HETATM    7  C18 UNL     1     -25.373  11.669  -7.579  1.00  0.00     0.019 C 
HETATM    8  C19 UNL     1     -26.542  12.563  -7.897  1.00  0.00     0.038 C 
HETATM    9  C20 UNL     1     -26.393  13.283  -9.198  1.00  0.00     0.018 C 
HETATM   10  C21 UNL     1     -26.241  14.774  -9.062  1.00  0.00     0.079 C 
HETATM   11  C22 UNL     1     -27.085  15.374  -8.029  1.00  0.00     0.132 C 
HETATM   12  O4  UNL     1     -27.587  16.467  -8.227  1.00  0.00    -0.298 OA
HETATM   13  C23 UNL     1     -27.380  14.730  -6.719  1.00  0.00     0.130 C 
HETATM   14  C24 UNL     1     -26.673  13.411  -6.726  1.00  0.00    -0.006 C 
HETATM   15  N1  UNL     1     -26.102  12.860  -5.728  1.00  0.00    -0.390 N 
ATOM     16  H1  UNL     1     -26.071  13.278  -4.798  1.00  0.00     0.159 HD
HETATM   17  C25 UNL     1     -25.512  11.602  -6.044  1.00  0.00     0.095 C 
ENDROOT
BRANCH   4  18
HETATM   18  C8  UNL     1     -24.889   7.471  -6.054  1.00  0.00    -0.101 C 
HETATM   19  C9  UNL     1     -24.782   6.245  -6.141  1.00  0.00    -0.106 C 
BRANCH  19  20
HETATM   20  C10 UNL     1     -24.705   4.800  -6.206  1.00  0.00     0.094 C 
BRANCH  20  21
HETATM   21  C11 UNL     1     -25.638   4.092  -5.326  1.00  0.00     0.012 C 
BRANCH  21  22
HETATM   22  C12 UNL     1     -25.144   2.905  -4.602  1.00  0.00     0.001 C 
BRANCH  22  23
HETATM   23  C13 UNL     1     -24.229   3.168  -3.482  1.00  0.00     0.010 C 
BRANCH  23  24
HETATM   24  C14 UNL     1     -24.643   4.357  -2.611  1.00  0.00     0.113 C 
BRANCH  24  25
HETATM   25  C15 UNL     1     -25.189   3.992  -1.304  1.00  0.00     0.172 C 
HETATM   26  O2  UNL     1     -25.554   4.840  -0.483  1.00  0.00    -0.648 OA
HETATM   27  O3  UNL     1     -25.275   2.618  -1.032  1.00  0.00    -0.648 OA
ENDBRANCH  24  25
ENDBRANCH  23  24
ENDBRANCH  22  23
ENDBRANCH  21  22
ENDBRANCH  20  21
ENDBRANCH  19  20
ENDBRANCH   4  18
BRANCH   3  28
HETATM   28  C4  UNL     1     -25.209   9.879  -3.631  1.00  0.00    -0.022 C 
HETATM   29  C5  UNL     1     -25.118   9.191  -2.522  1.00  0.00    -0.005 C 
BRANCH  29  30
HETATM   30  C6  UNL     1     -25.685   7.856  -2.325  1.00  0.00     0.191 C 
BRANCH  30  31
HETATM   31  O1  UNL     1     -26.036   7.770  -0.951  1.00  0.00    -0.397 OA
ATOM     32  H1  UNL     1     -25.890   6.868  -0.695  1.00  0.00     0.209 HD
ENDBRANCH  30  31
ENDBRANCH  29  30
ENDBRANCH   3  28
TORSDOF 10
ENDMDL
MODEL 3
REMARK VINA RESULT: -8.780439960      1.725      2.556
REMARK  10 active torsions:
REMARK  status: ('A' for Active; 'I' for Inactive)
REMARK    1  A    between atoms: C3_3  and  C4_4 
REMARK    2  A    between atoms: C5_5  and  C6_6 
REMARK    3  A    between atoms: C6_6  and  O1_7 
REMARK    4  A    between atoms: C7_9  and  C8_10 
REMARK    5  A    between atoms: C9_11  and  C10_12 
REMARK    6  A    between atoms: C10_12  and  C11_13 
REMARK    7  A    between atoms: C11_13  and  C12_14 
REMARK    8  A    between atoms: C12_14  and  C13_15 
REMARK    9  A    between atoms: C13_15  and  C14_16 
REMARK   10  A    between atoms: C14_16  and  C15_17 
ROOT
HETATM    1  C1  UNL     1     -24.896  11.291  -8.688  1.00  0.00     0.018 C 
HETATM    2  C2  UNL     1     -25.850  11.243  -7.549  1.00  0.00    -0.010 C 
HETATM    3  C3  UNL     1     -25.755   9.877  -6.857  1.00  0.00     0.034 C 
HETATM    4  C7  UNL     1     -26.052  10.626  -5.567  1.00  0.00     0.078 C 
HETATM    5  C16 UNL     1     -25.369  11.830  -6.235  1.00  0.00     0.013 C 
HETATM    6  C17 UNL     1     -26.095  13.121  -6.047  1.00  0.00     0.014 C 
HETATM    7  C18 UNL     1     -27.187  13.197  -7.089  1.00  0.00     0.019 C 
HETATM    8  C19 UNL     1     -26.734  14.005  -8.276  1.00  0.00     0.038 C 
HETATM    9  C20 UNL     1     -27.119  15.446  -8.187  1.00  0.00     0.018 C 
HETATM   10  C21 UNL     1     -28.128  15.878  -9.216  1.00  0.00     0.079 C 
HETATM   11  C22 UNL     1     -27.925  15.293 -10.542  1.00  0.00     0.132 C 
HETATM   12  O4  UNL     1     -28.137  15.970 -11.533  1.00  0.00    -0.298 OA
HETATM   13  C23 UNL     1     -27.467  13.895 -10.773  1.00  0.00     0.130 C 
HETATM   14  C24 UNL     1     -27.263  13.287  -9.421  1.00  0.00    -0.006 C 
HETATM   15  N1  UNL     1     -27.518  12.081  -9.094  1.00  0.00    -0.390 N 
ATOM     16  H1  UNL     1     -27.898  11.392  -9.743  1.00  0.00     0.159 HD
HETATM   17  C25 UNL     1     -27.219  11.795  -7.730  1.00  0.00     0.095 C 
ENDROOT
BRANCH   4  18
HETATM   18  C8  UNL     1     -25.303  10.113  -4.420  1.00  0.00    -0.101 C 
HETATM   19  C9  UNL     1     -24.663   9.664  -3.466  1.00  0.00    -0.106 C 
BRANCH  19  20
HETATM   20  C10 UNL     1     -23.964   9.117  -2.321  1.00  0.00     0.094 C 
BRANCH  20  21
HETATM   21  C11 UNL     1     -24.693   8.075  -1.594  1.00  0.00     0.012 C 
BRANCH  21  22
HETATM   22  C12 UNL     1     -25.883   7.485  -2.235  1.00  0.00     0.001 C 
BRANCH  22  23
HETATM   23  C13 UNL     1     -25.697   6.158  -2.841  1.00  0.00     0.010 C 
BRANCH  23  24
HETATM   24  C14 UNL     1     -25.298   6.203  -4.318  1.00  0.00     0.113 C 
BRANCH  24  25
HETATM   25  C15 UNL     1     -23.920   5.791  -4.588  1.00  0.00     0.172 C 
HETATM   26  O2  UNL     1     -23.024   5.899  -3.744  1.00  0.00    -0.648 OA
HETATM   27  O3  UNL     1     -23.671   5.264  -5.864  1.00  0.00    -0.648 OA
ENDBRANCH  24  25
ENDBRANCH  23  24
ENDBRANCH  22  23
ENDBRANCH  21  22
ENDBRANCH  20  21
ENDBRANCH  19  20
ENDBRANCH   4  18
BRANCH   3  28
HETATM   28  C4  UNL     1     -26.742   8.887  -7.284  1.00  0.00    -0.022 C 
HETATM   29  C5  UNL     1     -26.418   7.786  -7.912  1.00  0.00    -0.005 C 
BRANCH  29  30
HETATM   30  C6  UNL     1     -25.049   7.405  -8.265  1.00  0.00     0.191 C 
BRANCH  30  31
HETATM   31  O1  UNL     1     -25.020   5.984  -8.270  1.00  0.00    -0.397 OA
ATOM     32  H1  UNL     1     -24.605   5.730  -9.086  1.00  0.00     0.209 HD
ENDBRANCH  30  31
ENDBRANCH  29  30
ENDBRANCH   3  28
TORSDOF 10
ENDMDL
MODEL 4
REMARK VINA RESULT: -8.779459351      2.290      2.932
REMARK  10 active torsions:
REMARK  status: ('A' for Active; 'I' for Inactive)
REMARK    1  A    between atoms: C3_3  and  C4_4 
REMARK    2  A    between atoms: C5_5  and  C6_6 
REMARK    3  A    between atoms: C6_6  and  O1_7 
REMARK    4  A    between atoms: C7_9  and  C8_10 
REMARK    5  A    between atoms: C9_11  and  C10_12 
REMARK    6  A    between atoms: C10_12  and  C11_13 
REMARK    7  A    between atoms: C11_13  and  C12_14 
REMARK    8  A    between atoms: C12_14  and  C13_15 
REMARK    9  A    between atoms: C13_15  and  C14_16 
REMARK   10  A    between atoms: C14_16  and  C15_17 
ROOT
HETATM    1  C1  UNL     1     -24.802  11.568  -8.512  1.00  0.00     0.018 C 
HETATM    2  C2  UNL     1     -25.760  11.374  -7.391  1.00  0.00    -0.010 C 
HETATM    3  C3  UNL     1     -25.606   9.956  -6.825  1.00  0.00     0.034 C 
HETATM    4  C7  UNL     1     -25.943  10.570  -5.475  1.00  0.00     0.078 C 
HETATM    5  C16 UNL     1     -25.313  11.860  -6.025  1.00  0.00     0.013 C 
HETATM    6  C17 UNL     1     -26.098  13.095  -5.727  1.00  0.00     0.014 C 
HETATM    7  C18 UNL     1     -27.186  13.216  -6.768  1.00  0.00     0.019 C 
HETATM    8  C19 UNL     1     -26.764  14.148  -7.873  1.00  0.00     0.038 C 
HETATM    9  C20 UNL     1     -27.216  15.556  -7.657  1.00  0.00     0.018 C 
HETATM   10  C21 UNL     1     -28.238  16.034  -8.652  1.00  0.00     0.079 C 
HETATM   11  C22 UNL     1     -28.001  15.582 -10.023  1.00  0.00     0.132 C 
HETATM   12  O4  UNL     1     -28.239  16.337 -10.951  1.00  0.00    -0.298 OA
HETATM   13  C23 UNL     1     -27.479  14.233 -10.377  1.00  0.00     0.130 C 
HETATM   14  C24 UNL     1     -27.254  13.514  -9.083  1.00  0.00    -0.006 C 
HETATM   15  N1  UNL     1     -27.455  12.274  -8.869  1.00  0.00    -0.390 N 
ATOM     16  H1  UNL     1     -27.800  11.630  -9.582  1.00  0.00     0.159 HD
HETATM   17  C25 UNL     1     -27.151  11.878  -7.535  1.00  0.00     0.095 C 
ENDROOT
BRANCH   4  18
HETATM   18  C8  UNL     1     -25.178   9.990  -4.373  1.00  0.00    -0.101 C 
HETATM   19  C9  UNL     1     -24.543   9.514  -3.428  1.00  0.00    -0.106 C 
BRANCH  19  20
HETATM   20  C10 UNL     1     -23.749   8.987  -2.337  1.00  0.00     0.094 C 
BRANCH  20  21
HETATM   21  C11 UNL     1     -24.191   9.394  -1.001  1.00  0.00     0.012 C 
BRANCH  21  22
HETATM   22  C12 UNL     1     -23.313   9.086   0.144  1.00  0.00     0.001 C 
BRANCH  22  23
HETATM   23  C13 UNL     1     -23.988   8.636   1.370  1.00  0.00     0.010 C 
BRANCH  23  24
HETATM   24  C14 UNL     1     -24.735   7.309   1.214  1.00  0.00     0.113 C 
BRANCH  24  25
HETATM   25  C15 UNL     1     -25.853   7.129   2.141  1.00  0.00     0.172 C 
HETATM   26  O2  UNL     1     -25.913   6.172   2.920  1.00  0.00    -0.648 OA
HETATM   27  O3  UNL     1     -26.856   8.108   2.096  1.00  0.00    -0.648 OA
ENDBRANCH  24  25
ENDBRANCH  23  24
ENDBRANCH  22  23
ENDBRANCH  21  22
ENDBRANCH  20  21
ENDBRANCH  19  20
ENDBRANCH   4  18
BRANCH   3  28
HETATM   28  C4  UNL     1     -26.544   8.966  -7.349  1.00  0.00    -0.022 C 
HETATM   29  C5  UNL     1     -26.257   7.693  -7.437  1.00  0.00    -0.005 C 
BRANCH  29  30
HETATM   30  C6  UNL     1     -24.982   7.100  -7.027  1.00  0.00     0.191 C 
BRANCH  30  31
HETATM   31  O1  UNL     1     -25.153   6.680  -5.680  1.00  0.00    -0.397 OA
ATOM     32  H1  UNL     1     -24.305   6.367  -5.389  1.00  0.00     0.209 HD
ENDBRANCH  30  31
ENDBRANCH  29  30
ENDBRANCH   3  28
TORSDOF 10
ENDMDL
MODEL 5
REMARK VINA RESULT: -8.769111099      3.496      9.751
REMARK  10 active torsions:
REMARK  status: ('A' for Active; 'I' for Inactive)
REMARK    1  A    between atoms: C3_3  and  C4_4 
REMARK    2  A    between atoms: C5_5  and  C6_6 
REMARK    3  A    between atoms: C6_6  and  O1_7 
REMARK    4  A    between atoms: C7_9  and  C8_10 
REMARK    5  A    between atoms: C9_11  and  C10_12 
REMARK    6  A    between atoms: C10_12  and  C11_13 
REMARK    7  A    between atoms: C11_13  and  C12_14 
REMARK    8  A    between atoms: C12_14  and  C13_15 
REMARK    9  A    between atoms: C13_15  and  C14_16 
REMARK   10  A    between atoms: C14_16  and  C15_17 
ROOT
HETATM    1  C1  UNL     1     -23.052   6.615  -2.319  1.00  0.00     0.018 C 
HETATM    2  C2  UNL     1     -24.504   6.886  -2.489  1.00  0.00    -0.010 C 
HETATM    3  C3  UNL     1     -24.857   8.225  -1.829  1.00  0.00     0.034 C 
HETATM    4  C7  UNL     1     -25.879   8.386  -2.943  1.00  0.00     0.078 C 
HETATM    5  C16 UNL     1     -24.927   7.532  -3.794  1.00  0.00     0.013 C 
HETATM    6  C17 UNL     1     -25.612   6.476  -4.598  1.00  0.00     0.014 C 
HETATM    7  C18 UNL     1     -25.837   5.281  -3.700  1.00  0.00     0.019 C 
HETATM    8  C19 UNL     1     -24.749   4.258  -3.893  1.00  0.00     0.038 C 
HETATM    9  C20 UNL     1     -25.105   3.206  -4.893  1.00  0.00     0.018 C 
HETATM   10  C21 UNL     1     -25.271   1.831  -4.307  1.00  0.00     0.079 C 
HETATM   11  C22 UNL     1     -24.300   1.499  -3.265  1.00  0.00     0.132 C 
HETATM   12  O4  UNL     1     -23.858   0.364  -3.198  1.00  0.00    -0.298 OA
HETATM   13  C23 UNL     1     -23.800   2.470  -2.253  1.00  0.00     0.130 C 
HETATM   14  C24 UNL     1     -24.469   3.775  -2.553  1.00  0.00    -0.006 C 
HETATM   15  N1  UNL     1     -24.874   4.626  -1.695  1.00  0.00    -0.390 N 
ATOM     16  H1  UNL     1     -24.778   4.496  -0.687  1.00  0.00     0.159 HD
HETATM   17  C25 UNL     1     -25.473   5.777  -2.285  1.00  0.00     0.095 C 
ENDROOT
BRANCH   4  18
HETATM   18  C8  UNL     1     -25.991   9.762  -3.425  1.00  0.00    -0.101 C 
HETATM   19  C9  UNL     1     -26.081  10.931  -3.811  1.00  0.00    -0.106 C 
BRANCH  19  20
HETATM   20  C10 UNL     1     -26.246  12.295  -4.268  1.00  0.00     0.094 C 
BRANCH  20  21
HETATM   21  C11 UNL     1     -26.321  12.453  -5.723  1.00  0.00     0.012 C 
BRANCH  21  22
HETATM   22  C12 UNL     1     -25.186  11.970  -6.532  1.00  0.00     0.001 C 
BRANCH  22  23
HETATM   23  C13 UNL     1     -25.290  12.189  -7.982  1.00  0.00     0.010 C 
BRANCH  23  24
HETATM   24  C14 UNL     1     -24.469  13.377  -8.489  1.00  0.00     0.113 C 
BRANCH  24  25
HETATM   25  C15 UNL     1     -25.134  14.674  -8.360  1.00  0.00     0.172 C 
HETATM   26  O2  UNL     1     -24.535  15.686  -7.981  1.00  0.00    -0.648 OA
HETATM   27  O3  UNL     1     -26.496  14.706  -8.692  1.00  0.00    -0.648 OA
ENDBRANCH  24  25
ENDBRANCH  23  24
ENDBRANCH  22  23
ENDBRANCH  21  22
ENDBRANCH  20  21
ENDBRANCH  19  20
ENDBRANCH   4  18
BRANCH   3  28
HETATM   28  C4  UNL     1     -25.378   8.137  -0.467  1.00  0.00    -0.022 C 
HETATM   29  C5  UNL     1     -24.661   8.426   0.589  1.00  0.00    -0.005 C 
BRANCH  29  30
HETATM   30  C6  UNL     1     -23.267   8.871   0.547  1.00  0.00     0.191 C 
BRANCH  30  31
HETATM   31  O1  UNL     1     -22.546   8.002   1.409  1.00  0.00    -0.397 OA
ATOM     32  H1  UNL     1     -21.908   8.542   1.860  1.00  0.00     0.209 HD
ENDBRANCH  30  31
ENDBRANCH  29  30
ENDBRANCH   3  28
TORSDOF 10
ENDMDL
