MODEL 1
REMARK VINA RESULT: -8.440905599      0.000      0.000
REMARK  14 active torsions:
REMARK  status: ('A' for Active; 'I' for Inactive)
REMARK    1  A    between atoms: N1_2  and  C2_3 
REMARK       I    between atoms: N1_2  and  C13_16 
REMARK    2  A    between atoms: C2_3  and  C3_4 
REMARK    3  A    between atoms: C3_4  and  C4_5 
REMARK    4  A    between atoms: C4_5  and  C5_6 
REMARK    5  A    between atoms: C5_6  and  C6_7 
REMARK    6  A    between atoms: C6_7  and  C7_8 
REMARK    7  A    between atoms: C13_16  and  C14_18 
REMARK    8  A    between atoms: C14_18  and  C15_19 
REMARK    9  A    between atoms: C14_18  and  N5_30 
REMARK   10  A    between atoms: C15_19  and  C16_20 
REMARK   11  A    between atoms: C16_20  and  C17_21 
REMARK   12  A    between atoms: C17_21  and  C18_22 
REMARK   13  A    between atoms: C18_22  and  N2_23 
REMARK       I    between atoms: C19_25  and  N3_26 
REMARK       I    between atoms: N5_30  and  C20_32 
REMARK       I    between atoms: C20_32  and  N6_34 
REMARK   14  A    between atoms: C22_37  and  C23_39 
ROOT
HETATM    1  C14 UNL     1      28.757  13.344  22.508  1.00  0.00     0.178 C 
ENDROOT
BRANCH   1   2
HETATM    2  C13 UNL     1      29.183  12.550  21.345  1.00  0.00     0.242 C 
HETATM    3  N1  UNL     1      29.136  11.140  21.548  1.00  0.00    -0.355 N 
HETATM    4  C1  UNL     1      29.331  10.542  22.852  1.00  0.00     0.152 C 
HETATM    5  O3  UNL     1      29.560  12.967  20.342  1.00  0.00    -0.271 OA
BRANCH   3   6
HETATM    6  C2  UNL     1      28.826  10.348  20.359  1.00  0.00     0.125 C 
BRANCH   6   7
HETATM    7  C3  UNL     1      27.381  10.083  20.383  1.00  0.00     0.020 C 
BRANCH   7   8
HETATM    8  C4  UNL     1      26.773  10.551  19.048  1.00  0.00     0.003 C 
BRANCH   8   9
HETATM    9  C5  UNL     1      26.443  11.994  19.221  1.00  0.00     0.020 C 
BRANCH   9  10
HETATM   10  C6  UNL     1      24.942  12.180  19.422  1.00  0.00     0.048 C 
HETATM   11  C8  UNL     1      24.487  10.839  18.733  1.00  0.00     0.020 C 
HETATM   12  C9  UNL     1      23.189  10.327  19.193  1.00  0.00     0.001 C 
HETATM   13  C10 UNL     1      22.926  10.483  20.661  1.00  0.00     0.000 C 
HETATM   14  C11 UNL     1      22.997  11.980  20.943  1.00  0.00     0.001 C 
HETATM   15  C12 UNL     1      24.426  12.398  20.712  1.00  0.00     0.020 C 
BRANCH  10  16
HETATM   16  C7  UNL     1      24.499  13.218  18.406  1.00  0.00     0.181 C 
HETATM   17  O1  UNL     1      23.391  13.471  18.114  1.00  0.00    -0.647 OA
HETATM   18  O2  UNL     1      25.561  13.918  17.768  1.00  0.00    -0.647 OA
ENDBRANCH  10  16
ENDBRANCH   9  10
ENDBRANCH   8   9
ENDBRANCH   7   8
ENDBRANCH   6   7
ENDBRANCH   3   6
ENDBRANCH   1   2
BRANCH   1  19
HETATM   19  C15 UNL     1      27.535  14.151  21.951  1.00  0.00     0.035 C 
BRANCH  19  20
HETATM   20  C16 UNL     1      26.680  14.574  23.074  1.00  0.00     0.004 C 
BRANCH  20  21
HETATM   21  C17 UNL     1      26.262  13.364  23.899  1.00  0.00     0.020 C 
BRANCH  21  22
HETATM   22  C18 UNL     1      24.696  13.606  24.205  1.00  0.00     0.122 C 
BRANCH  22  23
HETATM   23  N2  UNL     1      24.136  12.283  24.236  1.00  0.00    -0.365 N 
HETATM   24  C19 UNL     1      22.860  12.189  24.610  1.00  0.00     0.181 C 
HETATM   25  N3  UNL     1      22.282  13.374  25.004  1.00  0.00    -0.374 N 
HETATM   26  N4  UNL     1      22.454  10.830  24.438  1.00  0.00    -0.064 NA
ATOM     27  H32 UNL     1      22.572  14.344  25.126  1.00  0.00     0.158 HD
ATOM     28  H31 UNL     1      21.306  13.302  25.290  1.00  0.00     0.158 HD
ATOM     29  H2  UNL     1      24.686  11.461  23.984  1.00  0.00     0.162 HD
ENDBRANCH  22  23
ENDBRANCH  21  22
ENDBRANCH  20  21
ENDBRANCH  19  20
ENDBRANCH   1  19
BRANCH   1  30
HETATM   30  N5  UNL     1      29.690  14.093  23.109  1.00  0.00    -0.329 N 
HETATM   31  C20 UNL     1      30.372  15.217  22.698  1.00  0.00     0.326 C 
HETATM   32  O4  UNL     1      30.081  15.704  21.570  1.00  0.00    -0.247 OA
HETATM   33  N6  UNL     1      31.279  15.815  23.633  1.00  0.00    -0.257 N 
HETATM   34  C21 UNL     1      31.327  16.074  24.958  1.00  0.00     0.251 A 
HETATM   35  C24 UNL     1      32.397  16.609  23.316  1.00  0.00     0.064 A 
HETATM   36  O5  UNL     1      30.770  15.899  26.028  1.00  0.00    -0.271 OA
HETATM   37  C22 UNL     1      32.536  16.985  24.682  1.00  0.00     0.133 A 
HETATM   38 BR1  UNL     1      31.984  18.862  24.946  1.00  0.00    -0.071 Br
HETATM   39  C25 UNL     1      33.429  15.496  22.869  1.00  0.00     0.041 C 
HETATM   40  C26 UNL     1      32.360  17.745  22.348  1.00  0.00     0.041 C 
ATOM     41  H5  UNL     1      29.944  13.771  24.043  1.00  0.00     0.165 HD
BRANCH  37  42
HETATM   42  C23 UNL     1      33.715  16.519  25.459  1.00  0.00     0.118 C 
HETATM   43 BR2  UNL     1      34.690  18.067  26.180  1.00  0.00    -0.094 Br
ENDBRANCH  37  42
ENDBRANCH   1  30
TORSDOF 14
ENDMDL
MODEL 2
REMARK VINA RESULT: -8.430386316      5.063      7.708
REMARK  14 active torsions:
REMARK  status: ('A' for Active; 'I' for Inactive)
REMARK    1  A    between atoms: N1_2  and  C2_3 
REMARK       I    between atoms: N1_2  and  C13_16 
REMARK    2  A    between atoms: C2_3  and  C3_4 
REMARK    3  A    between atoms: C3_4  and  C4_5 
REMARK    4  A    between atoms: C4_5  and  C5_6 
REMARK    5  A    between atoms: C5_6  and  C6_7 
REMARK    6  A    between atoms: C6_7  and  C7_8 
REMARK    7  A    between atoms: C13_16  and  C14_18 
REMARK    8  A    between atoms: C14_18  and  C15_19 
REMARK    9  A    between atoms: C14_18  and  N5_30 
REMARK   10  A    between atoms: C15_19  and  C16_20 
REMARK   11  A    between atoms: C16_20  and  C17_21 
REMARK   12  A    between atoms: C17_21  and  C18_22 
REMARK   13  A    between atoms: C18_22  and  N2_23 
REMARK       I    between atoms: C19_25  and  N3_26 
REMARK       I    between atoms: N5_30  and  C20_32 
REMARK       I    between atoms: C20_32  and  N6_34 
REMARK   14  A    between atoms: C22_37  and  C23_39 
ROOT
HETATM    1  C14 UNL     1      22.773  13.322  24.310  1.00  0.00     0.178 C 
ENDROOT
BRANCH   1   2
HETATM    2  C13 UNL     1      22.583  12.018  24.967  1.00  0.00     0.242 C 
HETATM    3  N1  UNL     1      21.699  12.048  26.084  1.00  0.00    -0.355 N 
HETATM    4  C1  UNL     1      21.545  13.224  26.915  1.00  0.00     0.152 C 
HETATM    5  O3  UNL     1      23.094  11.031  24.672  1.00  0.00    -0.271 OA
BRANCH   3   6
HETATM    6  C2  UNL     1      20.924  10.827  26.299  1.00  0.00     0.125 C 
BRANCH   6   7
HETATM    7  C3  UNL     1      19.507  11.182  26.132  1.00  0.00     0.020 C 
BRANCH   7   8
HETATM    8  C4  UNL     1      19.058  10.757  24.722  1.00  0.00     0.003 C 
BRANCH   8   9
HETATM    9  C5  UNL     1      17.978  11.705  24.323  1.00  0.00     0.020 C 
BRANCH   9  10
HETATM   10  C6  UNL     1      16.608  11.049  24.470  1.00  0.00     0.048 C 
HETATM   11  C8  UNL     1      16.186  11.146  22.956  1.00  0.00     0.020 C 
HETATM   12  C9  UNL     1      15.201  10.139  22.533  1.00  0.00     0.001 C 
HETATM   13  C10 UNL     1      15.393   8.774  23.120  1.00  0.00     0.000 C 
HETATM   14  C11 UNL     1      15.303   8.950  24.632  1.00  0.00     0.001 C 
HETATM   15  C12 UNL     1      16.497   9.771  25.045  1.00  0.00     0.020 C 
BRANCH  10  16
HETATM   16  C7  UNL     1      15.704  12.087  25.112  1.00  0.00     0.181 C 
HETATM   17  O1  UNL     1      14.821  12.654  24.586  1.00  0.00    -0.647 OA
HETATM   18  O2  UNL     1      15.997  12.371  26.475  1.00  0.00    -0.647 OA
ENDBRANCH  10  16
ENDBRANCH   9  10
ENDBRANCH   8   9
ENDBRANCH   7   8
ENDBRANCH   6   7
ENDBRANCH   3   6
ENDBRANCH   1   2
BRANCH   1  19
HETATM   19  C15 UNL     1      22.119  13.104  22.904  1.00  0.00     0.035 C 
BRANCH  19  20
HETATM   20  C16 UNL     1      23.179  12.891  21.904  1.00  0.00     0.004 C 
BRANCH  20  21
HETATM   21  C17 UNL     1      22.897  11.628  21.100  1.00  0.00     0.020 C 
BRANCH  21  22
HETATM   22  C18 UNL     1      23.186  12.050  19.570  1.00  0.00     0.122 C 
BRANCH  22  23
HETATM   23  N2  UNL     1      24.618  12.128  19.491  1.00  0.00    -0.365 N 
HETATM   24  C19 UNL     1      25.116  12.980  18.595  1.00  0.00     0.181 C 
HETATM   25  N3  UNL     1      24.179  13.604  17.803  1.00  0.00    -0.374 N 
HETATM   26  N4  UNL     1      26.534  13.018  18.769  1.00  0.00    -0.064 NA
ATOM     27  H32 UNL     1      23.167  13.577  17.679  1.00  0.00     0.158 HD
ATOM     28  H31 UNL     1      24.560  14.256  17.118  1.00  0.00     0.158 HD
ATOM     29  H2  UNL     1      25.220  11.561  20.089  1.00  0.00     0.162 HD
ENDBRANCH  22  23
ENDBRANCH  21  22
ENDBRANCH  20  21
ENDBRANCH  19  20
ENDBRANCH   1  19
BRANCH   1  30
HETATM   30  N5  UNL     1      24.021  13.808  24.274  1.00  0.00    -0.329 N 
HETATM   31  C20 UNL     1      24.657  14.768  25.030  1.00  0.00     0.326 C 
HETATM   32  O4  UNL     1      24.008  15.301  25.973  1.00  0.00    -0.247 OA
HETATM   33  N6  UNL     1      26.044  15.007  24.759  1.00  0.00    -0.257 N 
HETATM   34  C21 UNL     1      27.145  14.285  24.458  1.00  0.00     0.251 A 
HETATM   35  C24 UNL     1      26.749  16.198  25.015  1.00  0.00     0.064 A 
HETATM   36  O5  UNL     1      27.562  13.175  24.173  1.00  0.00    -0.271 OA
HETATM   37  C22 UNL     1      27.984  15.540  24.753  1.00  0.00     0.133 A 
HETATM   38 BR1  UNL     1      28.986  15.251  26.429  1.00  0.00    -0.071 Br
HETATM   39  C25 UNL     1      26.253  17.094  23.809  1.00  0.00     0.041 C 
HETATM   40  C26 UNL     1      26.687  16.936  26.311  1.00  0.00     0.041 C 
ATOM     41  H5  UNL     1      24.609  13.389  23.553  1.00  0.00     0.165 HD
BRANCH  37  42
HETATM   42  C23 UNL     1      28.780  15.916  23.554  1.00  0.00     0.118 C 
HETATM   43 BR2  UNL     1      30.691  15.959  24.012  1.00  0.00    -0.094 Br
ENDBRANCH  37  42
ENDBRANCH   1  30
TORSDOF 14
ENDMDL
MODEL 3
REMARK VINA RESULT: -8.348195138      6.969     11.318
REMARK  14 active torsions:
REMARK  status: ('A' for Active; 'I' for Inactive)
REMARK    1  A    between atoms: N1_2  and  C2_3 
REMARK       I    between atoms: N1_2  and  C13_16 
REMARK    2  A    between atoms: C2_3  and  C3_4 
REMARK    3  A    between atoms: C3_4  and  C4_5 
REMARK    4  A    between atoms: C4_5  and  C5_6 
REMARK    5  A    between atoms: C5_6  and  C6_7 
REMARK    6  A    between atoms: C6_7  and  C7_8 
REMARK    7  A    between atoms: C13_16  and  C14_18 
REMARK    8  A    between atoms: C14_18  and  C15_19 
REMARK    9  A    between atoms: C14_18  and  N5_30 
REMARK   10  A    between atoms: C15_19  and  C16_20 
REMARK   11  A    between atoms: C16_20  and  C17_21 
REMARK   12  A    between atoms: C17_21  and  C18_22 
REMARK   13  A    between atoms: C18_22  and  N2_23 
REMARK       I    between atoms: C19_25  and  N3_26 
REMARK       I    between atoms: N5_30  and  C20_32 
REMARK       I    between atoms: C20_32  and  N6_34 
REMARK   14  A    between atoms: C22_37  and  C23_39 
ROOT
HETATM    1  C14 UNL     1      19.114  11.718  25.075  1.00  0.00     0.178 C 
ENDROOT
BRANCH   1   2
HETATM    2  C13 UNL     1      20.353  12.161  24.415  1.00  0.00     0.242 C 
HETATM    3  N1  UNL     1      21.320  11.132  24.233  1.00  0.00    -0.355 N 
HETATM    4  C1  UNL     1      21.432  10.008  25.141  1.00  0.00     0.152 C 
HETATM    5  O3  UNL     1      20.593  13.233  24.077  1.00  0.00    -0.271 OA
BRANCH   3   6
HETATM    6  C2  UNL     1      22.156  11.263  23.041  1.00  0.00     0.125 C 
BRANCH   6   7
HETATM    7  C3  UNL     1      22.142   9.961  22.359  1.00  0.00     0.020 C 
BRANCH   7   8
HETATM    8  C4  UNL     1      23.211   9.976  21.251  1.00  0.00     0.003 C 
BRANCH   8   9
HETATM    9  C5  UNL     1      22.906  11.155  20.390  1.00  0.00     0.020 C 
BRANCH   9  10
HETATM   10  C6  UNL     1      24.162  11.630  19.668  1.00  0.00     0.048 C 
HETATM   11  C8  UNL     1      24.816  12.377  20.890  1.00  0.00     0.020 C 
HETATM   12  C9  UNL     1      26.280  12.496  20.820  1.00  0.00     0.001 C 
HETATM   13  C10 UNL     1      26.991  11.296  20.272  1.00  0.00     0.000 C 
HETATM   14  C11 UNL     1      26.442  11.089  18.865  1.00  0.00     0.001 C 
HETATM   15  C12 UNL     1      24.993  10.703  19.015  1.00  0.00     0.020 C 
BRANCH  10  16
HETATM   16  C7  UNL     1      23.735  12.791  18.786  1.00  0.00     0.181 C 
HETATM   17  O1  UNL     1      24.405  13.338  17.992  1.00  0.00    -0.647 OA
HETATM   18  O2  UNL     1      22.395  13.225  18.981  1.00  0.00    -0.647 OA
ENDBRANCH  10  16
ENDBRANCH   9  10
ENDBRANCH   8   9
ENDBRANCH   7   8
ENDBRANCH   6   7
ENDBRANCH   3   6
ENDBRANCH   1   2
BRANCH   1  19
HETATM   19  C15 UNL     1      18.680  10.485  24.213  1.00  0.00     0.035 C 
BRANCH  19  20
HETATM   20  C16 UNL     1      17.302  10.689  23.734  1.00  0.00     0.004 C 
BRANCH  20  21
HETATM   21  C17 UNL     1      16.398   9.575  24.246  1.00  0.00     0.020 C 
BRANCH  21  22
HETATM   22  C18 UNL     1      15.242   9.446  23.126  1.00  0.00     0.122 C 
BRANCH  22  23
HETATM   23  N2  UNL     1      15.934   8.968  21.962  1.00  0.00    -0.365 N 
HETATM   24  C19 UNL     1      15.523   7.799  21.469  1.00  0.00     0.181 C 
HETATM   25  N3  UNL     1      14.547   7.169  22.206  1.00  0.00    -0.374 N 
HETATM   26  N4  UNL     1      16.227   7.569  20.246  1.00  0.00    -0.064 NA
ATOM     27  H32 UNL     1      14.045   7.332  23.078  1.00  0.00     0.158 HD
ATOM     28  H31 UNL     1      14.233   6.275  21.828  1.00  0.00     0.158 HD
ATOM     29  H2  UNL     1      16.697   9.494  21.536  1.00  0.00     0.162 HD
ENDBRANCH  22  23
ENDBRANCH  21  22
ENDBRANCH  20  21
ENDBRANCH  19  20
ENDBRANCH   1  19
BRANCH   1  30
HETATM   30  N5  UNL     1      18.157  12.638  25.251  1.00  0.00    -0.329 N 
HETATM   31  C20 UNL     1      17.480  13.058  26.375  1.00  0.00     0.326 C 
HETATM   32  O4  UNL     1      17.803  12.545  27.484  1.00  0.00    -0.247 OA
HETATM   33  N6  UNL     1      16.540  14.128  26.217  1.00  0.00    -0.257 N 
HETATM   34  C21 UNL     1      16.449  15.289  25.532  1.00  0.00     0.251 A 
HETATM   35  C24 UNL     1      15.427  14.387  27.038  1.00  0.00     0.064 A 
HETATM   36  O5  UNL     1      16.974  15.989  24.682  1.00  0.00    -0.271 OA
HETATM   37  C22 UNL     1      15.243  15.654  26.415  1.00  0.00     0.133 A 
HETATM   38 BR1  UNL     1      15.773  17.112  27.636  1.00  0.00    -0.071 Br
HETATM   39  C25 UNL     1      14.418  13.285  26.518  1.00  0.00     0.041 C 
HETATM   40  C26 UNL     1      15.486  14.418  28.530  1.00  0.00     0.041 C 
ATOM     41  H5  UNL     1      17.876  13.115  24.395  1.00  0.00     0.165 HD
BRANCH  37  42
HETATM   42  C23 UNL     1      14.043  15.893  25.569  1.00  0.00     0.118 C 
HETATM   43 BR2  UNL     1      12.933  17.301  26.374  1.00  0.00    -0.094 Br
ENDBRANCH  37  42
ENDBRANCH   1  30
TORSDOF 14
ENDMDL
MODEL 4
REMARK VINA RESULT: -8.317765224      2.020      4.265
REMARK  14 active torsions:
REMARK  status: ('A' for Active; 'I' for Inactive)
REMARK    1  A    between atoms: N1_2  and  C2_3 
REMARK       I    between atoms: N1_2  and  C13_16 
REMARK    2  A    between atoms: C2_3  and  C3_4 
REMARK    3  A    between atoms: C3_4  and  C4_5 
REMARK    4  A    between atoms: C4_5  and  C5_6 
REMARK    5  A    between atoms: C5_6  and  C6_7 
REMARK    6  A    between atoms: C6_7  and  C7_8 
REMARK    7  A    between atoms: C13_16  and  C14_18 
REMARK    8  A    between atoms: C14_18  and  C15_19 
REMARK    9  A    between atoms: C14_18  and  N5_30 
REMARK   10  A    between atoms: C15_19  and  C16_20 
REMARK   11  A    between atoms: C16_20  and  C17_21 
REMARK   12  A    between atoms: C17_21  and  C18_22 
REMARK   13  A    between atoms: C18_22  and  N2_23 
REMARK       I    between atoms: C19_25  and  N3_26 
REMARK       I    between atoms: N5_30  and  C20_32 
REMARK       I    between atoms: C20_32  and  N6_34 
REMARK   14  A    between atoms: C22_37  and  C23_39 
ROOT
HETATM    1  C14 UNL     1      27.258  15.383  23.262  1.00  0.00     0.178 C 
ENDROOT
BRANCH   1   2
HETATM    2  C13 UNL     1      26.409  14.752  24.285  1.00  0.00     0.242 C 
HETATM    3  N1  UNL     1      25.087  15.277  24.357  1.00  0.00    -0.355 N 
HETATM    4  C1  UNL     1      24.784  16.653  24.018  1.00  0.00     0.152 C 
HETATM    5  O3  UNL     1      26.731  13.923  25.015  1.00  0.00    -0.271 OA
BRANCH   3   6
HETATM    6  C2  UNL     1      24.054  14.319  24.747  1.00  0.00     0.125 C 
BRANCH   6   7
HETATM    7  C3  UNL     1      23.296  13.985  23.532  1.00  0.00     0.020 C 
BRANCH   7   8
HETATM    8  C4  UNL     1      23.882  12.696  22.927  1.00  0.00     0.003 C 
BRANCH   8   9
HETATM    9  C5  UNL     1      23.024  12.355  21.757  1.00  0.00     0.020 C 
BRANCH   9  10
HETATM   10  C6  UNL     1      23.856  11.717  20.649  1.00  0.00     0.048 C 
HETATM   11  C8  UNL     1      23.282  12.572  19.458  1.00  0.00     0.020 C 
HETATM   12  C9  UNL     1      24.187  12.701  18.308  1.00  0.00     0.001 C 
HETATM   13  C10 UNL     1      25.637  12.866  18.652  1.00  0.00     0.000 C 
HETATM   14  C11 UNL     1      26.022  11.626  19.451  1.00  0.00     0.001 C 
HETATM   15  C12 UNL     1      25.258  11.690  20.748  1.00  0.00     0.020 C 
BRANCH  10  16
HETATM   16  C7  UNL     1      23.239  10.355  20.381  1.00  0.00     0.181 C 
HETATM   17  O1  UNL     1      22.324  10.138  19.678  1.00  0.00    -0.647 OA
HETATM   18  O2  UNL     1      23.854   9.275  21.073  1.00  0.00    -0.647 OA
ENDBRANCH  10  16
ENDBRANCH   9  10
ENDBRANCH   8   9
ENDBRANCH   7   8
ENDBRANCH   6   7
ENDBRANCH   3   6
ENDBRANCH   1   2
BRANCH   1  19
HETATM   19  C15 UNL     1      27.235  14.337  22.096  1.00  0.00     0.035 C 
BRANCH  19  20
HETATM   20  C16 UNL     1      28.385  13.427  22.239  1.00  0.00     0.004 C 
BRANCH  20  21
HETATM   21  C17 UNL     1      29.093  13.262  20.901  1.00  0.00     0.020 C 
BRANCH  21  22
HETATM   22  C18 UNL     1      30.046  11.976  21.104  1.00  0.00     0.122 C 
BRANCH  22  23
HETATM   23  N2  UNL     1      29.188  10.857  20.832  1.00  0.00    -0.365 N 
HETATM   24  C19 UNL     1      29.167   9.891  21.751  1.00  0.00     0.181 C 
HETATM   25  N3  UNL     1      30.047  10.064  22.795  1.00  0.00    -0.374 N 
HETATM   26  N4  UNL     1      28.159   8.950  21.373  1.00  0.00    -0.064 NA
ATOM     27  H32 UNL     1      30.766  10.735  23.065  1.00  0.00     0.158 HD
ATOM     28  H31 UNL     1      30.030   9.325  23.498  1.00  0.00     0.158 HD
ATOM     29  H2  UNL     1      28.626  10.804  19.983  1.00  0.00     0.162 HD
ENDBRANCH  22  23
ENDBRANCH  21  22
ENDBRANCH  20  21
ENDBRANCH  19  20
ENDBRANCH   1  19
BRANCH   1  30
HETATM   30  N5  UNL     1      28.483  15.767  23.640  1.00  0.00    -0.329 N 
HETATM   31  C20 UNL     1      29.429  16.560  23.029  1.00  0.00     0.326 C 
HETATM   32  O4  UNL     1      29.131  17.082  21.918  1.00  0.00    -0.247 OA
HETATM   33  N6  UNL     1      30.637  16.824  23.754  1.00  0.00    -0.257 N 
HETATM   34  C21 UNL     1      31.004  17.090  25.027  1.00  0.00     0.251 A 
HETATM   35  C24 UNL     1      31.886  17.155  23.198  1.00  0.00     0.064 A 
HETATM   36  O5  UNL     1      30.618  17.159  26.181  1.00  0.00    -0.271 OA
HETATM   37  C22 UNL     1      32.385  17.500  24.486  1.00  0.00     0.133 A 
HETATM   38 BR1  UNL     1      32.574  19.457  24.657  1.00  0.00    -0.071 Br
HETATM   39  C25 UNL     1      32.371  15.733  22.703  1.00  0.00     0.041 C 
HETATM   40  C26 UNL     1      32.075  18.198  22.146  1.00  0.00     0.041 C 
ATOM     41  H5  UNL     1      28.770  15.405  24.550  1.00  0.00     0.165 HD
BRANCH  37  42
HETATM   42  C23 UNL     1      33.447  16.668  25.113  1.00  0.00     0.118 C 
HETATM   43 BR2  UNL     1      34.628  17.805  26.198  1.00  0.00    -0.094 Br
ENDBRANCH  37  42
ENDBRANCH   1  30
TORSDOF 14
ENDMDL
MODEL 5
REMARK VINA RESULT: -8.316073110      7.177     11.562
REMARK  14 active torsions:
REMARK  status: ('A' for Active; 'I' for Inactive)
REMARK    1  A    between atoms: N1_2  and  C2_3 
REMARK       I    between atoms: N1_2  and  C13_16 
REMARK    2  A    between atoms: C2_3  and  C3_4 
REMARK    3  A    between atoms: C3_4  and  C4_5 
REMARK    4  A    between atoms: C4_5  and  C5_6 
REMARK    5  A    between atoms: C5_6  and  C6_7 
REMARK    6  A    between atoms: C6_7  and  C7_8 
REMARK    7  A    between atoms: C13_16  and  C14_18 
REMARK    8  A    between atoms: C14_18  and  C15_19 
REMARK    9  A    between atoms: C14_18  and  N5_30 
REMARK   10  A    between atoms: C15_19  and  C16_20 
REMARK   11  A    between atoms: C16_20  and  C17_21 
REMARK   12  A    between atoms: C17_21  and  C18_22 
REMARK   13  A    between atoms: C18_22  and  N2_23 
REMARK       I    between atoms: C19_25  and  N3_26 
REMARK       I    between atoms: N5_30  and  C20_32 
REMARK       I    between atoms: C20_32  and  N6_34 
REMARK   14  A    between atoms: C22_37  and  C23_39 
ROOT
HETATM    1  C14 UNL     1      18.537  11.828  25.239  1.00  0.00     0.178 C 
ENDROOT
BRANCH   1   2
HETATM    2  C13 UNL     1      19.939  12.155  24.936  1.00  0.00     0.242 C 
HETATM    3  N1  UNL     1      20.891  11.316  25.583  1.00  0.00    -0.355 N 
HETATM    4  C1  UNL     1      20.630  10.700  26.868  1.00  0.00     0.152 C 
HETATM    5  O3  UNL     1      20.304  13.017  24.267  1.00  0.00    -0.271 OA
BRANCH   3   6
HETATM    6  C2  UNL     1      22.125  11.080  24.836  1.00  0.00     0.125 C 
BRANCH   6   7
HETATM    7  C3  UNL     1      21.883   9.928  23.957  1.00  0.00     0.020 C 
BRANCH   7   8
HETATM    8  C4  UNL     1      22.871   9.993  22.777  1.00  0.00     0.003 C 
BRANCH   8   9
HETATM    9  C5  UNL     1      22.226  10.844  21.737  1.00  0.00     0.020 C 
BRANCH   9  10
HETATM   10  C6  UNL     1      23.278  11.624  20.955  1.00  0.00     0.048 C 
HETATM   11  C8  UNL     1      24.387  10.506  20.954  1.00  0.00     0.020 C 
HETATM   12  C9  UNL     1      25.342  10.596  19.841  1.00  0.00     0.001 C 
HETATM   13  C10 UNL     1      24.751  10.995  18.523  1.00  0.00     0.000 C 
HETATM   14  C11 UNL     1      24.117  12.363  18.744  1.00  0.00     0.001 C 
HETATM   15  C12 UNL     1      22.964  12.161  19.693  1.00  0.00     0.020 C 
BRANCH  10  16
HETATM   16  C7  UNL     1      23.862  12.641  21.920  1.00  0.00     0.181 C 
HETATM   17  O1  UNL     1      24.993  12.739  22.220  1.00  0.00    -0.647 OA
HETATM   18  O2  UNL     1      22.912  13.530  22.496  1.00  0.00    -0.647 OA
ENDBRANCH  10  16
ENDBRANCH   9  10
ENDBRANCH   8   9
ENDBRANCH   7   8
ENDBRANCH   6   7
ENDBRANCH   3   6
ENDBRANCH   1   2
BRANCH   1  19
HETATM   19  C15 UNL     1      18.173  10.788  24.126  1.00  0.00     0.035 C 
BRANCH  19  20
HETATM   20  C16 UNL     1      16.776  10.354  24.306  1.00  0.00     0.004 C 
BRANCH  20  21
HETATM   21  C17 UNL     1      15.924  10.829  23.137  1.00  0.00     0.020 C 
BRANCH  21  22
HETATM   22  C18 UNL     1      15.074   9.527  22.701  1.00  0.00     0.122 C 
BRANCH  22  23
HETATM   23  N2  UNL     1      15.905   8.877  21.726  1.00  0.00    -0.365 N 
HETATM   24  C19 UNL     1      15.547   7.642  21.373  1.00  0.00     0.181 C 
HETATM   25  N3  UNL     1      14.474   7.129  22.065  1.00  0.00    -0.374 N 
HETATM   26  N4  UNL     1      16.401   7.228  20.304  1.00  0.00    -0.064 NA
ATOM     27  H32 UNL     1      13.865   7.424  22.828  1.00  0.00     0.158 HD
ATOM     28  H31 UNL     1      14.200   6.184  21.795  1.00  0.00     0.158 HD
ATOM     29  H2  UNL     1      16.725   9.335  21.327  1.00  0.00     0.162 HD
ENDBRANCH  22  23
ENDBRANCH  21  22
ENDBRANCH  20  21
ENDBRANCH  19  20
ENDBRANCH   1  19
BRANCH   1  30
HETATM   30  N5  UNL     1      17.682  12.853  25.344  1.00  0.00    -0.329 N 
HETATM   31  C20 UNL     1      17.037  13.406  26.429  1.00  0.00     0.326 C 
HETATM   32  O4  UNL     1      17.285  12.924  27.570  1.00  0.00    -0.247 OA
HETATM   33  N6  UNL     1      16.221  14.560  26.192  1.00  0.00    -0.257 N 
HETATM   34  C21 UNL     1      16.267  15.683  25.443  1.00  0.00     0.251 A 
HETATM   35  C24 UNL     1      15.129  14.982  26.973  1.00  0.00     0.064 A 
HETATM   36  O5  UNL     1      16.877  16.274  24.568  1.00  0.00    -0.271 OA
HETATM   37  C22 UNL     1      15.093  16.224  26.279  1.00  0.00     0.133 A 
HETATM   38 BR1  UNL     1      15.759  17.683  27.430  1.00  0.00    -0.071 Br
HETATM   39  C25 UNL     1      14.016  13.967  26.491  1.00  0.00     0.041 C 
HETATM   40  C26 UNL     1      15.168  15.090  28.462  1.00  0.00     0.041 C 
ATOM     41  H5  UNL     1      17.468  13.309  24.457  1.00  0.00     0.165 HD
BRANCH  37  42
HETATM   42  C23 UNL     1      13.940  16.542  25.395  1.00  0.00     0.118 C 
HETATM   43 BR2  UNL     1      13.596  18.477  25.422  1.00  0.00    -0.094 Br
ENDBRANCH  37  42
ENDBRANCH   1  30
TORSDOF 14
ENDMDL
