MODEL 1
REMARK VINA RESULT: -8.321822627      0.000      0.000
REMARK  16 active torsions:
REMARK  status: ('A' for Active; 'I' for Inactive)
REMARK    1  A    between atoms: C2_2  and  C3_3 
REMARK    2  A    between atoms: C3_3  and  N1_4 
REMARK    3  A    between atoms: C3_3  and  C9_14 
REMARK       I    between atoms: N1_4  and  C4_6 
REMARK    4  A    between atoms: C4_6  and  C5_8 
REMARK    5  A    between atoms: C5_8  and  C6_10 
REMARK    6  A    between atoms: C6_10  and  C7_11 
REMARK    7  A    between atoms: C9_14  and  O2_15 
REMARK    8  A    between atoms: C9_14  and  N2_17 
REMARK    9  A    between atoms: N2_17  and  C10_19 
REMARK   10  A    between atoms: C10_19  and  C11_20 
REMARK   11  A    between atoms: C11_20  and  N3_22 
REMARK       I    between atoms: N3_22  and  C13_24 
REMARK   12  A    between atoms: C13_24  and  C14_26 
REMARK   13  A    between atoms: C14_26  and  C15_27 
REMARK   14  A    between atoms: C14_26  and  N5_36 
REMARK   15  A    between atoms: C15_27  and  O4_28 
REMARK   16  A    between atoms: C15_27  and  N4_30 
ROOT
HETATM    1  N3  UNL     1      21.930  12.391  23.814  1.00  0.00    -0.353 N 
ATOM      2  H3  UNL     1      21.376  13.242  23.718  1.00  0.00     0.163 HD
HETATM    3  C13 UNL     1      21.423  11.328  24.596  1.00  0.00     0.260 C 
HETATM    4  O3  UNL     1      22.160  10.296  24.679  1.00  0.00    -0.271 OA
ENDROOT
BRANCH   1   5
HETATM    5  C11 UNL     1      23.191  12.309  23.155  1.00  0.00     0.098 C 
HETATM    6  C12 UNL     1      24.244  13.260  23.677  1.00  0.00     0.034 C 
BRANCH   5   7
HETATM    7  C10 UNL     1      23.079  12.420  21.649  1.00  0.00     0.146 C 
BRANCH   7   8
HETATM    8  N2  UNL     1      22.878  11.108  21.028  1.00  0.00    -0.371 N 
ATOM      9  H2  UNL     1      21.952  10.804  20.725  1.00  0.00     0.161 HD
BRANCH   8  10
HETATM   10  C9  UNL     1      23.995  10.289  20.864  1.00  0.00     0.134 C 
BRANCH  10  11
HETATM   11  C3  UNL     1      25.146  10.487  19.963  1.00  0.00     0.158 C 
BRANCH  11  12
HETATM   12  C2  UNL     1      24.946  11.180  18.686  1.00  0.00     0.029 C 
HETATM   13  C1  UNL     1      25.270  12.645  18.664  1.00  0.00     0.007 C 
ENDBRANCH  11  12
BRANCH  11  14
HETATM   14  N1  UNL     1      26.197  11.104  20.779  1.00  0.00    -0.348 N 
HETATM   15  C4  UNL     1      27.554  10.702  20.746  1.00  0.00     0.232 C 
HETATM   16  O1  UNL     1      27.857   9.758  19.966  1.00  0.00    -0.272 OA
ATOM     17  H1  UNL     1      25.936  11.867  21.404  1.00  0.00     0.163 HD
BRANCH  15  18
HETATM   18  C5  UNL     1      28.585  11.331  21.567  1.00  0.00     0.150 C 
HETATM   19 BR1  UNL     1      29.535   9.957  22.544  1.00  0.00    -0.081 Br
BRANCH  18  20
HETATM   20  C6  UNL     1      28.168  12.448  22.442  1.00  0.00     0.041 C 
BRANCH  20  21
HETATM   21  C7  UNL     1      28.716  13.794  22.147  1.00  0.00     0.055 C 
HETATM   22  C8  UNL     1      27.812  14.800  22.885  1.00  0.00     0.022 C 
HETATM   23 BR2  UNL     1      28.546  14.247  20.257  1.00  0.00    -0.091 Br
ENDBRANCH  20  21
ENDBRANCH  18  20
ENDBRANCH  15  18
ENDBRANCH  11  14
ENDBRANCH  10  11
BRANCH  10  24
HETATM   24  O2  UNL     1      24.021   9.211  21.610  1.00  0.00    -0.348 OA
ATOM     25  H2  UNL     1      23.559   9.263  22.439  1.00  0.00     0.219 HD
ENDBRANCH  10  24
ENDBRANCH   8  10
ENDBRANCH   7   8
ENDBRANCH   5   7
ENDBRANCH   1   5
BRANCH   3  26
HETATM   26  C14 UNL     1      20.161  11.306  25.295  1.00  0.00     0.387 C 
BRANCH  26  27
HETATM   27  C15 UNL     1      19.074  11.985  24.578  1.00  0.00     0.157 C 
BRANCH  27  28
HETATM   28  O4  UNL     1      19.309  13.253  24.368  1.00  0.00    -0.347 OA
ATOM     29  H4  UNL     1      19.355  13.478  23.447  1.00  0.00     0.219 HD
ENDBRANCH  27  28
BRANCH  27  30
HETATM   30  N4  UNL     1      17.858  11.504  24.095  1.00  0.00    -0.363 N 
HETATM   31  C16 UNL     1      17.627  10.041  24.246  1.00  0.00     0.124 C 
HETATM   32  C17 UNL     1      16.658   9.837  25.395  1.00  0.00     0.020 C 
HETATM   33  C18 UNL     1      15.602  10.941  25.340  1.00  0.00     0.003 C 
HETATM   34  C19 UNL     1      15.481  11.486  23.935  1.00  0.00     0.020 C 
HETATM   35  C20 UNL     1      16.761  12.200  23.487  1.00  0.00     0.124 C 
ENDBRANCH  27  30
ENDBRANCH  26  27
BRANCH  26  36
HETATM   36  N5  UNL     1      20.138  11.712  26.664  1.00  0.00     0.110 N 
HETATM   37  C21 UNL     1      20.052  10.603  27.591  1.00  0.00     0.275 C 
HETATM   38  C22 UNL     1      19.391  11.120  28.831  1.00  0.00     0.040 C 
HETATM   39  C23 UNL     1      19.881  12.427  29.316  1.00  0.00    -0.037 A 
HETATM   40  C24 UNL     1      20.707  13.236  28.407  1.00  0.00     0.040 C 
HETATM   41  C26 UNL     1      19.950  12.614  30.807  1.00  0.00     0.010 A 
HETATM   42  C27 UNL     1      18.821  13.236  30.102  1.00  0.00     0.010 A 
HETATM   43  C25 UNL     1      21.142  12.591  27.118  1.00  0.00     0.275 C 
ENDBRANCH  26  36
ENDBRANCH   3  26
TORSDOF 16
ENDMDL
MODEL 2
REMARK VINA RESULT: -8.202407520      1.017      3.748
REMARK  16 active torsions:
REMARK  status: ('A' for Active; 'I' for Inactive)
REMARK    1  A    between atoms: C2_2  and  C3_3 
REMARK    2  A    between atoms: C3_3  and  N1_4 
REMARK    3  A    between atoms: C3_3  and  C9_14 
REMARK       I    between atoms: N1_4  and  C4_6 
REMARK    4  A    between atoms: C4_6  and  C5_8 
REMARK    5  A    between atoms: C5_8  and  C6_10 
REMARK    6  A    between atoms: C6_10  and  C7_11 
REMARK    7  A    between atoms: C9_14  and  O2_15 
REMARK    8  A    between atoms: C9_14  and  N2_17 
REMARK    9  A    between atoms: N2_17  and  C10_19 
REMARK   10  A    between atoms: C10_19  and  C11_20 
REMARK   11  A    between atoms: C11_20  and  N3_22 
REMARK       I    between atoms: N3_22  and  C13_24 
REMARK   12  A    between atoms: C13_24  and  C14_26 
REMARK   13  A    between atoms: C14_26  and  C15_27 
REMARK   14  A    between atoms: C14_26  and  N5_36 
REMARK   15  A    between atoms: C15_27  and  O4_28 
REMARK   16  A    between atoms: C15_27  and  N4_30 
ROOT
HETATM    1  N3  UNL     1      21.950  12.617  23.559  1.00  0.00    -0.353 N 
ATOM      2  H3  UNL     1      21.367  13.382  23.218  1.00  0.00     0.163 HD
HETATM    3  C13 UNL     1      21.531  11.892  24.698  1.00  0.00     0.260 C 
HETATM    4  O3  UNL     1      22.300  10.954  25.075  1.00  0.00    -0.271 OA
ENDROOT
BRANCH   1   5
HETATM    5  C11 UNL     1      23.161  12.313  22.874  1.00  0.00     0.098 C 
HETATM    6  C12 UNL     1      24.352  13.147  23.287  1.00  0.00     0.034 C 
BRANCH   5   7
HETATM    7  C10 UNL     1      23.006  12.323  21.368  1.00  0.00     0.146 C 
BRANCH   7   8
HETATM    8  N2  UNL     1      22.921  10.962  20.828  1.00  0.00    -0.371 N 
ATOM      9  H2  UNL     1      22.029  10.568  20.529  1.00  0.00     0.161 HD
BRANCH   8  10
HETATM   10  C9  UNL     1      24.101  10.225  20.737  1.00  0.00     0.134 C 
BRANCH  10  11
HETATM   11  C3  UNL     1      25.269  10.476  19.872  1.00  0.00     0.158 C 
BRANCH  11  12
HETATM   12  C2  UNL     1      25.087  11.220  18.622  1.00  0.00     0.029 C 
HETATM   13  C1  UNL     1      25.480  12.669  18.645  1.00  0.00     0.007 C 
ENDBRANCH  11  12
BRANCH  11  14
HETATM   14  N1  UNL     1      26.293  11.071  20.737  1.00  0.00    -0.348 N 
HETATM   15  C4  UNL     1      27.641  10.637  20.772  1.00  0.00     0.232 C 
HETATM   16  O1  UNL     1      27.959   9.684  20.010  1.00  0.00    -0.272 OA
ATOM     17  H1  UNL     1      26.020  11.841  21.348  1.00  0.00     0.163 HD
BRANCH  15  18
HETATM   18  C5  UNL     1      28.644  11.245  21.641  1.00  0.00     0.150 C 
HETATM   19 BR1  UNL     1      29.548   9.847  22.628  1.00  0.00    -0.081 Br
BRANCH  18  20
HETATM   20  C6  UNL     1      28.203  12.349  22.520  1.00  0.00     0.041 C 
BRANCH  20  21
HETATM   21  C7  UNL     1      28.801  13.688  22.294  1.00  0.00     0.055 C 
HETATM   22  C8  UNL     1      27.972  14.678  23.133  1.00  0.00     0.022 C 
HETATM   23 BR2  UNL     1      28.582  14.277  20.446  1.00  0.00    -0.091 Br
ENDBRANCH  20  21
ENDBRANCH  18  20
ENDBRANCH  15  18
ENDBRANCH  11  14
ENDBRANCH  10  11
BRANCH  10  24
HETATM   24  O2  UNL     1      24.178   9.179  21.526  1.00  0.00    -0.348 OA
ATOM     25  H2  UNL     1      23.473   9.076  22.155  1.00  0.00     0.219 HD
ENDBRANCH  10  24
ENDBRANCH   8  10
ENDBRANCH   7   8
ENDBRANCH   5   7
ENDBRANCH   1   5
BRANCH   3  26
HETATM   26  C14 UNL     1      20.323  12.113  25.457  1.00  0.00     0.387 C 
BRANCH  26  27
HETATM   27  C15 UNL     1      20.427  11.719  26.867  1.00  0.00     0.157 C 
BRANCH  27  28
HETATM   28  O4  UNL     1      20.633  10.439  27.031  1.00  0.00    -0.347 OA
ATOM     29  H4  UNL     1      21.327  10.247  27.650  1.00  0.00     0.219 HD
ENDBRANCH  27  28
BRANCH  27  30
HETATM   30  N4  UNL     1      20.345  12.475  28.035  1.00  0.00    -0.363 N 
HETATM   31  C16 UNL     1      19.301  13.536  28.055  1.00  0.00     0.124 C 
HETATM   32  C17 UNL     1      18.149  13.043  28.911  1.00  0.00     0.020 C 
HETATM   33  C18 UNL     1      18.726  12.286  30.109  1.00  0.00     0.003 C 
HETATM   34  C19 UNL     1      20.137  12.745  30.393  1.00  0.00     0.020 C 
HETATM   35  C20 UNL     1      21.096  12.384  29.254  1.00  0.00     0.124 C 
ENDBRANCH  27  30
ENDBRANCH  26  27
BRANCH  26  36
HETATM   36  N5  UNL     1      19.092  11.621  24.927  1.00  0.00     0.110 N 
HETATM   37  C21 UNL     1      18.309  12.636  24.253  1.00  0.00     0.275 C 
HETATM   38  C22 UNL     1      16.876  12.217  24.348  1.00  0.00     0.040 C 
HETATM   39  C23 UNL     1      16.607  10.793  24.059  1.00  0.00    -0.037 A 
HETATM   40  C24 UNL     1      17.751   9.867  24.027  1.00  0.00     0.040 C 
HETATM   41  C26 UNL     1      15.328  10.476  23.336  1.00  0.00     0.010 A 
HETATM   42  C27 UNL     1      15.359  10.235  24.785  1.00  0.00     0.010 A 
HETATM   43  C25 UNL     1      19.126  10.473  24.109  1.00  0.00     0.275 C 
ENDBRANCH  26  36
ENDBRANCH   3  26
TORSDOF 16
ENDMDL
MODEL 3
REMARK VINA RESULT: -8.056876643      3.182      6.005
REMARK  16 active torsions:
REMARK  status: ('A' for Active; 'I' for Inactive)
REMARK    1  A    between atoms: C2_2  and  C3_3 
REMARK    2  A    between atoms: C3_3  and  N1_4 
REMARK    3  A    between atoms: C3_3  and  C9_14 
REMARK       I    between atoms: N1_4  and  C4_6 
REMARK    4  A    between atoms: C4_6  and  C5_8 
REMARK    5  A    between atoms: C5_8  and  C6_10 
REMARK    6  A    between atoms: C6_10  and  C7_11 
REMARK    7  A    between atoms: C9_14  and  O2_15 
REMARK    8  A    between atoms: C9_14  and  N2_17 
REMARK    9  A    between atoms: N2_17  and  C10_19 
REMARK   10  A    between atoms: C10_19  and  C11_20 
REMARK   11  A    between atoms: C11_20  and  N3_22 
REMARK       I    between atoms: N3_22  and  C13_24 
REMARK   12  A    between atoms: C13_24  and  C14_26 
REMARK   13  A    between atoms: C14_26  and  C15_27 
REMARK   14  A    between atoms: C14_26  and  N5_36 
REMARK   15  A    between atoms: C15_27  and  O4_28 
REMARK   16  A    between atoms: C15_27  and  N4_30 
ROOT
HETATM    1  N3  UNL     1      19.781  13.228  26.840  1.00  0.00    -0.353 N 
ATOM      2  H3  UNL     1      20.110  13.783  26.049  1.00  0.00     0.163 HD
HETATM    3  C13 UNL     1      18.428  12.820  26.875  1.00  0.00     0.260 C 
HETATM    4  O3  UNL     1      18.080  12.133  27.885  1.00  0.00    -0.271 OA
ENDROOT
BRANCH   1   5
HETATM    5  C11 UNL     1      20.700  12.887  27.874  1.00  0.00     0.098 C 
HETATM    6  C12 UNL     1      20.648  13.782  29.091  1.00  0.00     0.034 C 
BRANCH   5   7
HETATM    7  C10 UNL     1      22.124  12.752  27.378  1.00  0.00     0.146 C 
BRANCH   7   8
HETATM    8  N2  UNL     1      22.376  13.626  26.228  1.00  0.00    -0.371 N 
ATOM      9  H2  UNL     1      21.614  13.941  25.627  1.00  0.00     0.161 HD
BRANCH   8  10
HETATM   10  C9  UNL     1      23.693  14.013  25.983  1.00  0.00     0.134 C 
BRANCH  10  11
HETATM   11  C3  UNL     1      24.412  14.041  24.696  1.00  0.00     0.158 C 
BRANCH  11  12
HETATM   12  C2  UNL     1      25.861  14.268  24.689  1.00  0.00     0.029 C 
HETATM   13  C1  UNL     1      26.637  13.590  23.598  1.00  0.00     0.007 C 
ENDBRANCH  11  12
BRANCH  11  14
HETATM   14  N1  UNL     1      24.033  12.810  23.994  1.00  0.00    -0.348 N 
HETATM   15  C4  UNL     1      22.943  12.724  23.093  1.00  0.00     0.232 C 
HETATM   16  O1  UNL     1      22.273  13.774  22.896  1.00  0.00    -0.272 OA
ATOM     17  H1  UNL     1      24.584  11.969  24.163  1.00  0.00     0.163 HD
BRANCH  15  18
HETATM   18  C5  UNL     1      22.584  11.488  22.404  1.00  0.00     0.150 C 
HETATM   19 BR1  UNL     1      22.185  10.129  23.723  1.00  0.00    -0.081 Br
BRANCH  18  20
HETATM   20  C6  UNL     1      23.510  10.996  21.362  1.00  0.00     0.041 C 
BRANCH  20  21
HETATM   21  C7  UNL     1      24.047  11.986  20.397  1.00  0.00     0.055 C 
HETATM   22  C8  UNL     1      22.904  12.292  19.412  1.00  0.00     0.022 C 
HETATM   23 BR2  UNL     1      25.474  11.229  19.302  1.00  0.00    -0.091 Br
ENDBRANCH  20  21
ENDBRANCH  18  20
ENDBRANCH  15  18
ENDBRANCH  11  14
ENDBRANCH  10  11
BRANCH  10  24
HETATM   24  O2  UNL     1      24.372  14.406  27.035  1.00  0.00    -0.348 OA
ATOM     25  H2  UNL     1      23.974  15.090  27.560  1.00  0.00     0.219 HD
ENDBRANCH  10  24
ENDBRANCH   8  10
ENDBRANCH   7   8
ENDBRANCH   5   7
ENDBRANCH   1   5
BRANCH   3  26
HETATM   26  C14 UNL     1      17.422  13.104  25.880  1.00  0.00     0.387 C 
BRANCH  26  27
HETATM   27  C15 UNL     1      16.215  13.740  26.420  1.00  0.00     0.157 C 
BRANCH  27  28
HETATM   28  O4  UNL     1      15.403  12.896  27.000  1.00  0.00    -0.347 OA
ATOM     29  H4  UNL     1      15.838  12.320  27.617  1.00  0.00     0.219 HD
ENDBRANCH  27  28
BRANCH  27  30
HETATM   30  N4  UNL     1      15.804  15.072  26.416  1.00  0.00    -0.363 N 
HETATM   31  C16 UNL     1      16.244  15.896  27.575  1.00  0.00     0.124 C 
HETATM   32  C17 UNL     1      17.382  16.787  27.111  1.00  0.00     0.020 C 
HETATM   33  C18 UNL     1      17.070  17.271  25.695  1.00  0.00     0.003 C 
HETATM   34  C19 UNL     1      15.581  17.234  25.439  1.00  0.00     0.020 C 
HETATM   35  C20 UNL     1      15.035  15.802  25.450  1.00  0.00     0.124 C 
ENDBRANCH  27  30
ENDBRANCH  26  27
BRANCH  26  36
HETATM   36  N5  UNL     1      17.036  12.056  24.991  1.00  0.00     0.110 N 
HETATM   37  C21 UNL     1      16.311  12.526  23.828  1.00  0.00     0.275 C 
HETATM   38  C22 UNL     1      15.434  11.400  23.375  1.00  0.00     0.040 C 
HETATM   39  C23 UNL     1      16.076  10.070  23.333  1.00  0.00    -0.037 A 
HETATM   40  C24 UNL     1      17.366   9.903  24.020  1.00  0.00     0.040 C 
HETATM   41  C26 UNL     1      15.665   9.154  22.213  1.00  0.00     0.010 A 
HETATM   42  C27 UNL     1      15.089   8.896  23.541  1.00  0.00     0.010 A 
HETATM   43  C25 UNL     1      18.023  11.147  24.558  1.00  0.00     0.275 C 
ENDBRANCH  26  36
ENDBRANCH   3  26
TORSDOF 16
ENDMDL
MODEL 4
REMARK VINA RESULT: -7.956506972      1.857      4.284
REMARK  16 active torsions:
REMARK  status: ('A' for Active; 'I' for Inactive)
REMARK    1  A    between atoms: C2_2  and  C3_3 
REMARK    2  A    between atoms: C3_3  and  N1_4 
REMARK    3  A    between atoms: C3_3  and  C9_14 
REMARK       I    between atoms: N1_4  and  C4_6 
REMARK    4  A    between atoms: C4_6  and  C5_8 
REMARK    5  A    between atoms: C5_8  and  C6_10 
REMARK    6  A    between atoms: C6_10  and  C7_11 
REMARK    7  A    between atoms: C9_14  and  O2_15 
REMARK    8  A    between atoms: C9_14  and  N2_17 
REMARK    9  A    between atoms: N2_17  and  C10_19 
REMARK   10  A    between atoms: C10_19  and  C11_20 
REMARK   11  A    between atoms: C11_20  and  N3_22 
REMARK       I    between atoms: N3_22  and  C13_24 
REMARK   12  A    between atoms: C13_24  and  C14_26 
REMARK   13  A    between atoms: C14_26  and  C15_27 
REMARK   14  A    between atoms: C14_26  and  N5_36 
REMARK   15  A    between atoms: C15_27  and  O4_28 
REMARK   16  A    between atoms: C15_27  and  N4_30 
ROOT
HETATM    1  N3  UNL     1      22.241  11.351  22.848  1.00  0.00    -0.353 N 
ATOM      2  H3  UNL     1      21.900  10.432  23.129  1.00  0.00     0.163 HD
HETATM    3  C13 UNL     1      21.799  12.493  23.555  1.00  0.00     0.260 C 
HETATM    4  O3  UNL     1      22.258  13.608  23.156  1.00  0.00    -0.271 OA
ENDROOT
BRANCH   1   5
HETATM    5  C11 UNL     1      23.150  11.446  21.754  1.00  0.00     0.098 C 
HETATM    6  C12 UNL     1      22.617  12.182  20.546  1.00  0.00     0.034 C 
BRANCH   5   7
HETATM    7  C10 UNL     1      23.724  10.106  21.346  1.00  0.00     0.146 C 
BRANCH   7   8
HETATM    8  N2  UNL     1      24.564  10.224  20.150  1.00  0.00    -0.371 N 
ATOM      9  H2  UNL     1      24.187  10.038  19.220  1.00  0.00     0.161 HD
BRANCH   8  10
HETATM   10  C9  UNL     1      25.895  10.600  20.326  1.00  0.00     0.134 C 
BRANCH  10  11
HETATM   11  C3  UNL     1      26.572  11.816  19.838  1.00  0.00     0.158 C 
BRANCH  11  12
HETATM   12  C2  UNL     1      26.314  12.279  18.470  1.00  0.00     0.029 C 
HETATM   13  C1  UNL     1      25.229  13.304  18.307  1.00  0.00     0.007 C 
ENDBRANCH  11  12
BRANCH  11  14
HETATM   14  N1  UNL     1      26.315  12.854  20.841  1.00  0.00    -0.348 N 
HETATM   15  C4  UNL     1      27.115  13.048  21.993  1.00  0.00     0.232 C 
HETATM   16  O1  UNL     1      28.100  12.276  22.148  1.00  0.00    -0.272 OA
ATOM     17  H1  UNL     1      25.515  13.471  20.702  1.00  0.00     0.163 HD
BRANCH  15  18
HETATM   18  C5  UNL     1      26.840  14.089  22.979  1.00  0.00     0.150 C 
HETATM   19 BR1  UNL     1      28.465  14.470  23.959  1.00  0.00    -0.081 Br
BRANCH  18  20
HETATM   20  C6  UNL     1      25.685  13.885  23.879  1.00  0.00     0.041 C 
BRANCH  20  21
HETATM   21  C7  UNL     1      25.459  14.889  24.947  1.00  0.00     0.055 C 
HETATM   22  C8  UNL     1      24.224  14.412  25.735  1.00  0.00     0.022 C 
HETATM   23 BR2  UNL     1      24.955  16.626  24.214  1.00  0.00    -0.091 Br
ENDBRANCH  20  21
ENDBRANCH  18  20
ENDBRANCH  15  18
ENDBRANCH  11  14
ENDBRANCH  10  11
BRANCH  10  24
HETATM   24  O2  UNL     1      26.633   9.764  21.018  1.00  0.00    -0.348 OA
ATOM     25  H2  UNL     1      26.173   9.224  21.651  1.00  0.00     0.219 HD
ENDBRANCH  10  24
ENDBRANCH   8  10
ENDBRANCH   7   8
ENDBRANCH   5   7
ENDBRANCH   1   5
BRANCH   3  26
HETATM   26  C14 UNL     1      20.890  12.505  24.676  1.00  0.00     0.387 C 
BRANCH  26  27
HETATM   27  C15 UNL     1      21.404  11.811  25.864  1.00  0.00     0.157 C 
BRANCH  27  28
HETATM   28  O4  UNL     1      22.400  11.008  25.601  1.00  0.00    -0.347 OA
ATOM     29  H4  UNL     1      22.213  10.099  25.805  1.00  0.00     0.219 HD
ENDBRANCH  27  28
BRANCH  27  30
HETATM   30  N4  UNL     1      21.007  11.871  27.199  1.00  0.00    -0.363 N 
HETATM   31  C16 UNL     1      21.733  12.851  28.053  1.00  0.00     0.124 C 
HETATM   32  C17 UNL     1      20.824  14.046  28.270  1.00  0.00     0.020 C 
HETATM   33  C18 UNL     1      19.393  13.539  28.452  1.00  0.00     0.003 C 
HETATM   34  C19 UNL     1      19.398  12.108  28.939  1.00  0.00     0.020 C 
HETATM   35  C20 UNL     1      19.981  11.150  27.895  1.00  0.00     0.124 C 
ENDBRANCH  27  30
ENDBRANCH  26  27
BRANCH  26  36
HETATM   36  N5  UNL     1      19.537  12.106  24.455  1.00  0.00     0.110 N 
HETATM   37  C21 UNL     1      19.274  10.732  24.829  1.00  0.00     0.275 C 
HETATM   38  C22 UNL     1      18.131  10.260  23.986  1.00  0.00     0.040 C 
HETATM   39  C23 UNL     1      16.999  11.201  23.864  1.00  0.00    -0.037 A 
HETATM   40  C24 UNL     1      17.210  12.594  24.285  1.00  0.00     0.040 C 
HETATM   41  C26 UNL     1      15.621  10.601  23.816  1.00  0.00     0.010 A 
HETATM   42  C27 UNL     1      16.205  11.050  22.544  1.00  0.00     0.010 A 
HETATM   43  C25 UNL     1      18.507  12.912  24.980  1.00  0.00     0.275 C 
ENDBRANCH  26  36
ENDBRANCH   3  26
TORSDOF 16
ENDMDL
MODEL 5
REMARK VINA RESULT: -7.928279916      4.130      7.416
REMARK  16 active torsions:
REMARK  status: ('A' for Active; 'I' for Inactive)
REMARK    1  A    between atoms: C2_2  and  C3_3 
REMARK    2  A    between atoms: C3_3  and  N1_4 
REMARK    3  A    between atoms: C3_3  and  C9_14 
REMARK       I    between atoms: N1_4  and  C4_6 
REMARK    4  A    between atoms: C4_6  and  C5_8 
REMARK    5  A    between atoms: C5_8  and  C6_10 
REMARK    6  A    between atoms: C6_10  and  C7_11 
REMARK    7  A    between atoms: C9_14  and  O2_15 
REMARK    8  A    between atoms: C9_14  and  N2_17 
REMARK    9  A    between atoms: N2_17  and  C10_19 
REMARK   10  A    between atoms: C10_19  and  C11_20 
REMARK   11  A    between atoms: C11_20  and  N3_22 
REMARK       I    between atoms: N3_22  and  C13_24 
REMARK   12  A    between atoms: C13_24  and  C14_26 
REMARK   13  A    between atoms: C14_26  and  C15_27 
REMARK   14  A    between atoms: C14_26  and  N5_36 
REMARK   15  A    between atoms: C15_27  and  O4_28 
REMARK   16  A    between atoms: C15_27  and  N4_30 
ROOT
HETATM    1  N3  UNL     1      26.985  11.616  21.536  1.00  0.00    -0.353 N 
ATOM      2  H3  UNL     1      27.016  11.221  22.476  1.00  0.00     0.163 HD
HETATM    3  C13 UNL     1      26.001  12.585  21.231  1.00  0.00     0.260 C 
HETATM    4  O3  UNL     1      26.013  13.037  20.045  1.00  0.00    -0.271 OA
ENDROOT
BRANCH   1   5
HETATM    5  C11 UNL     1      27.935  11.175  20.569  1.00  0.00     0.098 C 
HETATM    6  C12 UNL     1      27.432  10.108  19.625  1.00  0.00     0.034 C 
BRANCH   5   7
HETATM    7  C10 UNL     1      29.253  10.757  21.185  1.00  0.00     0.146 C 
BRANCH   7   8
HETATM    8  N2  UNL     1      30.168  11.896  21.319  1.00  0.00    -0.371 N 
ATOM      9  H2  UNL     1      31.092  11.884  20.886  1.00  0.00     0.161 HD
BRANCH   8  10
HETATM   10  C9  UNL     1      29.732  12.996  22.056  1.00  0.00     0.134 C 
BRANCH  10  11
HETATM   11  C3  UNL     1      29.890  14.427  21.739  1.00  0.00     0.158 C 
BRANCH  11  12
HETATM   12  C2  UNL     1      28.800  15.136  21.061  1.00  0.00     0.029 C 
HETATM   13  C1  UNL     1      29.144  16.465  20.453  1.00  0.00     0.007 C 
ENDBRANCH  11  12
BRANCH  11  14
HETATM   14  N1  UNL     1      30.290  15.078  22.992  1.00  0.00    -0.348 N 
HETATM   15  C4  UNL     1      31.612  15.506  23.267  1.00  0.00     0.232 C 
HETATM   16  O1  UNL     1      32.479  15.310  22.373  1.00  0.00    -0.272 OA
ATOM     17  H1  UNL     1      29.577  15.230  23.705  1.00  0.00     0.163 HD
BRANCH  15  18
HETATM   18  C5  UNL     1      31.988  16.152  24.521  1.00  0.00     0.150 C 
HETATM   19 BR1  UNL     1      30.727  17.571  24.898  1.00  0.00    -0.081 Br
BRANCH  18  20
HETATM   20  C6  UNL     1      33.389  16.603  24.660  1.00  0.00     0.041 C 
BRANCH  20  21
HETATM   21  C7  UNL     1      33.637  17.855  25.415  1.00  0.00     0.055 C 
HETATM   22  C8  UNL     1      34.171  18.877  24.394  1.00  0.00     0.022 C 
HETATM   23 BR2  UNL     1      35.073  17.641  26.720  1.00  0.00    -0.091 Br
ENDBRANCH  20  21
ENDBRANCH  18  20
ENDBRANCH  15  18
ENDBRANCH  11  14
ENDBRANCH  10  11
BRANCH  10  24
HETATM   24  O2  UNL     1      29.098  12.715  23.170  1.00  0.00    -0.348 OA
ATOM     25  H2  UNL     1      28.666  11.869  23.205  1.00  0.00     0.219 HD
ENDBRANCH  10  24
ENDBRANCH   8  10
ENDBRANCH   7   8
ENDBRANCH   5   7
ENDBRANCH   1   5
BRANCH   3  26
HETATM   26  C14 UNL     1      25.003  13.103  22.136  1.00  0.00     0.387 C 
BRANCH  26  27
HETATM   27  C15 UNL     1      25.561  13.736  23.337  1.00  0.00     0.157 C 
BRANCH  27  28
HETATM   28  O4  UNL     1      26.048  12.878  24.193  1.00  0.00    -0.347 OA
ATOM     29  H4  UNL     1      26.776  13.222  24.697  1.00  0.00     0.219 HD
ENDBRANCH  27  28
BRANCH  27  30
HETATM   30  N4  UNL     1      25.654  15.078  23.702  1.00  0.00    -0.363 N 
HETATM   31  C16 UNL     1      24.418  15.692  24.259  1.00  0.00     0.124 C 
HETATM   32  C17 UNL     1      24.590  15.809  25.762  1.00  0.00     0.020 C 
HETATM   33  C18 UNL     1      26.036  16.210  26.054  1.00  0.00     0.003 C 
HETATM   34  C19 UNL     1      26.641  16.912  24.860  1.00  0.00     0.020 C 
HETATM   35  C20 UNL     1      26.771  15.978  23.653  1.00  0.00     0.124 C 
ENDBRANCH  27  30
ENDBRANCH  26  27
BRANCH  26  36
HETATM   36  N5  UNL     1      23.928  12.245  22.521  1.00  0.00     0.110 N 
HETATM   37  C21 UNL     1      22.775  12.960  23.028  1.00  0.00     0.275 C 
HETATM   38  C22 UNL     1      22.062  12.033  23.961  1.00  0.00     0.040 C 
HETATM   39  C23 UNL     1      21.893  10.647  23.477  1.00  0.00    -0.037 A 
HETATM   40  C24 UNL     1      22.689  10.219  22.317  1.00  0.00     0.040 C 
HETATM   41  C26 UNL     1      20.609   9.953  23.841  1.00  0.00     0.010 A 
HETATM   42  C27 UNL     1      21.809   9.598  24.613  1.00  0.00     0.010 A 
HETATM   43  C25 UNL     1      23.479  11.280  21.598  1.00  0.00     0.275 C 
ENDBRANCH  26  36
ENDBRANCH   3  26
TORSDOF 16
ENDMDL
