MODEL 1
REMARK VINA RESULT: -6.785555160      0.000      0.000
REMARK  4 active torsions:
REMARK  status: ('A' for Active; 'I' for Inactive)
REMARK    1  A    between atoms: N1_1  and  C1_4 
REMARK    2  A    between atoms: C2_7  and  N3_8 
REMARK    3  A    between atoms: N3_8  and  N4_10 
REMARK    4  A    between atoms: N4_10  and  C3_12 
ROOT
HETATM    1  C1  UNL     1      22.830 -63.927   0.485  1.00  0.00     0.694 A 
HETATM    2  N2  UNL     1      23.317 -62.669   0.589  1.00  0.00    -0.021 N 
ATOM      3  H2  UNL     1      23.070 -62.107   1.403  1.00  0.00     0.203 HD
HETATM    4  C2  UNL     1      24.118 -62.138  -0.350  1.00  0.00     0.715 A 
HETATM    5  N6  UNL     1      24.418 -62.910  -1.403  1.00  0.00    -0.139 N 
ATOM      6  H6  UNL     1      25.024 -62.530  -2.129  1.00  0.00     0.189 HD
HETATM    7  C6  UNL     1      23.954 -64.164  -1.543  1.00  0.00     0.352 A 
HETATM    8  O2  UNL     1      24.274 -64.838  -2.559  1.00  0.00    -0.246 OA
HETATM    9  N7  UNL     1      23.140 -64.688  -0.578  1.00  0.00    -0.141 N 
ATOM     10  H7  UNL     1      22.776 -65.637  -0.662  1.00  0.00     0.189 HD
ENDROOT
BRANCH   4  11
HETATM   11  N3  UNL     1      24.647 -60.828  -0.277  1.00  0.00    -0.130 N 
ATOM     12  H3  UNL     1      25.344 -60.546  -0.966  1.00  0.00     0.205 HD
BRANCH  11  13
HETATM   13  N4  UNL     1      24.259 -59.902   0.697  1.00  0.00    -0.270 N 
ATOM     14  H4  UNL     1      23.626 -60.224   1.429  1.00  0.00     0.189 HD
BRANCH  13  15
HETATM   15  C3  UNL     1      24.676 -58.556   0.741  1.00  0.00     0.144 A 
HETATM   16  C4  UNL     1      24.501 -57.599  -0.230  1.00  0.00     0.193 A 
HETATM   17  O1  UNL     1      25.040 -56.492   0.226  1.00  0.00    -0.314 OA
HETATM   18  C5  UNL     1      25.537 -56.710   1.422  1.00  0.00     0.234 A 
HETATM   19  N5  UNL     1      25.324 -57.986   1.765  1.00  0.00    -0.330 N 
ATOM     20  H5  UNL     1      25.601 -58.437   2.638  1.00  0.00     0.168 HD
ENDBRANCH  13  15
ENDBRANCH  11  13
ENDBRANCH   4  11
BRANCH   1  21
HETATM   21  N1  UNL     1      22.078 -64.362   1.419  1.00  0.00    -0.234 N 
ATOM     22  H12 UNL     1      21.600 -63.726   2.058  1.00  0.00     0.174 HD
ATOM     23  H11 UNL     1      21.961 -65.371   1.514  1.00  0.00     0.174 HD
ENDBRANCH   1  21
TORSDOF 4
ENDMDL
MODEL 2
REMARK VINA RESULT: -6.742900497      5.192      7.277
REMARK  4 active torsions:
REMARK  status: ('A' for Active; 'I' for Inactive)
REMARK    1  A    between atoms: N1_1  and  C1_4 
REMARK    2  A    between atoms: C2_7  and  N3_8 
REMARK    3  A    between atoms: N3_8  and  N4_10 
REMARK    4  A    between atoms: N4_10  and  C3_12 
ROOT
HETATM    1  C1  UNL     1      15.782 -66.622   1.051  1.00  0.00     0.694 A 
HETATM    2  N2  UNL     1      17.027 -66.342   1.501  1.00  0.00    -0.021 N 
ATOM      3  H2  UNL     1      17.317 -66.697   2.412  1.00  0.00     0.203 HD
HETATM    4  C2  UNL     1      17.894 -65.609   0.782  1.00  0.00     0.715 A 
HETATM    5  N6  UNL     1      17.472 -65.162  -0.409  1.00  0.00    -0.139 N 
ATOM      6  H6  UNL     1      18.110 -64.604  -0.974  1.00  0.00     0.189 HD
HETATM    7  C6  UNL     1      16.243 -65.419  -0.891  1.00  0.00     0.352 A 
HETATM    8  O2  UNL     1      15.908 -64.969  -2.020  1.00  0.00    -0.246 OA
HETATM    9  N7  UNL     1      15.375 -66.167  -0.145  1.00  0.00    -0.141 N 
ATOM     10  H7  UNL     1      14.437 -66.374  -0.490  1.00  0.00     0.189 HD
ENDROOT
BRANCH   4  11
HETATM   11  N3  UNL     1      19.202 -65.295   1.217  1.00  0.00    -0.130 N 
ATOM     12  H3  UNL     1      19.465 -65.527   2.174  1.00  0.00     0.205 HD
BRANCH  11  13
HETATM   13  N4  UNL     1      20.152 -64.680   0.394  1.00  0.00    -0.270 N 
ATOM     14  H4  UNL     1      19.954 -64.636  -0.605  1.00  0.00     0.189 HD
BRANCH  13  15
HETATM   15  C3  UNL     1      21.363 -64.116   0.844  1.00  0.00     0.144 A 
HETATM   16  C4  UNL     1      22.105 -63.138   0.225  1.00  0.00     0.193 A 
HETATM   17  O1  UNL     1      23.150 -62.914   0.987  1.00  0.00    -0.314 OA
HETATM   18  C5  UNL     1      23.096 -63.696   2.041  1.00  0.00     0.234 A 
HETATM   19  N5  UNL     1      21.995 -64.453   1.976  1.00  0.00    -0.330 N 
ATOM     20  H5  UNL     1      21.694 -65.152   2.656  1.00  0.00     0.168 HD
ENDBRANCH  13  15
ENDBRANCH  11  13
ENDBRANCH   4  11
BRANCH   1  21
HETATM   21  N1  UNL     1      15.018 -67.327   1.790  1.00  0.00    -0.234 N 
ATOM     22  H12 UNL     1      14.606 -66.950   2.644  1.00  0.00     0.174 HD
ATOM     23  H11 UNL     1      14.823 -68.288   1.506  1.00  0.00     0.174 HD
ENDBRANCH   1  21
TORSDOF 4
ENDMDL
MODEL 3
REMARK VINA RESULT: -6.672212759      1.337      2.050
REMARK  4 active torsions:
REMARK  status: ('A' for Active; 'I' for Inactive)
REMARK    1  A    between atoms: N1_1  and  C1_4 
REMARK    2  A    between atoms: C2_7  and  N3_8 
REMARK    3  A    between atoms: N3_8  and  N4_10 
REMARK    4  A    between atoms: N4_10  and  C3_12 
ROOT
HETATM    1  C1  UNL     1      23.908 -64.234  -1.421  1.00  0.00     0.694 A 
HETATM    2  N2  UNL     1      24.444 -62.992  -1.359  1.00  0.00    -0.021 N 
ATOM      3  H2  UNL     1      25.095 -62.697  -2.087  1.00  0.00     0.203 HD
HETATM    4  C2  UNL     1      24.144 -62.137  -0.368  1.00  0.00     0.715 A 
HETATM    5  N6  UNL     1      23.285 -62.566   0.567  1.00  0.00    -0.139 N 
ATOM      6  H6  UNL     1      23.040 -61.936   1.330  1.00  0.00     0.189 HD
HETATM    7  C6  UNL     1      22.731 -63.791   0.541  1.00  0.00     0.352 A 
HETATM    8  O2  UNL     1      21.929 -64.133   1.452  1.00  0.00    -0.246 OA
HETATM    9  N7  UNL     1      23.049 -64.648  -0.476  1.00  0.00    -0.141 N 
ATOM     10  H7  UNL     1      22.641 -65.582  -0.516  1.00  0.00     0.189 HD
ENDROOT
BRANCH   4  11
HETATM   11  N3  UNL     1      24.683 -60.833  -0.269  1.00  0.00    -0.130 N 
ATOM     12  H3  UNL     1      25.413 -60.558  -0.924  1.00  0.00     0.205 HD
BRANCH  11  13
HETATM   13  N4  UNL     1      24.260 -59.904   0.688  1.00  0.00    -0.270 N 
ATOM     14  H4  UNL     1      23.601 -60.224   1.398  1.00  0.00     0.189 HD
BRANCH  13  15
HETATM   15  C3  UNL     1      24.676 -58.558   0.743  1.00  0.00     0.144 A 
HETATM   16  C4  UNL     1      24.511 -57.597  -0.225  1.00  0.00     0.193 A 
HETATM   17  O1  UNL     1      25.044 -56.492   0.242  1.00  0.00    -0.314 OA
HETATM   18  C5  UNL     1      25.527 -56.715   1.443  1.00  0.00     0.234 A 
HETATM   19  N5  UNL     1      25.311 -57.993   1.778  1.00  0.00    -0.330 N 
ATOM     20  H5  UNL     1      25.578 -58.447   2.651  1.00  0.00     0.168 HD
ENDBRANCH  13  15
ENDBRANCH  11  13
ENDBRANCH   4  11
BRANCH   1  21
HETATM   21  N1  UNL     1      24.240 -64.986  -2.395  1.00  0.00    -0.234 N 
ATOM     22  H12 UNL     1      23.993 -65.976  -2.412  1.00  0.00     0.174 HD
ATOM     23  H11 UNL     1      24.762 -64.573  -3.169  1.00  0.00     0.174 HD
ENDBRANCH   1  21
TORSDOF 4
ENDMDL
MODEL 4
REMARK VINA RESULT: -6.662282890      4.609      6.534
REMARK  4 active torsions:
REMARK  status: ('A' for Active; 'I' for Inactive)
REMARK    1  A    between atoms: N1_1  and  C1_4 
REMARK    2  A    between atoms: C2_7  and  N3_8 
REMARK    3  A    between atoms: N3_8  and  N4_10 
REMARK    4  A    between atoms: N4_10  and  C3_12 
ROOT
HETATM    1  C1  UNL     1      16.509 -65.516   1.633  1.00  0.00     0.694 A 
HETATM    2  N2  UNL     1      17.495 -64.612   1.424  1.00  0.00    -0.021 N 
ATOM      3  H2  UNL     1      17.384 -63.665   1.785  1.00  0.00     0.203 HD
HETATM    4  C2  UNL     1      18.616 -64.927   0.754  1.00  0.00     0.715 A 
HETATM    5  N6  UNL     1      18.720 -66.182   0.298  1.00  0.00    -0.139 N 
ATOM      6  H6  UNL     1      19.562 -66.447  -0.214  1.00  0.00     0.189 HD
HETATM    7  C6  UNL     1      17.763 -67.109   0.484  1.00  0.00     0.352 A 
HETATM    8  O2  UNL     1      17.924 -68.273   0.028  1.00  0.00    -0.246 OA
HETATM    9  N7  UNL     1      16.629 -66.770   1.168  1.00  0.00    -0.141 N 
ATOM     10  H7  UNL     1      15.890 -67.455   1.322  1.00  0.00     0.189 HD
ENDROOT
BRANCH   4  11
HETATM   11  N3  UNL     1      19.668 -64.012   0.516  1.00  0.00    -0.130 N 
ATOM     12  H3  UNL     1      19.435 -63.028   0.384  1.00  0.00     0.205 HD
BRANCH  11  13
HETATM   13  N4  UNL     1      21.011 -64.395   0.451  1.00  0.00    -0.270 N 
ATOM     14  H4  UNL     1      21.252 -65.170  -0.168  1.00  0.00     0.189 HD
BRANCH  13  15
HETATM   15  C3  UNL     1      22.058 -63.791   1.178  1.00  0.00     0.144 A 
HETATM   16  C4  UNL     1      22.691 -62.605   0.892  1.00  0.00     0.193 A 
HETATM   17  O1  UNL     1      23.597 -62.424   1.825  1.00  0.00    -0.314 OA
HETATM   18  C5  UNL     1      23.558 -63.428   2.670  1.00  0.00     0.234 A 
HETATM   19  N5  UNL     1      22.610 -64.292   2.290  1.00  0.00    -0.330 N 
ATOM     20  H5  UNL     1      22.357 -65.163   2.757  1.00  0.00     0.168 HD
ENDBRANCH  13  15
ENDBRANCH  11  13
ENDBRANCH   4  11
BRANCH   1  21
HETATM   21  N1  UNL     1      15.476 -65.142   2.281  1.00  0.00    -0.234 N 
ATOM     22  H12 UNL     1      14.534 -65.352   1.950  1.00  0.00     0.174 HD
ATOM     23  H11 UNL     1      15.612 -64.624   3.150  1.00  0.00     0.174 HD
ENDBRANCH   1  21
TORSDOF 4
ENDMDL
MODEL 5
REMARK VINA RESULT: -6.652058056      5.292      7.540
REMARK  4 active torsions:
REMARK  status: ('A' for Active; 'I' for Inactive)
REMARK    1  A    between atoms: N1_1  and  C1_4 
REMARK    2  A    between atoms: C2_7  and  N3_8 
REMARK    3  A    between atoms: N3_8  and  N4_10 
REMARK    4  A    between atoms: N4_10  and  C3_12 
ROOT
HETATM    1  C1  UNL     1      15.803 -66.314   1.705  1.00  0.00     0.694 A 
HETATM    2  N2  UNL     1      17.043 -66.505   1.198  1.00  0.00    -0.021 N 
ATOM      3  H2  UNL     1      17.307 -67.434   0.872  1.00  0.00     0.203 HD
HETATM    4  C2  UNL     1      17.937 -65.506   1.112  1.00  0.00     0.715 A 
HETATM    5  N6  UNL     1      17.549 -64.302   1.552  1.00  0.00    -0.139 N 
ATOM      6  H6  UNL     1      18.208 -63.526   1.497  1.00  0.00     0.189 HD
HETATM    7  C6  UNL     1      16.326 -64.071   2.062  1.00  0.00     0.352 A 
HETATM    8  O2  UNL     1      16.023 -62.913   2.459  1.00  0.00    -0.246 OA
HETATM    9  N7  UNL     1      15.430 -65.100   2.142  1.00  0.00    -0.141 N 
ATOM     10  H7  UNL     1      14.497 -64.949   2.526  1.00  0.00     0.189 HD
ENDROOT
BRANCH   4  11
HETATM   11  N3  UNL     1      19.241 -65.665   0.588  1.00  0.00    -0.130 N 
ATOM     12  H3  UNL     1      19.645 -66.601   0.567  1.00  0.00     0.205 HD
BRANCH  11  13
HETATM   13  N4  UNL     1      20.002 -64.598   0.100  1.00  0.00    -0.270 N 
ATOM     14  H4  UNL     1      19.658 -64.112  -0.728  1.00  0.00     0.189 HD
BRANCH  13  15
HETATM   15  C3  UNL     1      21.212 -64.145   0.666  1.00  0.00     0.144 A 
HETATM   16  C4  UNL     1      22.069 -63.203   0.149  1.00  0.00     0.193 A 
HETATM   17  O1  UNL     1      23.063 -63.087   0.999  1.00  0.00    -0.314 OA
HETATM   18  C5  UNL     1      22.868 -63.902   2.010  1.00  0.00     0.234 A 
HETATM   19  N5  UNL     1      21.724 -64.572   1.827  1.00  0.00    -0.330 N 
ATOM     20  H5  UNL     1      21.320 -65.271   2.451  1.00  0.00     0.168 HD
ENDBRANCH  13  15
ENDBRANCH  11  13
ENDBRANCH   4  11
BRANCH   1  21
HETATM   21  N1  UNL     1      15.010 -67.311   1.751  1.00  0.00    -0.234 N 
ATOM     22  H12 UNL     1      14.002 -67.187   1.855  1.00  0.00     0.174 HD
ATOM     23  H11 UNL     1      15.408 -68.248   1.679  1.00  0.00     0.174 HD
ENDBRANCH   1  21
TORSDOF 4
ENDMDL
