MODEL 1
REMARK VINA RESULT: -7.100413613      0.000      0.000
REMARK  4 active torsions:
REMARK  status: ('A' for Active; 'I' for Inactive)
REMARK    1  A    between atoms: C2_5  and  C3_6 
REMARK    2  A    between atoms: C3_6  and  N3_7 
REMARK    3  A    between atoms: N3_7  and  N4_9 
REMARK       I    between atoms: N4_9  and  C4_11 
REMARK       I    between atoms: C4_11  and  N5_12 
REMARK       I    between atoms: C4_11  and  N6_16 
REMARK    4  A    between atoms: C5_22  and  N8_23 
ROOT
HETATM    1  N3  UNL     1      21.133 -64.515   1.193  1.00  0.00    -0.309 N 
ATOM      2  H3  UNL     1      20.941 -64.994   2.074  1.00  0.00     0.185 HD
ENDROOT
BRANCH   1   3
HETATM    3  C3  UNL     1      20.181 -64.267   0.372  1.00  0.00     0.155 C 
BRANCH   3   4
HETATM    4  C2  UNL     1      18.821 -64.800   0.610  1.00  0.00     0.125 A 
HETATM    5  N2  UNL     1      18.412 -66.066   0.512  1.00  0.00    -0.326 N 
HETATM    6  C1  UNL     1      17.103 -66.190   0.799  1.00  0.00     0.168 A 
ATOM      7  H2  UNL     1      19.016 -66.845   0.250  1.00  0.00     0.168 HD
HETATM    8  N1  UNL     1      16.299 -67.360   0.808  1.00  0.00    -0.078 NA
HETATM    9  C5  UNL     1      16.685 -64.886   1.097  1.00  0.00     0.216 A 
HETATM   10  N7  UNL     1      17.749 -64.077   0.971  1.00  0.00    -0.320 N 
ATOM     11  H7  UNL     1      17.744 -63.069   1.126  1.00  0.00     0.169 HD
BRANCH   9  12
HETATM   12  N8  UNL     1      15.358 -64.509   1.467  1.00  0.00    -0.094 N 
HETATM   13  O1  UNL     1      14.461 -64.561   0.616  1.00  0.00    -0.530 OA
HETATM   14  O2  UNL     1      15.041 -64.092   2.724  1.00  0.00    -0.530 OA
ENDBRANCH   9  12
ENDBRANCH   3   4
ENDBRANCH   1   3
BRANCH   1  15
HETATM   15  N4  UNL     1      22.424 -64.131   0.876  1.00  0.00    -0.284 N 
HETATM   16  C4  UNL     1      23.237 -63.279   1.722  1.00  0.00     0.494 C 
HETATM   17  N5  UNL     1      23.471 -63.826   3.025  1.00  0.00    -0.032 N 
HETATM   18  N6  UNL     1      24.489 -62.954   1.116  1.00  0.00    -0.032 N 
ATOM     19  H53 UNL     1      22.590 -64.055   3.484  1.00  0.00     0.279 HD
ATOM     20  H52 UNL     1      23.876 -64.760   2.957  1.00  0.00     0.279 HD
ATOM     21  H51 UNL     1      24.043 -63.226   3.620  1.00  0.00     0.279 HD
ATOM     22  H63 UNL     1      24.997 -63.796   0.842  1.00  0.00     0.279 HD
ATOM     23  H62 UNL     1      24.356 -62.539   0.193  1.00  0.00     0.279 HD
ATOM     24  H61 UNL     1      25.061 -62.354   1.711  1.00  0.00     0.279 HD
ATOM     25  H4  UNL     1      22.826 -64.464  -0.000  1.00  0.00     0.184 HD
ENDBRANCH   1  15
TORSDOF 4
ENDMDL
MODEL 2
REMARK VINA RESULT: -7.060187286      1.604      2.128
REMARK  4 active torsions:
REMARK  status: ('A' for Active; 'I' for Inactive)
REMARK    1  A    between atoms: C2_5  and  C3_6 
REMARK    2  A    between atoms: C3_6  and  N3_7 
REMARK    3  A    between atoms: N3_7  and  N4_9 
REMARK       I    between atoms: N4_9  and  C4_11 
REMARK       I    between atoms: C4_11  and  N5_12 
REMARK       I    between atoms: C4_11  and  N6_16 
REMARK    4  A    between atoms: C5_22  and  N8_23 
ROOT
HETATM    1  N3  UNL     1      19.933 -64.187   0.549  1.00  0.00    -0.309 N 
ATOM      2  H3  UNL     1      19.615 -63.489   1.222  1.00  0.00     0.185 HD
ENDROOT
BRANCH   1   3
HETATM    3  C3  UNL     1      19.104 -65.032   0.056  1.00  0.00     0.155 C 
BRANCH   3   4
HETATM    4  C2  UNL     1      17.680 -65.016   0.459  1.00  0.00     0.125 A 
HETATM    5  N2  UNL     1      17.148 -64.479   1.558  1.00  0.00    -0.326 N 
HETATM    6  C1  UNL     1      15.814 -64.652   1.601  1.00  0.00     0.168 A 
ATOM      7  H2  UNL     1      17.686 -63.997   2.278  1.00  0.00     0.168 HD
HETATM    8  N1  UNL     1      14.892 -64.231   2.595  1.00  0.00    -0.078 NA
HETATM    9  C5  UNL     1      15.514 -65.353   0.425  1.00  0.00     0.216 A 
HETATM   10  N7  UNL     1      16.665 -65.554  -0.236  1.00  0.00    -0.320 N 
ATOM     11  H7  UNL     1      16.755 -66.041  -1.128  1.00  0.00     0.169 HD
BRANCH   9  12
HETATM   12  N8  UNL     1      14.208 -65.769   0.023  1.00  0.00    -0.094 N 
HETATM   13  O1  UNL     1      14.039 -66.938  -0.347  1.00  0.00    -0.530 OA
HETATM   14  O2  UNL     1      13.139 -64.927   0.031  1.00  0.00    -0.530 OA
ENDBRANCH   9  12
ENDBRANCH   3   4
ENDBRANCH   1   3
BRANCH   1  15
HETATM   15  N4  UNL     1      21.260 -64.228   0.161  1.00  0.00    -0.284 N 
HETATM   16  C4  UNL     1      22.354 -63.783   1.002  1.00  0.00     0.494 C 
HETATM   17  N5  UNL     1      22.452 -64.499   2.238  1.00  0.00    -0.032 N 
HETATM   18  N6  UNL     1      23.611 -63.840   0.324  1.00  0.00    -0.032 N 
ATOM     19  H53 UNL     1      21.569 -64.463   2.747  1.00  0.00     0.279 HD
ATOM     20  H52 UNL     1      22.511 -65.504   2.070  1.00  0.00     0.279 HD
ATOM     21  H51 UNL     1      23.222 -64.185   2.829  1.00  0.00     0.279 HD
ATOM     22  H63 UNL     1      23.788 -64.773  -0.049  1.00  0.00     0.279 HD
ATOM     23  H62 UNL     1      23.583 -63.318  -0.552  1.00  0.00     0.279 HD
ATOM     24  H61 UNL     1      24.382 -63.527   0.916  1.00  0.00     0.279 HD
ATOM     25  H4  UNL     1      21.481 -64.591  -0.766  1.00  0.00     0.184 HD
ENDBRANCH   1  15
TORSDOF 4
ENDMDL
MODEL 3
REMARK VINA RESULT: -6.767636509      1.378      1.698
REMARK  4 active torsions:
REMARK  status: ('A' for Active; 'I' for Inactive)
REMARK    1  A    between atoms: C2_5  and  C3_6 
REMARK    2  A    between atoms: C3_6  and  N3_7 
REMARK    3  A    between atoms: N3_7  and  N4_9 
REMARK       I    between atoms: N4_9  and  C4_11 
REMARK       I    between atoms: C4_11  and  N5_12 
REMARK       I    between atoms: C4_11  and  N6_16 
REMARK    4  A    between atoms: C5_22  and  N8_23 
ROOT
HETATM    1  N3  UNL     1      21.819 -64.592   1.129  1.00  0.00    -0.309 N 
ATOM      2  H3  UNL     1      22.152 -65.422   0.638  1.00  0.00     0.185 HD
ENDROOT
BRANCH   1   3
HETATM    3  C3  UNL     1      20.780 -63.969   0.712  1.00  0.00     0.155 C 
BRANCH   3   4
HETATM    4  C2  UNL     1      19.515 -64.694   0.458  1.00  0.00     0.125 A 
HETATM    5  N2  UNL     1      19.240 -65.973   0.719  1.00  0.00    -0.326 N 
HETATM    6  C1  UNL     1      17.986 -66.297   0.356  1.00  0.00     0.168 A 
ATOM      7  H2  UNL     1      19.900 -66.626   1.142  1.00  0.00     0.168 HD
HETATM    8  N1  UNL     1      17.321 -67.546   0.466  1.00  0.00    -0.078 NA
HETATM    9  C5  UNL     1      17.457 -65.111  -0.170  1.00  0.00     0.216 A 
HETATM   10  N7  UNL     1      18.408 -64.168  -0.091  1.00  0.00    -0.320 N 
ATOM     11  H7  UNL     1      18.307 -63.201  -0.401  1.00  0.00     0.169 HD
BRANCH   9  12
HETATM   12  N8  UNL     1      16.136 -64.957  -0.691  1.00  0.00    -0.094 N 
HETATM   13  O1  UNL     1      15.956 -65.068  -1.910  1.00  0.00    -0.530 OA
HETATM   14  O2  UNL     1      15.063 -64.692   0.105  1.00  0.00    -0.530 OA
ENDBRANCH   9  12
ENDBRANCH   3   4
ENDBRANCH   1   3
BRANCH   1  15
HETATM   15  N4  UNL     1      22.485 -64.132   2.251  1.00  0.00    -0.284 N 
HETATM   16  C4  UNL     1      23.700 -63.343   2.194  1.00  0.00     0.494 C 
HETATM   17  N5  UNL     1      23.542 -62.103   1.495  1.00  0.00    -0.032 N 
HETATM   18  N6  UNL     1      24.236 -63.085   3.494  1.00  0.00    -0.032 N 
ATOM     19  H53 UNL     1      23.171 -62.262   0.558  1.00  0.00     0.279 HD
ATOM     20  H52 UNL     1      22.776 -61.559   1.892  1.00  0.00     0.279 HD
ATOM     21  H51 UNL     1      24.397 -61.548   1.455  1.00  0.00     0.279 HD
ATOM     22  H63 UNL     1      23.541 -62.651   4.101  1.00  0.00     0.279 HD
ATOM     23  H62 UNL     1      24.384 -63.952   4.011  1.00  0.00     0.279 HD
ATOM     24  H61 UNL     1      25.091 -62.529   3.454  1.00  0.00     0.279 HD
ATOM     25  H4  UNL     1      22.102 -64.362   3.168  1.00  0.00     0.184 HD
ENDBRANCH   1  15
TORSDOF 4
ENDMDL
MODEL 4
REMARK VINA RESULT: -6.755816376      1.790      2.248
REMARK  4 active torsions:
REMARK  status: ('A' for Active; 'I' for Inactive)
REMARK    1  A    between atoms: C2_5  and  C3_6 
REMARK    2  A    between atoms: C3_6  and  N3_7 
REMARK    3  A    between atoms: N3_7  and  N4_9 
REMARK       I    between atoms: N4_9  and  C4_11 
REMARK       I    between atoms: C4_11  and  N5_12 
REMARK       I    between atoms: C4_11  and  N6_16 
REMARK    4  A    between atoms: C5_22  and  N8_23 
ROOT
HETATM    1  N3  UNL     1      19.382 -64.857   0.401  1.00  0.00    -0.309 N 
ATOM      2  H3  UNL     1      19.439 -65.832   0.695  1.00  0.00     0.185 HD
ENDROOT
BRANCH   1   3
HETATM    3  C3  UNL     1      18.245 -64.270   0.330  1.00  0.00     0.155 C 
BRANCH   3   4
HETATM    4  C2  UNL     1      16.988 -65.040   0.460  1.00  0.00     0.125 A 
HETATM    5  N2  UNL     1      16.774 -66.137   1.187  1.00  0.00    -0.326 N 
HETATM    6  C1  UNL     1      15.507 -66.573   1.070  1.00  0.00     0.168 A 
ATOM      7  H2  UNL     1      17.484 -66.591   1.762  1.00  0.00     0.168 HD
HETATM    8  N1  UNL     1      14.891 -67.698   1.679  1.00  0.00    -0.078 NA
HETATM    9  C5  UNL     1      14.902 -65.660   0.196  1.00  0.00     0.216 A 
HETATM   10  N7  UNL     1      15.827 -64.751  -0.150  1.00  0.00    -0.320 N 
ATOM     11  H7  UNL     1      15.673 -63.963  -0.779  1.00  0.00     0.169 HD
BRANCH   9  12
HETATM   12  N8  UNL     1      13.541 -65.708  -0.236  1.00  0.00    -0.094 N 
HETATM   13  O1  UNL     1      13.128 -66.726  -0.803  1.00  0.00    -0.530 OA
HETATM   14  O2  UNL     1      12.679 -64.671  -0.047  1.00  0.00    -0.530 OA
ENDBRANCH   9  12
ENDBRANCH   3   4
ENDBRANCH   1   3
BRANCH   1  15
HETATM   15  N4  UNL     1      20.532 -64.158   0.078  1.00  0.00    -0.284 N 
HETATM   16  C4  UNL     1      21.477 -63.671   1.063  1.00  0.00     0.494 C 
HETATM   17  N5  UNL     1      22.054 -64.708   1.863  1.00  0.00    -0.032 N 
HETATM   18  N6  UNL     1      22.522 -62.897   0.471  1.00  0.00    -0.032 N 
ATOM     19  H53 UNL     1      21.327 -65.269   2.307  1.00  0.00     0.279 HD
ATOM     20  H52 UNL     1      22.483 -65.423   1.274  1.00  0.00     0.279 HD
ATOM     21  H51 UNL     1      22.719 -64.365   2.557  1.00  0.00     0.279 HD
ATOM     22  H63 UNL     1      22.994 -63.418  -0.268  1.00  0.00     0.279 HD
ATOM     23  H62 UNL     1      22.143 -62.132  -0.088  1.00  0.00     0.279 HD
ATOM     24  H61 UNL     1      23.187 -62.553   1.164  1.00  0.00     0.279 HD
ATOM     25  H4  UNL     1      20.725 -63.976  -0.907  1.00  0.00     0.184 HD
ENDBRANCH   1  15
TORSDOF 4
ENDMDL
MODEL 5
REMARK VINA RESULT: -6.628010033      1.390      1.592
REMARK  4 active torsions:
REMARK  status: ('A' for Active; 'I' for Inactive)
REMARK    1  A    between atoms: C2_5  and  C3_6 
REMARK    2  A    between atoms: C3_6  and  N3_7 
REMARK    3  A    between atoms: N3_7  and  N4_9 
REMARK       I    between atoms: N4_9  and  C4_11 
REMARK       I    between atoms: C4_11  and  N5_12 
REMARK       I    between atoms: C4_11  and  N6_16 
REMARK    4  A    between atoms: C5_22  and  N8_23 
ROOT
HETATM    1  N3  UNL     1      21.396 -64.724   1.232  1.00  0.00    -0.309 N 
ATOM      2  H3  UNL     1      21.283 -65.563   1.802  1.00  0.00     0.185 HD
ENDROOT
BRANCH   1   3
HETATM    3  C3  UNL     1      20.367 -64.098   0.793  1.00  0.00     0.155 C 
BRANCH   3   4
HETATM    4  C2  UNL     1      19.129 -64.830   0.447  1.00  0.00     0.125 A 
HETATM    5  N2  UNL     1      18.775 -66.060   0.822  1.00  0.00    -0.326 N 
HETATM    6  C1  UNL     1      17.577 -66.409   0.319  1.00  0.00     0.168 A 
ATOM      7  H2  UNL     1      19.343 -66.663   1.417  1.00  0.00     0.168 HD
HETATM    8  N1  UNL     1      16.859 -67.622   0.485  1.00  0.00    -0.078 NA
HETATM    9  C5  UNL     1      17.171 -65.292  -0.424  1.00  0.00     0.216 A 
HETATM   10  N7  UNL     1      18.133 -64.362  -0.323  1.00  0.00    -0.320 N 
ATOM     11  H7  UNL     1      18.112 -63.442  -0.763  1.00  0.00     0.169 HD
BRANCH   9  12
HETATM   12  N8  UNL     1      15.946 -65.186  -1.152  1.00  0.00    -0.094 N 
HETATM   13  O1  UNL     1      15.986 -64.891  -2.353  1.00  0.00    -0.530 OA
HETATM   14  O2  UNL     1      14.732 -65.397  -0.573  1.00  0.00    -0.530 OA
ENDBRANCH   9  12
ENDBRANCH   3   4
ENDBRANCH   1   3
BRANCH   1  15
HETATM   15  N4  UNL     1      22.662 -64.253   0.929  1.00  0.00    -0.284 N 
HETATM   16  C4  UNL     1      23.375 -63.290   1.745  1.00  0.00     0.494 C 
HETATM   17  N5  UNL     1      23.609 -63.738   3.084  1.00  0.00    -0.032 N 
HETATM   18  N6  UNL     1      24.616 -62.899   1.155  1.00  0.00    -0.032 N 
ATOM     19  H53 UNL     1      22.734 -64.013   3.531  1.00  0.00     0.279 HD
ATOM     20  H52 UNL     1      24.090 -64.639   3.085  1.00  0.00     0.279 HD
ATOM     21  H51 UNL     1      24.111 -63.060   3.658  1.00  0.00     0.279 HD
ATOM     22  H63 UNL     1      25.198 -63.711   0.948  1.00  0.00     0.279 HD
ATOM     23  H62 UNL     1      24.480 -62.551   0.206  1.00  0.00     0.279 HD
ATOM     24  H61 UNL     1      25.118 -62.221   1.729  1.00  0.00     0.279 HD
ATOM     25  H4  UNL     1      23.117 -64.603   0.087  1.00  0.00     0.184 HD
ENDBRANCH   1  15
TORSDOF 4
ENDMDL
