MODEL 1
REMARK VINA RESULT: -7.019014643      0.000      0.000
REMARK  12 active torsions:
REMARK  status: ('A' for Active; 'I' for Inactive)
REMARK    1  A    between atoms: N1_1  and  C1_5 
REMARK    2  A    between atoms: C1_5  and  C2_6 
REMARK    3  A    between atoms: C2_6  and  C3_7 
REMARK    4  A    between atoms: C3_7  and  C4_8 
REMARK    5  A    between atoms: C4_8  and  C5_9 
REMARK    6  A    between atoms: C5_9  and  C6_10 
REMARK    7  A    between atoms: C6_10  and  N2_11 
REMARK    8  A    between atoms: N2_11  and  C7_13 
REMARK    9  A    between atoms: C9_20  and  N5_21 
REMARK   10  A    between atoms: N5_21  and  C10_23 
REMARK   11  A    between atoms: C10_23  and  C11_24 
REMARK   12  A    between atoms: C11_24  and  N6_25 
ROOT
HETATM    1  C7  UNL     1      -0.624  31.517 -17.676  1.00  0.00     0.696 A 
HETATM    2  N3  UNL     1      -1.799  31.322 -18.288  1.00  0.00    -0.140 N 
ATOM      3  H3  UNL     1      -2.244  30.409 -18.199  1.00  0.00     0.189 HD
HETATM    4  C8  UNL     1      -2.423  32.266 -19.013  1.00  0.00     0.352 A 
HETATM    5  O1  UNL     1      -3.525  32.103 -19.595  1.00  0.00    -0.246 OA
HETATM    6  N4  UNL     1      -1.797  33.461 -19.103  1.00  0.00    -0.140 N 
ATOM      7  H4  UNL     1      -2.236  34.206 -19.644  1.00  0.00     0.189 HD
HETATM    8  C9  UNL     1      -0.620  33.700 -18.505  1.00  0.00     0.696 A 
HETATM    9  N9  UNL     1      -0.025  32.729 -17.788  1.00  0.00    -0.022 N 
ATOM     10  H9  UNL     1       0.870  32.903 -17.332  1.00  0.00     0.203 HD
ENDROOT
BRANCH   1  11
HETATM   11  N2  UNL     1      -0.013  30.636 -16.982  1.00  0.00    -0.225 N 
ATOM     12  H2  UNL     1       0.495  30.947 -16.154  1.00  0.00     0.177 HD
BRANCH  11  13
HETATM   13  C6  UNL     1       0.003  29.225 -17.298  1.00  0.00     0.138 C 
BRANCH  13  14
HETATM   14  C5  UNL     1      -0.423  28.373 -16.141  1.00  0.00     0.020 C 
BRANCH  14  15
HETATM   15  C4  UNL     1      -1.863  28.461 -15.801  1.00  0.00     0.002 C 
BRANCH  15  16
HETATM   16  C3  UNL     1      -2.163  28.591 -14.343  1.00  0.00     0.002 C 
BRANCH  16  17
HETATM   17  C2  UNL     1      -2.204  30.038 -13.965  1.00  0.00     0.027 C 
BRANCH  17  18
HETATM   18  C1  UNL     1      -3.414  30.374 -13.107  1.00  0.00     0.229 C 
BRANCH  18  19
HETATM   19  N1  UNL     1      -3.702  31.780 -13.219  1.00  0.00    -0.079 N 
ATOM     20  H13 UNL     1      -2.938  32.298 -13.653  1.00  0.00     0.274 HD
ATOM     21  H12 UNL     1      -4.422  31.973 -13.915  1.00  0.00     0.274 HD
ATOM     22  H11 UNL     1      -3.945  32.149 -12.299  1.00  0.00     0.274 HD
ENDBRANCH  18  19
ENDBRANCH  17  18
ENDBRANCH  16  17
ENDBRANCH  15  16
ENDBRANCH  14  15
ENDBRANCH  13  14
ENDBRANCH  11  13
ENDBRANCH   1  11
BRANCH   8  23
HETATM   23  N5  UNL     1      -0.046  34.849 -18.608  1.00  0.00    -0.224 N 
ATOM     24  H5  UNL     1      -0.537  35.676 -18.268  1.00  0.00     0.177 HD
BRANCH  23  25
HETATM   25  C10 UNL     1       1.277  35.009 -19.190  1.00  0.00     0.157 C 
BRANCH  25  26
HETATM   26  C11 UNL     1       1.324  34.338 -20.550  1.00  0.00     0.142 C 
BRANCH  26  27
HETATM   27  N6  UNL     1       0.678  35.211 -21.505  1.00  0.00    -0.365 N 
HETATM   28  C12 UNL     1      -0.324  34.782 -22.181  1.00  0.00     0.197 C 
HETATM   29  N7  UNL     1      -0.785  33.455 -21.980  1.00  0.00    -0.067 NA
HETATM   30  N8  UNL     1      -0.978  35.626 -23.130  1.00  0.00    -0.067 NA
ATOM     31  H6  UNL     1       1.018  36.163 -21.640  1.00  0.00     0.161 HD
ENDBRANCH  26  27
ENDBRANCH  25  26
ENDBRANCH  23  25
ENDBRANCH   8  23
TORSDOF 12
ENDMDL
MODEL 2
REMARK VINA RESULT: -6.862709635      1.509      2.938
REMARK  12 active torsions:
REMARK  status: ('A' for Active; 'I' for Inactive)
REMARK    1  A    between atoms: N1_1  and  C1_5 
REMARK    2  A    between atoms: C1_5  and  C2_6 
REMARK    3  A    between atoms: C2_6  and  C3_7 
REMARK    4  A    between atoms: C3_7  and  C4_8 
REMARK    5  A    between atoms: C4_8  and  C5_9 
REMARK    6  A    between atoms: C5_9  and  C6_10 
REMARK    7  A    between atoms: C6_10  and  N2_11 
REMARK    8  A    between atoms: N2_11  and  C7_13 
REMARK    9  A    between atoms: C9_20  and  N5_21 
REMARK   10  A    between atoms: N5_21  and  C10_23 
REMARK   11  A    between atoms: C10_23  and  C11_24 
REMARK   12  A    between atoms: C11_24  and  N6_25 
ROOT
HETATM    1  C7  UNL     1      -2.668  30.799 -16.797  1.00  0.00     0.696 A 
HETATM    2  N3  UNL     1      -3.611  30.591 -17.723  1.00  0.00    -0.140 N 
ATOM      3  H3  UNL     1      -4.466  30.110 -17.442  1.00  0.00     0.189 HD
HETATM    4  C8  UNL     1      -3.493  30.982 -19.004  1.00  0.00     0.352 A 
HETATM    5  O1  UNL     1      -4.367  30.796 -19.887  1.00  0.00    -0.246 OA
HETATM    6  N4  UNL     1      -2.345  31.615 -19.331  1.00  0.00    -0.140 N 
ATOM      7  H4  UNL     1      -2.213  31.929 -20.292  1.00  0.00     0.189 HD
HETATM    8  C9  UNL     1      -1.373  31.845 -18.435  1.00  0.00     0.696 A 
HETATM    9  N9  UNL     1      -1.528  31.438 -17.162  1.00  0.00    -0.022 N 
ATOM     10  H9  UNL     1      -0.793  31.609 -16.475  1.00  0.00     0.203 HD
ENDROOT
BRANCH   1  11
HETATM   11  N2  UNL     1      -2.758  30.437 -15.576  1.00  0.00    -0.225 N 
ATOM     12  H2  UNL     1      -3.623  30.645 -15.078  1.00  0.00     0.177 HD
BRANCH  11  13
HETATM   13  C6  UNL     1      -1.709  29.750 -14.856  1.00  0.00     0.138 C 
BRANCH  13  14
HETATM   14  C5  UNL     1      -1.627  28.296 -15.208  1.00  0.00     0.020 C 
BRANCH  14  15
HETATM   15  C4  UNL     1      -0.282  27.834 -15.627  1.00  0.00     0.002 C 
BRANCH  15  16
HETATM   16  C3  UNL     1       0.108  28.202 -17.022  1.00  0.00     0.002 C 
BRANCH  16  17
HETATM   17  C2  UNL     1       1.579  28.470 -17.079  1.00  0.00     0.027 C 
BRANCH  17  18
HETATM   18  C1  UNL     1       2.054  29.314 -15.906  1.00  0.00     0.229 C 
BRANCH  18  19
HETATM   19  N1  UNL     1       1.659  30.682 -16.110  1.00  0.00    -0.079 N 
ATOM     20  H13 UNL     1       1.777  30.978 -17.079  1.00  0.00     0.274 HD
ATOM     21  H12 UNL     1       0.649  30.806 -16.043  1.00  0.00     0.274 HD
ATOM     22  H11 UNL     1       2.166  31.282 -15.459  1.00  0.00     0.274 HD
ENDBRANCH  18  19
ENDBRANCH  17  18
ENDBRANCH  16  17
ENDBRANCH  15  16
ENDBRANCH  14  15
ENDBRANCH  13  14
ENDBRANCH  11  13
ENDBRANCH   1  11
BRANCH   8  23
HETATM   23  N5  UNL     1      -0.289  32.453 -18.775  1.00  0.00    -0.224 N 
ATOM     24  H5  UNL     1       0.415  31.942 -19.309  1.00  0.00     0.177 HD
BRANCH  23  25
HETATM   25  C10 UNL     1      -0.031  33.840 -18.424  1.00  0.00     0.157 C 
BRANCH  25  26
HETATM   26  C11 UNL     1       0.443  34.600 -19.649  1.00  0.00     0.142 C 
BRANCH  26  27
HETATM   27  N6  UNL     1      -0.459  34.304 -20.739  1.00  0.00    -0.365 N 
HETATM   28  C12 UNL     1      -0.270  34.845 -21.886  1.00  0.00     0.197 C 
HETATM   29  N7  UNL     1       0.827  35.728 -22.067  1.00  0.00    -0.067 NA
HETATM   30  N8  UNL     1      -1.148  34.567 -22.978  1.00  0.00    -0.067 NA
ATOM     31  H6  UNL     1      -1.243  33.666 -20.596  1.00  0.00     0.161 HD
ENDBRANCH  26  27
ENDBRANCH  25  26
ENDBRANCH  23  25
ENDBRANCH   8  23
TORSDOF 12
ENDMDL
MODEL 3
REMARK VINA RESULT: -6.860820842      1.425      1.870
REMARK  12 active torsions:
REMARK  status: ('A' for Active; 'I' for Inactive)
REMARK    1  A    between atoms: N1_1  and  C1_5 
REMARK    2  A    between atoms: C1_5  and  C2_6 
REMARK    3  A    between atoms: C2_6  and  C3_7 
REMARK    4  A    between atoms: C3_7  and  C4_8 
REMARK    5  A    between atoms: C4_8  and  C5_9 
REMARK    6  A    between atoms: C5_9  and  C6_10 
REMARK    7  A    between atoms: C6_10  and  N2_11 
REMARK    8  A    between atoms: N2_11  and  C7_13 
REMARK    9  A    between atoms: C9_20  and  N5_21 
REMARK   10  A    between atoms: N5_21  and  C10_23 
REMARK   11  A    between atoms: C10_23  and  C11_24 
REMARK   12  A    between atoms: C11_24  and  N6_25 
ROOT
HETATM    1  C7  UNL     1      -0.554  31.444 -17.684  1.00  0.00     0.696 A 
HETATM    2  N3  UNL     1      -1.679  31.042 -18.287  1.00  0.00    -0.140 N 
ATOM      3  H3  UNL     1      -1.983  30.078 -18.149  1.00  0.00     0.189 HD
HETATM    4  C8  UNL     1      -2.429  31.841 -19.066  1.00  0.00     0.352 A 
HETATM    5  O1  UNL     1      -3.487  31.482 -19.641  1.00  0.00    -0.246 OA
HETATM    6  N4  UNL     1      -1.988  33.108 -19.221  1.00  0.00    -0.140 N 
ATOM      7  H4  UNL     1      -2.526  33.749 -19.804  1.00  0.00     0.189 HD
HETATM    8  C9  UNL     1      -0.866  33.554 -18.634  1.00  0.00     0.696 A 
HETATM    9  N9  UNL     1      -0.141  32.724 -17.862  1.00  0.00    -0.022 N 
ATOM     10  H9  UNL     1       0.713  33.055 -17.414  1.00  0.00     0.203 HD
ENDROOT
BRANCH   1  11
HETATM   11  N2  UNL     1       0.175  30.704 -16.940  1.00  0.00    -0.225 N 
ATOM     12  H2  UNL     1       0.718  31.153 -16.204  1.00  0.00     0.177 HD
BRANCH  11  13
HETATM   13  C6  UNL     1       0.276  29.268 -17.078  1.00  0.00     0.138 C 
BRANCH  13  14
HETATM   14  C5  UNL     1      -0.193  28.539 -15.856  1.00  0.00     0.020 C 
BRANCH  14  15
HETATM   15  C4  UNL     1      -1.593  28.055 -15.922  1.00  0.00     0.002 C 
BRANCH  15  16
HETATM   16  C3  UNL     1      -2.618  29.008 -15.395  1.00  0.00     0.002 C 
BRANCH  16  17
HETATM   17  C2  UNL     1      -3.822  28.990 -16.282  1.00  0.00     0.027 C 
BRANCH  17  18
HETATM   18  C1  UNL     1      -3.693  27.976 -17.408  1.00  0.00     0.229 C 
BRANCH  18  19
HETATM   19  N1  UNL     1      -4.124  28.576 -18.643  1.00  0.00    -0.079 N 
ATOM     20  H13 UNL     1      -5.056  28.985 -18.569  1.00  0.00     0.274 HD
ATOM     21  H12 UNL     1      -3.608  29.430 -18.858  1.00  0.00     0.274 HD
ATOM     22  H11 UNL     1      -4.062  27.888 -19.393  1.00  0.00     0.274 HD
ENDBRANCH  18  19
ENDBRANCH  17  18
ENDBRANCH  16  17
ENDBRANCH  15  16
ENDBRANCH  14  15
ENDBRANCH  13  14
ENDBRANCH  11  13
ENDBRANCH   1  11
BRANCH   8  23
HETATM   23  N5  UNL     1      -0.469  34.769 -18.799  1.00  0.00    -0.224 N 
ATOM     24  H5  UNL     1      -1.142  35.526 -18.682  1.00  0.00     0.177 HD
BRANCH  23  25
HETATM   25  C10 UNL     1       0.904  35.098 -19.148  1.00  0.00     0.157 C 
BRANCH  25  26
HETATM   26  C11 UNL     1       1.269  34.448 -20.469  1.00  0.00     0.142 C 
BRANCH  26  27
HETATM   27  N6  UNL     1       0.774  35.288 -21.536  1.00  0.00    -0.365 N 
HETATM   28  C12 UNL     1      -0.214  34.892 -22.252  1.00  0.00     0.197 C 
HETATM   29  N7  UNL     1      -0.807  33.631 -21.983  1.00  0.00    -0.067 NA
HETATM   30  N8  UNL     1      -0.719  35.705 -23.311  1.00  0.00    -0.067 NA
ATOM     31  H6  UNL     1       1.209  36.193 -21.718  1.00  0.00     0.161 HD
ENDBRANCH  26  27
ENDBRANCH  25  26
ENDBRANCH  23  25
ENDBRANCH   8  23
TORSDOF 12
ENDMDL
MODEL 4
REMARK VINA RESULT: -6.814716674      1.341      1.984
REMARK  12 active torsions:
REMARK  status: ('A' for Active; 'I' for Inactive)
REMARK    1  A    between atoms: N1_1  and  C1_5 
REMARK    2  A    between atoms: C1_5  and  C2_6 
REMARK    3  A    between atoms: C2_6  and  C3_7 
REMARK    4  A    between atoms: C3_7  and  C4_8 
REMARK    5  A    between atoms: C4_8  and  C5_9 
REMARK    6  A    between atoms: C5_9  and  C6_10 
REMARK    7  A    between atoms: C6_10  and  N2_11 
REMARK    8  A    between atoms: N2_11  and  C7_13 
REMARK    9  A    between atoms: C9_20  and  N5_21 
REMARK   10  A    between atoms: N5_21  and  C10_23 
REMARK   11  A    between atoms: C10_23  and  C11_24 
REMARK   12  A    between atoms: C11_24  and  N6_25 
ROOT
HETATM    1  C7  UNL     1      -1.932  30.336 -17.284  1.00  0.00     0.696 A 
HETATM    2  N3  UNL     1      -2.914  30.093 -18.160  1.00  0.00    -0.140 N 
ATOM      3  H3  UNL     1      -3.349  29.170 -18.153  1.00  0.00     0.189 HD
HETATM    4  C8  UNL     1      -3.359  31.000 -19.047  1.00  0.00     0.352 A 
HETATM    5  O1  UNL     1      -4.279  30.791 -19.877  1.00  0.00    -0.246 OA
HETATM    6  N4  UNL     1      -2.754  32.208 -19.019  1.00  0.00    -0.140 N 
ATOM      7  H4  UNL     1      -3.060  32.926 -19.675  1.00  0.00     0.189 HD
HETATM    8  C9  UNL     1      -1.766  32.495 -18.158  1.00  0.00     0.696 A 
HETATM    9  N9  UNL     1      -1.348  31.561 -17.285  1.00  0.00    -0.022 N 
ATOM     10  H9  UNL     1      -0.596  31.771 -16.628  1.00  0.00     0.203 HD
ENDROOT
BRANCH   1  11
HETATM   11  N2  UNL     1      -1.494  29.491 -16.433  1.00  0.00    -0.225 N 
ATOM     12  H2  UNL     1      -0.903  28.732 -16.773  1.00  0.00     0.177 HD
BRANCH  11  13
HETATM   13  C6  UNL     1      -1.783  29.544 -15.017  1.00  0.00     0.138 C 
BRANCH  13  14
HETATM   14  C5  UNL     1      -2.863  28.587 -14.615  1.00  0.00     0.020 C 
BRANCH  14  15
HETATM   15  C4  UNL     1      -2.940  28.312 -13.160  1.00  0.00     0.002 C 
BRANCH  15  16
HETATM   16  C3  UNL     1      -3.038  29.524 -12.291  1.00  0.00     0.002 C 
BRANCH  16  17
HETATM   17  C2  UNL     1      -4.476  29.817 -11.999  1.00  0.00     0.027 C 
BRANCH  17  18
HETATM   18  C1  UNL     1      -4.956  31.084 -12.690  1.00  0.00     0.229 C 
BRANCH  18  19
HETATM   19  N1  UNL     1      -3.818  31.851 -13.126  1.00  0.00    -0.079 N 
ATOM     20  H13 UNL     1      -3.889  32.832 -12.858  1.00  0.00     0.274 HD
ATOM     21  H12 UNL     1      -2.973  31.618 -12.604  1.00  0.00     0.274 HD
ATOM     22  H11 UNL     1      -3.696  31.732 -14.132  1.00  0.00     0.274 HD
ENDBRANCH  18  19
ENDBRANCH  17  18
ENDBRANCH  16  17
ENDBRANCH  15  16
ENDBRANCH  14  15
ENDBRANCH  13  14
ENDBRANCH  11  13
ENDBRANCH   1  11
BRANCH   8  23
HETATM   23  N5  UNL     1      -1.207  33.657 -18.153  1.00  0.00    -0.224 N 
ATOM     24  H5  UNL     1      -1.779  34.477 -17.951  1.00  0.00     0.177 HD
BRANCH  23  25
HETATM   25  C10 UNL     1       0.209  33.840 -18.426  1.00  0.00     0.157 C 
BRANCH  25  26
HETATM   26  C11 UNL     1       0.389  34.822 -19.568  1.00  0.00     0.142 C 
BRANCH  26  27
HETATM   27  N6  UNL     1      -0.471  34.410 -20.655  1.00  0.00    -0.365 N 
HETATM   28  C12 UNL     1      -0.255  34.853 -21.840  1.00  0.00     0.197 C 
HETATM   29  N7  UNL     1       0.829  35.740 -22.065  1.00  0.00    -0.067 NA
HETATM   30  N8  UNL     1      -1.091  34.460 -22.929  1.00  0.00    -0.067 NA
ATOM     31  H6  UNL     1      -1.247  33.771 -20.480  1.00  0.00     0.161 HD
ENDBRANCH  26  27
ENDBRANCH  25  26
ENDBRANCH  23  25
ENDBRANCH   8  23
TORSDOF 12
ENDMDL
MODEL 5
REMARK VINA RESULT: -6.751375903      1.521      1.597
REMARK  12 active torsions:
REMARK  status: ('A' for Active; 'I' for Inactive)
REMARK    1  A    between atoms: N1_1  and  C1_5 
REMARK    2  A    between atoms: C1_5  and  C2_6 
REMARK    3  A    between atoms: C2_6  and  C3_7 
REMARK    4  A    between atoms: C3_7  and  C4_8 
REMARK    5  A    between atoms: C4_8  and  C5_9 
REMARK    6  A    between atoms: C5_9  and  C6_10 
REMARK    7  A    between atoms: C6_10  and  N2_11 
REMARK    8  A    between atoms: N2_11  and  C7_13 
REMARK    9  A    between atoms: C9_20  and  N5_21 
REMARK   10  A    between atoms: N5_21  and  C10_23 
REMARK   11  A    between atoms: C10_23  and  C11_24 
REMARK   12  A    between atoms: C11_24  and  N6_25 
ROOT
HETATM    1  C7  UNL     1      -0.685  31.527 -17.703  1.00  0.00     0.696 A 
HETATM    2  N3  UNL     1      -1.883  31.420 -18.291  1.00  0.00    -0.140 N 
ATOM      3  H3  UNL     1      -2.379  30.531 -18.219  1.00  0.00     0.189 HD
HETATM    4  C8  UNL     1      -2.468  32.421 -18.971  1.00  0.00     0.352 A 
HETATM    5  O1  UNL     1      -3.591  32.340 -19.529  1.00  0.00    -0.246 OA
HETATM    6  N4  UNL     1      -1.776  33.580 -19.039  1.00  0.00    -0.140 N 
ATOM      7  H4  UNL     1      -2.183  34.366 -19.546  1.00  0.00     0.189 HD
HETATM    8  C9  UNL     1      -0.573  33.731 -18.465  1.00  0.00     0.696 A 
HETATM    9  N9  UNL     1      -0.020  32.705 -17.793  1.00  0.00    -0.022 N 
ATOM     10  H9  UNL     1       0.895  32.813 -17.354  1.00  0.00     0.203 HD
ENDROOT
BRANCH   1  11
HETATM   11  N2  UNL     1      -0.110  30.590 -17.053  1.00  0.00    -0.225 N 
ATOM     12  H2  UNL     1       0.881  30.696 -16.837  1.00  0.00     0.177 HD
BRANCH  11  13
HETATM   13  C6  UNL     1      -0.778  29.388 -16.603  1.00  0.00     0.138 C 
BRANCH  13  14
HETATM   14  C5  UNL     1      -1.487  29.579 -15.297  1.00  0.00     0.020 C 
BRANCH  14  15
HETATM   15  C4  UNL     1      -2.957  29.396 -15.356  1.00  0.00     0.002 C 
BRANCH  15  16
HETATM   16  C3  UNL     1      -3.759  30.627 -15.081  1.00  0.00     0.002 C 
BRANCH  16  17
HETATM   17  C2  UNL     1      -4.671  30.900 -16.235  1.00  0.00     0.027 C 
BRANCH  17  18
HETATM   18  C1  UNL     1      -5.450  32.194 -16.059  1.00  0.00     0.229 C 
BRANCH  18  19
HETATM   19  N1  UNL     1      -4.635  33.303 -16.482  1.00  0.00    -0.079 N 
ATOM     20  H13 UNL     1      -3.639  33.108 -16.387  1.00  0.00     0.274 HD
ATOM     21  H12 UNL     1      -4.660  33.437 -17.493  1.00  0.00     0.274 HD
ATOM     22  H11 UNL     1      -4.916  34.142 -15.974  1.00  0.00     0.274 HD
ENDBRANCH  18  19
ENDBRANCH  17  18
ENDBRANCH  16  17
ENDBRANCH  15  16
ENDBRANCH  14  15
ENDBRANCH  13  14
ENDBRANCH  11  13
ENDBRANCH   1  11
BRANCH   8  23
HETATM   23  N5  UNL     1       0.064  34.849 -18.546  1.00  0.00    -0.224 N 
ATOM     24  H5  UNL     1      -0.358  35.686 -18.144  1.00  0.00     0.177 HD
BRANCH  23  25
HETATM   25  C10 UNL     1       1.363  34.958 -19.191  1.00  0.00     0.157 C 
BRANCH  25  26
HETATM   26  C11 UNL     1       1.324  34.272 -20.543  1.00  0.00     0.142 C 
BRANCH  26  27
HETATM   27  N6  UNL     1       0.699  35.171 -21.487  1.00  0.00    -0.365 N 
HETATM   28  C12 UNL     1      -0.313  34.774 -22.168  1.00  0.00     0.197 C 
HETATM   29  N7  UNL     1      -0.805  33.456 -21.982  1.00  0.00    -0.067 NA
HETATM   30  N8  UNL     1      -0.948  35.645 -23.106  1.00  0.00    -0.067 NA
ATOM     31  H6  UNL     1       1.061  36.116 -21.610  1.00  0.00     0.161 HD
ENDBRANCH  26  27
ENDBRANCH  25  26
ENDBRANCH  23  25
ENDBRANCH   8  23
TORSDOF 12
ENDMDL
