MODEL 1
REMARK VINA RESULT: -5.949968877      0.000      0.000
REMARK  0 active torsions:
REMARK  status: ('A' for Active; 'I' for Inactive)
ROOT
HETATM    1  C1  UNL     1      34.572  -6.832 -31.349  1.00  0.00     0.019 C 
HETATM    2  C2  UNL     1      35.456  -7.630 -31.162  1.00  0.00    -0.060 C 
HETATM    3  C3  UNL     1      36.510  -8.599 -30.915  1.00  0.00     0.086 A 
HETATM    4  C4  UNL     1      37.842  -8.235 -30.894  1.00  0.00     0.040 A 
HETATM    5  C5  UNL     1      38.830  -9.171 -30.658  1.00  0.00     0.016 A 
HETATM    6  C6  UNL     1      38.512 -10.498 -30.437  1.00  0.00    -0.009 A 
HETATM    7  C7  UNL     1      39.486 -11.456 -30.197  1.00  0.00     0.013 A 
HETATM    8  C8  UNL     1      39.130 -12.771 -29.981  1.00  0.00     0.001 A 
HETATM    9  C9  UNL     1      37.798 -13.130 -30.004  1.00  0.00     0.002 A 
HETATM   10  C10 UNL     1      36.841 -12.155 -30.246  1.00  0.00     0.030 A 
HETATM   11  C11 UNL     1      37.176 -10.828 -30.465  1.00  0.00     0.043 A 
HETATM   12  N1  UNL     1      36.227  -9.893 -30.698  1.00  0.00    -0.349 N 
ATOM     13  H1  UNL     1      35.251 -10.184 -30.710  1.00  0.00     0.167 HD
ENDROOT
TORSDOF 0
ENDMDL
MODEL 2
REMARK VINA RESULT: -5.720035919      1.057      2.085
REMARK  0 active torsions:
REMARK  status: ('A' for Active; 'I' for Inactive)
ROOT
HETATM    1  C1  UNL     1      34.739  -6.762 -31.408  1.00  0.00     0.019 C 
HETATM    2  C2  UNL     1      35.396  -7.747 -31.177  1.00  0.00    -0.060 C 
HETATM    3  C3  UNL     1      36.206  -8.923 -30.912  1.00  0.00     0.086 A 
HETATM    4  C4  UNL     1      35.765 -10.194 -31.218  1.00  0.00     0.040 A 
HETATM    5  C5  UNL     1      36.550 -11.301 -30.957  1.00  0.00     0.016 A 
HETATM    6  C6  UNL     1      37.800 -11.164 -30.382  1.00  0.00    -0.009 A 
HETATM    7  C7  UNL     1      38.606 -12.259 -30.111  1.00  0.00     0.013 A 
HETATM    8  C8  UNL     1      39.848 -12.083 -29.536  1.00  0.00     0.001 A 
HETATM    9  C9  UNL     1      40.285 -10.810 -29.232  1.00  0.00     0.002 A 
HETATM   10  C10 UNL     1      39.461  -9.730 -29.512  1.00  0.00     0.030 A 
HETATM   11  C11 UNL     1      38.211  -9.883 -30.089  1.00  0.00     0.043 A 
HETATM   12  N1  UNL     1      37.423  -8.816 -30.354  1.00  0.00    -0.349 N 
ATOM     13  H1  UNL     1      37.769  -7.887 -30.119  1.00  0.00     0.167 HD
ENDROOT
TORSDOF 0
ENDMDL
MODEL 3
REMARK VINA RESULT: -4.807943854      1.134      1.792
REMARK  0 active torsions:
REMARK  status: ('A' for Active; 'I' for Inactive)
ROOT
HETATM    1  C1  UNL     1      34.863  -6.614 -31.708  1.00  0.00     0.019 C 
HETATM    2  C2  UNL     1      35.393  -7.567 -31.192  1.00  0.00    -0.060 C 
HETATM    3  C3  UNL     1      36.027  -8.728 -30.591  1.00  0.00     0.086 A 
HETATM    4  C4  UNL     1      35.642  -9.208 -29.355  1.00  0.00     0.040 A 
HETATM    5  C5  UNL     1      36.257 -10.314 -28.800  1.00  0.00     0.016 A 
HETATM    6  C6  UNL     1      37.275 -10.969 -29.467  1.00  0.00    -0.009 A 
HETATM    7  C7  UNL     1      37.907 -12.081 -28.931  1.00  0.00     0.013 A 
HETATM    8  C8  UNL     1      38.920 -12.708 -29.627  1.00  0.00     0.001 A 
HETATM    9  C9  UNL     1      39.301 -12.225 -30.861  1.00  0.00     0.002 A 
HETATM   10  C10 UNL     1      38.655 -11.111 -31.378  1.00  0.00     0.030 A 
HETATM   11  C11 UNL     1      37.635 -10.466 -30.697  1.00  0.00     0.043 A 
HETATM   12  N1  UNL     1      37.017  -9.381 -31.219  1.00  0.00    -0.349 N 
ATOM     13  H1  UNL     1      37.318  -9.044 -32.132  1.00  0.00     0.167 HD
ENDROOT
TORSDOF 0
ENDMDL
MODEL 4
REMARK VINA RESULT: -4.747532042      1.364      4.868
REMARK  0 active torsions:
REMARK  status: ('A' for Active; 'I' for Inactive)
ROOT
HETATM    1  C1  UNL     1      39.423 -13.413 -30.261  1.00  0.00     0.019 C 
HETATM    2  C2  UNL     1      38.651 -12.506 -30.075  1.00  0.00    -0.060 C 
HETATM    3  C3  UNL     1      37.738 -11.396 -29.861  1.00  0.00     0.086 A 
HETATM    4  C4  UNL     1      37.206 -11.122 -28.617  1.00  0.00     0.040 A 
HETATM    5  C5  UNL     1      36.338 -10.063 -28.433  1.00  0.00     0.016 A 
HETATM    6  C6  UNL     1      35.979  -9.249 -29.491  1.00  0.00    -0.009 A 
HETATM    7  C7  UNL     1      35.110  -8.179 -29.332  1.00  0.00     0.013 A 
HETATM    8  C8  UNL     1      34.775  -7.389 -30.412  1.00  0.00     0.001 A 
HETATM    9  C9  UNL     1      35.309  -7.667 -31.653  1.00  0.00     0.002 A 
HETATM   10  C10 UNL     1      36.175  -8.742 -31.789  1.00  0.00     0.030 A 
HETATM   11  C11 UNL     1      36.526  -9.548 -30.718  1.00  0.00     0.043 A 
HETATM   12  N1  UNL     1      37.374 -10.592 -30.872  1.00  0.00    -0.349 N 
ATOM     13  H1  UNL     1      37.754 -10.776 -31.800  1.00  0.00     0.167 HD
ENDROOT
TORSDOF 0
ENDMDL
MODEL 5
REMARK VINA RESULT: -4.573606969      1.609      3.247
REMARK  0 active torsions:
REMARK  status: ('A' for Active; 'I' for Inactive)
ROOT
HETATM    1  C1  UNL     1      40.773  -7.335 -29.519  1.00  0.00     0.019 C 
HETATM    2  C2  UNL     1      39.762  -7.940 -29.774  1.00  0.00    -0.060 C 
HETATM    3  C3  UNL     1      38.558  -8.688 -30.091  1.00  0.00     0.086 A 
HETATM    4  C4  UNL     1      37.525  -8.130 -30.816  1.00  0.00     0.040 A 
HETATM    5  C5  UNL     1      36.387  -8.857 -31.107  1.00  0.00     0.016 A 
HETATM    6  C6  UNL     1      36.252 -10.164 -30.679  1.00  0.00    -0.009 A 
HETATM    7  C7  UNL     1      35.120 -10.915 -30.960  1.00  0.00     0.013 A 
HETATM    8  C8  UNL     1      35.021 -12.218 -30.515  1.00  0.00     0.001 A 
HETATM    9  C9  UNL     1      36.056 -12.771 -29.790  1.00  0.00     0.002 A 
HETATM   10  C10 UNL     1      37.178 -12.002 -29.522  1.00  0.00     0.030 A 
HETATM   11  C11 UNL     1      37.299 -10.692 -29.959  1.00  0.00     0.043 A 
HETATM   12  N1  UNL     1      38.403  -9.959 -29.687  1.00  0.00    -0.349 N 
ATOM     13  H1  UNL     1      39.153 -10.392 -29.149  1.00  0.00     0.167 HD
ENDROOT
TORSDOF 0
ENDMDL
