MODEL 1
REMARK VINA RESULT: -8.064756156      0.000      0.000
REMARK  0 active torsions:
REMARK  status: ('A' for Active; 'I' for Inactive)
ROOT
HETATM    1  N1  UNL     1      38.280  -7.421 -27.583  1.00  0.00    -0.191 NA
HETATM    2  C1  UNL     1      37.728  -7.906 -28.479  1.00  0.00     0.100 C 
HETATM    3  C2  UNL     1      37.029  -8.531 -29.589  1.00  0.00     0.055 A 
HETATM    4  C3  UNL     1      36.644  -7.817 -30.696  1.00  0.00     0.023 A 
HETATM    5  C4  UNL     1      35.977  -8.423 -31.751  1.00  0.00     0.002 A 
HETATM    6  C5  UNL     1      35.680  -9.769 -31.718  1.00  0.00     0.012 A 
HETATM    7  C6  UNL     1      36.057 -10.505 -30.618  1.00  0.00    -0.025 A 
HETATM    8  C7  UNL     1      35.760 -11.853 -30.583  1.00  0.00     0.012 A 
HETATM    9  C8  UNL     1      36.150 -12.565 -29.468  1.00  0.00     0.001 A 
HETATM   10  C9  UNL     1      36.819 -11.951 -28.410  1.00  0.00     0.001 A 
HETATM   11  C10 UNL     1      37.104 -10.611 -28.467  1.00  0.00     0.014 A 
HETATM   12  C11 UNL     1      36.726  -9.885 -29.566  1.00  0.00    -0.005 A 
ENDROOT
TORSDOF 0
ENDMDL
MODEL 2
REMARK VINA RESULT: -7.665242095      1.751      3.546
REMARK  0 active torsions:
REMARK  status: ('A' for Active; 'I' for Inactive)
ROOT
HETATM    1  N1  UNL     1      40.688 -10.677 -29.207  1.00  0.00    -0.191 NA
HETATM    2  C1  UNL     1      39.579 -10.870 -29.479  1.00  0.00     0.100 C 
HETATM    3  C2  UNL     1      38.187 -11.094 -29.832  1.00  0.00     0.055 A 
HETATM    4  C3  UNL     1      37.606 -12.333 -29.735  1.00  0.00     0.023 A 
HETATM    5  C4  UNL     1      36.276 -12.537 -30.074  1.00  0.00     0.002 A 
HETATM    6  C5  UNL     1      35.494 -11.492 -30.521  1.00  0.00     0.012 A 
HETATM    7  C6  UNL     1      36.056 -10.240 -30.625  1.00  0.00    -0.025 A 
HETATM    8  C7  UNL     1      35.274  -9.194 -31.073  1.00  0.00     0.012 A 
HETATM    9  C8  UNL     1      35.864  -7.950 -31.168  1.00  0.00     0.001 A 
HETATM   10  C9  UNL     1      37.202  -7.751 -30.827  1.00  0.00     0.001 A 
HETATM   11  C10 UNL     1      37.958  -8.806 -30.384  1.00  0.00     0.014 A 
HETATM   12  C11 UNL     1      37.391 -10.049 -30.282  1.00  0.00    -0.005 A 
ENDROOT
TORSDOF 0
ENDMDL
MODEL 3
REMARK VINA RESULT: -7.627603145      2.117      3.514
REMARK  0 active torsions:
REMARK  status: ('A' for Active; 'I' for Inactive)
ROOT
HETATM    1  N1  UNL     1      35.250  -7.415 -31.416  1.00  0.00    -0.191 NA
HETATM    2  C1  UNL     1      35.676  -8.436 -31.074  1.00  0.00     0.100 C 
HETATM    3  C2  UNL     1      36.226  -9.707 -30.634  1.00  0.00     0.055 A 
HETATM    4  C3  UNL     1      35.497 -10.868 -30.685  1.00  0.00     0.023 A 
HETATM    5  C4  UNL     1      36.031 -12.077 -30.262  1.00  0.00     0.002 A 
HETATM    6  C5  UNL     1      37.320 -12.147 -29.775  1.00  0.00     0.012 A 
HETATM    7  C6  UNL     1      38.069 -10.994 -29.716  1.00  0.00    -0.025 A 
HETATM    8  C7  UNL     1      39.360 -11.063 -29.228  1.00  0.00     0.012 A 
HETATM    9  C8  UNL     1      40.088  -9.892 -29.179  1.00  0.00     0.001 A 
HETATM   10  C9  UNL     1      39.546  -8.679 -29.605  1.00  0.00     0.001 A 
HETATM   11  C10 UNL     1      38.262  -8.636 -30.086  1.00  0.00     0.014 A 
HETATM   12  C11 UNL     1      37.522  -9.788 -30.143  1.00  0.00    -0.005 A 
ENDROOT
TORSDOF 0
ENDMDL
MODEL 4
REMARK VINA RESULT: -7.581224740      1.789      2.675
REMARK  0 active torsions:
REMARK  status: ('A' for Active; 'I' for Inactive)
ROOT
HETATM    1  N1  UNL     1      38.282  -7.431 -27.885  1.00  0.00    -0.191 NA
HETATM    2  C1  UNL     1      38.418  -8.469 -28.381  1.00  0.00     0.100 C 
HETATM    3  C2  UNL     1      38.567  -9.770 -29.011  1.00  0.00     0.055 A 
HETATM    4  C3  UNL     1      39.801 -10.311 -29.271  1.00  0.00     0.023 A 
HETATM    5  C4  UNL     1      39.933 -11.554 -29.874  1.00  0.00     0.002 A 
HETATM    6  C5  UNL     1      38.820 -12.287 -30.230  1.00  0.00     0.012 A 
HETATM    7  C6  UNL     1      37.572 -11.764 -29.978  1.00  0.00    -0.025 A 
HETATM    8  C7  UNL     1      36.458 -12.496 -30.335  1.00  0.00     0.012 A 
HETATM    9  C8  UNL     1      35.220 -11.947 -30.071  1.00  0.00     0.001 A 
HETATM   10  C9  UNL     1      35.093 -10.697 -29.466  1.00  0.00     0.001 A 
HETATM   11  C10 UNL     1      36.214  -9.988 -29.120  1.00  0.00     0.014 A 
HETATM   12  C11 UNL     1      37.453 -10.516 -29.374  1.00  0.00    -0.005 A 
ENDROOT
TORSDOF 0
ENDMDL
MODEL 5
REMARK VINA RESULT: -7.495104036      1.834      2.819
REMARK  0 active torsions:
REMARK  status: ('A' for Active; 'I' for Inactive)
ROOT
HETATM    1  N1  UNL     1      35.365  -7.169 -31.443  1.00  0.00    -0.191 NA
HETATM    2  C1  UNL     1      36.178  -7.830 -30.950  1.00  0.00     0.100 C 
HETATM    3  C2  UNL     1      37.190  -8.677 -30.341  1.00  0.00     0.055 A 
HETATM    4  C3  UNL     1      38.393  -8.175 -29.914  1.00  0.00     0.023 A 
HETATM    5  C4  UNL     1      39.352  -8.993 -29.334  1.00  0.00     0.002 A 
HETATM    6  C5  UNL     1      39.122 -10.343 -29.168  1.00  0.00     0.012 A 
HETATM    7  C6  UNL     1      37.922 -10.867 -29.589  1.00  0.00    -0.025 A 
HETATM    8  C7  UNL     1      37.690 -12.219 -29.424  1.00  0.00     0.012 A 
HETATM    9  C8  UNL     1      36.479 -12.717 -29.855  1.00  0.00     0.001 A 
HETATM   10  C9  UNL     1      35.518 -11.892 -30.439  1.00  0.00     0.001 A 
HETATM   11  C10 UNL     1      35.770 -10.552 -30.592  1.00  0.00     0.014 A 
HETATM   12  C11 UNL     1      36.968 -10.037 -30.169  1.00  0.00    -0.005 A 
ENDROOT
TORSDOF 0
ENDMDL
