MODEL 1
REMARK VINA RESULT: -8.257473212      0.000      0.000
REMARK  4 active torsions:
REMARK  status: ('A' for Active; 'I' for Inactive)
REMARK    1  A    between atoms: C2_4  and  O3_5 
REMARK    2  A    between atoms: C2_4  and  C3_7 
REMARK    3  A    between atoms: C3_7  and  S1_8 
REMARK    4  A    between atoms: S1_8  and  C4_11 
ROOT
HETATM    1  O1  UNL     1      -1.145  11.577   3.875  1.00  0.00    -0.259 OA
HETATM    2  C1  UNL     1      -1.002  12.724   4.373  1.00  0.00     0.297 A 
HETATM    3  O2  UNL     1      -0.266  13.078   5.490  1.00  0.00    -0.274 OA
HETATM    4  C2  UNL     1      -0.374  14.459   5.702  1.00  0.00     0.214 A 
HETATM    5  C10 UNL     1      -1.251  14.952   4.613  1.00  0.00     0.021 A 
HETATM    6  C11 UNL     1      -1.660  16.266   4.388  1.00  0.00     0.013 A 
HETATM    7  C12 UNL     1      -2.483  16.473   3.299  1.00  0.00     0.001 A 
HETATM    8  C13 UNL     1      -2.884  15.448   2.472  1.00  0.00     0.001 A 
HETATM    9  C14 UNL     1      -2.453  14.168   2.735  1.00  0.00     0.018 A 
HETATM   10  C15 UNL     1      -1.623  13.911   3.823  1.00  0.00     0.051 A 
ENDROOT
BRANCH   4  11
HETATM   11  O3  UNL     1      -0.887  14.750   6.955  1.00  0.00    -0.360 OA
ATOM     12  H3  UNL     1      -1.198  15.646   7.011  1.00  0.00     0.213 HD
ENDBRANCH   4  11
BRANCH   4  13
HETATM   13  C3  UNL     1       0.985  15.105   5.492  1.00  0.00     0.220 C 
BRANCH  13  14
HETATM   14  S1  UNL     1       1.542  15.729   7.057  1.00  0.00     0.180 S 
HETATM   15  O4  UNL     1       0.861  17.045   7.301  1.00  0.00    -0.222 OA
HETATM   16  O5  UNL     1       1.223  14.733   8.127  1.00  0.00    -0.222 OA
BRANCH  14  17
HETATM   17  C4  UNL     1       3.287  15.959   6.920  1.00  0.00     0.059 A 
HETATM   18  C5  UNL     1       3.977  16.792   7.752  1.00  0.00     0.023 A 
HETATM   19  C6  UNL     1       5.340  16.916   7.580  1.00  0.00     0.002 A 
HETATM   20  C7  UNL     1       5.977  16.204   6.582  1.00  0.00     0.000 A 
HETATM   21  C8  UNL     1       5.258  15.375   5.763  1.00  0.00     0.002 A 
HETATM   22  C9  UNL     1       3.910  15.237   5.915  1.00  0.00     0.023 A 
ENDBRANCH  14  17
ENDBRANCH  13  14
ENDBRANCH   4  13
TORSDOF 4
ENDMDL
MODEL 2
REMARK VINA RESULT: -8.196054323      0.530      1.052
REMARK  4 active torsions:
REMARK  status: ('A' for Active; 'I' for Inactive)
REMARK    1  A    between atoms: C2_4  and  O3_5 
REMARK    2  A    between atoms: C2_4  and  C3_7 
REMARK    3  A    between atoms: C3_7  and  S1_8 
REMARK    4  A    between atoms: S1_8  and  C4_11 
ROOT
HETATM    1  O1  UNL     1      -0.954  11.511   4.100  1.00  0.00    -0.259 OA
HETATM    2  C1  UNL     1      -0.844  12.701   4.494  1.00  0.00     0.297 A 
HETATM    3  O2  UNL     1      -0.055  13.184   5.524  1.00  0.00    -0.274 OA
HETATM    4  C2  UNL     1      -0.226  14.569   5.634  1.00  0.00     0.214 A 
HETATM    5  C10 UNL     1      -1.202  14.926   4.574  1.00  0.00     0.021 A 
HETATM    6  C11 UNL     1      -1.698  16.194   4.277  1.00  0.00     0.013 A 
HETATM    7  C12 UNL     1      -2.603  16.268   3.237  1.00  0.00     0.001 A 
HETATM    8  C13 UNL     1      -3.001  15.159   2.524  1.00  0.00     0.001 A 
HETATM    9  C14 UNL     1      -2.481  13.929   2.856  1.00  0.00     0.018 A 
HETATM   10  C15 UNL     1      -1.566  13.805   3.898  1.00  0.00     0.051 A 
ENDROOT
BRANCH   4  11
HETATM   11  O3  UNL     1      -0.670  14.937   6.893  1.00  0.00    -0.360 OA
ATOM     12  H3  UNL     1      -0.095  15.574   7.299  1.00  0.00     0.213 HD
ENDBRANCH   4  11
BRANCH   4  13
HETATM   13  C3  UNL     1       1.076  15.264   5.277  1.00  0.00     0.220 C 
BRANCH  13  14
HETATM   14  S1  UNL     1       1.843  15.799   6.785  1.00  0.00     0.180 S 
HETATM   15  O4  UNL     1       1.334  17.174   7.103  1.00  0.00    -0.222 OA
HETATM   16  O5  UNL     1       1.524  14.822   7.873  1.00  0.00    -0.222 OA
BRANCH  14  17
HETATM   17  C4  UNL     1       3.582  15.844   6.481  1.00  0.00     0.059 A 
HETATM   18  C5  UNL     1       4.097  15.884   5.218  1.00  0.00     0.023 A 
HETATM   19  C6  UNL     1       5.468  15.918   5.065  1.00  0.00     0.002 A 
HETATM   20  C7  UNL     1       6.287  15.913   6.178  1.00  0.00     0.000 A 
HETATM   21  C8  UNL     1       5.741  15.873   7.433  1.00  0.00     0.002 A 
HETATM   22  C9  UNL     1       4.389  15.839   7.608  1.00  0.00     0.023 A 
ENDBRANCH  14  17
ENDBRANCH  13  14
ENDBRANCH   4  13
TORSDOF 4
ENDMDL
MODEL 3
REMARK VINA RESULT: -8.131934597      1.573      2.164
REMARK  4 active torsions:
REMARK  status: ('A' for Active; 'I' for Inactive)
REMARK    1  A    between atoms: C2_4  and  O3_5 
REMARK    2  A    between atoms: C2_4  and  C3_7 
REMARK    3  A    between atoms: C3_7  and  S1_8 
REMARK    4  A    between atoms: S1_8  and  C4_11 
ROOT
HETATM    1  O1  UNL     1      -0.852  11.496   4.036  1.00  0.00    -0.259 OA
HETATM    2  C1  UNL     1      -0.694  12.684   4.416  1.00  0.00     0.297 A 
HETATM    3  O2  UNL     1       0.202  13.163   5.356  1.00  0.00    -0.274 OA
HETATM    4  C2  UNL     1       0.049  14.550   5.484  1.00  0.00     0.214 A 
HETATM    5  C10 UNL     1      -1.032  14.911   4.534  1.00  0.00     0.021 A 
HETATM    6  C11 UNL     1      -1.552  16.182   4.291  1.00  0.00     0.013 A 
HETATM    7  C12 UNL     1      -2.562  16.260   3.353  1.00  0.00     0.001 A 
HETATM    8  C13 UNL     1      -3.038  15.153   2.687  1.00  0.00     0.001 A 
HETATM    9  C14 UNL     1      -2.492  13.921   2.962  1.00  0.00     0.018 A 
HETATM   10  C15 UNL     1      -1.471  13.792   3.901  1.00  0.00     0.051 A 
ENDROOT
BRANCH   4  11
HETATM   11  O3  UNL     1      -0.255  14.919   6.783  1.00  0.00    -0.360 OA
ATOM     12  H3  UNL     1       0.116  15.764   7.007  1.00  0.00     0.213 HD
ENDBRANCH   4  11
BRANCH   4  13
HETATM   13  C3  UNL     1       1.310  15.239   4.989  1.00  0.00     0.220 C 
BRANCH  13  14
HETATM   14  S1  UNL     1       2.427  15.386   6.360  1.00  0.00     0.180 S 
HETATM   15  O4  UNL     1       1.838  14.639   7.521  1.00  0.00    -0.222 OA
HETATM   16  O5  UNL     1       3.763  14.837   5.967  1.00  0.00    -0.222 OA
BRANCH  14  17
HETATM   17  C4  UNL     1       2.547  17.107   6.735  1.00  0.00     0.059 A 
HETATM   18  C5  UNL     1       1.502  17.964   6.550  1.00  0.00     0.023 A 
HETATM   19  C6  UNL     1       1.676  19.296   6.868  1.00  0.00     0.002 A 
HETATM   20  C7  UNL     1       2.889  19.734   7.362  1.00  0.00     0.000 A 
HETATM   21  C8  UNL     1       3.920  18.850   7.536  1.00  0.00     0.002 A 
HETATM   22  C9  UNL     1       3.770  17.530   7.229  1.00  0.00     0.023 A 
ENDBRANCH  14  17
ENDBRANCH  13  14
ENDBRANCH   4  13
TORSDOF 4
ENDMDL
MODEL 4
REMARK VINA RESULT: -8.108864188      1.543      2.097
REMARK  4 active torsions:
REMARK  status: ('A' for Active; 'I' for Inactive)
REMARK    1  A    between atoms: C2_4  and  O3_5 
REMARK    2  A    between atoms: C2_4  and  C3_7 
REMARK    3  A    between atoms: C3_7  and  S1_8 
REMARK    4  A    between atoms: S1_8  and  C4_11 
ROOT
HETATM    1  O1  UNL     1      -0.835  11.519   4.037  1.00  0.00    -0.259 OA
HETATM    2  C1  UNL     1      -0.690  12.710   4.413  1.00  0.00     0.297 A 
HETATM    3  O2  UNL     1       0.181  13.197   5.373  1.00  0.00    -0.274 OA
HETATM    4  C2  UNL     1       0.022  14.584   5.488  1.00  0.00     0.214 A 
HETATM    5  C10 UNL     1      -1.035  14.936   4.509  1.00  0.00     0.021 A 
HETATM    6  C11 UNL     1      -1.552  16.204   4.245  1.00  0.00     0.013 A 
HETATM    7  C12 UNL     1      -2.538  16.275   3.281  1.00  0.00     0.001 A 
HETATM    8  C13 UNL     1      -2.995  15.163   2.610  1.00  0.00     0.001 A 
HETATM    9  C14 UNL     1      -2.453  13.933   2.906  1.00  0.00     0.018 A 
HETATM   10  C15 UNL     1      -1.456  13.813   3.872  1.00  0.00     0.051 A 
ENDROOT
BRANCH   4  11
HETATM   11  O3  UNL     1      -0.317  14.960   6.776  1.00  0.00    -0.360 OA
ATOM     12  H3  UNL     1      -1.212  15.272   6.831  1.00  0.00     0.213 HD
ENDBRANCH   4  11
BRANCH   4  13
HETATM   13  C3  UNL     1       1.293  15.273   5.022  1.00  0.00     0.220 C 
BRANCH  13  14
HETATM   14  S1  UNL     1       2.413  15.343   6.396  1.00  0.00     0.180 S 
HETATM   15  O4  UNL     1       1.768  14.645   7.557  1.00  0.00    -0.222 OA
HETATM   16  O5  UNL     1       3.708  14.699   6.010  1.00  0.00    -0.222 OA
BRANCH  14  17
HETATM   17  C4  UNL     1       2.656  17.052   6.766  1.00  0.00     0.059 A 
HETATM   18  C5  UNL     1       3.835  17.527   7.263  1.00  0.00     0.023 A 
HETATM   19  C6  UNL     1       3.945  18.877   7.526  1.00  0.00     0.002 A 
HETATM   20  C7  UNL     1       2.874  19.716   7.286  1.00  0.00     0.000 A 
HETATM   21  C8  UNL     1       1.703  19.211   6.787  1.00  0.00     0.002 A 
HETATM   22  C9  UNL     1       1.573  17.880   6.519  1.00  0.00     0.023 A 
ENDBRANCH  14  17
ENDBRANCH  13  14
ENDBRANCH   4  13
TORSDOF 4
ENDMDL
MODEL 5
REMARK VINA RESULT: -8.102667608      2.119      2.654
REMARK  4 active torsions:
REMARK  status: ('A' for Active; 'I' for Inactive)
REMARK    1  A    between atoms: C2_4  and  O3_5 
REMARK    2  A    between atoms: C2_4  and  C3_7 
REMARK    3  A    between atoms: C3_7  and  S1_8 
REMARK    4  A    between atoms: S1_8  and  C4_11 
ROOT
HETATM    1  O1  UNL     1      -0.031  12.238   3.832  1.00  0.00    -0.259 OA
HETATM    2  C1  UNL     1      -0.034  13.446   4.179  1.00  0.00     0.297 A 
HETATM    3  O2  UNL     1       0.883  14.101   4.984  1.00  0.00    -0.274 OA
HETATM    4  C2  UNL     1       0.510  15.443   5.122  1.00  0.00     0.214 A 
HETATM    5  C10 UNL     1      -0.735  15.585   4.328  1.00  0.00     0.021 A 
HETATM    6  C11 UNL     1      -1.497  16.739   4.151  1.00  0.00     0.013 A 
HETATM    7  C12 UNL     1      -2.622  16.615   3.360  1.00  0.00     0.001 A 
HETATM    8  C13 UNL     1      -2.983  15.423   2.773  1.00  0.00     0.001 A 
HETATM    9  C14 UNL     1      -2.198  14.312   2.978  1.00  0.00     0.018 A 
HETATM   10  C15 UNL     1      -1.054  14.389   3.768  1.00  0.00     0.051 A 
ENDROOT
BRANCH   4  11
HETATM   11  O3  UNL     1       0.322  15.793   6.449  1.00  0.00    -0.360 OA
ATOM     12  H3  UNL     1       1.145  15.966   6.889  1.00  0.00     0.213 HD
ENDBRANCH   4  11
BRANCH   4  13
HETATM   13  C3  UNL     1       1.552  16.324   4.456  1.00  0.00     0.220 C 
BRANCH  13  14
HETATM   14  S1  UNL     1       2.978  16.379   5.511  1.00  0.00     0.180 S 
HETATM   15  O4  UNL     1       2.895  15.224   6.465  1.00  0.00    -0.222 OA
HETATM   16  O5  UNL     1       4.215  16.318   4.671  1.00  0.00    -0.222 OA
BRANCH  14  17
HETATM   17  C4  UNL     1       2.899  17.908   6.390  1.00  0.00     0.059 A 
HETATM   18  C5  UNL     1       1.838  18.757   6.274  1.00  0.00     0.023 A 
HETATM   19  C6  UNL     1       1.852  19.934   6.996  1.00  0.00     0.002 A 
HETATM   20  C7  UNL     1       2.925  20.228   7.814  1.00  0.00     0.000 A 
HETATM   21  C8  UNL     1       3.976  19.356   7.910  1.00  0.00     0.002 A 
HETATM   22  C9  UNL     1       3.983  18.188   7.207  1.00  0.00     0.023 A 
ENDBRANCH  14  17
ENDBRANCH  13  14
ENDBRANCH   4  13
TORSDOF 4
ENDMDL
