MODEL 1
REMARK VINA RESULT: -9.547482382      0.000      0.000
REMARK  14 active torsions:
REMARK  status: ('A' for Active; 'I' for Inactive)
REMARK    1  A    between atoms: C2_2  and  C3_3 
REMARK    2  A    between atoms: C3_3  and  O1_4 
REMARK    3  A    between atoms: N1_8  and  C6_9 
REMARK    4  A    between atoms: C6_9  and  C7_10 
REMARK    5  A    between atoms: C7_10  and  O2_11 
REMARK    6  A    between atoms: O2_11  and  C8_12 
REMARK    7  A    between atoms: C12_16  and  N2_17 
REMARK    8  A    between atoms: N2_17  and  C13_19 
REMARK    9  A    between atoms: C14_22  and  N4_23 
REMARK   10  A    between atoms: C19_31  and  N6_32 
REMARK   11  A    between atoms: N6_32  and  C20_33 
REMARK   12  A    between atoms: C20_33  and  C21_34 
REMARK   13  A    between atoms: C21_34  and  C22_35 
REMARK   14  A    between atoms: C22_35  and  N7_36 
ROOT
HETATM    1  C13 UNL     1      -8.883  16.721   1.587  1.00  0.00     0.700 A 
HETATM    2  N3  UNL     1      -9.598  15.691   1.135  1.00  0.00    -0.021 N 
ATOM      3  H3  UNL     1      -9.712  15.602   0.125  1.00  0.00     0.203 HD
HETATM    4  C14 UNL     1     -10.177  14.761   1.909  1.00  0.00     0.705 A 
HETATM    5  N5  UNL     1     -10.027  14.873   3.222  1.00  0.00    -0.147 N 
ATOM      6  H5  UNL     1     -10.459  14.174   3.825  1.00  0.00     0.188 HD
HETATM    7  C19 UNL     1      -9.328  15.868   3.788  1.00  0.00     0.287 A 
HETATM    8  N8  UNL     1      -8.760  16.785   2.934  1.00  0.00    -0.148 N 
ATOM      9  H8  UNL     1      -8.219  17.550   3.336  1.00  0.00     0.188 HD
ENDROOT
BRANCH   1  10
HETATM   10  N2  UNL     1      -8.456  17.701   0.823  1.00  0.00    -0.191 N 
ATOM     11  H2  UNL     1      -9.056  18.491   0.588  1.00  0.00     0.184 HD
BRANCH  10  12
HETATM   12  C12 UNL     1      -7.124  17.614   0.338  1.00  0.00     0.051 A 
HETATM   13  C11 UNL     1      -6.248  16.728   1.015  1.00  0.00     0.030 A 
HETATM   14  C10 UNL     1      -4.950  16.567   0.637  1.00  0.00     0.005 A 
HETATM   15  C9  UNL     1      -4.463  17.289  -0.435  1.00  0.00     0.037 A 
HETATM   16  C8  UNL     1      -5.278  18.155  -1.116  1.00  0.00     0.070 A 
HETATM   17  C27 UNL     1      -6.609  18.306  -0.714  1.00  0.00     0.066 A 
BRANCH  16  18
HETATM   18  O2  UNL     1      -4.759  18.884  -2.212  1.00  0.00    -0.349 OA
BRANCH  18  19
HETATM   19  C7  UNL     1      -4.682  18.255  -3.464  1.00  0.00     0.206 C 
BRANCH  19  20
HETATM   20  C6  UNL     1      -5.502  18.812  -4.563  1.00  0.00     0.299 C 
BRANCH  20  21
HETATM   21  N1  UNL     1      -6.384  17.873  -5.243  1.00  0.00     0.090 N 
HETATM   22  C5  UNL     1      -7.133  17.149  -4.168  1.00  0.00     0.275 C 
HETATM   23  C4  UNL     1      -8.398  16.675  -4.791  1.00  0.00     0.068 C 
HETATM   24  C3  UNL     1      -8.195  16.514  -6.304  1.00  0.00     0.061 C 
HETATM   25  C29 UNL     1      -6.842  15.889  -6.506  1.00  0.00     0.068 C 
HETATM   26  C28 UNL     1      -5.751  16.895  -6.071  1.00  0.00     0.275 C 
BRANCH  24  27
HETATM   27  C2  UNL     1      -9.317  15.624  -6.830  1.00  0.00     0.033 C 
HETATM   28  C1  UNL     1     -10.429  15.565  -5.829  1.00  0.00     0.008 C 
ENDBRANCH  24  27
BRANCH  24  29
HETATM   29  O1  UNL     1      -8.284  17.744  -6.925  1.00  0.00    -0.390 OA
ATOM     30  H1  UNL     1      -7.719  18.354  -6.466  1.00  0.00     0.210 HD
ENDBRANCH  24  29
ENDBRANCH  20  21
ENDBRANCH  19  20
ENDBRANCH  18  19
ENDBRANCH  16  18
ENDBRANCH  10  12
ENDBRANCH   1  10
BRANCH   4  31
HETATM   31  N4  UNL     1     -10.907  13.671   1.307  1.00  0.00    -0.150 N 
HETATM   32  C15 UNL     1     -11.848  12.840   2.019  1.00  0.00     0.151 C 
HETATM   33  C16 UNL     1     -12.927  12.640   0.946  1.00  0.00     0.030 C 
HETATM   34  C17 UNL     1     -12.055  12.280  -0.254  1.00  0.00     0.105 C 
HETATM   35  C18 UNL     1     -10.872  13.186  -0.024  1.00  0.00     0.238 C 
HETATM   36  O3  UNL     1     -10.014  13.448  -0.875  1.00  0.00    -0.273 OA
ENDBRANCH   4  31
BRANCH   7  37
HETATM   37  N6  UNL     1      -9.281  16.006   4.999  1.00  0.00    -0.387 NA
BRANCH  37  38
HETATM   38  C20 UNL     1      -9.259  16.168   6.320  1.00  0.00     0.164 C 
BRANCH  38  39
HETATM   39  C21 UNL     1      -9.811  14.977   7.152  1.00  0.00     0.104 C 
BRANCH  39  40
HETATM   40  C22 UNL     1     -11.292  15.154   7.267  1.00  0.00     0.064 C 
BRANCH  40  41
HETATM   41  N7  UNL     1     -12.087  14.291   6.525  1.00  0.00    -0.393 N 
HETATM   42  C23 UNL     1     -12.635  13.113   7.017  1.00  0.00     0.122 C 
HETATM   43  C24 UNL     1     -13.918  12.855   6.222  1.00  0.00     0.021 C 
HETATM   44  C25 UNL     1     -13.801  13.756   5.005  1.00  0.00     0.021 C 
HETATM   45  C26 UNL     1     -12.840  14.834   5.456  1.00  0.00     0.122 C 
ENDBRANCH  40  41
ENDBRANCH  39  40
ENDBRANCH  38  39
ENDBRANCH  37  38
ENDBRANCH   7  37
TORSDOF 14
ENDMDL
MODEL 2
REMARK VINA RESULT: -9.498544036      1.048      1.293
REMARK  14 active torsions:
REMARK  status: ('A' for Active; 'I' for Inactive)
REMARK    1  A    between atoms: C2_2  and  C3_3 
REMARK    2  A    between atoms: C3_3  and  O1_4 
REMARK    3  A    between atoms: N1_8  and  C6_9 
REMARK    4  A    between atoms: C6_9  and  C7_10 
REMARK    5  A    between atoms: C7_10  and  O2_11 
REMARK    6  A    between atoms: O2_11  and  C8_12 
REMARK    7  A    between atoms: C12_16  and  N2_17 
REMARK    8  A    between atoms: N2_17  and  C13_19 
REMARK    9  A    between atoms: C14_22  and  N4_23 
REMARK   10  A    between atoms: C19_31  and  N6_32 
REMARK   11  A    between atoms: N6_32  and  C20_33 
REMARK   12  A    between atoms: C20_33  and  C21_34 
REMARK   13  A    between atoms: C21_34  and  C22_35 
REMARK   14  A    between atoms: C22_35  and  N7_36 
ROOT
HETATM    1  C13 UNL     1      -9.083  16.578   1.721  1.00  0.00     0.700 A 
HETATM    2  N3  UNL     1      -9.812  15.562   1.260  1.00  0.00    -0.021 N 
ATOM      3  H3  UNL     1      -9.951  15.500   0.252  1.00  0.00     0.203 HD
HETATM    4  C14 UNL     1     -10.378  14.616   2.025  1.00  0.00     0.705 A 
HETATM    5  N5  UNL     1     -10.196  14.694   3.336  1.00  0.00    -0.147 N 
ATOM      6  H5  UNL     1     -10.617  13.981   3.932  1.00  0.00     0.188 HD
HETATM    7  C19 UNL     1      -9.480  15.671   3.910  1.00  0.00     0.287 A 
HETATM    8  N8  UNL     1      -8.927  16.607   3.066  1.00  0.00    -0.148 N 
ATOM      9  H8  UNL     1      -8.373  17.360   3.474  1.00  0.00     0.188 HD
ENDROOT
BRANCH   1  10
HETATM   10  N2  UNL     1      -8.669  17.575   0.972  1.00  0.00    -0.191 N 
ATOM     11  H2  UNL     1      -9.304  18.315   0.676  1.00  0.00     0.184 HD
BRANCH  10  12
HETATM   12  C12 UNL     1      -7.301  17.579   0.593  1.00  0.00     0.051 A 
HETATM   13  C11 UNL     1      -6.478  16.561   1.138  1.00  0.00     0.030 A 
HETATM   14  C10 UNL     1      -5.152  16.471   0.844  1.00  0.00     0.005 A 
HETATM   15  C9  UNL     1      -4.582  17.398  -0.008  1.00  0.00     0.037 A 
HETATM   16  C8  UNL     1      -5.343  18.397  -0.555  1.00  0.00     0.070 A 
HETATM   17  C27 UNL     1      -6.705  18.472  -0.243  1.00  0.00     0.066 A 
BRANCH  16  18
HETATM   18  O2  UNL     1      -4.740  19.335  -1.425  1.00  0.00    -0.349 OA
BRANCH  18  19
HETATM   19  C7  UNL     1      -5.202  19.421  -2.747  1.00  0.00     0.206 C 
BRANCH  19  20
HETATM   20  C6  UNL     1      -5.255  18.171  -3.538  1.00  0.00     0.299 C 
BRANCH  20  21
HETATM   21  N1  UNL     1      -6.564  17.547  -3.662  1.00  0.00     0.090 N 
HETATM   22  C5  UNL     1      -6.389  16.120  -3.245  1.00  0.00     0.275 C 
HETATM   23  C4  UNL     1      -7.726  15.655  -2.786  1.00  0.00     0.068 C 
HETATM   24  C3  UNL     1      -8.820  16.485  -3.473  1.00  0.00     0.061 C 
HETATM   25  C29 UNL     1      -8.409  16.659  -4.909  1.00  0.00     0.068 C 
HETATM   26  C28 UNL     1      -7.148  17.553  -4.968  1.00  0.00     0.275 C 
BRANCH  24  27
HETATM   27  C2  UNL     1     -10.132  15.716  -3.346  1.00  0.00     0.033 C 
HETATM   28  C1  UNL     1     -10.714  15.478  -4.704  1.00  0.00     0.008 C 
ENDBRANCH  24  27
BRANCH  24  29
HETATM   29  O1  UNL     1      -8.961  17.700  -2.833  1.00  0.00    -0.390 OA
ATOM     30  H1  UNL     1      -8.529  17.648  -1.990  1.00  0.00     0.210 HD
ENDBRANCH  24  29
ENDBRANCH  20  21
ENDBRANCH  19  20
ENDBRANCH  18  19
ENDBRANCH  16  18
ENDBRANCH  10  12
ENDBRANCH   1  10
BRANCH   4  31
HETATM   31  N4  UNL     1     -11.127  13.544   1.413  1.00  0.00    -0.150 N 
HETATM   32  C15 UNL     1     -12.068  12.711   2.122  1.00  0.00     0.151 C 
HETATM   33  C16 UNL     1     -13.162  12.541   1.060  1.00  0.00     0.030 C 
HETATM   34  C17 UNL     1     -12.309  12.193  -0.157  1.00  0.00     0.105 C 
HETATM   35  C18 UNL     1     -11.114  13.083   0.074  1.00  0.00     0.238 C 
HETATM   36  O3  UNL     1     -10.264  13.351  -0.784  1.00  0.00    -0.273 OA
ENDBRANCH   4  31
BRANCH   7  37
HETATM   37  N6  UNL     1      -9.402  15.779   5.123  1.00  0.00    -0.387 NA
BRANCH  37  38
HETATM   38  C20 UNL     1      -9.296  15.919   6.442  1.00  0.00     0.164 C 
BRANCH  38  39
HETATM   39  C21 UNL     1      -9.948  14.794   7.292  1.00  0.00     0.104 C 
BRANCH  39  40
HETATM   40  C22 UNL     1     -11.424  15.031   7.300  1.00  0.00     0.064 C 
BRANCH  40  41
HETATM   41  N7  UNL     1     -12.208  14.129   6.594  1.00  0.00    -0.393 N 
HETATM   42  C23 UNL     1     -12.670  12.923   7.107  1.00  0.00     0.122 C 
HETATM   43  C24 UNL     1     -13.974  12.599   6.375  1.00  0.00     0.021 C 
HETATM   44  C25 UNL     1     -13.965  13.506   5.157  1.00  0.00     0.021 C 
HETATM   45  C26 UNL     1     -13.040  14.633   5.565  1.00  0.00     0.122 C 
ENDBRANCH  40  41
ENDBRANCH  39  40
ENDBRANCH  38  39
ENDBRANCH  37  38
ENDBRANCH   7  37
TORSDOF 14
ENDMDL
MODEL 3
REMARK VINA RESULT: -9.467874212      0.849      1.089
REMARK  14 active torsions:
REMARK  status: ('A' for Active; 'I' for Inactive)
REMARK    1  A    between atoms: C2_2  and  C3_3 
REMARK    2  A    between atoms: C3_3  and  O1_4 
REMARK    3  A    between atoms: N1_8  and  C6_9 
REMARK    4  A    between atoms: C6_9  and  C7_10 
REMARK    5  A    between atoms: C7_10  and  O2_11 
REMARK    6  A    between atoms: O2_11  and  C8_12 
REMARK    7  A    between atoms: C12_16  and  N2_17 
REMARK    8  A    between atoms: N2_17  and  C13_19 
REMARK    9  A    between atoms: C14_22  and  N4_23 
REMARK   10  A    between atoms: C19_31  and  N6_32 
REMARK   11  A    between atoms: N6_32  and  C20_33 
REMARK   12  A    between atoms: C20_33  and  C21_34 
REMARK   13  A    between atoms: C21_34  and  C22_35 
REMARK   14  A    between atoms: C22_35  and  N7_36 
ROOT
HETATM    1  C13 UNL     1      -8.970  16.683   1.705  1.00  0.00     0.700 A 
HETATM    2  N3  UNL     1      -9.659  15.653   1.214  1.00  0.00    -0.021 N 
ATOM      3  H3  UNL     1      -9.739  15.580   0.200  1.00  0.00     0.203 HD
HETATM    4  C14 UNL     1     -10.255  14.706   1.954  1.00  0.00     0.705 A 
HETATM    5  N5  UNL     1     -10.148  14.798   3.273  1.00  0.00    -0.147 N 
ATOM      6  H5  UNL     1     -10.594  14.085   3.850  1.00  0.00     0.188 HD
HETATM    7  C19 UNL     1      -9.478  15.790   3.876  1.00  0.00     0.287 A 
HETATM    8  N8  UNL     1      -8.891  16.725   3.057  1.00  0.00    -0.148 N 
ATOM      9  H8  UNL     1      -8.370  17.489   3.488  1.00  0.00     0.188 HD
ENDROOT
BRANCH   1  10
HETATM   10  N2  UNL     1      -8.526  17.678   0.971  1.00  0.00    -0.191 N 
ATOM     11  H2  UNL     1      -9.134  18.453   0.706  1.00  0.00     0.184 HD
BRANCH  10  12
HETATM   12  C12 UNL     1      -7.167  17.631   0.563  1.00  0.00     0.051 A 
HETATM   13  C11 UNL     1      -6.327  16.702   1.228  1.00  0.00     0.030 A 
HETATM   14  C10 UNL     1      -5.007  16.574   0.919  1.00  0.00     0.005 A 
HETATM   15  C9  UNL     1      -4.462  17.371  -0.069  1.00  0.00     0.037 A 
HETATM   16  C8  UNL     1      -5.241  18.280  -0.736  1.00  0.00     0.070 A 
HETATM   17  C27 UNL     1      -6.596  18.396  -0.405  1.00  0.00     0.066 A 
BRANCH  16  18
HETATM   18  O2  UNL     1      -4.663  19.086  -1.745  1.00  0.00    -0.349 OA
BRANCH  18  19
HETATM   19  C7  UNL     1      -5.006  18.839  -3.082  1.00  0.00     0.206 C 
BRANCH  19  20
HETATM   20  C6  UNL     1      -4.893  17.447  -3.573  1.00  0.00     0.299 C 
BRANCH  20  21
HETATM   21  N1  UNL     1      -6.097  16.875  -4.159  1.00  0.00     0.090 N 
HETATM   22  C5  UNL     1      -6.784  17.993  -4.880  1.00  0.00     0.275 C 
HETATM   23  C4  UNL     1      -7.615  17.355  -5.936  1.00  0.00     0.068 C 
HETATM   24  C3  UNL     1      -7.969  15.922  -5.515  1.00  0.00     0.061 C 
HETATM   25  C29 UNL     1      -8.310  15.962  -4.051  1.00  0.00     0.068 C 
HETATM   26  C28 UNL     1      -7.035  16.301  -3.245  1.00  0.00     0.275 C 
BRANCH  24  27
HETATM   27  C2  UNL     1      -9.154  15.470  -6.364  1.00  0.00     0.033 C 
HETATM   28  C1  UNL     1      -8.947  15.885  -7.787  1.00  0.00     0.008 C 
ENDBRANCH  24  27
BRANCH  24  29
HETATM   29  O1  UNL     1      -6.904  15.080  -5.766  1.00  0.00    -0.390 OA
ATOM     30  H1  UNL     1      -6.101  15.538  -5.549  1.00  0.00     0.210 HD
ENDBRANCH  24  29
ENDBRANCH  20  21
ENDBRANCH  19  20
ENDBRANCH  18  19
ENDBRANCH  16  18
ENDBRANCH  10  12
ENDBRANCH   1  10
BRANCH   4  31
HETATM   31  N4  UNL     1     -10.955  13.619   1.311  1.00  0.00    -0.150 N 
HETATM   32  C15 UNL     1     -11.888  12.750   1.986  1.00  0.00     0.151 C 
HETATM   33  C16 UNL     1     -12.948  12.559   0.894  1.00  0.00     0.030 C 
HETATM   34  C17 UNL     1     -12.053  12.251  -0.304  1.00  0.00     0.105 C 
HETATM   35  C18 UNL     1     -10.892  13.174  -0.032  1.00  0.00     0.238 C 
HETATM   36  O3  UNL     1     -10.029  13.477  -0.864  1.00  0.00    -0.273 OA
ENDBRANCH   4  31
BRANCH   7  37
HETATM   37  N6  UNL     1      -9.471  15.909   5.091  1.00  0.00    -0.387 NA
BRANCH  37  38
HETATM   38  C20 UNL     1      -9.488  16.019   6.417  1.00  0.00     0.164 C 
BRANCH  38  39
HETATM   39  C21 UNL     1      -9.982  14.764   7.188  1.00  0.00     0.104 C 
BRANCH  39  40
HETATM   40  C22 UNL     1     -11.464  14.886   7.349  1.00  0.00     0.064 C 
BRANCH  40  41
HETATM   41  N7  UNL     1     -12.253  14.130   6.493  1.00  0.00    -0.393 N 
HETATM   42  C23 UNL     1     -12.846  12.921   6.837  1.00  0.00     0.122 C 
HETATM   43  C24 UNL     1     -14.106  12.785   5.979  1.00  0.00     0.021 C 
HETATM   44  C25 UNL     1     -13.926  13.808   4.870  1.00  0.00     0.021 C 
HETATM   45  C26 UNL     1     -12.956  14.805   5.467  1.00  0.00     0.122 C 
ENDBRANCH  40  41
ENDBRANCH  39  40
ENDBRANCH  38  39
ENDBRANCH  37  38
ENDBRANCH   7  37
TORSDOF 14
ENDMDL
MODEL 4
REMARK VINA RESULT: -9.257635901      2.490     10.845
REMARK  14 active torsions:
REMARK  status: ('A' for Active; 'I' for Inactive)
REMARK    1  A    between atoms: C2_2  and  C3_3 
REMARK    2  A    between atoms: C3_3  and  O1_4 
REMARK    3  A    between atoms: N1_8  and  C6_9 
REMARK    4  A    between atoms: C6_9  and  C7_10 
REMARK    5  A    between atoms: C7_10  and  O2_11 
REMARK    6  A    between atoms: O2_11  and  C8_12 
REMARK    7  A    between atoms: C12_16  and  N2_17 
REMARK    8  A    between atoms: N2_17  and  C13_19 
REMARK    9  A    between atoms: C14_22  and  N4_23 
REMARK   10  A    between atoms: C19_31  and  N6_32 
REMARK   11  A    between atoms: N6_32  and  C20_33 
REMARK   12  A    between atoms: C20_33  and  C21_34 
REMARK   13  A    between atoms: C21_34  and  C22_35 
REMARK   14  A    between atoms: C22_35  and  N7_36 
ROOT
HETATM    1  C13 UNL     1     -10.518  15.789  -1.040  1.00  0.00     0.700 A 
HETATM    2  N3  UNL     1      -9.284  15.997  -0.580  1.00  0.00    -0.021 N 
ATOM      3  H3  UNL     1      -9.166  16.089   0.429  1.00  0.00     0.203 HD
HETATM    4  C14 UNL     1      -8.187  16.095  -1.345  1.00  0.00     0.705 A 
HETATM    5  N5  UNL     1      -8.338  15.973  -2.657  1.00  0.00    -0.147 N 
ATOM      6  H5  UNL     1      -7.514  16.043  -3.253  1.00  0.00     0.188 HD
HETATM    7  C19 UNL     1      -9.532  15.760  -3.230  1.00  0.00     0.287 A 
HETATM    8  N8  UNL     1     -10.613  15.669  -2.386  1.00  0.00    -0.148 N 
ATOM      9  H8  UNL     1     -11.534  15.502  -2.793  1.00  0.00     0.188 HD
ENDROOT
BRANCH   1  10
HETATM   10  N2  UNL     1     -11.594  15.849  -0.289  1.00  0.00    -0.191 N 
ATOM     11  H2  UNL     1     -12.077  16.732  -0.124  1.00  0.00     0.184 HD
BRANCH  10  12
HETATM   12  C12 UNL     1     -12.057  14.635   0.283  1.00  0.00     0.051 A 
HETATM   13  C11 UNL     1     -11.516  13.431  -0.235  1.00  0.00     0.030 A 
HETATM   14  C10 UNL     1     -11.889  12.210   0.237  1.00  0.00     0.005 A 
HETATM   15  C9  UNL     1     -12.827  12.133   1.249  1.00  0.00     0.037 A 
HETATM   16  C8  UNL     1     -13.373  13.274   1.777  1.00  0.00     0.070 A 
HETATM   17  C27 UNL     1     -12.975  14.520   1.280  1.00  0.00     0.066 A 
BRANCH  16  18
HETATM   18  O2  UNL     1     -14.331  13.173   2.813  1.00  0.00    -0.349 OA
BRANCH  18  19
HETATM   19  C7  UNL     1     -13.899  12.803   4.096  1.00  0.00     0.206 C 
BRANCH  19  20
HETATM   20  C6  UNL     1     -13.940  13.835   5.157  1.00  0.00     0.299 C 
BRANCH  20  21
HETATM   21  N1  UNL     1     -12.680  14.105   5.835  1.00  0.00     0.090 N 
HETATM   22  C5  UNL     1     -11.743  14.622   4.789  1.00  0.00     0.275 C 
HETATM   23  C4  UNL     1     -10.731  15.442   5.507  1.00  0.00     0.068 C 
HETATM   24  C3  UNL     1     -10.616  14.958   6.959  1.00  0.00     0.061 C 
HETATM   25  C29 UNL     1     -10.649  13.454   6.929  1.00  0.00     0.068 C 
HETATM   26  C28 UNL     1     -12.052  12.990   6.473  1.00  0.00     0.275 C 
BRANCH  24  27
HETATM   27  C2  UNL     1      -9.299  15.486   7.519  1.00  0.00     0.033 C 
HETATM   28  C1  UNL     1      -8.576  16.267   6.467  1.00  0.00     0.008 C 
ENDBRANCH  24  27
BRANCH  24  29
HETATM   29  O1  UNL     1     -11.651  15.474   7.712  1.00  0.00    -0.390 OA
ATOM     30  H1  UNL     1     -12.443  14.994   7.504  1.00  0.00     0.210 HD
ENDBRANCH  24  29
ENDBRANCH  20  21
ENDBRANCH  19  20
ENDBRANCH  18  19
ENDBRANCH  16  18
ENDBRANCH  10  12
ENDBRANCH   1  10
BRANCH   4  31
HETATM   31  N4  UNL     1      -6.894  16.297  -0.734  1.00  0.00    -0.150 N 
HETATM   32  C15 UNL     1      -5.705  16.663  -1.465  1.00  0.00     0.151 C 
HETATM   33  C16 UNL     1      -5.045  17.633  -0.476  1.00  0.00     0.030 C 
HETATM   34  C17 UNL     1      -5.161  16.828   0.815  1.00  0.00     0.105 C 
HETATM   35  C18 UNL     1      -6.510  16.183   0.625  1.00  0.00     0.238 C 
HETATM   36  O3  UNL     1      -7.161  15.641   1.526  1.00  0.00    -0.273 OA
ENDBRANCH   4  31
BRANCH   7  37
HETATM   37  N6  UNL     1      -9.664  15.744  -4.443  1.00  0.00    -0.387 NA
BRANCH  37  38
HETATM   38  C20 UNL     1      -9.817  15.759  -5.764  1.00  0.00     0.164 C 
BRANCH  38  39
HETATM   39  C21 UNL     1      -8.513  15.592  -6.594  1.00  0.00     0.104 C 
BRANCH  39  40
HETATM   40  C22 UNL     1      -8.158  16.933  -7.153  1.00  0.00     0.064 C 
BRANCH  40  41
HETATM   41  N7  UNL     1      -6.978  17.508  -6.704  1.00  0.00    -0.393 N 
HETATM   42  C23 UNL     1      -6.807  18.061  -5.441  1.00  0.00     0.122 C 
HETATM   43  C24 UNL     1      -5.323  17.928  -5.095  1.00  0.00     0.021 C 
HETATM   44  C25 UNL     1      -4.645  17.634  -6.422  1.00  0.00     0.021 C 
HETATM   45  C26 UNL     1      -5.760  17.052  -7.265  1.00  0.00     0.122 C 
ENDBRANCH  40  41
ENDBRANCH  39  40
ENDBRANCH  38  39
ENDBRANCH  37  38
ENDBRANCH   7  37
TORSDOF 14
ENDMDL
MODEL 5
REMARK VINA RESULT: -9.232452040      2.504      9.939
REMARK  14 active torsions:
REMARK  status: ('A' for Active; 'I' for Inactive)
REMARK    1  A    between atoms: C2_2  and  C3_3 
REMARK    2  A    between atoms: C3_3  and  O1_4 
REMARK    3  A    between atoms: N1_8  and  C6_9 
REMARK    4  A    between atoms: C6_9  and  C7_10 
REMARK    5  A    between atoms: C7_10  and  O2_11 
REMARK    6  A    between atoms: O2_11  and  C8_12 
REMARK    7  A    between atoms: C12_16  and  N2_17 
REMARK    8  A    between atoms: N2_17  and  C13_19 
REMARK    9  A    between atoms: C14_22  and  N4_23 
REMARK   10  A    between atoms: C19_31  and  N6_32 
REMARK   11  A    between atoms: N6_32  and  C20_33 
REMARK   12  A    between atoms: C20_33  and  C21_34 
REMARK   13  A    between atoms: C21_34  and  C22_35 
REMARK   14  A    between atoms: C22_35  and  N7_36 
ROOT
HETATM    1  C13 UNL     1     -10.868  15.995  -0.760  1.00  0.00     0.700 A 
HETATM    2  N3  UNL     1     -10.519  15.968  -2.046  1.00  0.00    -0.021 N 
ATOM      3  H3  UNL     1     -11.266  15.902  -2.737  1.00  0.00     0.203 HD
HETATM    4  C14 UNL     1      -9.257  16.021  -2.499  1.00  0.00     0.705 A 
HETATM    5  N5  UNL     1      -8.284  16.111  -1.603  1.00  0.00    -0.147 N 
ATOM      6  H5  UNL     1      -7.319  16.154  -1.930  1.00  0.00     0.188 HD
HETATM    7  C19 UNL     1      -8.518  16.147  -0.283  1.00  0.00     0.287 A 
HETATM    8  N8  UNL     1      -9.835  16.090   0.111  1.00  0.00    -0.148 N 
ATOM      9  H8  UNL     1     -10.044  16.121   1.109  1.00  0.00     0.188 HD
ENDROOT
BRANCH   1  10
HETATM   10  N2  UNL     1     -12.093  15.789  -0.334  1.00  0.00    -0.191 N 
ATOM     11  H2  UNL     1     -12.824  16.487  -0.464  1.00  0.00     0.184 HD
BRANCH  10  12
HETATM   12  C12 UNL     1     -12.358  14.553   0.314  1.00  0.00     0.051 A 
HETATM   13  C11 UNL     1     -11.680  13.410  -0.179  1.00  0.00     0.030 A 
HETATM   14  C10 UNL     1     -11.860  12.174   0.365  1.00  0.00     0.005 A 
HETATM   15  C9  UNL     1     -12.730  12.022   1.427  1.00  0.00     0.037 A 
HETATM   16  C8  UNL     1     -13.404  13.103   1.932  1.00  0.00     0.070 A 
HETATM   17  C27 UNL     1     -13.205  14.365   1.361  1.00  0.00     0.066 A 
BRANCH  16  18
HETATM   18  O2  UNL     1     -14.291  12.925   3.020  1.00  0.00    -0.349 OA
BRANCH  18  19
HETATM   19  C7  UNL     1     -13.761  12.566   4.269  1.00  0.00     0.206 C 
BRANCH  19  20
HETATM   20  C6  UNL     1     -13.861  13.556   5.366  1.00  0.00     0.299 C 
BRANCH  20  21
HETATM   21  N1  UNL     1     -12.605  13.957   5.983  1.00  0.00     0.090 N 
HETATM   22  C5  UNL     1     -11.744  14.480   4.877  1.00  0.00     0.275 C 
HETATM   23  C4  UNL     1     -10.774  15.413   5.512  1.00  0.00     0.068 C 
HETATM   24  C3  UNL     1     -10.578  15.024   6.984  1.00  0.00     0.061 C 
HETATM   25  C29 UNL     1     -10.498  13.523   7.038  1.00  0.00     0.068 C 
HETATM   26  C28 UNL     1     -11.875  12.930   6.660  1.00  0.00     0.275 C 
BRANCH  24  27
HETATM   27  C2  UNL     1      -9.288  15.680   7.467  1.00  0.00     0.033 C 
HETATM   28  C1  UNL     1      -8.458  16.095   6.292  1.00  0.00     0.008 C 
ENDBRANCH  24  27
BRANCH  24  29
HETATM   29  O1  UNL     1     -11.625  15.505   7.743  1.00  0.00    -0.390 OA
ATOM     30  H1  UNL     1     -12.419  15.058   7.478  1.00  0.00     0.210 HD
ENDBRANCH  24  29
ENDBRANCH  20  21
ENDBRANCH  19  20
ENDBRANCH  18  19
ENDBRANCH  16  18
ENDBRANCH  10  12
ENDBRANCH   1  10
BRANCH   4  31
HETATM   31  N4  UNL     1      -8.998  16.011  -3.920  1.00  0.00    -0.150 N 
HETATM   32  C15 UNL     1      -7.745  16.409  -4.514  1.00  0.00     0.151 C 
HETATM   33  C16 UNL     1      -7.622  15.382  -5.647  1.00  0.00     0.030 C 
HETATM   34  C17 UNL     1      -9.026  15.462  -6.240  1.00  0.00     0.105 C 
HETATM   35  C18 UNL     1      -9.850  15.644  -4.990  1.00  0.00     0.238 C 
HETATM   36  O3  UNL     1     -11.076  15.495  -4.932  1.00  0.00    -0.273 OA
ENDBRANCH   4  31
BRANCH   7  37
HETATM   37  N6  UNL     1      -7.607  16.135   0.528  1.00  0.00    -0.387 NA
BRANCH  37  38
HETATM   38  C20 UNL     1      -6.593  16.131   1.389  1.00  0.00     0.164 C 
BRANCH  38  39
HETATM   39  C21 UNL     1      -5.424  17.100   1.056  1.00  0.00     0.104 C 
BRANCH  39  40
HETATM   40  C22 UNL     1      -4.623  16.481  -0.044  1.00  0.00     0.064 C 
BRANCH  40  41
HETATM   41  N7  UNL     1      -4.404  17.256  -1.175  1.00  0.00    -0.393 N 
HETATM   42  C23 UNL     1      -3.731  16.815  -2.308  1.00  0.00     0.122 C 
HETATM   43  C24 UNL     1      -4.288  17.609  -3.491  1.00  0.00     0.021 C 
HETATM   44  C25 UNL     1      -5.014  18.783  -2.858  1.00  0.00     0.021 C 
HETATM   45  C26 UNL     1      -5.327  18.290  -1.461  1.00  0.00     0.122 C 
ENDBRANCH  40  41
ENDBRANCH  39  40
ENDBRANCH  38  39
ENDBRANCH  37  38
ENDBRANCH   7  37
TORSDOF 14
ENDMDL
