MODEL 1
REMARK VINA RESULT: -9.361677633      0.000      0.000
REMARK  12 active torsions:
REMARK  status: ('A' for Active; 'I' for Inactive)
REMARK    1  A    between atoms: C2_2  and  N1_3 
REMARK    2  A    between atoms: C9_11  and  O1_12 
REMARK    3  A    between atoms: N3_14  and  C10_15 
REMARK    4  A    between atoms: C14_20  and  C15_21 
REMARK    5  A    between atoms: C15_21  and  C16_23 
REMARK    6  A    between atoms: C17_24  and  C18_25 
REMARK    7  A    between atoms: C19_26  and  O4_27 
REMARK    8  A    between atoms: C22_32  and  C23_33 
REMARK    9  A    between atoms: C23_33  and  C24_34 
REMARK   10  A    between atoms: C25_35  and  C27_37 
REMARK   11  A    between atoms: C27_37  and  C28_38 
REMARK   12  A    between atoms: C28_38  and  C29_39 
ROOT
HETATM    1  C15 UNL     1      -9.698  15.668  -2.241  1.00  0.00     0.172 C 
HETATM    2  O3  UNL     1     -10.882  15.961  -2.644  1.00  0.00    -0.289 OA
ENDROOT
BRANCH   1   3
HETATM    3  C14 UNL     1      -8.619  16.543  -2.533  1.00  0.00     0.072 C 
HETATM    4  C13 UNL     1      -7.849  16.650  -3.592  1.00  0.00     0.050 A 
HETATM    5  C7  UNL     1      -6.792  17.631  -3.610  1.00  0.00     0.031 A 
HETATM    6  C12 UNL     1      -8.143  15.998  -4.790  1.00  0.00     0.261 A 
HETATM    7  C6  UNL     1      -6.180  17.955  -2.500  1.00  0.00     0.020 C 
HETATM    8  C8  UNL     1      -6.217  17.809  -4.848  1.00  0.00     0.110 A 
HETATM    9  N1  UNL     1      -4.819  18.488  -2.461  1.00  0.00    -0.384 N 
HETATM   10  C5  UNL     1      -6.539  18.090  -1.065  1.00  0.00     0.059 C 
HETATM   11  C3  UNL     1      -4.863  19.680  -1.569  1.00  0.00     0.123 C 
HETATM   12  C4  UNL     1      -5.406  18.872  -0.383  1.00  0.00     0.026 C 
HETATM   13  N2  UNL     1      -5.381  18.995  -5.025  1.00  0.00    -0.097 NA
HETATM   14  C9  UNL     1      -6.540  17.143  -6.007  1.00  0.00     0.171 A 
HETATM   15  N3  UNL     1      -7.498  16.246  -5.955  1.00  0.00    -0.293 N 
HETATM   16  O2  UNL     1      -9.045  15.129  -4.846  1.00  0.00    -0.267 OA
BRANCH   9  17
HETATM   17  C2  UNL     1      -3.572  18.002  -2.986  1.00  0.00     0.118 C 
HETATM   18  C1  UNL     1      -3.286  16.539  -2.511  1.00  0.00     0.026 C 
ENDBRANCH   9  17
BRANCH  14  19
HETATM   19  O1  UNL     1      -5.853  17.432  -7.188  1.00  0.00    -0.344 OA
ATOM     20  H1  UNL     1      -5.710  16.747  -7.831  1.00  0.00     0.219 HD
ENDBRANCH  14  19
BRANCH  15  21
HETATM   21  C10 UNL     1      -7.900  15.492  -7.122  1.00  0.00     0.130 C 
HETATM   22  C11 UNL     1      -9.087  16.055  -7.827  1.00  0.00     0.027 C 
ENDBRANCH  15  21
ENDBRANCH   1   3
BRANCH   1  23
HETATM   23  C16 UNL     1      -9.676  14.449  -1.523  1.00  0.00     0.051 C 
HETATM   24  C17 UNL     1      -9.698  14.058  -0.336  1.00  0.00    -0.015 C 
BRANCH  24  25
HETATM   25  C18 UNL     1      -9.758  14.629   1.020  1.00  0.00     0.049 C 
HETATM   26  C19 UNL     1      -9.985  16.123   0.879  1.00  0.00     0.133 C 
HETATM   27  C20 UNL     1      -8.904  16.831   1.621  1.00  0.00     0.111 C 
HETATM   28  C21 UNL     1      -7.787  15.831   1.592  1.00  0.00     0.134 C 
HETATM   29  O5  UNL     1      -6.617  16.087   1.492  1.00  0.00    -0.297 OA
HETATM   30  C22 UNL     1      -8.412  14.521   1.709  1.00  0.00     0.069 C 
BRANCH  26  31
HETATM   31  O4  UNL     1     -11.256  16.499   1.330  1.00  0.00    -0.394 OA
ATOM     32  H4  UNL     1     -11.562  17.290   0.901  1.00  0.00     0.210 HD
ENDBRANCH  26  31
BRANCH  30  33
HETATM   33  C23 UNL     1      -8.647  14.201   3.167  1.00  0.00     0.040 C 
BRANCH  33  34
HETATM   34  C24 UNL     1     -10.095  14.027   3.488  1.00  0.00    -0.024 C 
HETATM   35  C25 UNL     1     -10.705  14.700   4.435  1.00  0.00    -0.087 C 
HETATM   36  C26 UNL     1      -9.983  15.711   5.280  1.00  0.00     0.043 C 
BRANCH  35  37
HETATM   37  C27 UNL     1     -12.147  14.477   4.704  1.00  0.00     0.037 C 
BRANCH  37  38
HETATM   38  C28 UNL     1     -12.733  13.373   3.840  1.00  0.00     0.031 C 
BRANCH  38  39
HETATM   39  C29 UNL     1     -13.405  13.975   2.668  1.00  0.00    -0.024 C 
HETATM   40  C30 UNL     1     -13.313  13.430   1.479  1.00  0.00    -0.091 C 
HETATM   41  C31 UNL     1     -12.525  12.187   1.302  1.00  0.00     0.042 C 
HETATM   42  C32 UNL     1     -13.991  14.037   0.304  1.00  0.00     0.042 C 
ENDBRANCH  38  39
ENDBRANCH  37  38
ENDBRANCH  35  37
ENDBRANCH  33  34
ENDBRANCH  30  33
ENDBRANCH  24  25
ENDBRANCH   1  23
TORSDOF 12
ENDMDL
MODEL 2
REMARK VINA RESULT: -9.153375919      3.823      9.841
REMARK  12 active torsions:
REMARK  status: ('A' for Active; 'I' for Inactive)
REMARK    1  A    between atoms: C2_2  and  N1_3 
REMARK    2  A    between atoms: C9_11  and  O1_12 
REMARK    3  A    between atoms: N3_14  and  C10_15 
REMARK    4  A    between atoms: C14_20  and  C15_21 
REMARK    5  A    between atoms: C15_21  and  C16_23 
REMARK    6  A    between atoms: C17_24  and  C18_25 
REMARK    7  A    between atoms: C19_26  and  O4_27 
REMARK    8  A    between atoms: C22_32  and  C23_33 
REMARK    9  A    between atoms: C23_33  and  C24_34 
REMARK   10  A    between atoms: C25_35  and  C27_37 
REMARK   11  A    between atoms: C27_37  and  C28_38 
REMARK   12  A    between atoms: C28_38  and  C29_39 
ROOT
HETATM    1  C15 UNL     1      -8.587  14.777   2.099  1.00  0.00     0.172 C 
HETATM    2  O3  UNL     1      -7.871  13.712   2.049  1.00  0.00    -0.289 OA
ENDROOT
BRANCH   1   3
HETATM    3  C14 UNL     1      -9.952  14.691   2.475  1.00  0.00     0.072 C 
HETATM    4  C13 UNL     1     -10.521  14.451   3.635  1.00  0.00     0.050 A 
HETATM    5  C7  UNL     1     -11.959  14.397   3.728  1.00  0.00     0.031 A 
HETATM    6  C12 UNL     1      -9.798  14.457   4.829  1.00  0.00     0.261 A 
HETATM    7  C6  UNL     1     -12.665  13.963   2.716  1.00  0.00     0.020 C 
HETATM    8  C8  UNL     1     -12.434  14.379   5.020  1.00  0.00     0.110 A 
HETATM    9  N1  UNL     1     -13.996  13.377   2.859  1.00  0.00    -0.384 N 
HETATM   10  C5  UNL     1     -12.572  14.006   1.233  1.00  0.00     0.059 C 
HETATM   11  C3  UNL     1     -14.857  14.042   1.842  1.00  0.00     0.123 C 
HETATM   12  C4  UNL     1     -13.950  13.615   0.680  1.00  0.00     0.026 C 
HETATM   13  N2  UNL     1     -13.858  14.652   5.205  1.00  0.00    -0.097 NA
HETATM   14  C9  UNL     1     -11.682  14.387   6.172  1.00  0.00     0.171 A 
HETATM   15  N3  UNL     1     -10.375  14.423   6.054  1.00  0.00    -0.293 N 
HETATM   16  O2  UNL     1      -8.545  14.497   4.823  1.00  0.00    -0.267 OA
BRANCH   9  17
HETATM   17  C2  UNL     1     -14.495  12.286   3.651  1.00  0.00     0.118 C 
HETATM   18  C1  UNL     1     -13.586  11.020   3.514  1.00  0.00     0.026 C 
ENDBRANCH   9  17
BRANCH  14  19
HETATM   19  O1  UNL     1     -12.318  14.355   7.415  1.00  0.00    -0.344 OA
ATOM     20  H1  UNL     1     -12.696  15.150   7.772  1.00  0.00     0.219 HD
ENDBRANCH  14  19
BRANCH  15  21
HETATM   21  C10 UNL     1      -9.506  14.427   7.210  1.00  0.00     0.130 C 
HETATM   22  C11 UNL     1      -9.228  15.787   7.754  1.00  0.00     0.027 C 
ENDBRANCH  15  21
ENDBRANCH   1   3
BRANCH   1  23
HETATM   23  C16 UNL     1      -7.837  15.927   1.753  1.00  0.00     0.051 C 
HETATM   24  C17 UNL     1      -7.733  16.728   0.799  1.00  0.00    -0.015 C 
BRANCH  24  25
HETATM   25  C18 UNL     1      -8.326  16.955  -0.530  1.00  0.00     0.049 C 
HETATM   26  C19 UNL     1      -9.802  17.248  -0.330  1.00  0.00     0.133 C 
HETATM   27  C20 UNL     1     -10.584  16.287  -1.158  1.00  0.00     0.111 C 
HETATM   28  C21 UNL     1      -9.649  15.119  -1.264  1.00  0.00     0.134 C 
HETATM   29  O5  UNL     1      -9.970  13.961  -1.273  1.00  0.00    -0.297 OA
HETATM   30  C22 UNL     1      -8.308  15.680  -1.351  1.00  0.00     0.069 C 
BRANCH  26  31
HETATM   31  O4  UNL     1     -10.113  18.576  -0.645  1.00  0.00    -0.394 OA
ATOM     32  H4  UNL     1     -10.026  19.146   0.110  1.00  0.00     0.210 HD
ENDBRANCH  26  31
BRANCH  30  33
HETATM   33  C23 UNL     1      -8.003  16.041  -2.786  1.00  0.00     0.040 C 
BRANCH  33  34
HETATM   34  C24 UNL     1      -6.563  16.374  -2.998  1.00  0.00    -0.024 C 
HETATM   35  C25 UNL     1      -6.145  17.171  -3.953  1.00  0.00    -0.087 C 
HETATM   36  C26 UNL     1      -7.096  17.818  -4.919  1.00  0.00     0.043 C 
BRANCH  35  37
HETATM   37  C27 UNL     1      -4.698  17.459  -4.109  1.00  0.00     0.037 C 
BRANCH  37  38
HETATM   38  C28 UNL     1      -4.171  18.383  -3.024  1.00  0.00     0.031 C 
BRANCH  38  39
HETATM   39  C29 UNL     1      -3.902  17.596  -1.801  1.00  0.00    -0.024 C 
HETATM   40  C30 UNL     1      -4.432  17.930  -0.649  1.00  0.00    -0.091 C 
HETATM   41  C31 UNL     1      -5.317  19.116  -0.567  1.00  0.00     0.042 C 
HETATM   42  C32 UNL     1      -4.160  17.136   0.578  1.00  0.00     0.042 C 
ENDBRANCH  38  39
ENDBRANCH  37  38
ENDBRANCH  35  37
ENDBRANCH  33  34
ENDBRANCH  30  33
ENDBRANCH  24  25
ENDBRANCH   1  23
TORSDOF 12
ENDMDL
MODEL 3
REMARK VINA RESULT: -8.955946665      3.715      9.255
REMARK  12 active torsions:
REMARK  status: ('A' for Active; 'I' for Inactive)
REMARK    1  A    between atoms: C2_2  and  N1_3 
REMARK    2  A    between atoms: C9_11  and  O1_12 
REMARK    3  A    between atoms: N3_14  and  C10_15 
REMARK    4  A    between atoms: C14_20  and  C15_21 
REMARK    5  A    between atoms: C15_21  and  C16_23 
REMARK    6  A    between atoms: C17_24  and  C18_25 
REMARK    7  A    between atoms: C19_26  and  O4_27 
REMARK    8  A    between atoms: C22_32  and  C23_33 
REMARK    9  A    between atoms: C23_33  and  C24_34 
REMARK   10  A    between atoms: C25_35  and  C27_37 
REMARK   11  A    between atoms: C27_37  and  C28_38 
REMARK   12  A    between atoms: C28_38  and  C29_39 
ROOT
HETATM    1  C15 UNL     1      -8.412  15.961   1.535  1.00  0.00     0.172 C 
HETATM    2  O3  UNL     1      -7.308  15.509   2.010  1.00  0.00    -0.289 OA
ENDROOT
BRANCH   1   3
HETATM    3  C14 UNL     1      -9.629  15.288   1.818  1.00  0.00     0.072 C 
HETATM    4  C13 UNL     1     -10.242  15.041   2.953  1.00  0.00     0.050 A 
HETATM    5  C7  UNL     1     -11.479  14.299   2.951  1.00  0.00     0.031 A 
HETATM    6  C12 UNL     1      -9.859  15.650   4.149  1.00  0.00     0.261 A 
HETATM    7  C6  UNL     1     -11.686  13.375   2.048  1.00  0.00     0.020 C 
HETATM    8  C8  UNL     1     -12.141  14.313   4.158  1.00  0.00     0.110 A 
HETATM    9  N1  UNL     1     -12.596  12.249   2.249  1.00  0.00    -0.384 N 
HETATM   10  C5  UNL     1     -11.329  13.153   0.623  1.00  0.00     0.059 C 
HETATM   11  C3  UNL     1     -13.443  12.173   1.026  1.00  0.00     0.123 C 
HETATM   12  C4  UNL     1     -12.230  12.025   0.098  1.00  0.00     0.026 C 
HETATM   13  N2  UNL     1     -13.535  13.874   4.154  1.00  0.00    -0.097 NA
HETATM   14  C9  UNL     1     -11.725  14.929   5.315  1.00  0.00     0.171 A 
HETATM   15  N3  UNL     1     -10.588  15.585   5.289  1.00  0.00    -0.293 N 
HETATM   16  O2  UNL     1      -8.792  16.304   4.226  1.00  0.00    -0.267 OA
BRANCH   9  17
HETATM   17  C2  UNL     1     -12.684  11.243   3.273  1.00  0.00     0.118 C 
HETATM   18  C1  UNL     1     -13.905  10.294   3.036  1.00  0.00     0.026 C 
ENDBRANCH   9  17
BRANCH  14  19
HETATM   19  O1  UNL     1     -12.509  14.842   6.468  1.00  0.00    -0.344 OA
ATOM     20  H1  UNL     1     -13.030  15.588   6.741  1.00  0.00     0.219 HD
ENDBRANCH  14  19
BRANCH  15  21
HETATM   21  C10 UNL     1     -10.070  16.258   6.460  1.00  0.00     0.130 C 
HETATM   22  C11 UNL     1      -9.364  15.356   7.414  1.00  0.00     0.027 C 
ENDBRANCH  15  21
ENDBRANCH   1   3
BRANCH   1  23
HETATM   23  C16 UNL     1      -8.210  17.133   0.768  1.00  0.00     0.051 C 
HETATM   24  C17 UNL     1      -7.446  17.547  -0.131  1.00  0.00    -0.015 C 
BRANCH  24  25
HETATM   25  C18 UNL     1      -6.303  17.064  -0.925  1.00  0.00     0.049 C 
HETATM   26  C19 UNL     1      -5.070  17.130  -0.043  1.00  0.00     0.133 C 
HETATM   27  C20 UNL     1      -4.038  17.943  -0.746  1.00  0.00     0.111 C 
HETATM   28  C21 UNL     1      -4.869  18.828  -1.626  1.00  0.00     0.134 C 
HETATM   29  O5  UNL     1      -4.628  19.972  -1.899  1.00  0.00    -0.297 OA
HETATM   30  C22 UNL     1      -5.998  18.019  -2.063  1.00  0.00     0.069 C 
BRANCH  26  31
HETATM   31  O4  UNL     1      -4.595  15.854   0.279  1.00  0.00    -0.394 OA
ATOM     32  H4  UNL     1      -3.659  15.779   0.131  1.00  0.00     0.210 HD
ENDBRANCH  26  31
BRANCH  30  33
HETATM   33  C23 UNL     1      -5.600  17.207  -3.273  1.00  0.00     0.040 C 
BRANCH  33  34
HETATM   34  C24 UNL     1      -6.771  16.562  -3.940  1.00  0.00    -0.024 C 
HETATM   35  C25 UNL     1      -7.326  17.038  -5.030  1.00  0.00    -0.087 C 
HETATM   36  C26 UNL     1      -6.818  18.284  -5.699  1.00  0.00     0.043 C 
BRANCH  35  37
HETATM   37  C27 UNL     1      -8.489  16.349  -5.641  1.00  0.00     0.037 C 
BRANCH  37  38
HETATM   38  C28 UNL     1      -8.996  15.200  -4.786  1.00  0.00     0.031 C 
BRANCH  38  39
HETATM   39  C29 UNL     1      -9.989  15.713  -3.817  1.00  0.00    -0.024 C 
HETATM   40  C30 UNL     1      -9.920  15.400  -2.545  1.00  0.00    -0.091 C 
HETATM   41  C31 UNL     1      -8.829  14.519  -2.065  1.00  0.00     0.042 C 
HETATM   42  C32 UNL     1     -10.920  15.918  -1.575  1.00  0.00     0.042 C 
ENDBRANCH  38  39
ENDBRANCH  37  38
ENDBRANCH  35  37
ENDBRANCH  33  34
ENDBRANCH  30  33
ENDBRANCH  24  25
ENDBRANCH   1  23
TORSDOF 12
ENDMDL
MODEL 4
REMARK VINA RESULT: -8.949428897      1.497      2.543
REMARK  12 active torsions:
REMARK  status: ('A' for Active; 'I' for Inactive)
REMARK    1  A    between atoms: C2_2  and  N1_3 
REMARK    2  A    between atoms: C9_11  and  O1_12 
REMARK    3  A    between atoms: N3_14  and  C10_15 
REMARK    4  A    between atoms: C14_20  and  C15_21 
REMARK    5  A    between atoms: C15_21  and  C16_23 
REMARK    6  A    between atoms: C17_24  and  C18_25 
REMARK    7  A    between atoms: C19_26  and  O4_27 
REMARK    8  A    between atoms: C22_32  and  C23_33 
REMARK    9  A    between atoms: C23_33  and  C24_34 
REMARK   10  A    between atoms: C25_35  and  C27_37 
REMARK   11  A    between atoms: C27_37  and  C28_38 
REMARK   12  A    between atoms: C28_38  and  C29_39 
ROOT
HETATM    1  C15 UNL     1      -9.682  15.726  -2.031  1.00  0.00     0.172 C 
HETATM    2  O3  UNL     1     -10.743  16.416  -2.250  1.00  0.00    -0.289 OA
ENDROOT
BRANCH   1   3
HETATM    3  C14 UNL     1      -8.406  16.323  -2.204  1.00  0.00     0.072 C 
HETATM    4  C13 UNL     1      -7.734  16.638  -3.288  1.00  0.00     0.050 A 
HETATM    5  C7  UNL     1      -6.421  17.224  -3.169  1.00  0.00     0.031 A 
HETATM    6  C12 UNL     1      -8.322  16.628  -4.553  1.00  0.00     0.261 A 
HETATM    7  C6  UNL     1      -5.647  16.898  -2.166  1.00  0.00     0.020 C 
HETATM    8  C8  UNL     1      -5.925  17.726  -4.351  1.00  0.00     0.110 A 
HETATM    9  N1  UNL     1      -4.189  16.988  -2.216  1.00  0.00    -0.384 N 
HETATM   10  C5  UNL     1      -5.823  16.535  -0.736  1.00  0.00     0.059 C 
HETATM   11  C3  UNL     1      -3.770  17.685  -0.969  1.00  0.00     0.123 C 
HETATM   12  C4  UNL     1      -4.445  16.644  -0.066  1.00  0.00     0.026 C 
HETATM   13  N2  UNL     1      -4.767  18.613  -4.259  1.00  0.00    -0.097 NA
HETATM   14  C9  UNL     1      -6.542  17.694  -5.580  1.00  0.00     0.171 A 
HETATM   15  N3  UNL     1      -7.731  17.142  -5.658  1.00  0.00    -0.293 N 
HETATM   16  O2  UNL     1      -9.459  16.128  -4.731  1.00  0.00    -0.267 OA
BRANCH   9  17
HETATM   17  C2  UNL     1      -3.215  16.441  -3.122  1.00  0.00     0.118 C 
HETATM   18  C1  UNL     1      -1.859  17.218  -3.036  1.00  0.00     0.026 C 
ENDBRANCH   9  17
BRANCH  14  19
HETATM   19  O1  UNL     1      -5.899  18.240  -6.693  1.00  0.00    -0.344 OA
ATOM     20  H1  UNL     1      -5.977  17.814  -7.539  1.00  0.00     0.219 HD
ENDBRANCH  14  19
BRANCH  15  21
HETATM   21  C10 UNL     1      -8.451  17.058  -6.909  1.00  0.00     0.130 C 
HETATM   22  C11 UNL     1      -8.089  15.873  -7.739  1.00  0.00     0.027 C 
ENDBRANCH  15  21
ENDBRANCH   1   3
BRANCH   1  23
HETATM   23  C16 UNL     1      -9.991  14.407  -1.621  1.00  0.00     0.051 C 
HETATM   24  C17 UNL     1     -10.238  13.786  -0.565  1.00  0.00    -0.015 C 
BRANCH  24  25
HETATM   25  C18 UNL     1     -10.353  14.053   0.879  1.00  0.00     0.049 C 
HETATM   26  C19 UNL     1     -11.356  15.178   1.059  1.00  0.00     0.133 C 
HETATM   27  C20 UNL     1     -10.702  16.264   1.843  1.00  0.00     0.111 C 
HETATM   28  C21 UNL     1      -9.250  16.059   1.528  1.00  0.00     0.134 C 
HETATM   29  O5  UNL     1      -8.432  16.927   1.391  1.00  0.00    -0.297 OA
HETATM   30  C22 UNL     1      -9.057  14.619   1.426  1.00  0.00     0.069 C 
BRANCH  26  31
HETATM   31  O4  UNL     1     -12.531  14.731   1.674  1.00  0.00    -0.394 OA
ATOM     32  H4  UNL     1     -12.716  13.824   1.461  1.00  0.00     0.210 HD
ENDBRANCH  26  31
BRANCH  30  33
HETATM   33  C23 UNL     1      -8.829  14.041   2.804  1.00  0.00     0.040 C 
BRANCH  33  34
HETATM   34  C24 UNL     1      -8.860  15.084   3.873  1.00  0.00    -0.024 C 
HETATM   35  C25 UNL     1      -8.718  14.807   5.148  1.00  0.00    -0.087 C 
HETATM   36  C26 UNL     1      -8.509  13.401   5.635  1.00  0.00     0.043 C 
BRANCH  35  37
HETATM   37  C27 UNL     1      -8.761  15.890   6.160  1.00  0.00     0.037 C 
BRANCH  37  38
HETATM   38  C28 UNL     1     -10.183  16.289   6.520  1.00  0.00     0.031 C 
BRANCH  38  39
HETATM   39  C29 UNL     1     -10.770  15.258   7.404  1.00  0.00    -0.024 C 
HETATM   40  C30 UNL     1     -11.804  14.548   7.024  1.00  0.00    -0.091 C 
HETATM   41  C31 UNL     1     -12.399  14.778   5.686  1.00  0.00     0.042 C 
HETATM   42  C32 UNL     1     -12.391  13.512   7.914  1.00  0.00     0.042 C 
ENDBRANCH  38  39
ENDBRANCH  37  38
ENDBRANCH  35  37
ENDBRANCH  33  34
ENDBRANCH  30  33
ENDBRANCH  24  25
ENDBRANCH   1  23
TORSDOF 12
ENDMDL
MODEL 5
REMARK VINA RESULT: -8.907355220      3.687      9.679
REMARK  12 active torsions:
REMARK  status: ('A' for Active; 'I' for Inactive)
REMARK    1  A    between atoms: C2_2  and  N1_3 
REMARK    2  A    between atoms: C9_11  and  O1_12 
REMARK    3  A    between atoms: N3_14  and  C10_15 
REMARK    4  A    between atoms: C14_20  and  C15_21 
REMARK    5  A    between atoms: C15_21  and  C16_23 
REMARK    6  A    between atoms: C17_24  and  C18_25 
REMARK    7  A    between atoms: C19_26  and  O4_27 
REMARK    8  A    between atoms: C22_32  and  C23_33 
REMARK    9  A    between atoms: C23_33  and  C24_34 
REMARK   10  A    between atoms: C25_35  and  C27_37 
REMARK   11  A    between atoms: C27_37  and  C28_38 
REMARK   12  A    between atoms: C28_38  and  C29_39 
ROOT
HETATM    1  C15 UNL     1      -8.474  15.036   1.737  1.00  0.00     0.172 C 
HETATM    2  O3  UNL     1      -7.811  14.008   1.345  1.00  0.00    -0.289 OA
ENDROOT
BRANCH   1   3
HETATM    3  C14 UNL     1      -9.821  14.887   2.155  1.00  0.00     0.072 C 
HETATM    4  C13 UNL     1     -10.342  14.605   3.327  1.00  0.00     0.050 A 
HETATM    5  C7  UNL     1     -11.773  14.489   3.465  1.00  0.00     0.031 A 
HETATM    6  C12 UNL     1      -9.582  14.623   4.498  1.00  0.00     0.261 A 
HETATM    7  C6  UNL     1     -12.492  14.043   2.467  1.00  0.00     0.020 C 
HETATM    8  C8  UNL     1     -12.206  14.432   4.770  1.00  0.00     0.110 A 
HETATM    9  N1  UNL     1     -13.793  13.400   2.643  1.00  0.00    -0.384 N 
HETATM   10  C5  UNL     1     -12.449  14.113   0.984  1.00  0.00     0.059 C 
HETATM   11  C3  UNL     1     -14.713  14.045   1.665  1.00  0.00     0.123 C 
HETATM   12  C4  UNL     1     -13.828  13.674   0.467  1.00  0.00     0.026 C 
HETATM   13  N2  UNL     1     -13.633  14.642   5.005  1.00  0.00    -0.097 NA
HETATM   14  C9  UNL     1     -11.418  14.452   5.898  1.00  0.00     0.171 A 
HETATM   15  N3  UNL     1     -10.118  14.545   5.740  1.00  0.00    -0.293 N 
HETATM   16  O2  UNL     1      -8.332  14.714   4.453  1.00  0.00    -0.267 OA
BRANCH   9  17
HETATM   17  C2  UNL     1     -14.221  12.276   3.431  1.00  0.00     0.118 C 
HETATM   18  C1  UNL     1     -13.345  11.012   3.145  1.00  0.00     0.026 C 
ENDBRANCH   9  17
BRANCH  14  19
HETATM   19  O1  UNL     1     -12.011  14.375   7.160  1.00  0.00    -0.344 OA
ATOM     20  H1  UNL     1     -11.837  15.049   7.806  1.00  0.00     0.219 HD
ENDBRANCH  14  19
BRANCH  15  21
HETATM   21  C10 UNL     1      -9.213  14.567   6.867  1.00  0.00     0.130 C 
HETATM   22  C11 UNL     1      -9.203  15.859   7.611  1.00  0.00     0.027 C 
ENDBRANCH  15  21
ENDBRANCH   1   3
BRANCH   1  23
HETATM   23  C16 UNL     1      -7.690  16.213   1.686  1.00  0.00     0.051 C 
HETATM   24  C17 UNL     1      -7.464  17.158   0.900  1.00  0.00    -0.015 C 
BRANCH  24  25
HETATM   25  C18 UNL     1      -7.877  17.609  -0.440  1.00  0.00     0.049 C 
HETATM   26  C19 UNL     1      -9.376  17.399  -0.553  1.00  0.00     0.133 C 
HETATM   27  C20 UNL     1      -9.639  16.563  -1.759  1.00  0.00     0.111 C 
HETATM   28  C21 UNL     1      -8.358  15.799  -1.906  1.00  0.00     0.134 C 
HETATM   29  O5  UNL     1      -8.258  14.660  -2.276  1.00  0.00    -0.297 OA
HETATM   30  C22 UNL     1      -7.294  16.712  -1.514  1.00  0.00     0.069 C 
BRANCH  26  31
HETATM   31  O4  UNL     1     -10.068  18.615  -0.605  1.00  0.00    -0.394 OA
ATOM     32  H4  UNL     1     -10.503  18.737  -1.440  1.00  0.00     0.210 HD
ENDBRANCH  26  31
BRANCH  30  33
HETATM   33  C23 UNL     1      -6.904  17.571  -2.694  1.00  0.00     0.040 C 
BRANCH  33  34
HETATM   34  C24 UNL     1      -6.330  16.773  -3.818  1.00  0.00    -0.024 C 
HETATM   35  C25 UNL     1      -6.133  17.264  -5.018  1.00  0.00    -0.087 C 
HETATM   36  C26 UNL     1      -6.474  18.687  -5.358  1.00  0.00     0.043 C 
BRANCH  35  37
HETATM   37  C27 UNL     1      -5.560  16.415  -6.092  1.00  0.00     0.037 C 
BRANCH  37  38
HETATM   38  C28 UNL     1      -6.608  15.541  -6.759  1.00  0.00     0.031 C 
BRANCH  38  39
HETATM   39  C29 UNL     1      -7.772  15.398  -5.856  1.00  0.00    -0.024 C 
HETATM   40  C30 UNL     1      -8.989  15.647  -6.275  1.00  0.00    -0.091 C 
HETATM   41  C31 UNL     1      -9.209  16.078  -7.676  1.00  0.00     0.042 C 
HETATM   42  C32 UNL     1     -10.156  15.502  -5.365  1.00  0.00     0.042 C 
ENDBRANCH  38  39
ENDBRANCH  37  38
ENDBRANCH  35  37
ENDBRANCH  33  34
ENDBRANCH  30  33
ENDBRANCH  24  25
ENDBRANCH   1  23
TORSDOF 12
ENDMDL
