MODEL 1
REMARK VINA RESULT: -4.632886066      0.000      0.000
REMARK  13 active torsions:
REMARK  status: ('A' for Active; 'I' for Inactive)
REMARK    1  A    between atoms: C2_2  and  O1_3 
REMARK    2  A    between atoms: C3_5  and  O2_6 
REMARK    3  A    between atoms: C4_8  and  C5_9 
REMARK    4  A    between atoms: C5_9  and  O3_10 
REMARK    5  A    between atoms: C6_13  and  N1_14 
REMARK    6  A    between atoms: C7_15  and  C8_16 
REMARK    7  A    between atoms: C8_16  and  O4_17 
REMARK    8  A    between atoms: C11_21  and  O5_22 
REMARK    9  A    between atoms: C13_29  and  C14_30 
REMARK   10  A    between atoms: C14_30  and  O7_31 
REMARK   11  A    between atoms: C14_30  and  O8_33 
REMARK   12  A    between atoms: C15_36  and  C16_37 
REMARK   13  A    between atoms: C16_37  and  O10_38 
ROOT
HETATM    1  N1  UNL     1     -23.436  -7.475   8.791  1.00  0.00    -0.311 N 
HETATM    2  C7  UNL     1     -22.243  -7.950   9.515  1.00  0.00     0.038 C 
HETATM    3  C9  UNL     1     -21.525  -6.899  10.269  1.00  0.00     0.028 C 
HETATM    4  C10 UNL     1     -20.818  -5.874   9.889  1.00  0.00     0.046 C 
HETATM    5  C11 UNL     1     -20.421  -5.311   8.609  1.00  0.00     0.277 C 
HETATM    6  N2  UNL     1     -21.056  -6.014   7.564  1.00  0.00     0.014 N 
ATOM      7  H21 UNL     1     -21.102  -7.029   7.661  1.00  0.00     0.287 HD
ATOM      8  H22 UNL     1     -20.559  -6.051   6.674  1.00  0.00     0.287 HD
HETATM    9  C12 UNL     1     -22.327  -5.301   7.571  1.00  0.00     0.480 C 
HETATM   10  O6  UNL     1     -23.295  -5.952   6.943  1.00  0.00    -0.279 OA
HETATM   11  C13 UNL     1     -23.311  -7.281   7.448  1.00  0.00     0.182 C 
HETATM   12  O9  UNL     1     -21.834  -4.079   7.187  1.00  0.00    -0.326 OA
HETATM   13  C15 UNL     1     -20.958  -3.909   8.310  1.00  0.00     0.217 C 
ENDROOT
BRANCH   1  14
HETATM   14  C6  UNL     1     -24.259  -6.926   9.717  1.00  0.00     0.190 C 
HETATM   15  C2  UNL     1     -25.467  -6.172   9.649  1.00  0.00     0.111 C 
HETATM   16  C1  UNL     1     -26.789  -6.882   9.429  1.00  0.00     0.051 C 
HETATM   17  C3  UNL     1     -25.629  -5.705  11.129  1.00  0.00     0.170 C 
HETATM   18  C4  UNL     1     -25.698  -6.911  11.987  1.00  0.00     0.105 C 
HETATM   19  S1  UNL     1     -24.946  -8.197  10.915  1.00  0.00    -0.130 SA
BRANCH  15  20
HETATM   20  O1  UNL     1     -25.529  -4.999   8.928  1.00  0.00    -0.385 OA
ATOM     21  H1  UNL     1     -24.774  -4.998   8.351  1.00  0.00     0.210 HD
ENDBRANCH  15  20
BRANCH  17  22
HETATM   22  O2  UNL     1     -24.569  -4.913  11.502  1.00  0.00    -0.391 OA
ATOM     23  H2  UNL     1     -24.836  -4.004  11.555  1.00  0.00     0.210 HD
ENDBRANCH  17  22
BRANCH  18  24
HETATM   24  C5  UNL     1     -27.001  -7.307  12.538  1.00  0.00     0.181 C 
BRANCH  24  25
HETATM   25  O3  UNL     1     -27.832  -6.197  12.749  1.00  0.00    -0.400 OA
ATOM     26  H3  UNL     1     -28.661  -6.289  12.294  1.00  0.00     0.209 HD
ENDBRANCH  24  25
ENDBRANCH  18  24
ENDBRANCH   1  14
BRANCH   2  27
HETATM   27  C8  UNL     1     -21.455  -9.024   8.921  1.00  0.00     0.221 C 
BRANCH  27  28
HETATM   28  O4  UNL     1     -21.112  -9.885  10.001  1.00  0.00    -0.395 OA
ATOM     29  H4  UNL     1     -20.163  -9.907  10.015  1.00  0.00     0.209 HD
ENDBRANCH  27  28
ENDBRANCH   2  27
BRANCH  11  30
HETATM   30  C14 UNL     1     -24.063  -8.186   6.474  1.00  0.00     0.331 C 
BRANCH  30  31
HETATM   31  O7  UNL     1     -25.424  -8.144   6.690  1.00  0.00    -0.364 OA
ATOM     32  H7  UNL     1     -25.843  -8.960   6.442  1.00  0.00     0.213 HD
ENDBRANCH  30  31
BRANCH  30  33
HETATM   33  O8  UNL     1     -23.648  -8.106   5.171  1.00  0.00    -0.364 OA
ATOM     34  H8  UNL     1     -23.894  -8.844   4.625  1.00  0.00     0.213 HD
ENDBRANCH  30  33
ENDBRANCH  11  30
BRANCH   5  35
HETATM   35  O5  UNL     1     -19.040  -5.363   8.445  1.00  0.00    -0.360 OA
ATOM     36  H5  UNL     1     -18.786  -6.107   7.912  1.00  0.00     0.213 HD
ENDBRANCH   5  35
BRANCH  13  37
HETATM   37  C16 UNL     1     -19.848  -3.010   7.797  1.00  0.00     0.201 C 
BRANCH  37  38
HETATM   38  O10 UNL     1     -19.412  -3.466   6.557  1.00  0.00    -0.398 OA
ATOM     39  H10 UNL     1     -18.882  -2.798   6.139  1.00  0.00     0.209 HD
ENDBRANCH  37  38
ENDBRANCH  13  37
TORSDOF 13
ENDMDL
MODEL 2
REMARK VINA RESULT: -4.612548532      2.708      5.517
REMARK  13 active torsions:
REMARK  status: ('A' for Active; 'I' for Inactive)
REMARK    1  A    between atoms: C2_2  and  O1_3 
REMARK    2  A    between atoms: C3_5  and  O2_6 
REMARK    3  A    between atoms: C4_8  and  C5_9 
REMARK    4  A    between atoms: C5_9  and  O3_10 
REMARK    5  A    between atoms: C6_13  and  N1_14 
REMARK    6  A    between atoms: C7_15  and  C8_16 
REMARK    7  A    between atoms: C8_16  and  O4_17 
REMARK    8  A    between atoms: C11_21  and  O5_22 
REMARK    9  A    between atoms: C13_29  and  C14_30 
REMARK   10  A    between atoms: C14_30  and  O7_31 
REMARK   11  A    between atoms: C14_30  and  O8_33 
REMARK   12  A    between atoms: C15_36  and  C16_37 
REMARK   13  A    between atoms: C16_37  and  O10_38 
ROOT
HETATM    1  N1  UNL     1     -23.058  -4.866  10.035  1.00  0.00    -0.311 N 
HETATM    2  C7  UNL     1     -24.474  -4.696   9.661  1.00  0.00     0.038 C 
HETATM    3  C9  UNL     1     -24.695  -4.372   8.234  1.00  0.00     0.028 C 
HETATM    4  C10 UNL     1     -24.439  -3.311   7.525  1.00  0.00     0.046 C 
HETATM    5  C11 UNL     1     -23.844  -2.012   7.789  1.00  0.00     0.277 C 
HETATM    6  N2  UNL     1     -23.355  -1.974   9.111  1.00  0.00     0.014 N 
ATOM      7  H21 UNL     1     -23.946  -2.398   9.827  1.00  0.00     0.287 HD
ATOM      8  H22 UNL     1     -23.341  -1.060   9.565  1.00  0.00     0.287 HD
HETATM    9  C12 UNL     1     -22.062  -2.605   8.878  1.00  0.00     0.480 C 
HETATM   10  O6  UNL     1     -21.490  -3.051   9.986  1.00  0.00    -0.279 OA
HETATM   11  C13 UNL     1     -22.458  -3.828  10.682  1.00  0.00     0.182 C 
HETATM   12  O9  UNL     1     -21.541  -1.621   8.075  1.00  0.00    -0.326 OA
HETATM   13  C15 UNL     1     -22.536  -1.721   7.047  1.00  0.00     0.217 C 
ENDROOT
BRANCH   1  14
HETATM   14  C6  UNL     1     -22.566  -5.858   9.254  1.00  0.00     0.190 C 
HETATM   15  C2  UNL     1     -21.476  -5.955   8.339  1.00  0.00     0.111 C 
HETATM   16  C1  UNL     1     -20.069  -6.167   8.861  1.00  0.00     0.051 C 
HETATM   17  C3  UNL     1     -21.751  -7.336   7.669  1.00  0.00     0.170 C 
HETATM   18  C4  UNL     1     -21.762  -8.369   8.732  1.00  0.00     0.105 C 
HETATM   19  S1  UNL     1     -22.062  -7.372  10.243  1.00  0.00    -0.130 SA
BRANCH  15  20
HETATM   20  O1  UNL     1     -21.370  -5.089   7.272  1.00  0.00    -0.385 OA
ATOM     21  H1  UNL     1     -22.211  -4.652   7.196  1.00  0.00     0.210 HD
ENDBRANCH  15  20
BRANCH  17  22
HETATM   22  O2  UNL     1     -22.956  -7.320   7.007  1.00  0.00    -0.391 OA
ATOM     23  H2  UNL     1     -23.381  -8.166   7.070  1.00  0.00     0.210 HD
ENDBRANCH  17  22
BRANCH  18  24
HETATM   24  C5  UNL     1     -20.604  -9.265   8.852  1.00  0.00     0.181 C 
BRANCH  24  25
HETATM   25  O3  UNL     1     -20.792 -10.451   8.125  1.00  0.00    -0.400 OA
ATOM     26  H3  UNL     1     -20.040 -11.028   8.197  1.00  0.00     0.209 HD
ENDBRANCH  24  25
ENDBRANCH  18  24
ENDBRANCH   1  14
BRANCH   2  27
HETATM   27  C8  UNL     1     -25.384  -4.118  10.643  1.00  0.00     0.221 C 
BRANCH  27  28
HETATM   28  O4  UNL     1     -25.583  -5.134  11.619  1.00  0.00    -0.395 OA
ATOM     29  H4  UNL     1     -25.795  -4.675  12.423  1.00  0.00     0.209 HD
ENDBRANCH  27  28
ENDBRANCH   2  27
BRANCH  11  30
HETATM   30  C14 UNL     1     -22.034  -3.981  12.140  1.00  0.00     0.331 C 
BRANCH  30  31
HETATM   31  O7  UNL     1     -22.854  -4.857  12.819  1.00  0.00    -0.364 OA
ATOM     32  H7  UNL     1     -22.382  -5.323  13.500  1.00  0.00     0.213 HD
ENDBRANCH  30  31
BRANCH  30  33
HETATM   33  O8  UNL     1     -20.686  -4.127  12.339  1.00  0.00    -0.364 OA
ATOM     34  H8  UNL     1     -20.415  -4.987  12.639  1.00  0.00     0.213 HD
ENDBRANCH  30  33
ENDBRANCH  11  30
BRANCH   5  35
HETATM   35  O5  UNL     1     -24.766  -0.989   7.595  1.00  0.00    -0.360 OA
ATOM     36  H5  UNL     1     -25.654  -1.296   7.737  1.00  0.00     0.213 HD
ENDBRANCH   5  35
BRANCH  13  37
HETATM   37  C16 UNL     1     -22.575  -0.341   6.416  1.00  0.00     0.201 C 
BRANCH  37  38
HETATM   38  O10 UNL     1     -22.960  -0.447   5.084  1.00  0.00    -0.398 OA
ATOM     39  H10 UNL     1     -23.719   0.102   4.926  1.00  0.00     0.209 HD
ENDBRANCH  37  38
ENDBRANCH  13  37
TORSDOF 13
ENDMDL
MODEL 3
REMARK VINA RESULT: -4.607026977      2.666      6.166
REMARK  13 active torsions:
REMARK  status: ('A' for Active; 'I' for Inactive)
REMARK    1  A    between atoms: C2_2  and  O1_3 
REMARK    2  A    between atoms: C3_5  and  O2_6 
REMARK    3  A    between atoms: C4_8  and  C5_9 
REMARK    4  A    between atoms: C5_9  and  O3_10 
REMARK    5  A    between atoms: C6_13  and  N1_14 
REMARK    6  A    between atoms: C7_15  and  C8_16 
REMARK    7  A    between atoms: C8_16  and  O4_17 
REMARK    8  A    between atoms: C11_21  and  O5_22 
REMARK    9  A    between atoms: C13_29  and  C14_30 
REMARK   10  A    between atoms: C14_30  and  O7_31 
REMARK   11  A    between atoms: C14_30  and  O8_33 
REMARK   12  A    between atoms: C15_36  and  C16_37 
REMARK   13  A    between atoms: C16_37  and  O10_38 
ROOT
HETATM    1  N1  UNL     1     -23.496  -6.169   9.518  1.00  0.00    -0.311 N 
HETATM    2  C7  UNL     1     -23.308  -7.093   8.385  1.00  0.00     0.038 C 
HETATM    3  C9  UNL     1     -24.479  -7.207   7.488  1.00  0.00     0.028 C 
HETATM    4  C10 UNL     1     -25.659  -7.732   7.648  1.00  0.00     0.046 C 
HETATM    5  C11 UNL     1     -26.346  -8.418   8.729  1.00  0.00     0.277 C 
HETATM    6  N2  UNL     1     -25.543  -8.400   9.888  1.00  0.00     0.014 N 
ATOM      7  H21 UNL     1     -24.546  -8.570   9.754  1.00  0.00     0.287 HD
ATOM      8  H22 UNL     1     -25.661  -9.180  10.535  1.00  0.00     0.287 HD
HETATM    9  C12 UNL     1     -25.917  -7.082  10.384  1.00  0.00     0.480 C 
HETATM   10  O6  UNL     1     -25.067  -6.599  11.279  1.00  0.00    -0.279 OA
HETATM   11  C13 UNL     1     -23.759  -6.725  10.734  1.00  0.00     0.182 C 
HETATM   12  O9  UNL     1     -27.235  -7.367  10.637  1.00  0.00    -0.326 OA
HETATM   13  C15 UNL     1     -27.580  -7.703   9.286  1.00  0.00     0.217 C 
ENDROOT
BRANCH   1  14
HETATM   14  C6  UNL     1     -23.791  -4.958   8.988  1.00  0.00     0.190 C 
HETATM   15  C2  UNL     1     -24.042  -3.667   9.538  1.00  0.00     0.111 C 
HETATM   16  C1  UNL     1     -22.882  -2.789   9.964  1.00  0.00     0.051 C 
HETATM   17  C3  UNL     1     -24.555  -2.887   8.288  1.00  0.00     0.170 C 
HETATM   18  C4  UNL     1     -23.493  -2.925   7.255  1.00  0.00     0.105 C 
HETATM   19  S1  UNL     1     -22.476  -4.354   7.792  1.00  0.00    -0.130 SA
BRANCH  15  20
HETATM   20  O1  UNL     1     -25.038  -3.479  10.472  1.00  0.00    -0.385 OA
ATOM     21  H1  UNL     1     -25.764  -4.032  10.206  1.00  0.00     0.210 HD
ENDBRANCH  15  20
BRANCH  17  22
HETATM   22  O2  UNL     1     -25.711  -3.457   7.806  1.00  0.00    -0.391 OA
ATOM     23  H2  UNL     1     -26.019  -4.132   8.398  1.00  0.00     0.210 HD
ENDBRANCH  17  22
BRANCH  18  24
HETATM   24  C5  UNL     1     -22.703  -1.710   7.016  1.00  0.00     0.181 C 
BRANCH  24  25
HETATM   25  O3  UNL     1     -22.957  -1.170   5.746  1.00  0.00    -0.400 OA
ATOM     26  H3  UNL     1     -23.853  -1.327   5.471  1.00  0.00     0.209 HD
ENDBRANCH  24  25
ENDBRANCH  18  24
ENDBRANCH   1  14
BRANCH   2  27
HETATM   27  C8  UNL     1     -22.485  -8.280   8.588  1.00  0.00     0.221 C 
BRANCH  27  28
HETATM   28  O4  UNL     1     -21.146  -7.803   8.668  1.00  0.00    -0.395 OA
ATOM     29  H4  UNL     1     -20.898  -7.593   7.775  1.00  0.00     0.209 HD
ENDBRANCH  27  28
ENDBRANCH   2  27
BRANCH  11  30
HETATM   30  C14 UNL     1     -22.730  -6.624  11.858  1.00  0.00     0.331 C 
BRANCH  30  31
HETATM   31  O7  UNL     1     -21.462  -6.394  11.366  1.00  0.00    -0.364 OA
ATOM     32  H7  UNL     1     -20.793  -6.723  11.955  1.00  0.00     0.213 HD
ENDBRANCH  30  31
BRANCH  30  33
HETATM   33  O8  UNL     1     -23.116  -5.866  12.931  1.00  0.00    -0.364 OA
ATOM     34  H8  UNL     1     -22.944  -6.255  13.781  1.00  0.00     0.213 HD
ENDBRANCH  30  33
ENDBRANCH  11  30
BRANCH   5  35
HETATM   35  O5  UNL     1     -26.645  -9.731   8.380  1.00  0.00    -0.360 OA
ATOM     36  H5  UNL     1     -26.287  -9.950   7.528  1.00  0.00     0.213 HD
ENDBRANCH   5  35
BRANCH  13  37
HETATM   37  C16 UNL     1     -28.744  -8.669   9.417  1.00  0.00     0.201 C 
BRANCH  37  38
HETATM   38  O10 UNL     1     -29.233  -8.985   8.154  1.00  0.00    -0.398 OA
ATOM     39  H10 UNL     1     -30.081  -8.576   8.028  1.00  0.00     0.209 HD
ENDBRANCH  37  38
ENDBRANCH  13  37
TORSDOF 13
ENDMDL
MODEL 4
REMARK VINA RESULT: -4.550929392      2.032      2.614
REMARK  13 active torsions:
REMARK  status: ('A' for Active; 'I' for Inactive)
REMARK    1  A    between atoms: C2_2  and  O1_3 
REMARK    2  A    between atoms: C3_5  and  O2_6 
REMARK    3  A    between atoms: C4_8  and  C5_9 
REMARK    4  A    between atoms: C5_9  and  O3_10 
REMARK    5  A    between atoms: C6_13  and  N1_14 
REMARK    6  A    between atoms: C7_15  and  C8_16 
REMARK    7  A    between atoms: C8_16  and  O4_17 
REMARK    8  A    between atoms: C11_21  and  O5_22 
REMARK    9  A    between atoms: C13_29  and  C14_30 
REMARK   10  A    between atoms: C14_30  and  O7_31 
REMARK   11  A    between atoms: C14_30  and  O8_33 
REMARK   12  A    between atoms: C15_36  and  C16_37 
REMARK   13  A    between atoms: C16_37  and  O10_38 
ROOT
HETATM    1  N1  UNL     1     -22.906  -5.900   9.422  1.00  0.00    -0.311 N 
HETATM    2  C7  UNL     1     -21.922  -5.121  10.195  1.00  0.00     0.038 C 
HETATM    3  C9  UNL     1     -22.343  -3.738  10.504  1.00  0.00     0.028 C 
HETATM    4  C10 UNL     1     -22.508  -2.683   9.758  1.00  0.00     0.046 C 
HETATM    5  C11 UNL     1     -22.361  -2.386   8.343  1.00  0.00     0.277 C 
HETATM    6  N2  UNL     1     -22.068  -3.572   7.638  1.00  0.00     0.014 N 
ATOM      7  H21 UNL     1     -21.404  -4.210   8.077  1.00  0.00     0.287 HD
ATOM      8  H22 UNL     1     -21.515  -3.469   6.787  1.00  0.00     0.287 HD
HETATM    9  C12 UNL     1     -23.430  -4.063   7.473  1.00  0.00     0.480 C 
HETATM   10  O6  UNL     1     -23.488  -5.350   7.160  1.00  0.00    -0.279 OA
HETATM   11  C13 UNL     1     -22.668  -6.050   8.088  1.00  0.00     0.182 C 
HETATM   12  O9  UNL     1     -23.877  -3.046   6.668  1.00  0.00    -0.326 OA
HETATM   13  C15 UNL     1     -23.650  -1.992   7.615  1.00  0.00     0.217 C 
ENDROOT
BRANCH   1  14
HETATM   14  C6  UNL     1     -24.049  -5.917  10.150  1.00  0.00     0.190 C 
HETATM   15  C2  UNL     1     -25.377  -6.371   9.904  1.00  0.00     0.111 C 
HETATM   16  C1  UNL     1     -25.708  -7.845  10.033  1.00  0.00     0.051 C 
HETATM   17  C3  UNL     1     -26.141  -5.791  11.134  1.00  0.00     0.170 C 
HETATM   18  C4  UNL     1     -25.515  -6.338  12.362  1.00  0.00     0.105 C 
HETATM   19  S1  UNL     1     -23.865  -6.865  11.759  1.00  0.00    -0.130 SA
BRANCH  15  20
HETATM   20  O1  UNL     1     -26.096  -5.903   8.824  1.00  0.00    -0.385 OA
ATOM     21  H1  UNL     1     -26.202  -4.968   8.957  1.00  0.00     0.210 HD
ENDBRANCH  15  20
BRANCH  17  22
HETATM   22  O2  UNL     1     -26.077  -4.418  11.137  1.00  0.00    -0.391 OA
ATOM     23  H2  UNL     1     -26.276  -4.078  12.001  1.00  0.00     0.210 HD
ENDBRANCH  17  22
BRANCH  18  24
HETATM   24  C5  UNL     1     -26.225  -7.391  13.101  1.00  0.00     0.181 C 
BRANCH  24  25
HETATM   25  O3  UNL     1     -27.616  -7.272  12.963  1.00  0.00    -0.400 OA
ATOM     26  H3  UNL     1     -27.870  -7.170  12.053  1.00  0.00     0.209 HD
ENDBRANCH  24  25
ENDBRANCH  18  24
ENDBRANCH   1  14
BRANCH   2  27
HETATM   27  C8  UNL     1     -20.504  -5.368   9.959  1.00  0.00     0.221 C 
BRANCH  27  28
HETATM   28  O4  UNL     1     -20.264  -6.687  10.435  1.00  0.00    -0.395 OA
ATOM     29  H4  UNL     1     -19.586  -6.599  11.094  1.00  0.00     0.209 HD
ENDBRANCH  27  28
ENDBRANCH   2  27
BRANCH  11  30
HETATM   30  C14 UNL     1     -22.327  -7.428   7.525  1.00  0.00     0.331 C 
BRANCH  30  31
HETATM   31  O7  UNL     1     -22.085  -8.342   8.529  1.00  0.00    -0.364 OA
ATOM     32  H7  UNL     1     -22.043  -9.229   8.192  1.00  0.00     0.213 HD
ENDBRANCH  30  31
BRANCH  30  33
HETATM   33  O8  UNL     1     -23.129  -7.848   6.496  1.00  0.00    -0.364 OA
ATOM     34  H8  UNL     1     -22.674  -8.288   5.787  1.00  0.00     0.213 HD
ENDBRANCH  30  33
ENDBRANCH  11  30
BRANCH   5  35
HETATM   35  O5  UNL     1     -21.359  -1.446   8.128  1.00  0.00    -0.360 OA
ATOM     36  H5  UNL     1     -20.544  -1.714   8.536  1.00  0.00     0.213 HD
ENDBRANCH   5  35
BRANCH  13  37
HETATM   37  C16 UNL     1     -23.425  -0.756   6.764  1.00  0.00     0.201 C 
BRANCH  37  38
HETATM   38  O10 UNL     1     -22.949  -1.130   5.512  1.00  0.00    -0.398 OA
ATOM     39  H10 UNL     1     -23.414  -0.649   4.837  1.00  0.00     0.209 HD
ENDBRANCH  37  38
ENDBRANCH  13  37
TORSDOF 13
ENDMDL
MODEL 5
REMARK VINA RESULT: -4.540212851      3.053      6.836
REMARK  13 active torsions:
REMARK  status: ('A' for Active; 'I' for Inactive)
REMARK    1  A    between atoms: C2_2  and  O1_3 
REMARK    2  A    between atoms: C3_5  and  O2_6 
REMARK    3  A    between atoms: C4_8  and  C5_9 
REMARK    4  A    between atoms: C5_9  and  O3_10 
REMARK    5  A    between atoms: C6_13  and  N1_14 
REMARK    6  A    between atoms: C7_15  and  C8_16 
REMARK    7  A    between atoms: C8_16  and  O4_17 
REMARK    8  A    between atoms: C11_21  and  O5_22 
REMARK    9  A    between atoms: C13_29  and  C14_30 
REMARK   10  A    between atoms: C14_30  and  O7_31 
REMARK   11  A    between atoms: C14_30  and  O8_33 
REMARK   12  A    between atoms: C15_36  and  C16_37 
REMARK   13  A    between atoms: C16_37  and  O10_38 
ROOT
HETATM    1  N1  UNL     1     -22.466  -2.377   8.578  1.00  0.00    -0.311 N 
HETATM    2  C7  UNL     1     -22.985  -2.589   9.942  1.00  0.00     0.038 C 
HETATM    3  C9  UNL     1     -22.648  -3.905  10.527  1.00  0.00     0.028 C 
HETATM    4  C10 UNL     1     -23.042  -5.115  10.251  1.00  0.00     0.046 C 
HETATM    5  C11 UNL     1     -23.951  -5.710   9.285  1.00  0.00     0.277 C 
HETATM    6  N2  UNL     1     -24.415  -4.717   8.398  1.00  0.00     0.014 N 
ATOM      7  H21 UNL     1     -24.657  -3.816   8.809  1.00  0.00     0.287 HD
ATOM      8  H22 UNL     1     -25.342  -4.863   7.998  1.00  0.00     0.287 HD
HETATM    9  C12 UNL     1     -23.295  -4.726   7.465  1.00  0.00     0.480 C 
HETATM   10  O6  UNL     1     -23.245  -3.647   6.698  1.00  0.00    -0.279 OA
HETATM   11  C13 UNL     1     -23.351  -2.514   7.550  1.00  0.00     0.182 C 
HETATM   12  O9  UNL     1     -23.478  -6.004   6.999  1.00  0.00    -0.326 OA
HETATM   13  C15 UNL     1     -23.306  -6.654   8.266  1.00  0.00     0.217 C 
ENDROOT
BRANCH   1  14
HETATM   14  C6  UNL     1     -21.121  -2.522   8.646  1.00  0.00     0.190 C 
HETATM   15  C2  UNL     1     -20.090  -2.692   7.677  1.00  0.00     0.111 C 
HETATM   16  C1  UNL     1     -19.553  -1.489   6.926  1.00  0.00     0.051 C 
HETATM   17  C3  UNL     1     -18.866  -3.043   8.578  1.00  0.00     0.170 C 
HETATM   18  C4  UNL     1     -18.652  -1.920   9.521  1.00  0.00     0.105 C 
HETATM   19  S1  UNL     1     -20.282  -1.077   9.502  1.00  0.00    -0.130 SA
BRANCH  15  20
HETATM   20  O1  UNL     1     -20.136  -3.730   6.770  1.00  0.00    -0.385 OA
ATOM     21  H1  UNL     1     -21.056  -3.915   6.620  1.00  0.00     0.210 HD
ENDBRANCH  15  20
BRANCH  17  22
HETATM   22  O2  UNL     1     -19.096  -4.210   9.269  1.00  0.00    -0.391 OA
ATOM     23  H2  UNL     1     -18.289  -4.699   9.372  1.00  0.00     0.210 HD
ENDBRANCH  17  22
BRANCH  18  24
HETATM   24  C5  UNL     1     -17.526  -1.007   9.281  1.00  0.00     0.181 C 
BRANCH  24  25
HETATM   25  O3  UNL     1     -16.445  -1.668   8.678  1.00  0.00    -0.400 OA
ATOM     26  H3  UNL     1     -15.614  -1.287   8.938  1.00  0.00     0.209 HD
ENDBRANCH  24  25
ENDBRANCH  18  24
ENDBRANCH   1  14
BRANCH   2  27
HETATM   27  C8  UNL     1     -24.267  -1.991  10.296  1.00  0.00     0.221 C 
BRANCH  27  28
HETATM   28  O4  UNL     1     -24.006  -0.600  10.453  1.00  0.00    -0.395 OA
ATOM     29  H4  UNL     1     -23.468  -0.358   9.709  1.00  0.00     0.209 HD
ENDBRANCH  27  28
ENDBRANCH   2  27
BRANCH  11  30
HETATM   30  C14 UNL     1     -23.755  -1.294   6.726  1.00  0.00     0.331 C 
BRANCH  30  31
HETATM   31  O7  UNL     1     -23.983  -0.193   7.525  1.00  0.00    -0.364 OA
ATOM     32  H7  UNL     1     -23.293   0.453   7.435  1.00  0.00     0.213 HD
ENDBRANCH  30  31
BRANCH  30  33
HETATM   33  O8  UNL     1     -23.009  -1.085   5.596  1.00  0.00    -0.364 OA
ATOM     34  H8  UNL     1     -22.084  -0.932   5.748  1.00  0.00     0.213 HD
ENDBRANCH  30  33
ENDBRANCH  11  30
BRANCH   5  35
HETATM   35  O5  UNL     1     -25.027  -6.320   9.920  1.00  0.00    -0.360 OA
ATOM     36  H5  UNL     1     -25.713  -5.691  10.112  1.00  0.00     0.213 HD
ENDBRANCH   5  35
BRANCH  13  37
HETATM   37  C16 UNL     1     -24.104  -7.939   8.149  1.00  0.00     0.201 C 
BRANCH  37  38
HETATM   38  O10 UNL     1     -25.261  -7.705   7.412  1.00  0.00    -0.398 OA
ATOM     39  H10 UNL     1     -25.614  -8.530   7.103  1.00  0.00     0.209 HD
ENDBRANCH  37  38
ENDBRANCH  13  37
TORSDOF 13
ENDMDL
