MODEL 1
REMARK VINA RESULT: -8.614842519      0.000      0.000
REMARK  6 active torsions:
REMARK  status: ('A' for Active; 'I' for Inactive)
REMARK    1  A    between atoms: N3_18  and  C9_19 
REMARK    2  A    between atoms: C12_24  and  N5_25 
REMARK    3  A    between atoms: N5_25  and  C13_27 
REMARK    4  A    between atoms: C16_30  and  C17_31 
REMARK    5  A    between atoms: C17_31  and  C18_32 
REMARK    6  A    between atoms: C18_32  and  C19_33 
ROOT
HETATM    1  C9  UNL     1      16.077  68.952  17.717  1.00  0.00     0.127 A 
HETATM    2  C10 UNL     1      15.363  69.787  16.869  1.00  0.00     0.067 A 
HETATM    3  C11 UNL     1      15.126  71.100  17.204  1.00  0.00     0.110 A 
HETATM    4  N4  UNL     1      15.601  71.548  18.360  1.00  0.00    -0.202 N 
ATOM      5  H4  UNL     1      15.428  72.521  18.611  1.00  0.00     0.183 HD
HETATM    6  C12 UNL     1      16.311  70.768  19.230  1.00  0.00     0.679 A 
HETATM    7  N6  UNL     1      16.523  69.490  18.871  1.00  0.00    -0.176 N 
ATOM      8  H6  UNL     1      17.051  68.893  19.509  1.00  0.00     0.186 HD
ENDROOT
BRANCH   1   9
HETATM    9  N3  UNL     1      16.301  67.604  17.337  1.00  0.00    -0.301 N 
HETATM   10  C8  UNL     1      16.079  66.501  18.205  1.00  0.00     0.228 C 
HETATM   11  C7  UNL     1      15.989  65.241  17.391  1.00  0.00     0.136 C 
HETATM   12  O1  UNL     1      15.967  66.520  19.457  1.00  0.00    -0.273 OA
HETATM   13  C6  UNL     1      16.316  65.640  15.990  1.00  0.00     0.064 C 
HETATM   14  N1  UNL     1      15.213  65.474  15.066  1.00  0.00    -0.358 N 
HETATM   15  C5  UNL     1      17.499  64.828  15.509  1.00  0.00     0.119 C 
HETATM   16  C26 UNL     1      16.773  67.078  16.069  1.00  0.00     0.165 C 
HETATM   17  C1  UNL     1      14.102  66.396  14.969  1.00  0.00     0.152 C 
HETATM   18  C2  UNL     1      15.221  64.342  14.207  1.00  0.00     0.153 C 
HETATM   19  N2  UNL     1      14.686  64.386  13.018  1.00  0.00    -0.384 N 
HETATM   20  C3  UNL     1      15.870  63.080  14.714  1.00  0.00     0.364 C 
ATOM     21  H22 UNL     1      14.247  65.241  12.675  1.00  0.00     0.157 HD
ATOM     22  H21 UNL     1      14.692  63.574  12.402  1.00  0.00     0.157 HD
HETATM   23  F1  UNL     1      15.960  62.209  13.631  1.00  0.00    -0.191 F 
HETATM   24  F2  UNL     1      14.991  62.504  15.614  1.00  0.00    -0.191 F 
HETATM   25  C4  UNL     1      17.211  63.383  15.294  1.00  0.00     0.317 C 
HETATM   26  F3  UNL     1      17.369  62.606  16.424  1.00  0.00    -0.199 F 
HETATM   27  F4  UNL     1      18.168  62.906  14.386  1.00  0.00    -0.199 F 
ENDBRANCH   1   9
BRANCH   6  28
HETATM   28  N5  UNL     1      16.722  71.297  20.315  1.00  0.00    -0.221 N 
ATOM     29  H5  UNL     1      16.253  71.034  21.181  1.00  0.00     0.178 HD
BRANCH  28  30
HETATM   30  C13 UNL     1      17.805  72.241  20.398  1.00  0.00     0.099 C 
HETATM   31  C14 UNL     1      19.009  71.799  19.596  1.00  0.00     0.026 C 
HETATM   32  C15 UNL     1      19.709  70.625  20.224  1.00  0.00     0.006 C 
HETATM   33  C16 UNL     1      19.823  70.662  21.705  1.00  0.00    -0.014 C 
HETATM   34  C24 UNL     1      18.580  71.140  22.408  1.00  0.00     0.006 C 
HETATM   35  C25 UNL     1      18.184  72.470  21.851  1.00  0.00     0.026 C 
BRANCH  33  36
HETATM   36  C17 UNL     1      20.104  69.265  22.226  1.00  0.00     0.005 C 
BRANCH  36  37
HETATM   37  C18 UNL     1      18.926  68.353  22.158  1.00  0.00     0.005 C 
BRANCH  37  38
HETATM   38  C19 UNL     1      18.658  67.754  23.503  1.00  0.00    -0.010 C 
HETATM   39  C20 UNL     1      17.210  67.967  23.946  1.00  0.00     0.031 C 
HETATM   40  C21 UNL     1      17.015  67.147  25.217  1.00  0.00     0.168 C 
HETATM   41  O2  UNL     1      18.201  66.570  25.637  1.00  0.00    -0.391 OA
HETATM   42  C22 UNL     1      19.201  67.502  25.858  1.00  0.00     0.168 C 
HETATM   43  C23 UNL     1      19.524  68.304  24.594  1.00  0.00     0.031 C 
ENDBRANCH  37  38
ENDBRANCH  36  37
ENDBRANCH  33  36
ENDBRANCH  28  30
ENDBRANCH   6  28
TORSDOF 6
ENDMDL
MODEL 2
REMARK VINA RESULT: -8.175421801      1.212      1.835
REMARK  6 active torsions:
REMARK  status: ('A' for Active; 'I' for Inactive)
REMARK    1  A    between atoms: N3_18  and  C9_19 
REMARK    2  A    between atoms: C12_24  and  N5_25 
REMARK    3  A    between atoms: N5_25  and  C13_27 
REMARK    4  A    between atoms: C16_30  and  C17_31 
REMARK    5  A    between atoms: C17_31  and  C18_32 
REMARK    6  A    between atoms: C18_32  and  C19_33 
ROOT
HETATM    1  C9  UNL     1      15.421  69.796  17.236  1.00  0.00     0.127 A 
HETATM    2  C10 UNL     1      14.309  70.248  16.541  1.00  0.00     0.067 A 
HETATM    3  C11 UNL     1      13.869  71.545  16.675  1.00  0.00     0.110 A 
HETATM    4  N4  UNL     1      14.538  72.352  17.489  1.00  0.00    -0.202 N 
ATOM      5  H4  UNL     1      14.216  73.314  17.592  1.00  0.00     0.183 HD
HETATM    6  C12 UNL     1      15.640  71.957  18.197  1.00  0.00     0.679 A 
HETATM    7  N6  UNL     1      16.041  70.684  18.041  1.00  0.00    -0.176 N 
ATOM      8  H6  UNL     1      16.862  70.371  18.562  1.00  0.00     0.186 HD
ENDROOT
BRANCH   1   9
HETATM    9  N3  UNL     1      15.844  68.452  17.071  1.00  0.00    -0.301 N 
HETATM   10  C8  UNL     1      15.799  67.485  18.112  1.00  0.00     0.228 C 
HETATM   11  C7  UNL     1      15.895  66.110  17.514  1.00  0.00     0.136 C 
HETATM   12  O1  UNL     1      15.695  67.692  19.348  1.00  0.00    -0.273 OA
HETATM   13  C6  UNL     1      16.147  66.318  16.057  1.00  0.00     0.064 C 
HETATM   14  N1  UNL     1      15.075  65.841  15.208  1.00  0.00    -0.358 N 
HETATM   15  C5  UNL     1      17.436  65.624  15.676  1.00  0.00     0.119 C 
HETATM   16  C26 UNL     1      16.381  67.802  15.890  1.00  0.00     0.165 C 
HETATM   17  C1  UNL     1      13.836  66.559  15.000  1.00  0.00     0.152 C 
HETATM   18  C2  UNL     1      15.249  64.598  14.542  1.00  0.00     0.153 C 
HETATM   19  N2  UNL     1      14.704  64.367  13.380  1.00  0.00    -0.384 N 
HETATM   20  C3  UNL     1      16.086  63.547  15.225  1.00  0.00     0.364 C 
ATOM     21  H22 UNL     1      14.138  65.079  12.918  1.00  0.00     0.157 HD
ATOM     22  H21 UNL     1      14.829  63.475  12.902  1.00  0.00     0.157 HD
HETATM   23  F1  UNL     1      16.299  62.533  14.293  1.00  0.00    -0.191 F 
HETATM   24  F2  UNL     1      15.312  63.001  16.233  1.00  0.00    -0.191 F 
HETATM   25  C4  UNL     1      17.369  64.136  15.704  1.00  0.00     0.317 C 
HETATM   26  F3  UNL     1      17.652  63.587  16.939  1.00  0.00    -0.199 F 
HETATM   27  F4  UNL     1      18.381  63.665  14.855  1.00  0.00    -0.199 F 
ENDBRANCH   1   9
BRANCH   6  28
HETATM   28  N5  UNL     1      16.209  72.812  18.951  1.00  0.00    -0.221 N 
ATOM     29  H5  UNL     1      17.138  73.139  18.685  1.00  0.00     0.178 HD
BRANCH  28  30
HETATM   30  C13 UNL     1      15.629  73.347  20.154  1.00  0.00     0.099 C 
HETATM   31  C14 UNL     1      16.562  74.307  20.859  1.00  0.00     0.026 C 
HETATM   32  C15 UNL     1      17.731  73.601  21.490  1.00  0.00     0.006 C 
HETATM   33  C16 UNL     1      17.420  72.307  22.150  1.00  0.00    -0.014 C 
HETATM   34  C24 UNL     1      16.463  71.436  21.379  1.00  0.00     0.006 C 
HETATM   35  C25 UNL     1      15.222  72.216  21.082  1.00  0.00     0.026 C 
BRANCH  33  36
HETATM   36  C17 UNL     1      18.697  71.504  22.316  1.00  0.00     0.005 C 
BRANCH  36  37
HETATM   37  C18 UNL     1      18.561  70.074  21.913  1.00  0.00     0.005 C 
BRANCH  37  38
HETATM   38  C19 UNL     1      18.409  69.209  23.125  1.00  0.00    -0.010 C 
HETATM   39  C20 UNL     1      19.755  68.679  23.622  1.00  0.00     0.031 C 
HETATM   40  C21 UNL     1      19.489  67.992  24.957  1.00  0.00     0.168 C 
HETATM   41  O2  UNL     1      18.136  67.954  25.251  1.00  0.00    -0.391 OA
HETATM   42  C22 UNL     1      17.394  67.320  24.269  1.00  0.00     0.168 C 
HETATM   43  C23 UNL     1      17.532  68.014  22.910  1.00  0.00     0.031 C 
ENDBRANCH  37  38
ENDBRANCH  36  37
ENDBRANCH  33  36
ENDBRANCH  28  30
ENDBRANCH   6  28
TORSDOF 6
ENDMDL
MODEL 3
REMARK VINA RESULT: -7.970643030      3.296      4.835
REMARK  6 active torsions:
REMARK  status: ('A' for Active; 'I' for Inactive)
REMARK    1  A    between atoms: N3_18  and  C9_19 
REMARK    2  A    between atoms: C12_24  and  N5_25 
REMARK    3  A    between atoms: N5_25  and  C13_27 
REMARK    4  A    between atoms: C16_30  and  C17_31 
REMARK    5  A    between atoms: C17_31  and  C18_32 
REMARK    6  A    between atoms: C18_32  and  C19_33 
ROOT
HETATM    1  C9  UNL     1      15.193  69.521  16.914  1.00  0.00     0.127 A 
HETATM    2  C10 UNL     1      14.190  69.942  16.053  1.00  0.00     0.067 A 
HETATM    3  C11 UNL     1      13.709  71.230  16.103  1.00  0.00     0.110 A 
HETATM    4  N4  UNL     1      14.231  72.060  16.997  1.00  0.00    -0.202 N 
ATOM      5  H4  UNL     1      13.877  73.016  17.037  1.00  0.00     0.183 HD
HETATM    6  C12 UNL     1      15.221  71.696  17.868  1.00  0.00     0.679 A 
HETATM    7  N6  UNL     1      15.667  70.431  17.792  1.00  0.00    -0.176 N 
ATOM      8  H6  UNL     1      16.405  70.141  18.434  1.00  0.00     0.186 HD
ENDROOT
BRANCH   1   9
HETATM    9  N3  UNL     1      15.664  68.186  16.833  1.00  0.00    -0.301 N 
HETATM   10  C8  UNL     1      15.583  67.262  17.909  1.00  0.00     0.228 C 
HETATM   11  C7  UNL     1      15.755  65.867  17.378  1.00  0.00     0.136 C 
HETATM   12  O1  UNL     1      15.399  67.517  19.127  1.00  0.00    -0.273 OA
HETATM   13  C6  UNL     1      16.088  66.022  15.931  1.00  0.00     0.064 C 
HETATM   14  N1  UNL     1      15.083  65.477  15.042  1.00  0.00    -0.358 N 
HETATM   15  C5  UNL     1      17.417  65.353  15.657  1.00  0.00     0.119 C 
HETATM   16  C26 UNL     1      16.289  67.504  15.714  1.00  0.00     0.165 C 
HETATM   17  C1  UNL     1      13.839  66.147  14.730  1.00  0.00     0.152 C 
HETATM   18  C2  UNL     1      15.332  64.214  14.441  1.00  0.00     0.153 C 
HETATM   19  N2  UNL     1      14.866  63.918  13.260  1.00  0.00    -0.384 N 
HETATM   20  C3  UNL     1      16.156  63.218  15.217  1.00  0.00     0.364 C 
ATOM     21  H22 UNL     1      14.308  64.593  12.735  1.00  0.00     0.157 HD
ATOM     22  H21 UNL     1      15.045  63.011  12.829  1.00  0.00     0.157 HD
HETATM   23  F1  UNL     1      16.454  62.174  14.344  1.00  0.00    -0.191 F 
HETATM   24  F2  UNL     1      15.338  62.691  16.201  1.00  0.00    -0.191 F 
HETATM   25  C4  UNL     1      17.391  63.866  15.746  1.00  0.00     0.317 C 
HETATM   26  F3  UNL     1      17.614  63.377  17.018  1.00  0.00    -0.199 F 
HETATM   27  F4  UNL     1      18.465  63.392  14.979  1.00  0.00    -0.199 F 
ENDBRANCH   1   9
BRANCH   6  28
HETATM   28  N5  UNL     1      15.653  72.572  18.689  1.00  0.00    -0.221 N 
ATOM     29  H5  UNL     1      16.660  72.722  18.738  1.00  0.00     0.178 HD
BRANCH  28  30
HETATM   30  C13 UNL     1      14.813  73.361  19.549  1.00  0.00     0.099 C 
HETATM   31  C14 UNL     1      15.165  74.831  19.497  1.00  0.00     0.026 C 
HETATM   32  C15 UNL     1      16.480  75.123  20.168  1.00  0.00     0.006 C 
HETATM   33  C16 UNL     1      16.737  74.380  21.428  1.00  0.00    -0.014 C 
HETATM   34  C24 UNL     1      16.328  72.931  21.385  1.00  0.00     0.006 C 
HETATM   35  C25 UNL     1      14.893  72.841  20.974  1.00  0.00     0.026 C 
BRANCH  33  36
HETATM   36  C17 UNL     1      18.224  74.400  21.733  1.00  0.00     0.005 C 
BRANCH  36  37
HETATM   37  C18 UNL     1      18.549  74.919  23.093  1.00  0.00     0.005 C 
BRANCH  37  38
HETATM   38  C19 UNL     1      18.471  76.413  23.107  1.00  0.00    -0.010 C 
HETATM   39  C20 UNL     1      19.828  77.054  23.403  1.00  0.00     0.031 C 
HETATM   40  C21 UNL     1      19.659  78.555  23.190  1.00  0.00     0.168 C 
HETATM   41  O2  UNL     1      18.343  78.886  22.916  1.00  0.00    -0.391 OA
HETATM   42  C22 UNL     1      17.471  78.477  23.911  1.00  0.00     0.168 C 
HETATM   43  C23 UNL     1      17.511  76.960  24.118  1.00  0.00     0.031 C 
ENDBRANCH  37  38
ENDBRANCH  36  37
ENDBRANCH  33  36
ENDBRANCH  28  30
ENDBRANCH   6  28
TORSDOF 6
ENDMDL
MODEL 4
REMARK VINA RESULT: -7.900475107      8.670     12.747
REMARK  6 active torsions:
REMARK  status: ('A' for Active; 'I' for Inactive)
REMARK    1  A    between atoms: N3_18  and  C9_19 
REMARK    2  A    between atoms: C12_24  and  N5_25 
REMARK    3  A    between atoms: N5_25  and  C13_27 
REMARK    4  A    between atoms: C16_30  and  C17_31 
REMARK    5  A    between atoms: C17_31  and  C18_32 
REMARK    6  A    between atoms: C18_32  and  C19_33 
ROOT
HETATM    1  C9  UNL     1      20.258  75.244  23.632  1.00  0.00     0.127 A 
HETATM    2  C10 UNL     1      19.189  76.119  23.514  1.00  0.00     0.067 A 
HETATM    3  C11 UNL     1      18.025  75.735  22.887  1.00  0.00     0.110 A 
HETATM    4  N4  UNL     1      17.955  74.503  22.398  1.00  0.00    -0.202 N 
ATOM      5  H4  UNL     1      17.094  74.214  21.933  1.00  0.00     0.183 HD
HETATM    6  C12 UNL     1      18.979  73.602  22.488  1.00  0.00     0.679 A 
HETATM    7  N6  UNL     1      20.100  74.011  23.107  1.00  0.00    -0.176 N 
ATOM      8  H6  UNL     1      20.875  73.351  23.183  1.00  0.00     0.186 HD
ENDROOT
BRANCH   1   9
HETATM    9  N3  UNL     1      21.441  75.676  24.285  1.00  0.00    -0.301 N 
HETATM   10  C8  UNL     1      22.745  75.278  23.885  1.00  0.00     0.228 C 
HETATM   11  C7  UNL     1      23.754  76.221  24.476  1.00  0.00     0.136 C 
HETATM   12  O1  UNL     1      23.059  74.302  23.156  1.00  0.00    -0.273 OA
HETATM   13  C6  UNL     1      22.982  77.128  25.376  1.00  0.00     0.064 C 
HETATM   14  N1  UNL     1      22.988  78.513  24.950  1.00  0.00    -0.358 N 
HETATM   15  C5  UNL     1      23.547  77.032  26.777  1.00  0.00     0.119 C 
HETATM   16  C26 UNL     1      21.582  76.560  25.428  1.00  0.00     0.165 C 
HETATM   17  C1  UNL     1      22.161  79.026  23.879  1.00  0.00     0.152 C 
HETATM   18  C2  UNL     1      23.854  79.418  25.620  1.00  0.00     0.153 C 
HETATM   19  N2  UNL     1      23.546  80.677  25.761  1.00  0.00    -0.384 N 
HETATM   20  C3  UNL     1      25.151  78.875  26.165  1.00  0.00     0.364 C 
ATOM     21  H22 UNL     1      22.668  81.044  25.392  1.00  0.00     0.157 HD
ATOM     22  H21 UNL     1      24.168  81.326  26.243  1.00  0.00     0.157 HD
HETATM   23  F1  UNL     1      25.702  79.875  26.964  1.00  0.00    -0.191 F 
HETATM   24  F2  UNL     1      26.007  78.709  25.091  1.00  0.00    -0.191 F 
HETATM   25  C4  UNL     1      24.905  77.623  26.937  1.00  0.00     0.317 C 
HETATM   26  F3  UNL     1      25.934  76.745  26.657  1.00  0.00    -0.199 F 
HETATM   27  F4  UNL     1      25.055  77.940  28.295  1.00  0.00    -0.199 F 
ENDBRANCH   1   9
BRANCH   6  28
HETATM   28  N5  UNL     1      18.807  72.443  21.985  1.00  0.00    -0.221 N 
ATOM     29  H5  UNL     1      18.998  71.634  22.575  1.00  0.00     0.178 HD
BRANCH  28  30
HETATM   30  C13 UNL     1      18.362  72.201  20.638  1.00  0.00     0.099 C 
HETATM   31  C14 UNL     1      16.928  71.721  20.590  1.00  0.00     0.026 C 
HETATM   32  C15 UNL     1      16.783  70.316  21.111  1.00  0.00     0.006 C 
HETATM   33  C16 UNL     1      17.858  69.371  20.716  1.00  0.00    -0.014 C 
HETATM   34  C24 UNL     1      19.246  69.954  20.774  1.00  0.00     0.006 C 
HETATM   35  C25 UNL     1      19.285  71.205  19.957  1.00  0.00     0.026 C 
BRANCH  33  36
HETATM   36  C17 UNL     1      17.852  68.177  21.654  1.00  0.00     0.005 C 
BRANCH  36  37
HETATM   37  C18 UNL     1      19.101  68.042  22.457  1.00  0.00     0.005 C 
BRANCH  37  38
HETATM   38  C19 UNL     1      18.771  67.645  23.862  1.00  0.00    -0.010 C 
HETATM   39  C20 UNL     1      17.341  68.030  24.244  1.00  0.00     0.031 C 
HETATM   40  C21 UNL     1      17.067  67.400  25.605  1.00  0.00     0.168 C 
HETATM   41  O2  UNL     1      18.196  66.788  26.120  1.00  0.00    -0.391 OA
HETATM   42  C22 UNL     1      19.268  67.657  26.241  1.00  0.00     0.168 C 
HETATM   43  C23 UNL     1      19.669  68.260  24.892  1.00  0.00     0.031 C 
ENDBRANCH  37  38
ENDBRANCH  36  37
ENDBRANCH  33  36
ENDBRANCH  28  30
ENDBRANCH   6  28
TORSDOF 6
ENDMDL
MODEL 5
REMARK VINA RESULT: -7.865104581      1.219      1.669
REMARK  6 active torsions:
REMARK  status: ('A' for Active; 'I' for Inactive)
REMARK    1  A    between atoms: N3_18  and  C9_19 
REMARK    2  A    between atoms: C12_24  and  N5_25 
REMARK    3  A    between atoms: N5_25  and  C13_27 
REMARK    4  A    between atoms: C16_30  and  C17_31 
REMARK    5  A    between atoms: C17_31  and  C18_32 
REMARK    6  A    between atoms: C18_32  and  C19_33 
ROOT
HETATM    1  C9  UNL     1      15.351  69.742  17.268  1.00  0.00     0.127 A 
HETATM    2  C10 UNL     1      14.562  70.320  16.285  1.00  0.00     0.067 A 
HETATM    3  C11 UNL     1      14.130  71.621  16.398  1.00  0.00     0.110 A 
HETATM    4  N4  UNL     1      14.489  72.308  17.476  1.00  0.00    -0.202 N 
ATOM      5  H4  UNL     1      14.170  73.273  17.564  1.00  0.00     0.183 HD
HETATM    6  C12 UNL     1      15.264  71.786  18.473  1.00  0.00     0.679 A 
HETATM    7  N6  UNL     1      15.669  70.513  18.330  1.00  0.00    -0.176 N 
ATOM      8  H6  UNL     1      16.249  70.106  19.064  1.00  0.00     0.186 HD
ENDROOT
BRANCH   1   9
HETATM    9  N3  UNL     1      15.778  68.398  17.115  1.00  0.00    -0.301 N 
HETATM   10  C8  UNL     1      15.719  67.435  18.159  1.00  0.00     0.228 C 
HETATM   11  C7  UNL     1      15.825  66.057  17.569  1.00  0.00     0.136 C 
HETATM   12  O1  UNL     1      15.598  67.648  19.393  1.00  0.00    -0.273 OA
HETATM   13  C6  UNL     1      16.097  66.259  16.115  1.00  0.00     0.064 C 
HETATM   14  N1  UNL     1      15.036  65.777  15.253  1.00  0.00    -0.358 N 
HETATM   15  C5  UNL     1      17.391  65.564  15.754  1.00  0.00     0.119 C 
HETATM   16  C26 UNL     1      16.331  67.743  15.944  1.00  0.00     0.165 C 
HETATM   17  C1  UNL     1      13.800  66.493  15.025  1.00  0.00     0.152 C 
HETATM   18  C2  UNL     1      15.220  64.532  14.596  1.00  0.00     0.153 C 
HETATM   19  N2  UNL     1      14.692  64.295  13.427  1.00  0.00    -0.384 N 
HETATM   20  C3  UNL     1      16.049  63.484  15.294  1.00  0.00     0.364 C 
ATOM     21  H22 UNL     1      14.131  65.004  12.954  1.00  0.00     0.157 HD
ATOM     22  H21 UNL     1      14.825  63.400  12.955  1.00  0.00     0.157 HD
HETATM   23  F1  UNL     1      16.276  62.466  14.370  1.00  0.00    -0.191 F 
HETATM   24  F2  UNL     1      15.261  62.942  16.295  1.00  0.00    -0.191 F 
HETATM   25  C4  UNL     1      17.325  64.077  15.789  1.00  0.00     0.317 C 
HETATM   26  F3  UNL     1      17.592  63.533  17.030  1.00  0.00    -0.199 F 
HETATM   27  F4  UNL     1      18.349  63.603  14.955  1.00  0.00    -0.199 F 
ENDBRANCH   1   9
BRANCH   6  28
HETATM   28  N5  UNL     1      15.552  72.533  19.466  1.00  0.00    -0.221 N 
ATOM     29  H5  UNL     1      15.150  72.295  20.373  1.00  0.00     0.178 HD
BRANCH  28  30
HETATM   30  C13 UNL     1      16.405  73.689  19.392  1.00  0.00     0.099 C 
HETATM   31  C14 UNL     1      17.789  73.344  18.887  1.00  0.00     0.026 C 
HETATM   32  C15 UNL     1      18.584  72.565  19.899  1.00  0.00     0.006 C 
HETATM   33  C16 UNL     1      18.437  73.007  21.310  1.00  0.00    -0.014 C 
HETATM   34  C24 UNL     1      17.026  73.350  21.706  1.00  0.00     0.006 C 
HETATM   35  C25 UNL     1      16.483  74.365  20.751  1.00  0.00     0.026 C 
BRANCH  33  36
HETATM   36  C17 UNL     1      18.887  71.894  22.238  1.00  0.00     0.005 C 
BRANCH  36  37
HETATM   37  C18 UNL     1      19.417  70.696  21.524  1.00  0.00     0.005 C 
BRANCH  37  38
HETATM   38  C19 UNL     1      18.963  69.445  22.206  1.00  0.00    -0.010 C 
HETATM   39  C20 UNL     1      17.475  69.492  22.556  1.00  0.00     0.031 C 
HETATM   40  C21 UNL     1      17.098  68.100  23.054  1.00  0.00     0.168 C 
HETATM   41  O2  UNL     1      18.205  67.275  23.146  1.00  0.00    -0.391 OA
HETATM   42  C22 UNL     1      19.189  67.791  23.973  1.00  0.00     0.168 C 
HETATM   43  C23 UNL     1      19.692  69.151  23.481  1.00  0.00     0.031 C 
ENDBRANCH  37  38
ENDBRANCH  36  37
ENDBRANCH  33  36
ENDBRANCH  28  30
ENDBRANCH   6  28
TORSDOF 6
ENDMDL
