MODEL 1
REMARK VINA RESULT: -6.972621259      0.000      0.000
REMARK  8 active torsions:
REMARK  status: ('A' for Active; 'I' for Inactive)
REMARK    1  A    between atoms: C2_2  and  C3_3 
REMARK    2  A    between atoms: C7_7  and  N1_8 
REMARK    3  A    between atoms: N1_8  and  C8_10 
REMARK    4  A    between atoms: C11_15  and  N3_16 
REMARK    5  A    between atoms: N3_16  and  C12_18 
REMARK    6  A    between atoms: N4_21  and  C15_22 
REMARK    7  A    between atoms: C15_22  and  C16_23 
REMARK    8  A    between atoms: C22_32  and  N6_33 
ROOT
HETATM    1  C8  UNL     1      17.610  71.147  21.004  1.00  0.00     0.118 A 
HETATM    2  C9  UNL     1      16.883  72.240  21.508  1.00  0.00     0.066 A 
HETATM    3  C10 UNL     1      15.729  72.650  20.923  1.00  0.00     0.110 A 
HETATM    4  N2  UNL     1      15.297  71.968  19.830  1.00  0.00    -0.202 N 
ATOM      5  H2  UNL     1      14.433  72.256  19.371  1.00  0.00     0.183 HD
HETATM    6  C11 UNL     1      15.978  70.933  19.348  1.00  0.00     0.679 A 
HETATM    7  N5  UNL     1      17.138  70.525  19.938  1.00  0.00    -0.177 N 
ATOM      8  H5  UNL     1      17.648  69.730  19.551  1.00  0.00     0.185 HD
ENDROOT
BRANCH   1   9
HETATM    9  N1  UNL     1      18.636  70.860  21.607  1.00  0.00    -0.369 N 
ATOM     10  H1  UNL     1      18.516  71.256  22.539  1.00  0.00     0.161 HD
BRANCH   9  11
HETATM   11  C7  UNL     1      19.870  70.260  21.630  1.00  0.00     0.120 C 
HETATM   12  C5  UNL     1      20.669  70.546  20.374  1.00  0.00     0.007 C 
HETATM   13  C4  UNL     1      21.256  69.234  19.890  1.00  0.00     0.013 C 
HETATM   14  C6  UNL     1      21.868  71.449  20.641  1.00  0.00     0.012 C 
HETATM   15  C3  UNL     1      21.062  68.248  21.056  1.00  0.00     0.021 C 
HETATM   16  C22 UNL     1      19.740  68.745  21.551  1.00  0.00     0.250 C 
BRANCH  15  17
HETATM   17  C2  UNL     1      22.212  68.478  21.975  1.00  0.00     0.002 C 
HETATM   18  C1  UNL     1      23.575  68.194  21.407  1.00  0.00     0.005 C 
ENDBRANCH  15  17
BRANCH  16  19
HETATM   19  N6  UNL     1      19.282  68.076  22.683  1.00  0.00     0.104 N 
HETATM   20  C23 UNL     1      17.902  67.656  22.602  1.00  0.00     0.316 C 
HETATM   21  C24 UNL     1      17.523  67.253  24.035  1.00  0.00     0.272 C 
HETATM   22  F1  UNL     1      16.474  68.031  24.497  1.00  0.00    -0.241 F 
HETATM   23  C25 UNL     1      18.735  67.644  24.862  1.00  0.00     0.301 C 
HETATM   24  F2  UNL     1      19.578  66.577  24.992  1.00  0.00    -0.201 F 
HETATM   25  F3  UNL     1      18.370  68.186  26.077  1.00  0.00    -0.201 F 
HETATM   26  C26 UNL     1      19.357  68.713  23.948  1.00  0.00     0.355 C 
ENDBRANCH  16  19
ENDBRANCH   9  11
ENDBRANCH   1   9
BRANCH   6  27
HETATM   27  N3  UNL     1      15.553  70.289  18.301  1.00  0.00    -0.221 N 
ATOM     28  H3  UNL     1      15.063  70.797  17.565  1.00  0.00     0.178 HD
BRANCH  27  29
HETATM   29  C12 UNL     1      15.760  68.897  18.168  1.00  0.00     0.108 C 
HETATM   30  C13 UNL     1      16.589  68.639  16.884  1.00  0.00     0.070 C 
HETATM   31  C14 UNL     1      16.917  67.171  16.939  1.00  0.00     0.065 C 
HETATM   32  N4  UNL     1      15.819  66.305  16.987  1.00  0.00    -0.370 N 
HETATM   33  C20 UNL     1      14.662  66.695  17.689  1.00  0.00     0.065 C 
HETATM   34  C21 UNL     1      14.469  68.161  17.891  1.00  0.00     0.070 C 
BRANCH  32  35
HETATM   35  C15 UNL     1      16.242  64.954  17.107  1.00  0.00     0.166 C 
BRANCH  35  36
HETATM   36  C16 UNL     1      16.013  64.156  15.826  1.00  0.00    -0.033 A 
HETATM   37  C17 UNL     1      15.368  64.650  14.762  1.00  0.00     0.016 A 
HETATM   38  C18 UNL     1      15.228  63.841  13.670  1.00  0.00     0.050 A 
HETATM   39  S1  UNL     1      16.003  62.404  14.158  1.00  0.00    -0.113 SA
HETATM   40  C19 UNL     1      16.481  62.867  15.727  1.00  0.00     0.058 A 
ENDBRANCH  35  36
ENDBRANCH  32  35
ENDBRANCH  27  29
ENDBRANCH   6  27
TORSDOF 8
ENDMDL
MODEL 2
REMARK VINA RESULT: -6.946254076      6.166     10.007
REMARK  8 active torsions:
REMARK  status: ('A' for Active; 'I' for Inactive)
REMARK    1  A    between atoms: C2_2  and  C3_3 
REMARK    2  A    between atoms: C7_7  and  N1_8 
REMARK    3  A    between atoms: N1_8  and  C8_10 
REMARK    4  A    between atoms: C11_15  and  N3_16 
REMARK    5  A    between atoms: N3_16  and  C12_18 
REMARK    6  A    between atoms: N4_21  and  C15_22 
REMARK    7  A    between atoms: C15_22  and  C16_23 
REMARK    8  A    between atoms: C22_32  and  N6_33 
ROOT
HETATM    1  C8  UNL     1      18.357  72.080  21.943  1.00  0.00     0.118 A 
HETATM    2  C9  UNL     1      16.999  71.883  21.634  1.00  0.00     0.066 A 
HETATM    3  C10 UNL     1      16.180  72.931  21.362  1.00  0.00     0.110 A 
HETATM    4  N2  UNL     1      16.715  74.179  21.397  1.00  0.00    -0.202 N 
ATOM      5  H2  UNL     1      16.121  74.983  21.196  1.00  0.00     0.183 HD
HETATM    6  C11 UNL     1      17.998  74.372  21.687  1.00  0.00     0.679 A 
HETATM    7  N5  UNL     1      18.818  73.318  21.962  1.00  0.00    -0.177 N 
ATOM      8  H5  UNL     1      19.799  73.487  22.184  1.00  0.00     0.185 HD
ENDROOT
BRANCH   1   9
HETATM    9  N1  UNL     1      19.007  71.067  22.171  1.00  0.00    -0.369 N 
ATOM     10  H1  UNL     1      18.636  70.705  23.049  1.00  0.00     0.161 HD
BRANCH   9  11
HETATM   11  C7  UNL     1      19.996  70.187  21.810  1.00  0.00     0.120 C 
HETATM   12  C5  UNL     1      20.510  70.445  20.407  1.00  0.00     0.007 C 
HETATM   13  C4  UNL     1      20.578  69.113  19.686  1.00  0.00     0.013 C 
HETATM   14  C6  UNL     1      21.937  70.981  20.400  1.00  0.00     0.012 C 
HETATM   15  C3  UNL     1      20.413  68.048  20.786  1.00  0.00     0.021 C 
HETATM   16  C22 UNL     1      19.441  68.778  21.660  1.00  0.00     0.250 C 
BRANCH  15  17
HETATM   17  C2  UNL     1      21.772  67.856  21.369  1.00  0.00     0.002 C 
HETATM   18  C1  UNL     1      22.758  67.116  20.508  1.00  0.00     0.005 C 
ENDBRANCH  15  17
BRANCH  16  19
HETATM   19  N6  UNL     1      19.110  68.085  22.822  1.00  0.00     0.104 N 
HETATM   20  C23 UNL     1      17.725  67.681  22.894  1.00  0.00     0.316 C 
HETATM   21  C24 UNL     1      17.511  67.248  24.351  1.00  0.00     0.272 C 
HETATM   22  F1  UNL     1      16.532  68.024  24.950  1.00  0.00    -0.241 F 
HETATM   23  C25 UNL     1      18.816  67.607  25.040  1.00  0.00     0.301 C 
HETATM   24  F2  UNL     1      19.654  66.529  25.046  1.00  0.00    -0.201 F 
HETATM   25  F3  UNL     1      18.601  68.123  26.301  1.00  0.00    -0.201 F 
HETATM   26  C26 UNL     1      19.340  68.691  24.084  1.00  0.00     0.355 C 
ENDBRANCH  16  19
ENDBRANCH   9  11
ENDBRANCH   1   9
BRANCH   6  27
HETATM   27  N3  UNL     1      18.498  75.573  21.717  1.00  0.00    -0.221 N 
ATOM     28  H3  UNL     1      19.342  75.778  21.182  1.00  0.00     0.178 HD
BRANCH  27  29
HETATM   29  C12 UNL     1      17.890  76.597  22.479  1.00  0.00     0.108 C 
HETATM   30  C13 UNL     1      18.290  77.967  21.875  1.00  0.00     0.070 C 
HETATM   31  C14 UNL     1      17.448  78.965  22.624  1.00  0.00     0.065 C 
HETATM   32  N4  UNL     1      17.616  78.982  24.012  1.00  0.00    -0.370 N 
HETATM   33  C20 UNL     1      17.873  77.775  24.691  1.00  0.00     0.065 C 
HETATM   34  C21 UNL     1      18.454  76.666  23.879  1.00  0.00     0.070 C 
BRANCH  32  35
HETATM   35  C15 UNL     1      16.726  79.907  24.622  1.00  0.00     0.166 C 
BRANCH  35  36
HETATM   36  C16 UNL     1      17.430  81.188  25.062  1.00  0.00    -0.033 A 
HETATM   37  C17 UNL     1      17.071  81.884  26.147  1.00  0.00     0.016 A 
HETATM   38  C18 UNL     1      17.781  83.015  26.442  1.00  0.00     0.050 A 
HETATM   39  S1  UNL     1      18.934  83.078  25.190  1.00  0.00    -0.113 SA
HETATM   40  C19 UNL     1      18.488  81.675  24.331  1.00  0.00     0.058 A 
ENDBRANCH  35  36
ENDBRANCH  32  35
ENDBRANCH  27  29
ENDBRANCH   6  27
TORSDOF 8
ENDMDL
MODEL 3
REMARK VINA RESULT: -6.916782395      6.120      9.011
REMARK  8 active torsions:
REMARK  status: ('A' for Active; 'I' for Inactive)
REMARK    1  A    between atoms: C2_2  and  C3_3 
REMARK    2  A    between atoms: C7_7  and  N1_8 
REMARK    3  A    between atoms: N1_8  and  C8_10 
REMARK    4  A    between atoms: C11_15  and  N3_16 
REMARK    5  A    between atoms: N3_16  and  C12_18 
REMARK    6  A    between atoms: N4_21  and  C15_22 
REMARK    7  A    between atoms: C15_22  and  C16_23 
REMARK    8  A    between atoms: C22_32  and  N6_33 
ROOT
HETATM    1  C8  UNL     1      17.004  77.137  19.528  1.00  0.00     0.118 A 
HETATM    2  C9  UNL     1      17.752  76.892  18.362  1.00  0.00     0.066 A 
HETATM    3  C10 UNL     1      17.872  75.640  17.852  1.00  0.00     0.110 A 
HETATM    4  N2  UNL     1      17.244  74.628  18.506  1.00  0.00    -0.202 N 
ATOM      5  H2  UNL     1      17.318  73.677  18.143  1.00  0.00     0.183 HD
HETATM    6  C11 UNL     1      16.534  74.852  19.608  1.00  0.00     0.679 A 
HETATM    7  N5  UNL     1      16.417  76.111  20.118  1.00  0.00    -0.177 N 
ATOM      8  H5  UNL     1      15.870  76.262  20.966  1.00  0.00     0.185 HD
ENDROOT
BRANCH   1   9
HETATM    9  N1  UNL     1      16.959  78.303  19.902  1.00  0.00    -0.369 N 
ATOM     10  H1  UNL     1      16.021  78.623  19.662  1.00  0.00     0.161 HD
BRANCH   9  11
HETATM   11  C7  UNL     1      17.568  79.383  20.488  1.00  0.00     0.120 C 
HETATM   12  C5  UNL     1      18.203  80.307  19.469  1.00  0.00     0.007 C 
HETATM   13  C4  UNL     1      19.599  80.645  19.956  1.00  0.00     0.013 C 
HETATM   14  C6  UNL     1      17.479  81.645  19.364  1.00  0.00     0.012 C 
HETATM   15  C3  UNL     1      19.642  80.175  21.421  1.00  0.00     0.021 C 
HETATM   16  C22 UNL     1      18.789  78.952  21.288  1.00  0.00     0.250 C 
BRANCH  15  17
HETATM   17  C2  UNL     1      19.044  81.283  22.218  1.00  0.00     0.002 C 
HETATM   18  C1  UNL     1      19.669  81.539  23.561  1.00  0.00     0.005 C 
ENDBRANCH  15  17
BRANCH  16  19
HETATM   19  N6  UNL     1      18.572  78.292  22.495  1.00  0.00     0.104 N 
HETATM   20  C23 UNL     1      18.776  76.862  22.431  1.00  0.00     0.316 C 
HETATM   21  C24 UNL     1      18.176  76.315  23.734  1.00  0.00     0.272 C 
HETATM   22  F1  UNL     1      17.153  75.422  23.461  1.00  0.00    -0.241 F 
HETATM   23  C25 UNL     1      17.522  77.525  24.378  1.00  0.00     0.301 C 
HETATM   24  F2  UNL     1      18.388  78.117  25.252  1.00  0.00    -0.201 F 
HETATM   25  F3  UNL     1      16.314  77.201  24.961  1.00  0.00    -0.201 F 
HETATM   26  C26 UNL     1      17.314  78.414  23.140  1.00  0.00     0.355 C 
ENDBRANCH  16  19
ENDBRANCH   9  11
ENDBRANCH   1   9
BRANCH   6  27
HETATM   27  N3  UNL     1      15.938  73.874  20.223  1.00  0.00    -0.221 N 
ATOM     28  H3  UNL     1      14.962  73.975  20.498  1.00  0.00     0.178 HD
BRANCH  27  29
HETATM   29  C12 UNL     1      16.623  72.672  20.517  1.00  0.00     0.108 C 
HETATM   30  C13 UNL     1      15.618  71.668  21.138  1.00  0.00     0.070 C 
HETATM   31  C14 UNL     1      16.388  70.378  21.230  1.00  0.00     0.065 C 
HETATM   32  N4  UNL     1      17.560  70.423  21.993  1.00  0.00    -0.370 N 
HETATM   33  C20 UNL     1      18.340  71.595  21.992  1.00  0.00     0.065 C 
HETATM   34  C21 UNL     1      17.639  72.859  21.619  1.00  0.00     0.070 C 
BRANCH  32  35
HETATM   35  C15 UNL     1      18.240  69.175  21.953  1.00  0.00     0.166 C 
BRANCH  35  36
HETATM   36  C16 UNL     1      18.307  68.506  23.324  1.00  0.00    -0.033 A 
HETATM   37  C17 UNL     1      17.267  67.873  23.880  1.00  0.00     0.016 A 
HETATM   38  C18 UNL     1      17.450  67.309  25.112  1.00  0.00     0.050 A 
HETATM   39  S1  UNL     1      19.075  67.679  25.463  1.00  0.00    -0.113 SA
HETATM   40  C19 UNL     1      19.477  68.535  24.046  1.00  0.00     0.058 A 
ENDBRANCH  35  36
ENDBRANCH  32  35
ENDBRANCH  27  29
ENDBRANCH   6  27
TORSDOF 8
ENDMDL
MODEL 4
REMARK VINA RESULT: -6.910185290      4.347      6.855
REMARK  8 active torsions:
REMARK  status: ('A' for Active; 'I' for Inactive)
REMARK    1  A    between atoms: C2_2  and  C3_3 
REMARK    2  A    between atoms: C7_7  and  N1_8 
REMARK    3  A    between atoms: N1_8  and  C8_10 
REMARK    4  A    between atoms: C11_15  and  N3_16 
REMARK    5  A    between atoms: N3_16  and  C12_18 
REMARK    6  A    between atoms: N4_21  and  C15_22 
REMARK    7  A    between atoms: C15_22  and  C16_23 
REMARK    8  A    between atoms: C22_32  and  N6_33 
ROOT
HETATM    1  C8  UNL     1      16.643  74.689  20.223  1.00  0.00     0.118 A 
HETATM    2  C9  UNL     1      15.585  75.416  19.651  1.00  0.00     0.066 A 
HETATM    3  C10 UNL     1      14.598  74.796  18.955  1.00  0.00     0.110 A 
HETATM    4  N2  UNL     1      14.667  73.445  18.830  1.00  0.00    -0.202 N 
ATOM      5  H2  UNL     1      13.938  72.953  18.312  1.00  0.00     0.183 HD
HETATM    6  C11 UNL     1      15.664  72.750  19.369  1.00  0.00     0.679 A 
HETATM    7  N5  UNL     1      16.654  73.377  20.066  1.00  0.00    -0.177 N 
ATOM      8  H5  UNL     1      17.412  72.827  20.470  1.00  0.00     0.185 HD
ENDROOT
BRANCH   1   9
HETATM    9  N1  UNL     1      17.479  75.346  20.831  1.00  0.00    -0.369 N 
ATOM     10  H1  UNL     1      17.628  76.179  20.261  1.00  0.00     0.161 HD
BRANCH   9  11
HETATM   11  C7  UNL     1      18.311  75.498  21.911  1.00  0.00     0.120 C 
HETATM   12  C5  UNL     1      18.219  76.885  22.515  1.00  0.00     0.007 C 
HETATM   13  C4  UNL     1      19.632  77.386  22.746  1.00  0.00     0.013 C 
HETATM   14  C6  UNL     1      17.565  76.878  23.893  1.00  0.00     0.012 C 
HETATM   15  C3  UNL     1      20.533  76.149  22.576  1.00  0.00     0.021 C 
HETATM   16  C22 UNL     1      19.771  75.467  21.482  1.00  0.00     0.250 C 
BRANCH  15  17
HETATM   17  C2  UNL     1      20.514  75.452  23.893  1.00  0.00     0.002 C 
HETATM   18  C1  UNL     1      21.857  75.150  24.496  1.00  0.00     0.005 C 
ENDBRANCH  15  17
BRANCH  16  19
HETATM   19  N6  UNL     1      20.311  74.237  21.112  1.00  0.00     0.104 N 
HETATM   20  C23 UNL     1      20.313  73.998  19.687  1.00  0.00     0.316 C 
HETATM   21  C24 UNL     1      20.627  72.503  19.534  1.00  0.00     0.272 C 
HETATM   22  F1  UNL     1      19.593  71.854  18.880  1.00  0.00    -0.241 F 
HETATM   23  C25 UNL     1      20.624  71.977  20.958  1.00  0.00     0.301 C 
HETATM   24  F2  UNL     1      21.892  71.993  21.466  1.00  0.00    -0.201 F 
HETATM   25  F3  UNL     1      20.033  70.733  21.040  1.00  0.00    -0.201 F 
HETATM   26  C26 UNL     1      19.756  73.045  21.643  1.00  0.00     0.355 C 
ENDBRANCH  16  19
ENDBRANCH   9  11
ENDBRANCH   1   9
BRANCH   6  27
HETATM   27  N3  UNL     1      15.716  71.457  19.241  1.00  0.00    -0.221 N 
ATOM     28  H3  UNL     1      15.096  70.992  18.579  1.00  0.00     0.178 HD
BRANCH  27  29
HETATM   29  C12 UNL     1      16.621  70.685  20.007  1.00  0.00     0.108 C 
HETATM   30  C13 UNL     1      16.349  69.184  19.730  1.00  0.00     0.070 C 
HETATM   31  C14 UNL     1      17.473  68.466  20.427  1.00  0.00     0.065 C 
HETATM   32  N4  UNL     1      17.577  68.692  21.804  1.00  0.00    -0.370 N 
HETATM   33  C20 UNL     1      17.255  69.962  22.321  1.00  0.00     0.065 C 
HETATM   34  C21 UNL     1      16.352  70.810  21.488  1.00  0.00     0.070 C 
BRANCH  32  35
HETATM   35  C15 UNL     1      18.709  68.025  22.345  1.00  0.00     0.166 C 
BRANCH  35  36
HETATM   36  C16 UNL     1      18.577  67.782  23.847  1.00  0.00    -0.033 A 
HETATM   37  C17 UNL     1      17.475  67.276  24.412  1.00  0.00     0.016 A 
HETATM   38  C18 UNL     1      17.477  67.101  25.768  1.00  0.00     0.050 A 
HETATM   39  S1  UNL     1      19.026  67.649  26.220  1.00  0.00    -0.113 SA
HETATM   40  C19 UNL     1      19.625  68.084  24.686  1.00  0.00     0.058 A 
ENDBRANCH  35  36
ENDBRANCH  32  35
ENDBRANCH  27  29
ENDBRANCH   6  27
TORSDOF 8
ENDMDL
MODEL 5
REMARK VINA RESULT: -6.890445966      6.922     11.074
REMARK  8 active torsions:
REMARK  status: ('A' for Active; 'I' for Inactive)
REMARK    1  A    between atoms: C2_2  and  C3_3 
REMARK    2  A    between atoms: C7_7  and  N1_8 
REMARK    3  A    between atoms: N1_8  and  C8_10 
REMARK    4  A    between atoms: C11_15  and  N3_16 
REMARK    5  A    between atoms: N3_16  and  C12_18 
REMARK    6  A    between atoms: N4_21  and  C15_22 
REMARK    7  A    between atoms: C15_22  and  C16_23 
REMARK    8  A    between atoms: C22_32  and  N6_33 
ROOT
HETATM    1  C8  UNL     1      19.045  73.204  22.327  1.00  0.00     0.118 A 
HETATM    2  C9  UNL     1      20.385  73.623  22.412  1.00  0.00     0.066 A 
HETATM    3  C10 UNL     1      20.709  74.863  22.859  1.00  0.00     0.110 A 
HETATM    4  N2  UNL     1      19.693  75.689  23.223  1.00  0.00    -0.202 N 
ATOM      5  H2  UNL     1      19.909  76.627  23.563  1.00  0.00     0.183 HD
HETATM    6  C11 UNL     1      18.424  75.300  23.146  1.00  0.00     0.679 A 
HETATM    7  N5  UNL     1      18.102  74.054  22.695  1.00  0.00    -0.177 N 
ATOM      8  H5  UNL     1      17.123  73.775  22.641  1.00  0.00     0.185 HD
ENDROOT
BRANCH   1   9
HETATM    9  N1  UNL     1      18.863  72.066  21.912  1.00  0.00    -0.369 N 
ATOM     10  H1  UNL     1      19.417  71.468  22.525  1.00  0.00     0.161 HD
BRANCH   9  11
HETATM   11  C7  UNL     1      18.271  71.211  21.017  1.00  0.00     0.120 C 
HETATM   12  C5  UNL     1      17.278  71.920  20.117  1.00  0.00     0.007 C 
HETATM   13  C4  UNL     1      16.013  71.085  20.075  1.00  0.00     0.013 C 
HETATM   14  C6  UNL     1      17.756  72.000  18.672  1.00  0.00     0.012 C 
HETATM   15  C3  UNL     1      16.401  69.729  20.692  1.00  0.00     0.021 C 
HETATM   16  C22 UNL     1      17.360  70.222  21.730  1.00  0.00     0.250 C 
BRANCH  15  17
HETATM   17  C2  UNL     1      17.014  68.943  19.584  1.00  0.00     0.002 C 
HETATM   18  C1  UNL     1      16.067  68.451  18.524  1.00  0.00     0.005 C 
ENDBRANCH  15  17
BRANCH  16  19
HETATM   19  N6  UNL     1      17.961  69.201  22.462  1.00  0.00     0.104 N 
HETATM   20  C23 UNL     1      17.028  68.357  23.173  1.00  0.00     0.316 C 
HETATM   21  C24 UNL     1      17.891  67.540  24.145  1.00  0.00     0.272 C 
HETATM   22  F1  UNL     1      17.508  67.780  25.455  1.00  0.00    -0.241 F 
HETATM   23  C25 UNL     1      19.281  68.132  23.995  1.00  0.00     0.301 C 
HETATM   24  F2  UNL     1      19.995  67.424  23.070  1.00  0.00    -0.201 F 
HETATM   25  F3  UNL     1      19.928  68.227  25.210  1.00  0.00    -0.201 F 
HETATM   26  C26 UNL     1      18.927  69.525  23.450  1.00  0.00     0.355 C 
ENDBRANCH  16  19
ENDBRANCH   9  11
ENDBRANCH   1   9
BRANCH   6  27
HETATM   27  N3  UNL     1      17.462  76.102  23.498  1.00  0.00    -0.221 N 
ATOM     28  H3  UNL     1      16.494  75.799  23.395  1.00  0.00     0.178 HD
BRANCH  27  29
HETATM   29  C12 UNL     1      17.738  77.386  24.021  1.00  0.00     0.108 C 
HETATM   30  C13 UNL     1      16.627  77.757  25.037  1.00  0.00     0.070 C 
HETATM   31  C14 UNL     1      17.111  79.033  25.671  1.00  0.00     0.065 C 
HETATM   32  N4  UNL     1      17.338  80.099  24.793  1.00  0.00    -0.370 N 
HETATM   33  C20 UNL     1      17.836  79.836  23.502  1.00  0.00     0.065 C 
HETATM   34  C21 UNL     1      17.607  78.462  22.968  1.00  0.00     0.070 C 
BRANCH  32  35
HETATM   35  C15 UNL     1      17.858  81.226  25.486  1.00  0.00     0.166 C 
BRANCH  35  36
HETATM   36  C16 UNL     1      16.766  82.031  26.187  1.00  0.00    -0.033 A 
HETATM   37  C17 UNL     1      15.808  81.469  26.934  1.00  0.00     0.016 A 
HETATM   38  C18 UNL     1      14.887  82.295  27.515  1.00  0.00     0.050 A 
HETATM   39  S1  UNL     1      15.385  83.841  27.002  1.00  0.00    -0.113 SA
HETATM   40  C19 UNL     1      16.740  83.401  26.069  1.00  0.00     0.058 A 
ENDBRANCH  35  36
ENDBRANCH  32  35
ENDBRANCH  27  29
ENDBRANCH   6  27
TORSDOF 8
ENDMDL
