MODEL 1
REMARK VINA RESULT: -7.796468993      0.000      0.000
REMARK  6 active torsions:
REMARK  status: ('A' for Active; 'I' for Inactive)
REMARK    1  A    between atoms: C2_2  and  C3_3 
REMARK    2  A    between atoms: C4_6  and  C5_7 
REMARK    3  A    between atoms: C4_6  and  C10_15 
REMARK    4  A    between atoms: N2_10  and  C8_11 
REMARK    5  A    between atoms: C12_24  and  C13_25 
REMARK       I    between atoms: C13_25  and  N5_27 
REMARK    6  A    between atoms: N6_30  and  C16_31 
ROOT
HETATM    1  C3  UNL     1       3.312  28.689  14.189  1.00  0.00     0.005 C 
HETATM    2  N1  UNL     1       2.605  27.662  14.314  1.00  0.00    -0.361 N 
ATOM      3  H1  UNL     1       2.973  26.817  13.877  1.00  0.00     0.162 HD
HETATM    4  C4  UNL     1       1.343  27.515  14.992  1.00  0.00     0.198 C 
HETATM    5  N3  UNL     1       0.949  28.775  15.570  1.00  0.00    -0.344 N 
ATOM      6  H3  UNL     1       0.317  28.797  16.369  1.00  0.00     0.163 HD
HETATM    7  C11 UNL     1       1.456  30.012  15.009  1.00  0.00     0.091 C 
HETATM    8  N4  UNL     1       0.651  30.980  14.728  1.00  0.00    -0.388 N 
ATOM      9  H41 UNL     1       1.008  31.850  14.333  1.00  0.00     0.157 HD
ATOM     10  H42 UNL     1      -0.357  30.971  14.884  1.00  0.00     0.157 HD
HETATM   11  C12 UNL     1       2.919  30.023  14.783  1.00  0.00     0.190 C 
ENDROOT
BRANCH  11  12
HETATM   12  C13 UNL     1       3.643  30.287  16.019  1.00  0.00     0.238 C 
HETATM   13  O1  UNL     1       3.885  29.241  16.743  1.00  0.00    -0.272 OA
HETATM   14  N5  UNL     1       4.122  31.481  16.555  1.00  0.00    -0.324 N 
HETATM   15  C14 UNL     1       4.018  32.814  16.044  1.00  0.00     0.158 C 
HETATM   16  C26 UNL     1       4.898  31.588  17.817  1.00  0.00     0.401 C 
HETATM   17  C15 UNL     1       4.965  33.614  16.896  1.00  0.00     0.295 C 
HETATM   18  N6  UNL     1       5.836  32.633  17.449  1.00  0.00     0.117 N 
BRANCH  18  19
HETATM   19  C16 UNL     1       6.645  33.086  18.538  1.00  0.00     0.163 C 
HETATM   20  C17 UNL     1       7.469  31.877  18.996  1.00  0.00     0.046 C 
HETATM   21  C18 UNL     1       8.234  32.227  20.248  1.00  0.00    -0.011 C 
HETATM   22  C19 UNL     1       9.179  33.366  19.982  1.00  0.00     0.009 C 
HETATM   23  C23 UNL     1       7.255  32.607  21.315  1.00  0.00     0.009 C 
HETATM   24  C20 UNL     1       8.363  34.534  19.477  1.00  0.00    -0.011 C 
HETATM   25  C21 UNL     1       7.440  34.994  20.566  1.00  0.00     0.009 C 
HETATM   26  C25 UNL     1       7.615  34.167  18.199  1.00  0.00     0.046 C 
HETATM   27  C22 UNL     1       6.503  33.857  20.912  1.00  0.00    -0.011 C 
HETATM   28  C24 UNL     1       5.716  33.533  19.657  1.00  0.00     0.046 C 
ENDBRANCH  18  19
ENDBRANCH  11  12
BRANCH   1  29
HETATM   29  C2  UNL     1       4.591  28.628  13.444  1.00  0.00     0.049 C 
HETATM   30  C1  UNL     1       5.471  27.487  13.964  1.00  0.00     0.011 C 
ENDBRANCH   1  29
BRANCH   4  31
HETATM   31  C5  UNL     1       0.332  27.122  13.979  1.00  0.00     0.053 A 
HETATM   32  C6  UNL     1       0.412  27.449  12.643  1.00  0.00     0.034 A 
HETATM   33  C7  UNL     1      -0.683  26.902  11.986  1.00  0.00     0.095 A 
HETATM   34  N2  UNL     1      -1.426  26.249  12.897  1.00  0.00    -0.320 N 
HETATM   35  C9  UNL     1      -0.811  26.382  14.113  1.00  0.00     0.202 A 
HETATM   36  F1  UNL     1      -1.362  25.836  15.223  1.00  0.00    -0.185 F 
BRANCH  34  37
HETATM   37  C8  UNL     1      -2.658  25.536  12.632  1.00  0.00     0.245 C 
HETATM   38 CL1  UNL     1      -2.292  23.817  12.264  1.00  0.00    -0.108 Cl
ENDBRANCH  34  37
ENDBRANCH   4  31
BRANCH   4  39
HETATM   39  C10 UNL     1       1.469  26.393  16.000  1.00  0.00     0.406 C 
HETATM   40  F2  UNL     1       1.435  26.760  17.294  1.00  0.00    -0.209 F 
HETATM   41  F3  UNL     1       2.601  25.654  15.679  1.00  0.00    -0.209 F 
ENDBRANCH   4  39
TORSDOF 6
ENDMDL
MODEL 2
REMARK VINA RESULT: -7.727700016      7.495      9.043
REMARK  6 active torsions:
REMARK  status: ('A' for Active; 'I' for Inactive)
REMARK    1  A    between atoms: C2_2  and  C3_3 
REMARK    2  A    between atoms: C4_6  and  C5_7 
REMARK    3  A    between atoms: C4_6  and  C10_15 
REMARK    4  A    between atoms: N2_10  and  C8_11 
REMARK    5  A    between atoms: C12_24  and  C13_25 
REMARK       I    between atoms: C13_25  and  N5_27 
REMARK    6  A    between atoms: N6_30  and  C16_31 
ROOT
HETATM    1  C3  UNL     1       5.137  25.663  22.670  1.00  0.00     0.005 C 
HETATM    2  N1  UNL     1       5.663  24.924  23.533  1.00  0.00    -0.361 N 
ATOM      3  H1  UNL     1       6.265  24.183  23.173  1.00  0.00     0.162 HD
HETATM    4  C4  UNL     1       5.532  24.979  24.966  1.00  0.00     0.198 C 
HETATM    5  N3  UNL     1       4.668  26.073  25.336  1.00  0.00    -0.344 N 
ATOM      6  H3  UNL     1       4.746  26.497  26.260  1.00  0.00     0.163 HD
HETATM    7  C11 UNL     1       3.688  26.566  24.388  1.00  0.00     0.091 C 
HETATM    8  N4  UNL     1       2.460  26.732  24.746  1.00  0.00    -0.388 N 
ATOM      9  H41 UNL     1       1.771  27.079  24.079  1.00  0.00     0.157 HD
ATOM     10  H42 UNL     1       2.091  26.560  25.681  1.00  0.00     0.157 HD
HETATM   11  C12 UNL     1       4.225  26.815  23.031  1.00  0.00     0.190 C 
ENDROOT
BRANCH  11  12
HETATM   12  C13 UNL     1       4.928  28.089  22.966  1.00  0.00     0.238 C 
HETATM   13  O1  UNL     1       5.758  28.304  23.938  1.00  0.00    -0.272 OA
HETATM   14  N5  UNL     1       4.859  29.119  22.031  1.00  0.00    -0.324 N 
HETATM   15  C14 UNL     1       4.047  29.228  20.857  1.00  0.00     0.158 C 
HETATM   16  C26 UNL     1       5.686  30.352  22.071  1.00  0.00     0.401 C 
HETATM   17  C15 UNL     1       4.622  30.404  20.115  1.00  0.00     0.295 C 
HETATM   18  N6  UNL     1       5.934  30.535  20.652  1.00  0.00     0.117 N 
BRANCH  18  19
HETATM   19  C16 UNL     1       6.595  31.765  20.340  1.00  0.00     0.163 C 
HETATM   20  C17 UNL     1       6.811  32.489  21.675  1.00  0.00     0.046 C 
HETATM   21  C18 UNL     1       7.359  33.871  21.421  1.00  0.00    -0.011 C 
HETATM   22  C19 UNL     1       8.683  33.786  20.713  1.00  0.00     0.009 C 
HETATM   23  C23 UNL     1       6.375  34.630  20.585  1.00  0.00     0.009 C 
HETATM   24  C20 UNL     1       8.470  33.021  19.427  1.00  0.00    -0.011 C 
HETATM   25  C21 UNL     1       7.561  33.810  18.532  1.00  0.00     0.009 C 
HETATM   26  C25 UNL     1       7.937  31.619  19.706  1.00  0.00     0.046 C 
HETATM   27  C22 UNL     1       6.227  33.975  19.229  1.00  0.00    -0.011 C 
HETATM   28  C24 UNL     1       5.669  32.582  19.452  1.00  0.00     0.046 C 
ENDBRANCH  18  19
ENDBRANCH  11  12
BRANCH   1  29
HETATM   29  C2  UNL     1       5.403  25.435  21.230  1.00  0.00     0.049 C 
HETATM   30  C1  UNL     1       6.811  24.868  21.019  1.00  0.00     0.011 C 
ENDBRANCH   1  29
BRANCH   4  31
HETATM   31  C5  UNL     1       4.904  23.709  25.409  1.00  0.00     0.053 A 
HETATM   32  C6  UNL     1       5.311  22.993  26.515  1.00  0.00     0.034 A 
HETATM   33  C7  UNL     1       4.491  21.880  26.647  1.00  0.00     0.095 A 
HETATM   34  N2  UNL     1       3.596  21.906  25.644  1.00  0.00    -0.320 N 
HETATM   35  C9  UNL     1       3.845  23.019  24.888  1.00  0.00     0.202 A 
HETATM   36  F1  UNL     1       3.098  23.283  23.789  1.00  0.00    -0.185 F 
BRANCH  34  37
HETATM   37  C8  UNL     1       2.555  20.925  25.411  1.00  0.00     0.245 C 
HETATM   38 CL1  UNL     1       0.955  21.640  25.802  1.00  0.00    -0.108 Cl
ENDBRANCH  34  37
ENDBRANCH   4  31
BRANCH   4  39
HETATM   39  C10 UNL     1       6.917  25.063  25.571  1.00  0.00     0.406 C 
HETATM   40  F2  UNL     1       7.071  25.959  26.563  1.00  0.00    -0.209 F 
HETATM   41  F3  UNL     1       7.826  25.243  24.535  1.00  0.00    -0.209 F 
ENDBRANCH   4  39
TORSDOF 6
ENDMDL
MODEL 3
REMARK VINA RESULT: -7.598584639      4.496     10.139
REMARK  6 active torsions:
REMARK  status: ('A' for Active; 'I' for Inactive)
REMARK    1  A    between atoms: C2_2  and  C3_3 
REMARK    2  A    between atoms: C4_6  and  C5_7 
REMARK    3  A    between atoms: C4_6  and  C10_15 
REMARK    4  A    between atoms: N2_10  and  C8_11 
REMARK    5  A    between atoms: C12_24  and  C13_25 
REMARK       I    between atoms: C13_25  and  N5_27 
REMARK    6  A    between atoms: N6_30  and  C16_31 
ROOT
HETATM    1  C3  UNL     1       5.911  30.353  17.285  1.00  0.00     0.005 C 
HETATM    2  N1  UNL     1       6.456  31.480  17.340  1.00  0.00    -0.361 N 
ATOM      3  H1  UNL     1       7.292  31.594  16.767  1.00  0.00     0.162 HD
HETATM    4  C4  UNL     1       6.059  32.635  18.102  1.00  0.00     0.198 C 
HETATM    5  N3  UNL     1       4.864  32.339  18.852  1.00  0.00    -0.344 N 
ATOM      6  H3  UNL     1       4.240  33.092  19.139  1.00  0.00     0.163 HD
HETATM    7  C11 UNL     1       4.554  30.965  19.195  1.00  0.00     0.091 C 
HETATM    8  N4  UNL     1       4.241  30.650  20.406  1.00  0.00    -0.388 N 
ATOM      9  H41 UNL     1       4.023  29.683  20.648  1.00  0.00     0.157 HD
ATOM     10  H42 UNL     1       4.169  31.304  21.186  1.00  0.00     0.157 HD
HETATM   11  C12 UNL     1       4.659  30.016  18.064  1.00  0.00     0.190 C 
ENDROOT
BRANCH  11  12
HETATM   12  C13 UNL     1       3.476  30.071  17.216  1.00  0.00     0.238 C 
HETATM   13  O1  UNL     1       3.107  31.264  16.872  1.00  0.00    -0.272 OA
HETATM   14  N5  UNL     1       2.672  29.052  16.709  1.00  0.00    -0.324 N 
HETATM   15  C14 UNL     1       2.771  27.636  16.900  1.00  0.00     0.158 C 
HETATM   16  C26 UNL     1       1.514  29.262  15.804  1.00  0.00     0.401 C 
HETATM   17  C15 UNL     1       1.823  27.058  15.885  1.00  0.00     0.295 C 
HETATM   18  N6  UNL     1       1.660  28.107  14.936  1.00  0.00     0.117 N 
BRANCH  18  19
HETATM   19  C16 UNL     1       0.572  27.934  14.024  1.00  0.00     0.163 C 
HETATM   20  C17 UNL     1      -0.211  29.254  14.031  1.00  0.00     0.046 C 
HETATM   21  C18 UNL     1      -1.471  29.102  13.216  1.00  0.00    -0.011 C 
HETATM   22  C19 UNL     1      -1.133  28.764  11.790  1.00  0.00     0.009 C 
HETATM   23  C23 UNL     1      -2.304  28.015  13.822  1.00  0.00     0.009 C 
HETATM   24  C20 UNL     1      -0.314  27.493  11.799  1.00  0.00    -0.011 C 
HETATM   25  C21 UNL     1      -1.161  26.367  12.313  1.00  0.00     0.009 C 
HETATM   26  C25 UNL     1       0.966  27.673  12.610  1.00  0.00     0.046 C 
HETATM   27  C22 UNL     1      -1.578  26.690  13.732  1.00  0.00    -0.011 C 
HETATM   28  C24 UNL     1      -0.306  26.810  14.551  1.00  0.00     0.046 C 
ENDBRANCH  18  19
ENDBRANCH  11  12
BRANCH   1  29
HETATM   29  C2  UNL     1       6.485  29.289  16.429  1.00  0.00     0.049 C 
HETATM   30  C1  UNL     1       7.936  28.995  16.822  1.00  0.00     0.011 C 
ENDBRANCH   1  29
BRANCH   4  31
HETATM   31  C5  UNL     1       7.153  32.941  19.058  1.00  0.00     0.053 A 
HETATM   32  C6  UNL     1       8.294  32.179  19.191  1.00  0.00     0.034 A 
HETATM   33  C7  UNL     1       9.108  32.766  20.152  1.00  0.00     0.095 A 
HETATM   34  N2  UNL     1       8.483  33.867  20.605  1.00  0.00    -0.320 N 
HETATM   35  C9  UNL     1       7.291  33.976  19.940  1.00  0.00     0.202 A 
HETATM   36  F1  UNL     1       6.441  34.994  20.219  1.00  0.00    -0.185 F 
BRANCH  34  37
HETATM   37  C8  UNL     1       8.988  34.772  21.617  1.00  0.00     0.245 C 
HETATM   38 CL1  UNL     1      10.337  35.744  20.938  1.00  0.00    -0.108 Cl
ENDBRANCH  34  37
ENDBRANCH   4  31
BRANCH   4  39
HETATM   39  C10 UNL     1       5.912  33.807  17.156  1.00  0.00     0.406 C 
HETATM   40  F2  UNL     1       5.124  33.601  16.084  1.00  0.00    -0.209 F 
HETATM   41  F3  UNL     1       7.186  34.244  16.813  1.00  0.00    -0.209 F 
ENDBRANCH   4  39
TORSDOF 6
ENDMDL
MODEL 4
REMARK VINA RESULT: -7.593551522      7.525      9.052
REMARK  6 active torsions:
REMARK  status: ('A' for Active; 'I' for Inactive)
REMARK    1  A    between atoms: C2_2  and  C3_3 
REMARK    2  A    between atoms: C4_6  and  C5_7 
REMARK    3  A    between atoms: C4_6  and  C10_15 
REMARK    4  A    between atoms: N2_10  and  C8_11 
REMARK    5  A    between atoms: C12_24  and  C13_25 
REMARK       I    between atoms: C13_25  and  N5_27 
REMARK    6  A    between atoms: N6_30  and  C16_31 
ROOT
HETATM    1  C3  UNL     1       5.112  25.573  22.650  1.00  0.00     0.005 C 
HETATM    2  N1  UNL     1       5.643  24.850  23.525  1.00  0.00    -0.361 N 
ATOM      3  H1  UNL     1       6.231  24.093  23.175  1.00  0.00     0.162 HD
HETATM    4  C4  UNL     1       5.535  24.943  24.958  1.00  0.00     0.198 C 
HETATM    5  N3  UNL     1       4.688  26.056  25.312  1.00  0.00    -0.344 N 
ATOM      6  H3  UNL     1       4.785  26.503  26.223  1.00  0.00     0.163 HD
HETATM    7  C11 UNL     1       3.700  26.535  24.366  1.00  0.00     0.091 C 
HETATM    8  N4  UNL     1       2.479  26.725  24.738  1.00  0.00    -0.388 N 
ATOM      9  H41 UNL     1       1.783  27.062  24.073  1.00  0.00     0.157 HD
ATOM     10  H42 UNL     1       2.122  26.581  25.683  1.00  0.00     0.157 HD
HETATM   11  C12 UNL     1       4.219  26.744  22.996  1.00  0.00     0.190 C 
ENDROOT
BRANCH  11  12
HETATM   12  C13 UNL     1       4.934  28.007  22.887  1.00  0.00     0.238 C 
HETATM   13  O1  UNL     1       5.896  28.164  23.741  1.00  0.00    -0.272 OA
HETATM   14  N5  UNL     1       4.759  29.080  22.015  1.00  0.00    -0.324 N 
HETATM   15  C14 UNL     1       3.793  29.256  20.973  1.00  0.00     0.158 C 
HETATM   16  C26 UNL     1       5.611  30.296  21.991  1.00  0.00     0.401 C 
HETATM   17  C15 UNL     1       4.286  30.454  20.209  1.00  0.00     0.295 C 
HETATM   18  N6  UNL     1       5.663  30.539  20.561  1.00  0.00     0.117 N 
BRANCH  18  19
HETATM   19  C16 UNL     1       6.302  31.771  20.212  1.00  0.00     0.163 C 
HETATM   20  C17 UNL     1       7.484  31.402  19.307  1.00  0.00     0.046 C 
HETATM   21  C18 UNL     1       8.311  32.631  19.024  1.00  0.00    -0.011 C 
HETATM   22  C19 UNL     1       7.481  33.666  18.314  1.00  0.00     0.009 C 
HETATM   23  C23 UNL     1       8.817  33.177  20.323  1.00  0.00     0.009 C 
HETATM   24  C20 UNL     1       6.289  33.980  19.189  1.00  0.00    -0.011 C 
HETATM   25  C21 UNL     1       6.767  34.618  20.459  1.00  0.00     0.009 C 
HETATM   26  C25 UNL     1       5.454  32.729  19.446  1.00  0.00     0.046 C 
HETATM   27  C22 UNL     1       7.658  33.633  21.184  1.00  0.00    -0.011 C 
HETATM   28  C24 UNL     1       6.812  32.413  21.493  1.00  0.00     0.046 C 
ENDBRANCH  18  19
ENDBRANCH  11  12
BRANCH   1  29
HETATM   29  C2  UNL     1       5.354  25.304  21.213  1.00  0.00     0.049 C 
HETATM   30  C1  UNL     1       6.807  24.881  20.974  1.00  0.00     0.011 C 
ENDBRANCH   1  29
BRANCH   4  31
HETATM   31  C5  UNL     1       4.899  23.693  25.443  1.00  0.00     0.053 A 
HETATM   32  C6  UNL     1       5.314  23.003  26.562  1.00  0.00     0.034 A 
HETATM   33  C7  UNL     1       4.484  21.901  26.735  1.00  0.00     0.095 A 
HETATM   34  N2  UNL     1       3.576  21.910  25.744  1.00  0.00    -0.320 N 
HETATM   35  C9  UNL     1       3.827  23.000  24.954  1.00  0.00     0.202 A 
HETATM   36  F1  UNL     1       3.068  23.242  23.858  1.00  0.00    -0.185 F 
BRANCH  34  37
HETATM   37  C8  UNL     1       2.522  20.935  25.551  1.00  0.00     0.245 C 
HETATM   38 CL1  UNL     1       0.941  21.660  25.997  1.00  0.00    -0.108 Cl
ENDBRANCH  34  37
ENDBRANCH   4  31
BRANCH   4  39
HETATM   39  C10 UNL     1       6.929  25.027  25.540  1.00  0.00     0.406 C 
HETATM   40  F2  UNL     1       7.088  25.886  26.563  1.00  0.00    -0.209 F 
HETATM   41  F3  UNL     1       7.815  25.263  24.495  1.00  0.00    -0.209 F 
ENDBRANCH   4  39
TORSDOF 6
ENDMDL
MODEL 5
REMARK VINA RESULT: -7.568031421      4.777     10.430
REMARK  6 active torsions:
REMARK  status: ('A' for Active; 'I' for Inactive)
REMARK    1  A    between atoms: C2_2  and  C3_3 
REMARK    2  A    between atoms: C4_6  and  C5_7 
REMARK    3  A    between atoms: C4_6  and  C10_15 
REMARK    4  A    between atoms: N2_10  and  C8_11 
REMARK    5  A    between atoms: C12_24  and  C13_25 
REMARK       I    between atoms: C13_25  and  N5_27 
REMARK    6  A    between atoms: N6_30  and  C16_31 
ROOT
HETATM    1  C3  UNL     1       5.941  33.402  17.991  1.00  0.00     0.005 C 
HETATM    2  N1  UNL     1       5.880  34.041  19.066  1.00  0.00    -0.361 N 
ATOM      3  H1  UNL     1       5.720  35.044  18.975  1.00  0.00     0.162 HD
HETATM    4  C4  UNL     1       6.005  33.549  20.414  1.00  0.00     0.198 C 
HETATM    5  N3  UNL     1       6.215  32.123  20.397  1.00  0.00    -0.344 N 
ATOM      6  H3  UNL     1       5.960  31.558  21.206  1.00  0.00     0.163 HD
HETATM    7  C11 UNL     1       6.790  31.496  19.223  1.00  0.00     0.091 C 
HETATM    8  N4  UNL     1       7.779  30.677  19.339  1.00  0.00    -0.388 N 
ATOM      9  H41 UNL     1       8.184  30.236  18.513  1.00  0.00     0.157 HD
ATOM     10  H42 UNL     1       8.210  30.395  20.219  1.00  0.00     0.157 HD
HETATM   11  C12 UNL     1       6.163  31.906  17.945  1.00  0.00     0.190 C 
ENDROOT
BRANCH  11  12
HETATM   12  C13 UNL     1       4.916  31.191  17.715  1.00  0.00     0.238 C 
HETATM   13  O1  UNL     1       4.005  31.379  18.617  1.00  0.00    -0.272 OA
HETATM   14  N5  UNL     1       4.535  30.336  16.683  1.00  0.00    -0.324 N 
HETATM   15  C14 UNL     1       5.283  29.892  15.546  1.00  0.00     0.158 C 
HETATM   16  C26 UNL     1       3.192  29.713  16.555  1.00  0.00     0.401 C 
HETATM   17  C15 UNL     1       4.260  29.237  14.660  1.00  0.00     0.295 C 
HETATM   18  N6  UNL     1       3.022  29.774  15.115  1.00  0.00     0.117 N 
BRANCH  18  19
HETATM   19  C16 UNL     1       1.857  29.091  14.646  1.00  0.00     0.163 C 
HETATM   20  C17 UNL     1       1.729  29.428  13.155  1.00  0.00     0.046 C 
HETATM   21  C18 UNL     1       0.432  28.877  12.618  1.00  0.00    -0.011 C 
HETATM   22  C19 UNL     1       0.400  27.381  12.764  1.00  0.00     0.009 C 
HETATM   23  C23 UNL     1      -0.701  29.495  13.377  1.00  0.00     0.009 C 
HETATM   24  C20 UNL     1       0.584  27.057  14.230  1.00  0.00    -0.011 C 
HETATM   25  C21 UNL     1      -0.591  27.584  14.999  1.00  0.00     0.009 C 
HETATM   26  C25 UNL     1       1.910  27.604  14.749  1.00  0.00     0.046 C 
HETATM   27  C22 UNL     1      -0.637  29.088  14.833  1.00  0.00    -0.011 C 
HETATM   28  C24 UNL     1       0.657  29.637  15.404  1.00  0.00     0.046 C 
ENDBRANCH  18  19
ENDBRANCH  11  12
BRANCH   1  29
HETATM   29  C2  UNL     1       5.786  34.104  16.696  1.00  0.00     0.049 C 
HETATM   30  C1  UNL     1       4.350  34.608  16.517  1.00  0.00     0.011 C 
ENDBRANCH   1  29
BRANCH   4  31
HETATM   31  C5  UNL     1       7.196  34.195  21.020  1.00  0.00     0.053 A 
HETATM   32  C6  UNL     1       7.437  34.248  22.376  1.00  0.00     0.034 A 
HETATM   33  C7  UNL     1       8.647  34.900  22.584  1.00  0.00     0.095 A 
HETATM   34  N2  UNL     1       9.143  35.243  21.383  1.00  0.00    -0.320 N 
HETATM   35  C9  UNL     1       8.261  34.816  20.427  1.00  0.00     0.202 A 
HETATM   36  F1  UNL     1       8.503  35.052  19.115  1.00  0.00    -0.185 F 
BRANCH  34  37
HETATM   37  C8  UNL     1      10.390  35.942  21.149  1.00  0.00     0.245 C 
HETATM   38 CL1  UNL     1      10.452  37.421  22.166  1.00  0.00    -0.108 Cl
ENDBRANCH  34  37
ENDBRANCH   4  31
BRANCH   4  39
HETATM   39  C10 UNL     1       4.781  33.977  21.196  1.00  0.00     0.406 C 
HETATM   40  F2  UNL     1       3.955  32.987  21.582  1.00  0.00    -0.209 F 
HETATM   41  F3  UNL     1       4.133  34.967  20.467  1.00  0.00    -0.209 F 
ENDBRANCH   4  39
TORSDOF 6
ENDMDL
