MODEL 1
REMARK VINA RESULT: -6.437010965      0.000      0.000
REMARK  8 active torsions:
REMARK  status: ('A' for Active; 'I' for Inactive)
REMARK    1  A    between atoms: C2_2  and  C5_5 
REMARK    2  A    between atoms: N2_11  and  C9_12 
REMARK    3  A    between atoms: C9_12  and  C10_13 
REMARK    4  A    between atoms: C9_12  and  C11_16 
REMARK    5  A    between atoms: C11_16  and  N3_17 
REMARK    6  A    between atoms: C11_16  and  C19_30 
REMARK       I    between atoms: N3_17  and  C12_19 
REMARK    7  A    between atoms: C12_19  and  C13_21 
REMARK    8  A    between atoms: C21_34  and  C22_35 
ROOT
HETATM    1  C9  UNL     1       5.504  43.818  59.854  1.00  0.00     0.376 C 
ENDROOT
BRANCH   1   2
HETATM    2  N2  UNL     1       4.461  43.228  60.619  1.00  0.00     0.152 N 
HETATM    3  C6  UNL     1       3.373  44.096  60.911  1.00  0.00     0.227 C 
HETATM    4  N1  UNL     1       3.465  44.363  62.315  1.00  0.00    -0.360 N 
HETATM    5  C7  UNL     1       1.985  43.560  60.645  1.00  0.00     0.073 C 
HETATM    6  C8  UNL     1       3.414  45.495  60.299  1.00  0.00     0.073 C 
HETATM    7  C5  UNL     1       4.252  43.597  62.911  1.00  0.00     0.031 C 
ATOM      8  H1  UNL     1       2.941  45.104  62.782  1.00  0.00     0.161 HD
HETATM    9  C21 UNL     1       4.775  42.663  61.871  1.00  0.00     0.338 C 
BRANCH   7  10
HETATM   10  C2  UNL     1       4.532  43.676  64.380  1.00  0.00    -0.011 C 
HETATM   11  C1  UNL     1       3.454  42.861  65.103  1.00  0.00     0.021 C 
HETATM   12  C3  UNL     1       4.302  45.128  64.862  1.00  0.00     0.021 C 
HETATM   13  C4  UNL     1       5.890  43.309  64.832  1.00  0.00     0.021 C 
ENDBRANCH   7  10
BRANCH   9  14
HETATM   14  C22 UNL     1       4.249  41.291  62.152  1.00  0.00     0.392 C 
HETATM   15  F2  UNL     1       5.050  40.544  63.026  1.00  0.00    -0.212 F 
HETATM   16  F3  UNL     1       3.970  40.482  61.114  1.00  0.00    -0.212 F 
ENDBRANCH   9  14
ENDBRANCH   1   2
BRANCH   1  17
HETATM   17  C10 UNL     1       5.245  43.278  58.452  1.00  0.00     0.213 C 
HETATM   18  O1  UNL     1       5.552  43.838  57.397  1.00  0.00    -0.646 OA
HETATM   19  O2  UNL     1       4.604  42.035  58.272  1.00  0.00    -0.646 OA
ENDBRANCH   1  17
BRANCH   1  20
HETATM   20  C11 UNL     1       6.914  43.524  60.117  1.00  0.00     0.084 C 
BRANCH  20  21
HETATM   21  N3  UNL     1       7.392  42.328  59.532  1.00  0.00    -0.326 N 
HETATM   22  C12 UNL     1       7.835  41.152  60.139  1.00  0.00     0.253 C 
HETATM   23  O3  UNL     1       7.828  41.111  61.409  1.00  0.00    -0.271 OA
ATOM     24  H3  UNL     1       7.417  42.325  58.512  1.00  0.00     0.168 HD
BRANCH  22  25
HETATM   25  C13 UNL     1       8.316  39.944  59.482  1.00  0.00     0.281 C 
HETATM   26  N4  UNL     1       7.775  39.854  58.114  1.00  0.00    -0.058 N 
HETATM   27  C14 UNL     1       7.327  38.495  57.934  1.00  0.00     0.187 C 
ATOM     28  H42 UNL     1       7.051  40.546  57.921  1.00  0.00     0.278 HD
ATOM     29  H41 UNL     1       8.437  40.159  57.400  1.00  0.00     0.278 HD
HETATM   30  C15 UNL     1       6.040  38.324  58.711  1.00  0.00     0.033 C 
HETATM   31  C18 UNL     1       8.294  37.756  58.873  1.00  0.00     0.040 C 
HETATM   32  C16 UNL     1       6.476  38.387  60.158  1.00  0.00     0.009 C 
HETATM   33  C17 UNL     1       7.955  38.637  60.097  1.00  0.00     0.028 C 
ENDBRANCH  22  25
ENDBRANCH  20  21
BRANCH  20  34
HETATM   34  C19 UNL     1       7.835  44.685  60.187  1.00  0.00     0.197 C 
HETATM   35  C20 UNL     1       7.505  45.987  59.621  1.00  0.00     0.072 C 
HETATM   36  F1  UNL     1       9.124  44.360  59.783  1.00  0.00    -0.224 F 
HETATM   37 BR1  UNL     1       8.119  45.075  62.109  1.00  0.00    -0.042 Br
ENDBRANCH  20  34
ENDBRANCH   1  20
TORSDOF 8
ENDMDL
MODEL 2
REMARK VINA RESULT: -6.036985128      2.901      5.485
REMARK  8 active torsions:
REMARK  status: ('A' for Active; 'I' for Inactive)
REMARK    1  A    between atoms: C2_2  and  C5_5 
REMARK    2  A    between atoms: N2_11  and  C9_12 
REMARK    3  A    between atoms: C9_12  and  C10_13 
REMARK    4  A    between atoms: C9_12  and  C11_16 
REMARK    5  A    between atoms: C11_16  and  N3_17 
REMARK    6  A    between atoms: C11_16  and  C19_30 
REMARK       I    between atoms: N3_17  and  C12_19 
REMARK    7  A    between atoms: C12_19  and  C13_21 
REMARK    8  A    between atoms: C21_34  and  C22_35 
ROOT
HETATM    1  C9  UNL     1       5.197  41.642  59.771  1.00  0.00     0.376 C 
ENDROOT
BRANCH   1   2
HETATM    2  N2  UNL     1       5.677  40.313  59.926  1.00  0.00     0.152 N 
HETATM    3  C6  UNL     1       5.043  39.350  59.093  1.00  0.00     0.227 C 
HETATM    4  N1  UNL     1       4.249  38.547  59.976  1.00  0.00    -0.360 N 
HETATM    5  C7  UNL     1       5.946  38.414  58.325  1.00  0.00     0.073 C 
HETATM    6  C8  UNL     1       4.012  39.866  58.091  1.00  0.00     0.073 C 
HETATM    7  C5  UNL     1       4.526  38.722  61.182  1.00  0.00     0.031 C 
ATOM      8  H1  UNL     1       3.530  37.899  59.653  1.00  0.00     0.161 HD
HETATM    9  C21 UNL     1       5.635  39.721  61.203  1.00  0.00     0.338 C 
BRANCH   7  10
HETATM   10  C2  UNL     1       3.832  38.011  62.302  1.00  0.00    -0.011 C 
HETATM   11  C1  UNL     1       2.340  37.945  61.958  1.00  0.00     0.021 C 
HETATM   12  C3  UNL     1       3.892  38.889  63.574  1.00  0.00     0.021 C 
HETATM   13  C4  UNL     1       4.361  36.688  62.696  1.00  0.00     0.021 C 
ENDBRANCH   7  10
BRANCH   9  14
HETATM   14  C22 UNL     1       6.879  39.042  61.684  1.00  0.00     0.392 C 
HETATM   15  F2  UNL     1       8.047  39.790  61.484  1.00  0.00    -0.212 F 
HETATM   16  F3  UNL     1       7.147  37.800  61.241  1.00  0.00    -0.212 F 
ENDBRANCH   9  14
ENDBRANCH   1   2
BRANCH   1  17
HETATM   17  C10 UNL     1       6.398  42.371  59.181  1.00  0.00     0.213 C 
HETATM   18  O1  UNL     1       7.551  41.937  59.134  1.00  0.00    -0.646 OA
HETATM   19  O2  UNL     1       6.249  43.658  58.622  1.00  0.00    -0.646 OA
ENDBRANCH   1  17
BRANCH   1  20
HETATM   20  C11 UNL     1       4.790  42.452  60.921  1.00  0.00     0.084 C 
BRANCH  20  21
HETATM   21  N3  UNL     1       5.848  43.113  61.588  1.00  0.00    -0.326 N 
HETATM   22  C12 UNL     1       6.186  43.114  62.941  1.00  0.00     0.253 C 
HETATM   23  O3  UNL     1       5.455  42.436  63.729  1.00  0.00    -0.271 OA
ATOM     24  H3  UNL     1       6.455  43.673  60.989  1.00  0.00     0.168 HD
BRANCH  22  25
HETATM   25  C13 UNL     1       7.296  43.814  63.576  1.00  0.00     0.281 C 
HETATM   26  N4  UNL     1       7.055  45.268  63.568  1.00  0.00    -0.058 N 
HETATM   27  C14 UNL     1       8.291  45.890  63.158  1.00  0.00     0.187 C 
ATOM     28  H42 UNL     1       6.257  45.542  62.995  1.00  0.00     0.278 HD
ATOM     29  H41 UNL     1       6.702  45.622  64.457  1.00  0.00     0.278 HD
HETATM   30  C15 UNL     1       8.452  45.666  61.671  1.00  0.00     0.033 C 
HETATM   31  C18 UNL     1       9.308  44.863  63.683  1.00  0.00     0.040 C 
HETATM   32  C16 UNL     1       8.720  44.182  61.551  1.00  0.00     0.009 C 
HETATM   33  C17 UNL     1       8.643  43.669  62.960  1.00  0.00     0.028 C 
ENDBRANCH  22  25
ENDBRANCH  20  21
BRANCH  20  34
HETATM   34  C19 UNL     1       3.486  43.152  60.814  1.00  0.00     0.197 C 
HETATM   35  C20 UNL     1       2.848  43.438  59.535  1.00  0.00     0.072 C 
HETATM   36  F1  UNL     1       3.446  44.312  61.578  1.00  0.00    -0.224 F 
HETATM   37 BR1  UNL     1       2.154  42.026  61.755  1.00  0.00    -0.042 Br
ENDBRANCH  20  34
ENDBRANCH   1  20
TORSDOF 8
ENDMDL
MODEL 3
REMARK VINA RESULT: -5.806457614      2.721      5.418
REMARK  8 active torsions:
REMARK  status: ('A' for Active; 'I' for Inactive)
REMARK    1  A    between atoms: C2_2  and  C5_5 
REMARK    2  A    between atoms: N2_11  and  C9_12 
REMARK    3  A    between atoms: C9_12  and  C10_13 
REMARK    4  A    between atoms: C9_12  and  C11_16 
REMARK    5  A    between atoms: C11_16  and  N3_17 
REMARK    6  A    between atoms: C11_16  and  C19_30 
REMARK       I    between atoms: N3_17  and  C12_19 
REMARK    7  A    between atoms: C12_19  and  C13_21 
REMARK    8  A    between atoms: C21_34  and  C22_35 
ROOT
HETATM    1  C9  UNL     1       4.704  43.101  59.868  1.00  0.00     0.376 C 
ENDROOT
BRANCH   1   2
HETATM    2  N2  UNL     1       5.506  42.002  59.456  1.00  0.00     0.152 N 
HETATM    3  C6  UNL     1       4.861  41.091  58.574  1.00  0.00     0.227 C 
HETATM    4  N1  UNL     1       4.650  39.901  59.344  1.00  0.00    -0.360 N 
HETATM    5  C7  UNL     1       5.621  40.694  57.331  1.00  0.00     0.073 C 
HETATM    6  C8  UNL     1       3.448  41.449  58.115  1.00  0.00     0.073 C 
HETATM    7  C5  UNL     1       5.292  39.889  60.416  1.00  0.00     0.031 C 
ATOM      8  H1  UNL     1       4.037  39.141  59.047  1.00  0.00     0.161 HD
HETATM    9  C21 UNL     1       6.066  41.164  60.440  1.00  0.00     0.338 C 
BRANCH   7  10
HETATM   10  C2  UNL     1       5.235  38.763  61.401  1.00  0.00    -0.011 C 
HETATM   11  C1  UNL     1       4.157  37.782  60.926  1.00  0.00     0.021 C 
HETATM   12  C3  UNL     1       4.698  39.297  62.750  1.00  0.00     0.021 C 
HETATM   13  C4  UNL     1       6.503  38.071  61.715  1.00  0.00     0.021 C 
ENDBRANCH   7  10
BRANCH   9  14
HETATM   14  C22 UNL     1       7.522  40.842  60.315  1.00  0.00     0.392 C 
HETATM   15  F2  UNL     1       8.211  40.847  61.535  1.00  0.00    -0.212 F 
HETATM   16  F3  UNL     1       8.270  41.560  59.458  1.00  0.00    -0.212 F 
ENDBRANCH   9  14
ENDBRANCH   1   2
BRANCH   1  17
HETATM   17  C10 UNL     1       5.494  44.305  59.369  1.00  0.00     0.213 C 
HETATM   18  O1  UNL     1       5.048  45.445  59.219  1.00  0.00    -0.646 OA
HETATM   19  O2  UNL     1       6.857  44.176  59.032  1.00  0.00    -0.646 OA
ENDBRANCH   1  17
BRANCH   1  20
HETATM   20  C11 UNL     1       4.446  43.378  61.282  1.00  0.00     0.084 C 
BRANCH  20  21
HETATM   21  N3  UNL     1       5.531  43.955  61.984  1.00  0.00    -0.326 N 
HETATM   22  C12 UNL     1       6.135  43.555  63.176  1.00  0.00     0.253 C 
HETATM   23  O3  UNL     1       5.666  42.525  63.754  1.00  0.00    -0.271 OA
ATOM     24  H3  UNL     1       5.931  44.787  61.553  1.00  0.00     0.168 HD
BRANCH  22  25
HETATM   25  C13 UNL     1       7.259  44.188  63.855  1.00  0.00     0.281 C 
HETATM   26  N4  UNL     1       7.253  45.641  63.609  1.00  0.00    -0.058 N 
HETATM   27  C14 UNL     1       8.610  46.014  63.292  1.00  0.00     0.187 C 
ATOM     28  H42 UNL     1       6.581  45.927  62.896  1.00  0.00     0.278 HD
ATOM     29  H41 UNL     1       6.858  46.178  64.381  1.00  0.00     0.278 HD
HETATM   30  C15 UNL     1       8.907  45.534  61.888  1.00  0.00     0.033 C 
HETATM   31  C18 UNL     1       9.384  44.953  64.093  1.00  0.00     0.040 C 
HETATM   32  C16 UNL     1       8.951  44.028  62.017  1.00  0.00     0.009 C 
HETATM   33  C17 UNL     1       8.629  43.763  63.459  1.00  0.00     0.028 C 
ENDBRANCH  22  25
ENDBRANCH  20  21
BRANCH  20  34
HETATM   34  C19 UNL     1       3.073  43.817  61.635  1.00  0.00     0.197 C 
HETATM   35  C20 UNL     1       2.077  44.172  60.631  1.00  0.00     0.072 C 
HETATM   36  F1  UNL     1       3.072  44.812  62.605  1.00  0.00    -0.224 F 
HETATM   37 BR1  UNL     1       2.228  42.319  62.618  1.00  0.00    -0.042 Br
ENDBRANCH  20  34
ENDBRANCH   1  20
TORSDOF 8
ENDMDL
MODEL 4
REMARK VINA RESULT: -5.648098267      2.474      6.102
REMARK  8 active torsions:
REMARK  status: ('A' for Active; 'I' for Inactive)
REMARK    1  A    between atoms: C2_2  and  C5_5 
REMARK    2  A    between atoms: N2_11  and  C9_12 
REMARK    3  A    between atoms: C9_12  and  C10_13 
REMARK    4  A    between atoms: C9_12  and  C11_16 
REMARK    5  A    between atoms: C11_16  and  N3_17 
REMARK    6  A    between atoms: C11_16  and  C19_30 
REMARK       I    between atoms: N3_17  and  C12_19 
REMARK    7  A    between atoms: C12_19  and  C13_21 
REMARK    8  A    between atoms: C21_34  and  C22_35 
ROOT
HETATM    1  C9  UNL     1       6.357  41.345  59.438  1.00  0.00     0.376 C 
ENDROOT
BRANCH   1   2
HETATM    2  N2  UNL     1       6.499  40.078  60.068  1.00  0.00     0.152 N 
HETATM    3  C6  UNL     1       6.803  39.006  59.185  1.00  0.00     0.227 C 
HETATM    4  N1  UNL     1       5.617  38.202  59.140  1.00  0.00    -0.360 N 
HETATM    5  C7  UNL     1       7.945  38.100  59.582  1.00  0.00     0.073 C 
HETATM    6  C8  UNL     1       7.027  39.356  57.715  1.00  0.00     0.073 C 
HETATM    7  C5  UNL     1       4.796  38.487  60.038  1.00  0.00     0.031 C 
ATOM      8  H1  UNL     1       5.459  37.471  58.446  1.00  0.00     0.161 HD
HETATM    9  C21 UNL     1       5.429  39.579  60.835  1.00  0.00     0.338 C 
BRANCH   7  10
HETATM   10  C2  UNL     1       3.476  37.800  60.201  1.00  0.00    -0.011 C 
HETATM   11  C1  UNL     1       2.974  37.419  58.803  1.00  0.00     0.021 C 
HETATM   12  C3  UNL     1       2.433  38.820  60.715  1.00  0.00     0.021 C 
HETATM   13  C4  UNL     1       3.417  36.655  61.133  1.00  0.00     0.021 C 
ENDBRANCH   7  10
BRANCH   9  14
HETATM   14  C22 UNL     1       5.752  39.049  62.197  1.00  0.00     0.392 C 
HETATM   15  F2  UNL     1       6.178  37.714  62.201  1.00  0.00    -0.212 F 
HETATM   16  F3  UNL     1       4.823  39.151  63.165  1.00  0.00    -0.212 F 
ENDBRANCH   9  14
ENDBRANCH   1   2
BRANCH   1  17
HETATM   17  C10 UNL     1       7.384  42.204  60.166  1.00  0.00     0.213 C 
HETATM   18  O1  UNL     1       7.992  43.163  59.684  1.00  0.00    -0.646 OA
HETATM   19  O2  UNL     1       7.717  41.936  61.511  1.00  0.00    -0.646 OA
ENDBRANCH   1  17
BRANCH   1  20
HETATM   20  C11 UNL     1       5.108  42.106  59.513  1.00  0.00     0.084 C 
BRANCH  20  21
HETATM   21  N3  UNL     1       5.018  42.998  60.607  1.00  0.00    -0.326 N 
HETATM   22  C12 UNL     1       4.059  43.077  61.617  1.00  0.00     0.253 C 
HETATM   23  O3  UNL     1       3.100  42.243  61.581  1.00  0.00    -0.271 OA
ATOM     24  H3  UNL     1       5.768  43.687  60.667  1.00  0.00     0.168 HD
BRANCH  22  25
HETATM   25  C13 UNL     1       4.018  44.019  62.728  1.00  0.00     0.281 C 
HETATM   26  N4  UNL     1       5.382  44.444  63.090  1.00  0.00    -0.058 N 
HETATM   27  C14 UNL     1       5.465  44.391  64.529  1.00  0.00     0.187 C 
ATOM     28  H42 UNL     1       6.110  43.901  62.624  1.00  0.00     0.278 HD
ATOM     29  H41 UNL     1       5.635  45.354  62.705  1.00  0.00     0.278 HD
HETATM   30  C15 UNL     1       5.551  42.936  64.935  1.00  0.00     0.033 C 
HETATM   31  C18 UNL     1       4.000  44.674  64.903  1.00  0.00     0.040 C 
HETATM   32  C16 UNL     1       4.179  42.385  64.617  1.00  0.00     0.009 C 
HETATM   33  C17 UNL     1       3.438  43.542  64.013  1.00  0.00     0.028 C 
ENDBRANCH  22  25
ENDBRANCH  20  21
BRANCH  20  34
HETATM   34  C19 UNL     1       4.503  42.520  58.223  1.00  0.00     0.197 C 
HETATM   35  C20 UNL     1       5.269  42.611  56.986  1.00  0.00     0.072 C 
HETATM   36  F1  UNL     1       3.750  43.682  58.343  1.00  0.00    -0.224 F 
HETATM   37 BR1  UNL     1       3.095  41.191  57.799  1.00  0.00    -0.042 Br
ENDBRANCH  20  34
ENDBRANCH   1  20
TORSDOF 8
ENDMDL
MODEL 5
REMARK VINA RESULT: -5.646441061      2.647      6.764
REMARK  8 active torsions:
REMARK  status: ('A' for Active; 'I' for Inactive)
REMARK    1  A    between atoms: C2_2  and  C5_5 
REMARK    2  A    between atoms: N2_11  and  C9_12 
REMARK    3  A    between atoms: C9_12  and  C10_13 
REMARK    4  A    between atoms: C9_12  and  C11_16 
REMARK    5  A    between atoms: C11_16  and  N3_17 
REMARK    6  A    between atoms: C11_16  and  C19_30 
REMARK       I    between atoms: N3_17  and  C12_19 
REMARK    7  A    between atoms: C12_19  and  C13_21 
REMARK    8  A    between atoms: C21_34  and  C22_35 
ROOT
HETATM    1  C9  UNL     1       3.640  41.052  60.211  1.00  0.00     0.376 C 
ENDROOT
BRANCH   1   2
HETATM    2  N2  UNL     1       4.877  41.547  59.716  1.00  0.00     0.152 N 
HETATM    3  C6  UNL     1       5.015  41.500  58.302  1.00  0.00     0.227 C 
HETATM    4  N1  UNL     1       5.986  40.477  58.048  1.00  0.00    -0.360 N 
HETATM    5  C7  UNL     1       5.499  42.759  57.622  1.00  0.00     0.073 C 
HETATM    6  C8  UNL     1       3.805  41.020  57.500  1.00  0.00     0.073 C 
HETATM    7  C5  UNL     1       6.608  40.124  59.073  1.00  0.00     0.031 C 
ATOM      8  H1  UNL     1       6.153  40.078  57.124  1.00  0.00     0.161 HD
HETATM    9  C21 UNL     1       6.074  40.968  60.182  1.00  0.00     0.338 C 
BRANCH   7  10
HETATM   10  C2  UNL     1       7.666  39.066  59.075  1.00  0.00    -0.011 C 
HETATM   11  C1  UNL     1       7.295  38.034  58.005  1.00  0.00     0.021 C 
HETATM   12  C3  UNL     1       7.594  38.279  60.405  1.00  0.00     0.021 C 
HETATM   13  C4  UNL     1       9.070  39.510  58.942  1.00  0.00     0.021 C 
ENDBRANCH   7  10
BRANCH   9  14
HETATM   14  C22 UNL     1       7.153  41.901  60.634  1.00  0.00     0.392 C 
HETATM   15  F2  UNL     1       7.952  42.393  59.593  1.00  0.00    -0.212 F 
HETATM   16  F3  UNL     1       8.001  41.488  61.594  1.00  0.00    -0.212 F 
ENDBRANCH   9  14
ENDBRANCH   1   2
BRANCH   1  17
HETATM   17  C10 UNL     1       2.833  42.324  60.445  1.00  0.00     0.213 C 
HETATM   18  O1  UNL     1       1.610  42.432  60.329  1.00  0.00    -0.646 OA
HETATM   19  O2  UNL     1       3.477  43.518  60.832  1.00  0.00    -0.646 OA
ENDBRANCH   1  17
BRANCH   1  20
HETATM   20  C11 UNL     1       3.555  40.314  61.473  1.00  0.00     0.084 C 
BRANCH  20  21
HETATM   21  N3  UNL     1       3.109  41.074  62.579  1.00  0.00    -0.326 N 
HETATM   22  C12 UNL     1       3.789  41.440  63.742  1.00  0.00     0.253 C 
HETATM   23  O3  UNL     1       4.990  41.045  63.867  1.00  0.00    -0.271 OA
ATOM     24  H3  UNL     1       2.147  41.405  62.518  1.00  0.00     0.168 HD
BRANCH  22  25
HETATM   25  C13 UNL     1       3.278  42.232  64.853  1.00  0.00     0.281 C 
HETATM   26  N4  UNL     1       2.024  42.904  64.470  1.00  0.00    -0.058 N 
HETATM   27  C14 UNL     1       2.125  44.266  64.936  1.00  0.00     0.187 C 
ATOM     28  H42 UNL     1       1.818  42.835  63.473  1.00  0.00     0.278 HD
ATOM     29  H41 UNL     1       1.191  42.423  64.807  1.00  0.00     0.278 HD
HETATM   30  C15 UNL     1       3.079  45.000  64.021  1.00  0.00     0.033 C 
HETATM   31  C18 UNL     1       3.037  44.075  66.159  1.00  0.00     0.040 C 
HETATM   32  C16 UNL     1       4.429  44.395  64.338  1.00  0.00     0.009 C 
HETATM   33  C17 UNL     1       4.137  43.336  65.362  1.00  0.00     0.028 C 
ENDBRANCH  22  25
ENDBRANCH  20  21
BRANCH  20  34
HETATM   34  C19 UNL     1       3.135  38.893  61.386  1.00  0.00     0.197 C 
HETATM   35  C20 UNL     1       3.031  38.179  60.120  1.00  0.00     0.072 C 
HETATM   36  F1  UNL     1       1.977  38.641  62.113  1.00  0.00    -0.224 F 
HETATM   37 BR1  UNL     1       4.467  37.839  62.405  1.00  0.00    -0.042 Br
ENDBRANCH  20  34
ENDBRANCH   1  20
TORSDOF 8
ENDMDL
