MODEL 1
REMARK VINA RESULT: -6.137650002      0.000      0.000
REMARK  13 active torsions:
REMARK  status: ('A' for Active; 'I' for Inactive)
REMARK    1  A    between atoms: C2_2  and  C4_4 
REMARK    2  A    between atoms: C4_4  and  O1_5 
REMARK    3  A    between atoms: C4_4  and  C5_7 
REMARK    4  A    between atoms: C5_7  and  O2_8 
REMARK    5  A    between atoms: C5_7  and  N1_10 
REMARK    6  A    between atoms: N1_10  and  C6_12 
REMARK    7  A    between atoms: C6_12  and  C7_13 
REMARK    8  A    between atoms: C7_13  and  C8_14 
REMARK       I    between atoms: C8_14  and  N2_16 
REMARK    9  A    between atoms: N2_16  and  N3_18 
REMARK   10  A    between atoms: N3_18  and  C9_20 
REMARK   11  A    between atoms: C10_23  and  N5_24 
REMARK   12  A    between atoms: N5_24  and  C11_26 
REMARK   13  A    between atoms: N6_36  and  O7_37 
ROOT
HETATM    1  C9  UNL     1     -18.327   4.983 -27.517  1.00  0.00     0.700 A 
HETATM    2  N4  UNL     1     -18.603   5.126 -26.210  1.00  0.00    -0.174 N 
ATOM      3  H4  UNL     1     -19.463   5.604 -25.941  1.00  0.00     0.186 HD
HETATM    4  C10 UNL     1     -17.802   4.670 -25.253  1.00  0.00     0.138 A 
HETATM    5  C16 UNL     1     -16.625   4.017 -25.656  1.00  0.00     0.123 A 
HETATM    6  C17 UNL     1     -15.739   3.518 -24.703  1.00  0.00     0.293 A 
HETATM    7  O6  UNL     1     -16.017   3.661 -23.501  1.00  0.00    -0.264 OA
HETATM    8  N6  UNL     1     -14.618   2.900 -25.102  1.00  0.00    -0.133 N 
HETATM    9  C18 UNL     1     -14.376   2.777 -26.424  1.00  0.00     0.357 A 
HETATM   10  O8  UNL     1     -13.313   2.191 -26.805  1.00  0.00    -0.244 OA
HETATM   11  N7  UNL     1     -15.218   3.252 -27.358  1.00  0.00    -0.286 N 
HETATM   12  C19 UNL     1     -14.917   3.097 -28.767  1.00  0.00     0.163 C 
HETATM   13  C20 UNL     1     -16.366   3.885 -27.002  1.00  0.00     0.146 A 
HETATM   14  N8  UNL     1     -17.213   4.366 -27.937  1.00  0.00    -0.174 N 
ATOM     15  H8  UNL     1     -17.013   4.263 -28.931  1.00  0.00     0.186 HD
ENDROOT
BRANCH   1  16
HETATM   16  N3  UNL     1     -19.144   5.446 -28.429  1.00  0.00    -0.129 N 
ATOM     17  H3  UNL     1     -19.981   4.915 -28.668  1.00  0.00     0.205 HD
BRANCH  16  18
HETATM   18  N2  UNL     1     -18.888   6.656 -29.081  1.00  0.00    -0.255 N 
HETATM   19  C8  UNL     1     -18.091   6.718 -30.249  1.00  0.00     0.241 C 
HETATM   20  O3  UNL     1     -17.564   5.713 -30.778  1.00  0.00    -0.271 OA
ATOM     21  H2  UNL     1     -19.286   7.516 -28.705  1.00  0.00     0.190 HD
BRANCH  19  22
HETATM   22  C7  UNL     1     -17.859   8.027 -30.888  1.00  0.00     0.148 C 
BRANCH  22  23
HETATM   23  C6  UNL     1     -16.498   8.612 -30.544  1.00  0.00     0.067 C 
BRANCH  23  24
HETATM   24  N1  UNL     1     -15.806   7.837 -29.592  1.00  0.00    -0.374 N 
ATOM     25  H1  UNL     1     -15.395   6.944 -29.863  1.00  0.00     0.161 HD
BRANCH  24  26
HETATM   26  C5  UNL     1     -15.685   8.288 -28.282  1.00  0.00     0.246 C 
BRANCH  26  27
HETATM   27  C4  UNL     1     -14.330   8.590 -27.727  1.00  0.00     0.170 C 
BRANCH  27  28
HETATM   28  C2  UNL     1     -13.959  10.031 -27.638  1.00  0.00     0.010 C 
HETATM   29  C1  UNL     1     -15.035  10.989 -27.994  1.00  0.00     0.012 C 
HETATM   30  C3  UNL     1     -13.470  10.407 -26.246  1.00  0.00     0.012 C 
ENDBRANCH  27  28
BRANCH  27  31
HETATM   31  O1  UNL     1     -14.374   8.140 -26.341  1.00  0.00    -0.391 OA
ATOM     32  H1  UNL     1     -15.070   7.494 -26.324  1.00  0.00     0.210 HD
ENDBRANCH  27  31
ENDBRANCH  26  27
BRANCH  26  33
HETATM   33  O2  UNL     1     -16.274   7.378 -27.351  1.00  0.00    -0.374 OA
ATOM     34  H2  UNL     1     -17.184   7.645 -27.286  1.00  0.00     0.212 HD
ENDBRANCH  26  33
ENDBRANCH  24  26
ENDBRANCH  23  24
ENDBRANCH  22  23
ENDBRANCH  19  22
ENDBRANCH  16  18
ENDBRANCH   1  16
BRANCH   4  35
HETATM   35  N5  UNL     1     -17.976   4.750 -24.003  1.00  0.00    -0.347 N 
ATOM     36  H5  UNL     1     -17.156   5.062 -23.483  1.00  0.00     0.163 HD
BRANCH  35  37
HETATM   37  C11 UNL     1     -19.106   4.484 -23.206  1.00  0.00     0.249 C 
HETATM   38  C12 UNL     1     -19.592   3.051 -23.214  1.00  0.00     0.225 C 
HETATM   39  O4  UNL     1     -20.872   3.206 -22.670  1.00  0.00    -0.351 OA
HETATM   40  C13 UNL     1     -21.175   4.557 -22.678  1.00  0.00     0.159 C 
HETATM   41  C14 UNL     1     -22.622   4.731 -23.112  1.00  0.00     0.078 C 
HETATM   42  C15 UNL     1     -20.945   5.243 -21.359  1.00  0.00     0.078 C 
HETATM   43  O5  UNL     1     -20.286   5.147 -23.607  1.00  0.00    -0.330 OA
ENDBRANCH  35  37
ENDBRANCH   4  35
BRANCH   8  44
HETATM   44  O7  UNL     1     -13.771   2.423 -24.132  1.00  0.00    -0.276 OA
ATOM     45  H7  UNL     1     -13.015   2.952 -23.905  1.00  0.00     0.245 HD
ENDBRANCH   8  44
TORSDOF 13
ENDMDL
MODEL 2
REMARK VINA RESULT: -6.122246893      5.281      7.826
REMARK  13 active torsions:
REMARK  status: ('A' for Active; 'I' for Inactive)
REMARK    1  A    between atoms: C2_2  and  C4_4 
REMARK    2  A    between atoms: C4_4  and  O1_5 
REMARK    3  A    between atoms: C4_4  and  C5_7 
REMARK    4  A    between atoms: C5_7  and  O2_8 
REMARK    5  A    between atoms: C5_7  and  N1_10 
REMARK    6  A    between atoms: N1_10  and  C6_12 
REMARK    7  A    between atoms: C6_12  and  C7_13 
REMARK    8  A    between atoms: C7_13  and  C8_14 
REMARK       I    between atoms: C8_14  and  N2_16 
REMARK    9  A    between atoms: N2_16  and  N3_18 
REMARK   10  A    between atoms: N3_18  and  C9_20 
REMARK   11  A    between atoms: C10_23  and  N5_24 
REMARK   12  A    between atoms: N5_24  and  C11_26 
REMARK   13  A    between atoms: N6_36  and  O7_37 
ROOT
HETATM    1  C9  UNL     1     -15.528  12.600 -28.141  1.00  0.00     0.700 A 
HETATM    2  N4  UNL     1     -16.567  12.118 -28.844  1.00  0.00    -0.174 N 
ATOM      3  H4  UNL     1     -17.265  12.773 -29.195  1.00  0.00     0.186 HD
HETATM    4  C10 UNL     1     -16.721  10.824 -29.100  1.00  0.00     0.138 A 
HETATM    5  C16 UNL     1     -15.744   9.947 -28.601  1.00  0.00     0.123 A 
HETATM    6  C17 UNL     1     -15.848   8.577 -28.830  1.00  0.00     0.293 A 
HETATM    7  O6  UNL     1     -16.817   8.156 -29.483  1.00  0.00    -0.264 OA
HETATM    8  N6  UNL     1     -14.908   7.752 -28.346  1.00  0.00    -0.133 N 
HETATM    9  C18 UNL     1     -13.881   8.274 -27.644  1.00  0.00     0.357 A 
HETATM   10  O8  UNL     1     -12.988   7.493 -27.184  1.00  0.00    -0.244 OA
HETATM   11  N7  UNL     1     -13.763   9.592 -27.412  1.00  0.00    -0.286 N 
HETATM   12  C19 UNL     1     -12.641  10.109 -26.654  1.00  0.00     0.163 C 
HETATM   13  C20 UNL     1     -14.689  10.467 -27.883  1.00  0.00     0.146 A 
HETATM   14  N8  UNL     1     -14.576  11.793 -27.650  1.00  0.00    -0.174 N 
ATOM     15  H8  UNL     1     -13.792  12.168 -27.119  1.00  0.00     0.186 HD
ENDROOT
BRANCH   1  16
HETATM   16  N3  UNL     1     -15.411  13.883 -27.912  1.00  0.00    -0.129 N 
ATOM     17  H3  UNL     1     -15.980  14.317 -27.185  1.00  0.00     0.205 HD
BRANCH  16  18
HETATM   18  N2  UNL     1     -14.518  14.670 -28.646  1.00  0.00    -0.255 N 
HETATM   19  C8  UNL     1     -14.788  15.054 -29.980  1.00  0.00     0.241 C 
HETATM   20  O3  UNL     1     -15.828  14.726 -30.595  1.00  0.00    -0.271 OA
ATOM     21  H2  UNL     1     -13.649  14.974 -28.208  1.00  0.00     0.190 HD
BRANCH  19  22
HETATM   22  C7  UNL     1     -13.803  15.885 -30.700  1.00  0.00     0.148 C 
BRANCH  22  23
HETATM   23  C6  UNL     1     -13.172  15.156 -31.876  1.00  0.00     0.067 C 
BRANCH  23  24
HETATM   24  N1  UNL     1     -12.918  13.799 -31.592  1.00  0.00    -0.374 N 
ATOM     25  H1  UNL     1     -12.336  13.545 -30.794  1.00  0.00     0.161 HD
BRANCH  24  26
HETATM   26  C5  UNL     1     -13.462  12.805 -32.399  1.00  0.00     0.246 C 
BRANCH  26  27
HETATM   27  C4  UNL     1     -14.318  11.743 -31.787  1.00  0.00     0.170 C 
BRANCH  27  28
HETATM   28  C2  UNL     1     -14.882  10.728 -32.723  1.00  0.00     0.010 C 
HETATM   29  C1  UNL     1     -14.828   9.323 -32.246  1.00  0.00     0.012 C 
HETATM   30  C3  UNL     1     -16.333  11.024 -33.075  1.00  0.00     0.012 C 
ENDBRANCH  27  28
BRANCH  27  31
HETATM   31  O1  UNL     1     -13.426  10.982 -30.922  1.00  0.00    -0.391 OA
ATOM     32  H1  UNL     1     -12.906  11.642 -30.479  1.00  0.00     0.210 HD
ENDBRANCH  27  31
ENDBRANCH  26  27
BRANCH  26  33
HETATM   33  O2  UNL     1     -12.453  12.099 -33.123  1.00  0.00    -0.374 OA
ATOM     34  H2  UNL     1     -12.074  12.743 -33.711  1.00  0.00     0.212 HD
ENDBRANCH  26  33
ENDBRANCH  24  26
ENDBRANCH  23  24
ENDBRANCH  22  23
ENDBRANCH  19  22
ENDBRANCH  16  18
ENDBRANCH   1  16
BRANCH   4  35
HETATM   35  N5  UNL     1     -17.657  10.277 -29.752  1.00  0.00    -0.347 N 
ATOM     36  H5  UNL     1     -17.366   9.480 -30.318  1.00  0.00     0.163 HD
BRANCH  35  37
HETATM   37  C11 UNL     1     -19.030  10.578 -29.831  1.00  0.00     0.249 C 
HETATM   38  C12 UNL     1     -19.454  11.399 -31.030  1.00  0.00     0.225 C 
HETATM   39  O4  UNL     1     -20.724  11.822 -30.621  1.00  0.00    -0.351 OA
HETATM   40  C13 UNL     1     -20.842  11.561 -29.267  1.00  0.00     0.159 C 
HETATM   41  C14 UNL     1     -21.526  12.743 -28.598  1.00  0.00     0.078 C 
HETATM   42  C15 UNL     1     -21.582  10.289 -28.952  1.00  0.00     0.078 C 
HETATM   43  O5  UNL     1     -19.521  11.395 -28.788  1.00  0.00    -0.330 OA
ENDBRANCH  35  37
ENDBRANCH   4  35
BRANCH   8  44
HETATM   44  O7  UNL     1     -15.048   6.409 -28.593  1.00  0.00    -0.276 OA
ATOM     45  H7  UNL     1     -14.523   5.807 -28.079  1.00  0.00     0.245 HD
ENDBRANCH   8  44
TORSDOF 13
ENDMDL
MODEL 3
REMARK VINA RESULT: -5.922313368      2.463      4.527
REMARK  13 active torsions:
REMARK  status: ('A' for Active; 'I' for Inactive)
REMARK    1  A    between atoms: C2_2  and  C4_4 
REMARK    2  A    between atoms: C4_4  and  O1_5 
REMARK    3  A    between atoms: C4_4  and  C5_7 
REMARK    4  A    between atoms: C5_7  and  O2_8 
REMARK    5  A    between atoms: C5_7  and  N1_10 
REMARK    6  A    between atoms: N1_10  and  C6_12 
REMARK    7  A    between atoms: C6_12  and  C7_13 
REMARK    8  A    between atoms: C7_13  and  C8_14 
REMARK       I    between atoms: C8_14  and  N2_16 
REMARK    9  A    between atoms: N2_16  and  N3_18 
REMARK   10  A    between atoms: N3_18  and  C9_20 
REMARK   11  A    between atoms: C10_23  and  N5_24 
REMARK   12  A    between atoms: N5_24  and  C11_26 
REMARK   13  A    between atoms: N6_36  and  O7_37 
ROOT
HETATM    1  C9  UNL     1     -15.509   5.885 -26.350  1.00  0.00     0.700 A 
HETATM    2  N4  UNL     1     -16.826   6.033 -26.570  1.00  0.00    -0.174 N 
ATOM      3  H4  UNL     1     -17.139   6.801 -27.165  1.00  0.00     0.186 HD
HETATM    4  C10 UNL     1     -17.737   5.221 -26.047  1.00  0.00     0.138 A 
HETATM    5  C16 UNL     1     -17.275   4.175 -25.232  1.00  0.00     0.123 A 
HETATM    6  C17 UNL     1     -18.178   3.288 -24.649  1.00  0.00     0.293 A 
HETATM    7  O6  UNL     1     -19.391   3.446 -24.869  1.00  0.00    -0.264 OA
HETATM    8  N6  UNL     1     -17.723   2.296 -23.871  1.00  0.00    -0.133 N 
HETATM    9  C18 UNL     1     -16.393   2.181 -23.672  1.00  0.00     0.357 A 
HETATM   10  O8  UNL     1     -15.959   1.240 -22.935  1.00  0.00    -0.244 OA
HETATM   11  N7  UNL     1     -15.506   3.025 -24.225  1.00  0.00    -0.286 N 
HETATM   12  C19 UNL     1     -14.086   2.863 -23.985  1.00  0.00     0.163 C 
HETATM   13  C20 UNL     1     -15.920   4.046 -25.021  1.00  0.00     0.146 A 
HETATM   14  N8  UNL     1     -15.033   4.898 -25.577  1.00  0.00    -0.174 N 
ATOM     15  H8  UNL     1     -14.031   4.794 -25.416  1.00  0.00     0.186 HD
ENDROOT
BRANCH   1  16
HETATM   16  N3  UNL     1     -14.643   6.707 -26.885  1.00  0.00    -0.129 N 
ATOM     17  H3  UNL     1     -13.850   6.330 -27.406  1.00  0.00     0.205 HD
BRANCH  16  18
HETATM   18  N2  UNL     1     -14.784   8.091 -26.757  1.00  0.00    -0.255 N 
HETATM   19  C8  UNL     1     -13.704   8.975 -26.988  1.00  0.00     0.241 C 
HETATM   20  O3  UNL     1     -12.559   8.592 -27.319  1.00  0.00    -0.271 OA
ATOM     21  H2  UNL     1     -15.691   8.475 -26.489  1.00  0.00     0.190 HD
BRANCH  19  22
HETATM   22  C7  UNL     1     -13.920  10.427 -26.834  1.00  0.00     0.148 C 
BRANCH  22  23
HETATM   23  C6  UNL     1     -14.772  11.012 -27.950  1.00  0.00     0.067 C 
BRANCH  23  24
HETATM   24  N1  UNL     1     -14.381  10.548 -29.222  1.00  0.00    -0.374 N 
ATOM     25  H1  UNL     1     -13.523  10.895 -29.650  1.00  0.00     0.161 HD
BRANCH  24  26
HETATM   26  C5  UNL     1     -15.164   9.616 -29.895  1.00  0.00     0.246 C 
BRANCH  26  27
HETATM   27  C4  UNL     1     -16.605   9.460 -29.527  1.00  0.00     0.170 C 
BRANCH  27  28
HETATM   28  C2  UNL     1     -17.575   9.413 -30.659  1.00  0.00     0.010 C 
HETATM   29  C1  UNL     1     -17.278  10.328 -31.790  1.00  0.00     0.012 C 
HETATM   30  C3  UNL     1     -17.702   8.012 -31.240  1.00  0.00     0.012 C 
ENDBRANCH  27  28
BRANCH  27  31
HETATM   31  O1  UNL     1     -16.703   8.143 -28.910  1.00  0.00    -0.391 OA
ATOM     32  H1  UNL     1     -17.186   8.293 -28.107  1.00  0.00     0.210 HD
ENDBRANCH  27  31
ENDBRANCH  26  27
BRANCH  26  33
HETATM   33  O2  UNL     1     -14.614   8.301 -29.810  1.00  0.00    -0.374 OA
ATOM     34  H2  UNL     1     -14.090   8.302 -29.017  1.00  0.00     0.212 HD
ENDBRANCH  26  33
ENDBRANCH  24  26
ENDBRANCH  23  24
ENDBRANCH  22  23
ENDBRANCH  19  22
ENDBRANCH  16  18
ENDBRANCH   1  16
BRANCH   4  35
HETATM   35  N5  UNL     1     -18.991   5.275 -26.199  1.00  0.00    -0.347 N 
ATOM     36  H5  UNL     1     -19.511   4.576 -25.669  1.00  0.00     0.163 HD
BRANCH  35  37
HETATM   37  C11 UNL     1     -19.795   6.135 -26.973  1.00  0.00     0.249 C 
HETATM   38  C12 UNL     1     -19.550   6.094 -28.466  1.00  0.00     0.225 C 
HETATM   39  O4  UNL     1     -20.193   7.270 -28.869  1.00  0.00    -0.351 OA
HETATM   40  C13 UNL     1     -20.455   8.019 -27.735  1.00  0.00     0.159 C 
HETATM   41  C14 UNL     1     -20.153   9.479 -28.032  1.00  0.00     0.078 C 
HETATM   42  C15 UNL     1     -21.862   7.877 -27.219  1.00  0.00     0.078 C 
HETATM   43  O5  UNL     1     -19.598   7.512 -26.729  1.00  0.00    -0.330 OA
ENDBRANCH  35  37
ENDBRANCH   4  35
BRANCH   8  44
HETATM   44  O7  UNL     1     -18.645   1.445 -23.314  1.00  0.00    -0.276 OA
ATOM     45  H7  UNL     1     -18.471   0.512 -23.358  1.00  0.00     0.245 HD
ENDBRANCH   8  44
TORSDOF 13
ENDMDL
MODEL 4
REMARK VINA RESULT: -5.902311876      2.985      6.589
REMARK  13 active torsions:
REMARK  status: ('A' for Active; 'I' for Inactive)
REMARK    1  A    between atoms: C2_2  and  C4_4 
REMARK    2  A    between atoms: C4_4  and  O1_5 
REMARK    3  A    between atoms: C4_4  and  C5_7 
REMARK    4  A    between atoms: C5_7  and  O2_8 
REMARK    5  A    between atoms: C5_7  and  N1_10 
REMARK    6  A    between atoms: N1_10  and  C6_12 
REMARK    7  A    between atoms: C6_12  and  C7_13 
REMARK    8  A    between atoms: C7_13  and  C8_14 
REMARK       I    between atoms: C8_14  and  N2_16 
REMARK    9  A    between atoms: N2_16  and  N3_18 
REMARK   10  A    between atoms: N3_18  and  C9_20 
REMARK   11  A    between atoms: C10_23  and  N5_24 
REMARK   12  A    between atoms: N5_24  and  C11_26 
REMARK   13  A    between atoms: N6_36  and  O7_37 
ROOT
HETATM    1  C9  UNL     1     -17.340   8.140 -29.779  1.00  0.00     0.700 A 
HETATM    2  N4  UNL     1     -16.649   7.254 -29.043  1.00  0.00    -0.174 N 
ATOM      3  H4  UNL     1     -16.858   6.261 -29.150  1.00  0.00     0.186 HD
HETATM    4  C10 UNL     1     -15.706   7.617 -28.182  1.00  0.00     0.138 A 
HETATM    5  C16 UNL     1     -15.443   8.991 -28.055  1.00  0.00     0.123 A 
HETATM    6  C17 UNL     1     -14.468   9.440 -27.167  1.00  0.00     0.293 A 
HETATM    7  O6  UNL     1     -13.842   8.600 -26.498  1.00  0.00    -0.264 OA
HETATM    8  N6  UNL     1     -14.229  10.754 -27.055  1.00  0.00    -0.133 N 
HETATM    9  C18 UNL     1     -14.944  11.614 -27.810  1.00  0.00     0.357 A 
HETATM   10  O8  UNL     1     -14.720  12.861 -27.707  1.00  0.00    -0.244 OA
HETATM   11  N7  UNL     1     -15.889  11.200 -28.673  1.00  0.00    -0.286 N 
HETATM   12  C19 UNL     1     -16.632  12.159 -29.466  1.00  0.00     0.163 C 
HETATM   13  C20 UNL     1     -16.166   9.879 -28.821  1.00  0.00     0.146 A 
HETATM   14  N8  UNL     1     -17.115   9.459 -29.685  1.00  0.00    -0.174 N 
ATOM     15  H8  UNL     1     -17.644  10.124 -30.248  1.00  0.00     0.186 HD
ENDROOT
BRANCH   1  16
HETATM   16  N3  UNL     1     -18.261   7.742 -30.618  1.00  0.00    -0.129 N 
ATOM     17  H3  UNL     1     -18.990   8.394 -30.910  1.00  0.00     0.205 HD
BRANCH  16  18
HETATM   18  N2  UNL     1     -18.265   6.438 -31.122  1.00  0.00    -0.255 N 
HETATM   19  C8  UNL     1     -17.783   6.139 -32.418  1.00  0.00     0.241 C 
HETATM   20  O3  UNL     1     -17.324   7.004 -33.199  1.00  0.00    -0.271 OA
ATOM     21  H2  UNL     1     -18.625   5.682 -30.540  1.00  0.00     0.190 HD
BRANCH  19  22
HETATM   22  C7  UNL     1     -17.816   4.741 -32.890  1.00  0.00     0.148 C 
BRANCH  22  23
HETATM   23  C6  UNL     1     -18.548   3.818 -31.929  1.00  0.00     0.067 C 
BRANCH  23  24
HETATM   24  N1  UNL     1     -17.667   2.986 -31.208  1.00  0.00    -0.374 N 
ATOM     25  H1  UNL     1     -17.218   2.197 -31.672  1.00  0.00     0.161 HD
BRANCH  24  26
HETATM   26  C5  UNL     1     -17.412   3.241 -29.865  1.00  0.00     0.246 C 
BRANCH  26  27
HETATM   27  C4  UNL     1     -18.547   3.553 -28.943  1.00  0.00     0.170 C 
BRANCH  27  28
HETATM   28  C2  UNL     1     -18.490   2.930 -27.590  1.00  0.00     0.010 C 
HETATM   29  C1  UNL     1     -19.572   3.334 -26.657  1.00  0.00     0.012 C 
HETATM   30  C3  UNL     1     -18.509   1.409 -27.663  1.00  0.00     0.012 C 
ENDBRANCH  27  28
BRANCH  27  31
HETATM   31  O1  UNL     1     -18.450   4.985 -28.688  1.00  0.00    -0.391 OA
ATOM     32  H1  UNL     1     -18.686   5.389 -29.515  1.00  0.00     0.210 HD
ENDBRANCH  27  31
ENDBRANCH  26  27
BRANCH  26  33
HETATM   33  O2  UNL     1     -16.488   4.317 -29.697  1.00  0.00    -0.374 OA
ATOM     34  H2  UNL     1     -16.808   5.010 -30.263  1.00  0.00     0.212 HD
ENDBRANCH  26  33
ENDBRANCH  24  26
ENDBRANCH  23  24
ENDBRANCH  22  23
ENDBRANCH  19  22
ENDBRANCH  16  18
ENDBRANCH   1  16
BRANCH   4  35
HETATM   35  N5  UNL     1     -15.002   6.862 -27.451  1.00  0.00    -0.347 N 
ATOM     36  H5  UNL     1     -14.083   7.237 -27.219  1.00  0.00     0.163 HD
BRANCH  35  37
HETATM   37  C11 UNL     1     -15.269   5.593 -26.901  1.00  0.00     0.249 C 
HETATM   38  C12 UNL     1     -16.382   5.542 -25.877  1.00  0.00     0.225 C 
HETATM   39  O4  UNL     1     -16.138   4.297 -25.286  1.00  0.00    -0.351 OA
HETATM   40  C13 UNL     1     -14.881   3.878 -25.687  1.00  0.00     0.159 C 
HETATM   41  C14 UNL     1     -14.166   3.265 -24.493  1.00  0.00     0.078 C 
HETATM   42  C15 UNL     1     -14.898   2.904 -26.835  1.00  0.00     0.078 C 
HETATM   43  O5  UNL     1     -14.214   5.038 -26.145  1.00  0.00    -0.330 OA
ENDBRANCH  35  37
ENDBRANCH   4  35
BRANCH   8  44
HETATM   44  O7  UNL     1     -13.261  11.155 -26.168  1.00  0.00    -0.276 OA
ATOM     45  H7  UNL     1     -13.490  11.182 -25.245  1.00  0.00     0.245 HD
ENDBRANCH   8  44
TORSDOF 13
ENDMDL
MODEL 5
REMARK VINA RESULT: -5.846750685      2.528      7.428
REMARK  13 active torsions:
REMARK  status: ('A' for Active; 'I' for Inactive)
REMARK    1  A    between atoms: C2_2  and  C4_4 
REMARK    2  A    between atoms: C4_4  and  O1_5 
REMARK    3  A    between atoms: C4_4  and  C5_7 
REMARK    4  A    between atoms: C5_7  and  O2_8 
REMARK    5  A    between atoms: C5_7  and  N1_10 
REMARK    6  A    between atoms: N1_10  and  C6_12 
REMARK    7  A    between atoms: C6_12  and  C7_13 
REMARK    8  A    between atoms: C7_13  and  C8_14 
REMARK       I    between atoms: C8_14  and  N2_16 
REMARK    9  A    between atoms: N2_16  and  N3_18 
REMARK   10  A    between atoms: N3_18  and  C9_20 
REMARK   11  A    between atoms: C10_23  and  N5_24 
REMARK   12  A    between atoms: N5_24  and  C11_26 
REMARK   13  A    between atoms: N6_36  and  O7_37 
ROOT
HETATM    1  C9  UNL     1     -14.587   3.409 -26.409  1.00  0.00     0.700 A 
HETATM    2  N4  UNL     1     -15.206   4.554 -26.741  1.00  0.00    -0.174 N 
ATOM      3  H4  UNL     1     -14.983   5.400 -26.216  1.00  0.00     0.186 HD
HETATM    4  C10 UNL     1     -16.096   4.630 -27.723  1.00  0.00     0.138 A 
HETATM    5  C16 UNL     1     -16.383   3.447 -28.426  1.00  0.00     0.123 A 
HETATM    6  C17 UNL     1     -17.309   3.456 -29.466  1.00  0.00     0.293 A 
HETATM    7  O6  UNL     1     -17.868   4.528 -29.754  1.00  0.00    -0.264 OA
HETATM    8  N6  UNL     1     -17.574   2.320 -30.126  1.00  0.00    -0.133 N 
HETATM    9  C18 UNL     1     -16.933   1.190 -29.763  1.00  0.00     0.357 A 
HETATM   10  O8  UNL     1     -17.182   0.110 -30.387  1.00  0.00    -0.244 OA
HETATM   11  N7  UNL     1     -16.036   1.161 -28.762  1.00  0.00    -0.286 N 
HETATM   12  C19 UNL     1     -15.370  -0.077 -28.407  1.00  0.00     0.163 C 
HETATM   13  C20 UNL     1     -15.734   2.286 -28.065  1.00  0.00     0.146 A 
HETATM   14  N8  UNL     1     -14.836   2.262 -27.058  1.00  0.00    -0.174 N 
ATOM     15  H8  UNL     1     -14.360   1.398 -26.798  1.00  0.00     0.186 HD
ENDROOT
BRANCH   1  16
HETATM   16  N3  UNL     1     -13.714   3.376 -25.434  1.00  0.00    -0.129 N 
ATOM     17  H3  UNL     1     -12.894   3.981 -25.475  1.00  0.00     0.205 HD
BRANCH  16  18
HETATM   18  N2  UNL     1     -13.887   2.526 -24.338  1.00  0.00    -0.255 N 
HETATM   19  C8  UNL     1     -14.555   2.949 -23.165  1.00  0.00     0.241 C 
HETATM   20  O3  UNL     1     -15.035   4.098 -23.021  1.00  0.00    -0.271 OA
ATOM     21  H2  UNL     1     -13.522   1.575 -24.385  1.00  0.00     0.190 HD
BRANCH  19  22
HETATM   22  C7  UNL     1     -14.703   2.003 -22.043  1.00  0.00     0.148 C 
BRANCH  22  23
HETATM   23  C6  UNL     1     -15.926   1.110 -22.189  1.00  0.00     0.067 C 
BRANCH  23  24
HETATM   24  N1  UNL     1     -17.065   1.826 -22.607  1.00  0.00    -0.374 N 
ATOM     25  H1  UNL     1     -17.337   2.680 -22.121  1.00  0.00     0.161 HD
BRANCH  24  26
HETATM   26  C5  UNL     1     -17.820   1.369 -23.682  1.00  0.00     0.246 C 
BRANCH  26  27
HETATM   27  C4  UNL     1     -17.802   2.125 -24.972  1.00  0.00     0.170 C 
BRANCH  27  28
HETATM   28  C2  UNL     1     -19.095   2.203 -25.710  1.00  0.00     0.010 C 
HETATM   29  C1  UNL     1     -19.422   3.533 -26.283  1.00  0.00     0.012 C 
HETATM   30  C3  UNL     1     -19.159   1.198 -26.852  1.00  0.00     0.012 C 
ENDBRANCH  27  28
BRANCH  27  31
HETATM   31  O1  UNL     1     -17.512   3.505 -24.602  1.00  0.00    -0.391 OA
ATOM     32  H1  UNL     1     -17.447   3.488 -23.655  1.00  0.00     0.210 HD
ENDBRANCH  27  31
ENDBRANCH  26  27
BRANCH  26  33
HETATM   33  O2  UNL     1     -19.201   1.240 -23.344  1.00  0.00    -0.374 OA
ATOM     34  H2  UNL     1     -19.235   0.539 -22.703  1.00  0.00     0.212 HD
ENDBRANCH  26  33
ENDBRANCH  24  26
ENDBRANCH  23  24
ENDBRANCH  22  23
ENDBRANCH  19  22
ENDBRANCH  16  18
ENDBRANCH   1  16
BRANCH   4  35
HETATM   35  N5  UNL     1     -16.725   5.655 -28.112  1.00  0.00    -0.347 N 
ATOM     36  H5  UNL     1     -17.739   5.546 -28.131  1.00  0.00     0.163 HD
BRANCH  35  37
HETATM   37  C11 UNL     1     -16.268   6.923 -28.522  1.00  0.00     0.249 C 
HETATM   38  C12 UNL     1     -15.013   6.926 -29.368  1.00  0.00     0.225 C 
HETATM   39  O4  UNL     1     -14.639   8.271 -29.277  1.00  0.00    -0.351 OA
HETATM   40  C13 UNL     1     -15.379   8.849 -28.260  1.00  0.00     0.159 C 
HETATM   41  C14 UNL     1     -14.471   9.762 -27.452  1.00  0.00     0.078 C 
HETATM   42  C15 UNL     1     -16.586   9.610 -28.738  1.00  0.00     0.078 C 
HETATM   43  O5  UNL     1     -15.858   7.775 -27.473  1.00  0.00    -0.330 OA
ENDBRANCH  35  37
ENDBRANCH   4  35
BRANCH   8  44
HETATM   44  O7  UNL     1     -18.494   2.371 -31.144  1.00  0.00    -0.276 OA
ATOM     45  H7  UNL     1     -18.168   2.447 -32.033  1.00  0.00     0.245 HD
ENDBRANCH   8  44
TORSDOF 13
ENDMDL
