MODEL 1
REMARK VINA RESULT: -8.008708018      0.000      0.000
REMARK  9 active torsions:
REMARK  status: ('A' for Active; 'I' for Inactive)
REMARK    1  A    between atoms: C2_2  and  C3_3 
REMARK    2  A    between atoms: C2_2  and  C7_7 
REMARK    3  A    between atoms: C7_7  and  O1_8 
REMARK    4  A    between atoms: C7_7  and  C8_10 
REMARK    5  A    between atoms: C8_10  and  O2_11 
REMARK    6  A    between atoms: C8_10  and  C13_16 
REMARK    7  A    between atoms: O2_11  and  C9_12 
REMARK    8  A    between atoms: C9_12  and  C11_14 
REMARK    9  A    between atoms: C16_22  and  O6_23 
ROOT
HETATM    1  C8  UNL     1      -4.594   3.635  14.043  1.00  0.00     0.213 C 
ENDROOT
BRANCH   1   2
HETATM    2  C7  UNL     1      -3.353   4.457  13.834  1.00  0.00     0.184 C 
BRANCH   2   3
HETATM    3  C2  UNL     1      -3.528   5.813  13.307  1.00  0.00    -0.031 C 
HETATM    4  C1  UNL     1      -4.486   6.212  12.513  1.00  0.00     0.022 C 
BRANCH   3   5
HETATM    5  C3  UNL     1      -2.497   6.820  13.688  1.00  0.00    -0.058 C 
HETATM    6  C4  UNL     1      -1.431   7.084  12.698  1.00  0.00     0.048 C 
HETATM    7  C5  UNL     1      -2.509   7.450  14.828  1.00  0.00    -0.024 C 
HETATM    8  C6  UNL     1      -1.457   8.450  15.166  1.00  0.00     0.036 C 
ENDBRANCH   3   5
ENDBRANCH   2   3
BRANCH   2   9
HETATM    9  O1  UNL     1      -2.508   3.781  12.885  1.00  0.00    -0.388 OA
ATOM     10  H1  UNL     1      -2.019   3.143  13.390  1.00  0.00     0.210 HD
ENDBRANCH   2   9
ENDBRANCH   1   2
BRANCH   1  11
HETATM   11  O2  UNL     1      -4.720   3.290  15.333  1.00  0.00    -0.373 OA
BRANCH  11  12
HETATM   12  C9  UNL     1      -5.512   2.262  15.683  1.00  0.00     0.117 C 
HETATM   13  C10 UNL     1      -4.663   1.261  16.473  1.00  0.00     0.039 C 
BRANCH  12  14
HETATM   14  C11 UNL     1      -6.680   2.594  16.568  1.00  0.00     0.027 C 
HETATM   15  C12 UNL     1      -7.208   1.256  17.105  1.00  0.00     0.007 C 
ENDBRANCH  12  14
ENDBRANCH  11  12
ENDBRANCH   1  11
BRANCH   1  16
HETATM   16  C13 UNL     1      -4.740   2.620  12.974  1.00  0.00     0.331 C 
HETATM   17  O3  UNL     1      -4.898   3.036  11.688  1.00  0.00    -0.204 OA
HETATM   18  O4  UNL     1      -4.339   2.233  10.795  1.00  0.00    -0.220 OA
HETATM   19  C14 UNL     1      -4.723   0.934  11.145  1.00  0.00     0.290 C 
HETATM   20  C15 UNL     1      -4.250  -0.062  10.150  1.00  0.00     0.217 C 
HETATM   21  C17 UNL     1      -3.904   0.548  12.364  1.00  0.00     0.306 C 
HETATM   22  O5  UNL     1      -4.682  -0.161   9.025  1.00  0.00    -0.289 OA
HETATM   23  C16 UNL     1      -3.189  -0.845  10.842  1.00  0.00     0.334 C 
HETATM   24  O7  UNL     1      -2.719   0.083  11.795  1.00  0.00    -0.321 OA
HETATM   25  O8  UNL     1      -3.667   1.689  13.087  1.00  0.00    -0.323 OA
BRANCH  23  26
HETATM   26  O6  UNL     1      -3.731  -1.912  11.564  1.00  0.00    -0.365 OA
ATOM     27  H6  UNL     1      -3.592  -2.739  11.118  1.00  0.00     0.213 HD
ENDBRANCH  23  26
ENDBRANCH   1  16
TORSDOF 9
ENDMDL
MODEL 2
REMARK VINA RESULT: -7.898341864      1.342      2.180
REMARK  9 active torsions:
REMARK  status: ('A' for Active; 'I' for Inactive)
REMARK    1  A    between atoms: C2_2  and  C3_3 
REMARK    2  A    between atoms: C2_2  and  C7_7 
REMARK    3  A    between atoms: C7_7  and  O1_8 
REMARK    4  A    between atoms: C7_7  and  C8_10 
REMARK    5  A    between atoms: C8_10  and  O2_11 
REMARK    6  A    between atoms: C8_10  and  C13_16 
REMARK    7  A    between atoms: O2_11  and  C9_12 
REMARK    8  A    between atoms: C9_12  and  C11_14 
REMARK    9  A    between atoms: C16_22  and  O6_23 
ROOT
HETATM    1  C8  UNL     1      -4.849   2.501  14.876  1.00  0.00     0.213 C 
ENDROOT
BRANCH   1   2
HETATM    2  C7  UNL     1      -3.998   3.739  14.813  1.00  0.00     0.184 C 
BRANCH   2   3
HETATM    3  C2  UNL     1      -4.657   4.986  14.414  1.00  0.00    -0.031 C 
HETATM    4  C1  UNL     1      -5.923   5.270  14.568  1.00  0.00     0.022 C 
BRANCH   3   5
HETATM    5  C3  UNL     1      -3.806   6.010  13.744  1.00  0.00    -0.058 C 
HETATM    6  C4  UNL     1      -4.114   6.303  12.328  1.00  0.00     0.048 C 
HETATM    7  C5  UNL     1      -2.834   6.631  14.349  1.00  0.00    -0.024 C 
HETATM    8  C6  UNL     1      -2.010   7.649  13.638  1.00  0.00     0.036 C 
ENDBRANCH   3   5
ENDBRANCH   2   3
BRANCH   2   9
HETATM    9  O1  UNL     1      -2.953   3.530  13.845  1.00  0.00    -0.388 OA
ATOM     10  H1  UNL     1      -2.208   3.214  14.340  1.00  0.00     0.210 HD
ENDBRANCH   2   9
ENDBRANCH   1   2
BRANCH   1  11
HETATM   11  O2  UNL     1      -5.221   2.249  16.140  1.00  0.00    -0.373 OA
BRANCH  11  12
HETATM   12  C9  UNL     1      -6.525   2.142  16.452  1.00  0.00     0.117 C 
HETATM   13  C10 UNL     1      -6.775   0.714  16.948  1.00  0.00     0.039 C 
BRANCH  12  14
HETATM   14  C11 UNL     1      -7.023   3.046  17.544  1.00  0.00     0.027 C 
HETATM   15  C12 UNL     1      -6.542   2.430  18.865  1.00  0.00     0.007 C 
ENDBRANCH  12  14
ENDBRANCH  11  12
ENDBRANCH   1  11
BRANCH   1  16
HETATM   16  C13 UNL     1      -4.281   1.427  14.029  1.00  0.00     0.331 C 
HETATM   17  O3  UNL     1      -4.425   0.133  14.422  1.00  0.00    -0.204 OA
HETATM   18  O4  UNL     1      -4.562  -0.718  13.417  1.00  0.00    -0.220 OA
HETATM   19  C14 UNL     1      -3.564  -0.391  12.492  1.00  0.00     0.290 C 
HETATM   20  C15 UNL     1      -3.536  -1.350  11.357  1.00  0.00     0.217 C 
HETATM   21  C17 UNL     1      -4.010   0.881  11.795  1.00  0.00     0.306 C 
HETATM   22  O5  UNL     1      -3.177  -2.501  11.445  1.00  0.00    -0.289 OA
HETATM   23  C16 UNL     1      -4.026  -0.586  10.177  1.00  0.00     0.334 C 
HETATM   24  O7  UNL     1      -4.838   0.395  10.783  1.00  0.00    -0.321 OA
HETATM   25  O8  UNL     1      -4.741   1.616  12.694  1.00  0.00    -0.323 OA
BRANCH  23  26
HETATM   26  O6  UNL     1      -2.985   0.101   9.545  1.00  0.00    -0.365 OA
ATOM     27  H6  UNL     1      -2.411  -0.494   9.076  1.00  0.00     0.213 HD
ENDBRANCH  23  26
ENDBRANCH   1  16
TORSDOF 9
ENDMDL
MODEL 3
REMARK VINA RESULT: -7.679096614      0.792      1.727
REMARK  9 active torsions:
REMARK  status: ('A' for Active; 'I' for Inactive)
REMARK    1  A    between atoms: C2_2  and  C3_3 
REMARK    2  A    between atoms: C2_2  and  C7_7 
REMARK    3  A    between atoms: C7_7  and  O1_8 
REMARK    4  A    between atoms: C7_7  and  C8_10 
REMARK    5  A    between atoms: C8_10  and  O2_11 
REMARK    6  A    between atoms: C8_10  and  C13_16 
REMARK    7  A    between atoms: O2_11  and  C9_12 
REMARK    8  A    between atoms: C9_12  and  C11_14 
REMARK    9  A    between atoms: C16_22  and  O6_23 
ROOT
HETATM    1  C8  UNL     1      -4.471   3.748  13.678  1.00  0.00     0.213 C 
ENDROOT
BRANCH   1   2
HETATM    2  C7  UNL     1      -3.208   4.522  13.420  1.00  0.00     0.184 C 
BRANCH   2   3
HETATM    3  C2  UNL     1      -3.300   5.984  13.448  1.00  0.00    -0.031 C 
HETATM    4  C1  UNL     1      -2.894   6.762  14.416  1.00  0.00     0.022 C 
BRANCH   3   5
HETATM    5  C3  UNL     1      -3.946   6.638  12.274  1.00  0.00    -0.058 C 
HETATM    6  C4  UNL     1      -3.078   7.486  11.428  1.00  0.00     0.048 C 
HETATM    7  C5  UNL     1      -5.206   6.489  11.983  1.00  0.00    -0.024 C 
HETATM    8  C6  UNL     1      -5.809   7.162  10.798  1.00  0.00     0.036 C 
ENDBRANCH   3   5
ENDBRANCH   2   3
BRANCH   2   9
HETATM    9  O1  UNL     1      -2.726   4.191  12.105  1.00  0.00    -0.388 OA
ATOM     10  H1  UNL     1      -2.527   3.263  12.134  1.00  0.00     0.210 HD
ENDBRANCH   2   9
ENDBRANCH   1   2
BRANCH   1  11
HETATM   11  O2  UNL     1      -4.621   3.514  14.990  1.00  0.00    -0.373 OA
BRANCH  11  12
HETATM   12  C9  UNL     1      -5.368   2.478  15.410  1.00  0.00     0.117 C 
HETATM   13  C10 UNL     1      -4.461   1.536  16.209  1.00  0.00     0.039 C 
BRANCH  12  14
HETATM   14  C11 UNL     1      -6.514   2.812  16.323  1.00  0.00     0.027 C 
HETATM   15  C12 UNL     1      -7.055   1.472  16.843  1.00  0.00     0.007 C 
ENDBRANCH  12  14
ENDBRANCH  11  12
ENDBRANCH   1  11
BRANCH   1  16
HETATM   16  C13 UNL     1      -4.628   2.652  12.694  1.00  0.00     0.331 C 
HETATM   17  O3  UNL     1      -4.993   2.959  11.419  1.00  0.00    -0.204 OA
HETATM   18  O4  UNL     1      -4.458   2.163  10.505  1.00  0.00    -0.220 OA
HETATM   19  C14 UNL     1      -4.639   0.857  10.973  1.00  0.00     0.290 C 
HETATM   20  C15 UNL     1      -4.179  -0.147   9.979  1.00  0.00     0.217 C 
HETATM   21  C17 UNL     1      -3.635   0.648  12.092  1.00  0.00     0.306 C 
HETATM   22  O5  UNL     1      -4.733  -0.370   8.928  1.00  0.00    -0.289 OA
HETATM   23  C16 UNL     1      -2.955  -0.759  10.566  1.00  0.00     0.334 C 
HETATM   24  O7  UNL     1      -2.484   0.278  11.398  1.00  0.00    -0.321 OA
HETATM   25  O8  UNL     1      -3.447   1.855  12.715  1.00  0.00    -0.323 OA
BRANCH  23  26
HETATM   26  O6  UNL     1      -3.273  -1.827  11.411  1.00  0.00    -0.365 OA
ATOM     27  H6  UNL     1      -3.919  -1.576  12.060  1.00  0.00     0.213 HD
ENDBRANCH  23  26
ENDBRANCH   1  16
TORSDOF 9
ENDMDL
MODEL 4
REMARK VINA RESULT: -7.667189953      2.509      5.405
REMARK  9 active torsions:
REMARK  status: ('A' for Active; 'I' for Inactive)
REMARK    1  A    between atoms: C2_2  and  C3_3 
REMARK    2  A    between atoms: C2_2  and  C7_7 
REMARK    3  A    between atoms: C7_7  and  O1_8 
REMARK    4  A    between atoms: C7_7  and  C8_10 
REMARK    5  A    between atoms: C8_10  and  O2_11 
REMARK    6  A    between atoms: C8_10  and  C13_16 
REMARK    7  A    between atoms: O2_11  and  C9_12 
REMARK    8  A    between atoms: C9_12  and  C11_14 
REMARK    9  A    between atoms: C16_22  and  O6_23 
ROOT
HETATM    1  C8  UNL     1      -3.352   3.911  13.319  1.00  0.00     0.213 C 
ENDROOT
BRANCH   1   2
HETATM    2  C7  UNL     1      -3.435   2.994  12.131  1.00  0.00     0.184 C 
BRANCH   2   3
HETATM    3  C2  UNL     1      -3.056   3.549  10.828  1.00  0.00    -0.031 C 
HETATM    4  C1  UNL     1      -3.792   4.328  10.081  1.00  0.00     0.022 C 
BRANCH   3   5
HETATM    5  C3  UNL     1      -1.719   3.160  10.297  1.00  0.00    -0.058 C 
HETATM    6  C4  UNL     1      -1.143   1.899  10.811  1.00  0.00     0.048 C 
HETATM    7  C5  UNL     1      -1.068   3.875   9.424  1.00  0.00    -0.024 C 
HETATM    8  C6  UNL     1       0.268   3.446   8.920  1.00  0.00     0.036 C 
ENDBRANCH   3   5
ENDBRANCH   2   3
BRANCH   2   9
HETATM    9  O1  UNL     1      -4.798   2.558  11.981  1.00  0.00    -0.388 OA
ATOM     10  H1  UNL     1      -4.794   1.961  11.242  1.00  0.00     0.210 HD
ENDBRANCH   2   9
ENDBRANCH   1   2
BRANCH   1  11
HETATM   11  O2  UNL     1      -2.072   4.165  13.630  1.00  0.00    -0.373 OA
BRANCH  11  12
HETATM   12  C9  UNL     1      -1.657   5.432  13.800  1.00  0.00     0.117 C 
HETATM   13  C10 UNL     1      -0.744   5.791  12.622  1.00  0.00     0.039 C 
BRANCH  12  14
HETATM   14  C11 UNL     1      -2.728   6.485  13.819  1.00  0.00     0.027 C 
HETATM   15  C12 UNL     1      -2.112   7.715  14.501  1.00  0.00     0.007 C 
ENDBRANCH  12  14
ENDBRANCH  11  12
ENDBRANCH   1  11
BRANCH   1  16
HETATM   16  C13 UNL     1      -4.316   3.503  14.368  1.00  0.00     0.331 C 
HETATM   17  O3  UNL     1      -5.635   3.789  14.197  1.00  0.00    -0.204 OA
HETATM   18  O4  UNL     1      -6.449   2.875  14.703  1.00  0.00    -0.220 OA
HETATM   19  C14 UNL     1      -5.971   2.597  15.988  1.00  0.00     0.290 C 
HETATM   20  C15 UNL     1      -6.867   1.661  16.714  1.00  0.00     0.217 C 
HETATM   21  C17 UNL     1      -4.726   1.746  15.819  1.00  0.00     0.306 C 
HETATM   22  O5  UNL     1      -7.974   1.944  17.109  1.00  0.00    -0.289 OA
HETATM   23  C16 UNL     1      -6.110   0.384  16.819  1.00  0.00     0.334 C 
HETATM   24  O7  UNL     1      -5.255   0.461  15.699  1.00  0.00    -0.321 OA
HETATM   25  O8  UNL     1      -4.119   2.120  14.647  1.00  0.00    -0.323 OA
BRANCH  23  26
HETATM   26  O6  UNL     1      -5.282   0.371  17.946  1.00  0.00    -0.365 OA
ATOM     27  H6  UNL     1      -4.446  -0.039  17.758  1.00  0.00     0.213 HD
ENDBRANCH  23  26
ENDBRANCH   1  16
TORSDOF 9
ENDMDL
MODEL 5
REMARK VINA RESULT: -7.583881588      1.843      6.145
REMARK  9 active torsions:
REMARK  status: ('A' for Active; 'I' for Inactive)
REMARK    1  A    between atoms: C2_2  and  C3_3 
REMARK    2  A    between atoms: C2_2  and  C7_7 
REMARK    3  A    between atoms: C7_7  and  O1_8 
REMARK    4  A    between atoms: C7_7  and  C8_10 
REMARK    5  A    between atoms: C8_10  and  O2_11 
REMARK    6  A    between atoms: C8_10  and  C13_16 
REMARK    7  A    between atoms: O2_11  and  C9_12 
REMARK    8  A    between atoms: C9_12  and  C11_14 
REMARK    9  A    between atoms: C16_22  and  O6_23 
ROOT
HETATM    1  C8  UNL     1      -3.306   3.304  12.348  1.00  0.00     0.213 C 
ENDROOT
BRANCH   1   2
HETATM    2  C7  UNL     1      -3.732   2.276  11.337  1.00  0.00     0.184 C 
BRANCH   2   3
HETATM    3  C2  UNL     1      -2.745   1.261  10.957  1.00  0.00    -0.031 C 
HETATM    4  C1  UNL     1      -1.550   1.492  10.480  1.00  0.00     0.022 C 
BRANCH   3   5
HETATM    5  C3  UNL     1      -3.158  -0.164  11.099  1.00  0.00    -0.058 C 
HETATM    6  C4  UNL     1      -4.605  -0.421  11.259  1.00  0.00     0.048 C 
HETATM    7  C5  UNL     1      -2.310  -1.152  11.088  1.00  0.00    -0.024 C 
HETATM    8  C6  UNL     1      -2.770  -2.563  11.233  1.00  0.00     0.036 C 
ENDBRANCH   3   5
ENDBRANCH   2   3
BRANCH   2   9
HETATM    9  O1  UNL     1      -4.081   2.950  10.115  1.00  0.00    -0.388 OA
ATOM     10  H1  UNL     1      -5.012   2.801  10.000  1.00  0.00     0.210 HD
ENDBRANCH   2   9
ENDBRANCH   1   2
BRANCH   1  11
HETATM   11  O2  UNL     1      -1.968   3.368  12.422  1.00  0.00    -0.373 OA
BRANCH  11  12
HETATM   12  C9  UNL     1      -1.355   4.558  12.546  1.00  0.00     0.117 C 
HETATM   13  C10 UNL     1      -1.937   5.502  11.488  1.00  0.00     0.039 C 
BRANCH  12  14
HETATM   14  C11 UNL     1      -1.532   5.262  13.861  1.00  0.00     0.027 C 
HETATM   15  C12 UNL     1      -2.100   6.650  13.534  1.00  0.00     0.007 C 
ENDBRANCH  12  14
ENDBRANCH  11  12
ENDBRANCH   1  11
BRANCH   1  16
HETATM   16  C13 UNL     1      -4.124   3.203  13.579  1.00  0.00     0.331 C 
HETATM   17  O3  UNL     1      -5.362   3.768  13.596  1.00  0.00    -0.204 OA
HETATM   18  O4  UNL     1      -6.243   3.102  14.326  1.00  0.00    -0.220 OA
HETATM   19  C14 UNL     1      -5.606   2.816  15.539  1.00  0.00     0.290 C 
HETATM   20  C15 UNL     1      -6.531   2.162  16.501  1.00  0.00     0.217 C 
HETATM   21  C17 UNL     1      -4.622   1.694  15.264  1.00  0.00     0.306 C 
HETATM   22  O5  UNL     1      -7.460   2.718  17.038  1.00  0.00    -0.289 OA
HETATM   23  C16 UNL     1      -6.054   0.757  16.621  1.00  0.00     0.334 C 
HETATM   24  O7  UNL     1      -5.423   0.558  15.375  1.00  0.00    -0.321 OA
HETATM   25  O8  UNL     1      -4.176   1.835  13.974  1.00  0.00    -0.323 OA
BRANCH  23  26
HETATM   26  O6  UNL     1      -5.055   0.638  17.592  1.00  0.00    -0.365 OA
ATOM     27  H6  UNL     1      -5.298   1.081  18.397  1.00  0.00     0.213 HD
ENDBRANCH  23  26
ENDBRANCH   1  16
TORSDOF 9
ENDMDL
