MODEL 1
REMARK VINA RESULT: -8.359148770      0.000      0.000
REMARK  10 active torsions:
REMARK  status: ('A' for Active; 'I' for Inactive)
REMARK    1  A    between atoms: N1_1  and  N2_4 
REMARK    2  A    between atoms: C1_9  and  C2_10 
REMARK       I    between atoms: C2_10  and  N5_12 
REMARK    3  A    between atoms: N5_12  and  N6_14 
REMARK    4  A    between atoms: C3_16  and  C4_17 
REMARK    5  A    between atoms: C7_20  and  N7_21 
REMARK    6  A    between atoms: C8_25  and  C9_26 
REMARK    7  A    between atoms: C9_26  and  O5_27 
REMARK    8  A    between atoms: C9_26  and  N8_29 
REMARK    9  A    between atoms: N8_29  and  N9_31 
REMARK   10  A    between atoms: N9_31  and  C10_33 
ROOT
HETATM    1  N2  UNL     1      10.575   5.861   3.088  1.00  0.00    -0.182 N 
HETATM    2  N3  UNL     1      11.383   6.716   2.520  1.00  0.00    -0.221 N 
ATOM      3  H3  UNL     1      11.094   7.627   2.164  1.00  0.00     0.210 HD
HETATM    4  N4  UNL     1      12.600   6.266   2.463  1.00  0.00    -0.277 N 
ATOM      5  H4  UNL     1      13.396   6.760   2.061  1.00  0.00     0.189 HD
HETATM    6  C1  UNL     1      12.643   4.997   3.040  1.00  0.00     0.153 A 
HETATM    7  C8  UNL     1      11.354   4.760   3.422  1.00  0.00     0.161 A 
ENDROOT
BRANCH   6   8
HETATM    8  C2  UNL     1      13.892   4.269   3.121  1.00  0.00     0.290 C 
HETATM    9  O1  UNL     1      14.883   4.869   2.544  1.00  0.00    -0.264 OA
HETATM   10  N5  UNL     1      14.162   3.052   3.732  1.00  0.00    -0.265 N 
ATOM     11  H5  UNL     1      13.385   2.581   4.193  1.00  0.00     0.190 HD
BRANCH  10  12
HETATM   12  N6  UNL     1      15.398   2.421   3.769  1.00  0.00    -0.306 N 
HETATM   13  C3  UNL     1      16.108   2.315   4.833  1.00  0.00     0.144 C 
ATOM     14  H6  UNL     1      15.762   2.020   2.904  1.00  0.00     0.186 HD
BRANCH  13  15
HETATM   15  C4  UNL     1      17.407   1.626   4.773  1.00  0.00     0.095 A 
HETATM   16  C5  UNL     1      18.620   2.154   5.183  1.00  0.00     0.043 A 
HETATM   17  C6  UNL     1      19.602   1.209   4.967  1.00  0.00     0.065 A 
HETATM   18  C7  UNL     1      18.931   0.126   4.426  1.00  0.00     0.215 A 
HETATM   19  O4  UNL     1      17.657   0.420   4.334  1.00  0.00    -0.287 OA
BRANCH  18  20
HETATM   20  N7  UNL     1      19.591  -1.082   4.052  1.00  0.00    -0.090 N 
HETATM   21  O2  UNL     1      19.167  -1.852   3.199  1.00  0.00    -0.530 OA
HETATM   22  O3  UNL     1      20.769  -1.385   4.697  1.00  0.00    -0.530 OA
ENDBRANCH  18  20
ENDBRANCH  13  15
ENDBRANCH  10  12
ENDBRANCH   6   8
BRANCH   7  23
HETATM   23  C9  UNL     1      10.774   3.619   4.058  1.00  0.00     0.188 C 
BRANCH  23  24
HETATM   24  O5  UNL     1       9.943   2.901   3.353  1.00  0.00    -0.343 OA
ATOM     25  H5  UNL     1       9.029   2.917   3.611  1.00  0.00     0.219 HD
ENDBRANCH  23  24
BRANCH  23  26
HETATM   26  N8  UNL     1      10.955   3.117   5.345  1.00  0.00    -0.276 N 
ATOM     27  H8  UNL     1      10.783   2.128   5.530  1.00  0.00     0.189 HD
BRANCH  26  28
HETATM   28  N9  UNL     1      11.382   3.977   6.418  1.00  0.00    -0.275 N 
ATOM     29  H9  UNL     1      10.692   4.419   7.026  1.00  0.00     0.189 HD
BRANCH  28  30
HETATM   30  C10 UNL     1      12.763   4.207   6.624  1.00  0.00     0.368 C 
HETATM   31  O6  UNL     1      13.117   5.328   7.063  1.00  0.00    -0.282 OA
ENDBRANCH  28  30
ENDBRANCH  26  28
ENDBRANCH  23  26
ENDBRANCH   7  23
BRANCH   1  32
HETATM   32  N1  UNL     1       9.193   6.006   3.324  1.00  0.00    -0.322 N 
ATOM     33  H12 UNL     1       8.486   5.276   3.239  1.00  0.00     0.179 HD
ATOM     34  H11 UNL     1       8.693   6.849   3.609  1.00  0.00     0.179 HD
ENDBRANCH   1  32
TORSDOF 10
ENDMDL
MODEL 2
REMARK VINA RESULT: -8.329746809      1.443      1.744
REMARK  10 active torsions:
REMARK  status: ('A' for Active; 'I' for Inactive)
REMARK    1  A    between atoms: N1_1  and  N2_4 
REMARK    2  A    between atoms: C1_9  and  C2_10 
REMARK       I    between atoms: C2_10  and  N5_12 
REMARK    3  A    between atoms: N5_12  and  N6_14 
REMARK    4  A    between atoms: C3_16  and  C4_17 
REMARK    5  A    between atoms: C7_20  and  N7_21 
REMARK    6  A    between atoms: C8_25  and  C9_26 
REMARK    7  A    between atoms: C9_26  and  O5_27 
REMARK    8  A    between atoms: C9_26  and  N8_29 
REMARK    9  A    between atoms: N8_29  and  N9_31 
REMARK   10  A    between atoms: N9_31  and  C10_33 
ROOT
HETATM    1  N2  UNL     1      10.613   5.748   3.030  1.00  0.00    -0.182 N 
HETATM    2  N3  UNL     1      11.445   6.663   2.607  1.00  0.00    -0.221 N 
ATOM      3  H3  UNL     1      11.157   7.540   2.172  1.00  0.00     0.210 HD
HETATM    4  N4  UNL     1      12.682   6.322   2.808  1.00  0.00    -0.277 N 
ATOM      5  H4  UNL     1      13.498   6.879   2.556  1.00  0.00     0.189 HD
HETATM    6  C1  UNL     1      12.714   5.070   3.421  1.00  0.00     0.153 A 
HETATM    7  C8  UNL     1      11.400   4.726   3.546  1.00  0.00     0.161 A 
ENDROOT
BRANCH   6   8
HETATM    8  C2  UNL     1      13.978   4.457   3.771  1.00  0.00     0.290 C 
HETATM    9  O1  UNL     1      14.714   5.187   4.546  1.00  0.00    -0.264 OA
HETATM   10  N5  UNL     1      14.485   3.217   3.406  1.00  0.00    -0.265 N 
ATOM     11  H5  UNL     1      13.904   2.637   2.801  1.00  0.00     0.190 HD
BRANCH  10  12
HETATM   12  N6  UNL     1      15.713   2.699   3.792  1.00  0.00    -0.306 N 
HETATM   13  C3  UNL     1      15.850   1.805   4.703  1.00  0.00     0.144 C 
ATOM     14  H6  UNL     1      16.552   3.046   3.327  1.00  0.00     0.186 HD
BRANCH  13  15
HETATM   15  C4  UNL     1      17.195   1.315   5.043  1.00  0.00     0.095 A 
HETATM   16  C5  UNL     1      18.333   2.096   5.159  1.00  0.00     0.043 A 
HETATM   17  C6  UNL     1      19.393   1.275   5.488  1.00  0.00     0.065 A 
HETATM   18  C7  UNL     1      18.843   0.008   5.560  1.00  0.00     0.215 A 
HETATM   19  O4  UNL     1      17.562   0.085   5.294  1.00  0.00    -0.287 OA
BRANCH  18  20
HETATM   20  N7  UNL     1      19.614  -1.150   5.879  1.00  0.00    -0.090 N 
HETATM   21  O2  UNL     1      20.646  -1.461   5.297  1.00  0.00    -0.530 OA
HETATM   22  O3  UNL     1      19.157  -1.952   6.901  1.00  0.00    -0.530 OA
ENDBRANCH  18  20
ENDBRANCH  13  15
ENDBRANCH  10  12
ENDBRANCH   6   8
BRANCH   7  23
HETATM   23  C9  UNL     1      10.801   3.546   4.090  1.00  0.00     0.188 C 
BRANCH  23  24
HETATM   24  O5  UNL     1       9.968   2.894   3.327  1.00  0.00    -0.343 OA
ATOM     25  H5  UNL     1      10.073   1.951   3.277  1.00  0.00     0.219 HD
ENDBRANCH  23  24
BRANCH  23  26
HETATM   26  N8  UNL     1      10.966   2.946   5.336  1.00  0.00    -0.276 N 
ATOM     27  H8  UNL     1      11.646   2.193   5.447  1.00  0.00     0.189 HD
BRANCH  26  28
HETATM   28  N9  UNL     1      10.189   3.375   6.470  1.00  0.00    -0.275 N 
ATOM     29  H9  UNL     1      10.286   4.325   6.828  1.00  0.00     0.189 HD
BRANCH  28  30
HETATM   30  C10 UNL     1       9.288   2.471   7.084  1.00  0.00     0.368 C 
HETATM   31  O6  UNL     1       8.063   2.737   7.043  1.00  0.00    -0.282 OA
ENDBRANCH  28  30
ENDBRANCH  26  28
ENDBRANCH  23  26
ENDBRANCH   7  23
BRANCH   1  32
HETATM   32  N1  UNL     1       9.205   5.774   2.982  1.00  0.00    -0.322 N 
ATOM     33  H12 UNL     1       8.593   6.398   3.507  1.00  0.00     0.179 HD
ATOM     34  H11 UNL     1       8.589   5.183   2.423  1.00  0.00     0.179 HD
ENDBRANCH   1  32
TORSDOF 10
ENDMDL
MODEL 3
REMARK VINA RESULT: -8.322881816      1.808      2.101
REMARK  10 active torsions:
REMARK  status: ('A' for Active; 'I' for Inactive)
REMARK    1  A    between atoms: N1_1  and  N2_4 
REMARK    2  A    between atoms: C1_9  and  C2_10 
REMARK       I    between atoms: C2_10  and  N5_12 
REMARK    3  A    between atoms: N5_12  and  N6_14 
REMARK    4  A    between atoms: C3_16  and  C4_17 
REMARK    5  A    between atoms: C7_20  and  N7_21 
REMARK    6  A    between atoms: C8_25  and  C9_26 
REMARK    7  A    between atoms: C9_26  and  O5_27 
REMARK    8  A    between atoms: C9_26  and  N8_29 
REMARK    9  A    between atoms: N8_29  and  N9_31 
REMARK   10  A    between atoms: N9_31  and  C10_33 
ROOT
HETATM    1  N2  UNL     1      11.571   5.294   2.796  1.00  0.00    -0.182 N 
HETATM    2  N3  UNL     1      12.674   5.813   2.324  1.00  0.00    -0.221 N 
ATOM      3  H3  UNL     1      12.712   6.670   1.772  1.00  0.00     0.210 HD
HETATM    4  N4  UNL     1      13.716   5.106   2.643  1.00  0.00    -0.277 N 
ATOM      5  H4  UNL     1      14.678   5.320   2.382  1.00  0.00     0.189 HD
HETATM    6  C1  UNL     1      13.306   4.009   3.398  1.00  0.00     0.153 A 
HETATM    7  C8  UNL     1      11.951   4.144   3.477  1.00  0.00     0.161 A 
ENDROOT
BRANCH   6   8
HETATM    8  C2  UNL     1      14.278   3.059   3.899  1.00  0.00     0.290 C 
HETATM    9  O1  UNL     1      13.754   1.960   4.337  1.00  0.00    -0.264 OA
HETATM   10  N5  UNL     1      15.661   3.164   3.956  1.00  0.00    -0.265 N 
ATOM     11  H5  UNL     1      16.077   4.026   3.604  1.00  0.00     0.190 HD
BRANCH  10  12
HETATM   12  N6  UNL     1      16.527   2.198   4.450  1.00  0.00    -0.306 N 
HETATM   13  C3  UNL     1      17.705   2.460   4.888  1.00  0.00     0.144 C 
ATOM     14  H6  UNL     1      16.211   1.228   4.465  1.00  0.00     0.186 HD
BRANCH  13  15
HETATM   15  C4  UNL     1      18.550   1.367   5.394  1.00  0.00     0.095 A 
HETATM   16  C5  UNL     1      18.259   0.016   5.309  1.00  0.00     0.043 A 
HETATM   17  C6  UNL     1      19.290  -0.689   5.895  1.00  0.00     0.065 A 
HETATM   18  C7  UNL     1      20.181   0.281   6.319  1.00  0.00     0.215 A 
HETATM   19  O4  UNL     1      19.704   1.461   6.003  1.00  0.00    -0.287 OA
BRANCH  18  20
HETATM   20  N7  UNL     1      21.402  -0.031   6.986  1.00  0.00    -0.090 N 
HETATM   21  O2  UNL     1      21.520  -0.942   7.797  1.00  0.00    -0.530 OA
HETATM   22  O3  UNL     1      22.500   0.745   6.692  1.00  0.00    -0.530 OA
ENDBRANCH  18  20
ENDBRANCH  13  15
ENDBRANCH  10  12
ENDBRANCH   6   8
BRANCH   7  23
HETATM   23  C9  UNL     1      10.974   3.316   4.114  1.00  0.00     0.188 C 
BRANCH  23  24
HETATM   24  O5  UNL     1       9.973   2.905   3.385  1.00  0.00    -0.343 OA
ATOM     25  H5  UNL     1       9.354   2.312   3.793  1.00  0.00     0.219 HD
ENDBRANCH  23  24
BRANCH  23  26
HETATM   26  N8  UNL     1      10.909   2.847   5.424  1.00  0.00    -0.276 N 
ATOM     27  H8  UNL     1      10.188   2.173   5.683  1.00  0.00     0.189 HD
BRANCH  26  28
HETATM   28  N9  UNL     1      11.847   3.302   6.417  1.00  0.00    -0.275 N 
ATOM     29  H9  UNL     1      12.406   2.628   6.941  1.00  0.00     0.189 HD
BRANCH  28  30
HETATM   30  C10 UNL     1      11.991   4.689   6.662  1.00  0.00     0.368 C 
HETATM   31  O6  UNL     1      13.093   5.102   7.093  1.00  0.00    -0.282 OA
ENDBRANCH  28  30
ENDBRANCH  26  28
ENDBRANCH  23  26
ENDBRANCH   7  23
BRANCH   1  32
HETATM   32  N1  UNL     1      10.257   5.784   2.653  1.00  0.00    -0.322 N 
ATOM     33  H12 UNL     1       9.861   6.216   1.818  1.00  0.00     0.179 HD
ATOM     34  H11 UNL     1       9.511   5.782   3.349  1.00  0.00     0.179 HD
ENDBRANCH   1  32
TORSDOF 10
ENDMDL
MODEL 4
REMARK VINA RESULT: -8.266374706      2.099      2.506
REMARK  10 active torsions:
REMARK  status: ('A' for Active; 'I' for Inactive)
REMARK    1  A    between atoms: N1_1  and  N2_4 
REMARK    2  A    between atoms: C1_9  and  C2_10 
REMARK       I    between atoms: C2_10  and  N5_12 
REMARK    3  A    between atoms: N5_12  and  N6_14 
REMARK    4  A    between atoms: C3_16  and  C4_17 
REMARK    5  A    between atoms: C7_20  and  N7_21 
REMARK    6  A    between atoms: C8_25  and  C9_26 
REMARK    7  A    between atoms: C9_26  and  O5_27 
REMARK    8  A    between atoms: C9_26  and  N8_29 
REMARK    9  A    between atoms: N8_29  and  N9_31 
REMARK   10  A    between atoms: N9_31  and  C10_33 
ROOT
HETATM    1  N2  UNL     1      11.509   5.381   2.925  1.00  0.00    -0.182 N 
HETATM    2  N3  UNL     1      12.616   5.939   2.513  1.00  0.00    -0.221 N 
ATOM      3  H3  UNL     1      12.657   6.822   2.004  1.00  0.00     0.210 HD
HETATM    4  N4  UNL     1      13.660   5.234   2.830  1.00  0.00    -0.277 N 
ATOM      5  H4  UNL     1      14.626   5.474   2.610  1.00  0.00     0.189 HD
HETATM    6  C1  UNL     1      13.246   4.095   3.520  1.00  0.00     0.153 A 
HETATM    7  C8  UNL     1      11.887   4.206   3.563  1.00  0.00     0.161 A 
ENDROOT
BRANCH   6   8
HETATM    8  C2  UNL     1      14.218   3.137   4.005  1.00  0.00     0.290 C 
HETATM    9  O1  UNL     1      13.691   2.053   4.474  1.00  0.00    -0.264 OA
HETATM   10  N5  UNL     1      15.604   3.222   4.020  1.00  0.00    -0.265 N 
ATOM     11  H5  UNL     1      16.022   4.072   3.644  1.00  0.00     0.190 HD
BRANCH  10  12
HETATM   12  N6  UNL     1      16.469   2.249   4.501  1.00  0.00    -0.306 N 
HETATM   13  C3  UNL     1      17.683   2.488   4.846  1.00  0.00     0.144 C 
ATOM     14  H6  UNL     1      16.123   1.294   4.586  1.00  0.00     0.186 HD
BRANCH  13  15
HETATM   15  C4  UNL     1      18.524   1.391   5.347  1.00  0.00     0.095 A 
HETATM   16  C5  UNL     1      18.297   0.041   5.140  1.00  0.00     0.043 A 
HETATM   17  C6  UNL     1      19.301  -0.671   5.766  1.00  0.00     0.065 A 
HETATM   18  C7  UNL     1      20.110   0.296   6.336  1.00  0.00     0.215 A 
HETATM   19  O4  UNL     1      19.615   1.478   6.063  1.00  0.00    -0.287 OA
BRANCH  18  20
HETATM   20  N7  UNL     1      21.280  -0.023   7.088  1.00  0.00    -0.090 N 
HETATM   21  O2  UNL     1      22.351   0.557   6.958  1.00  0.00    -0.530 OA
HETATM   22  O3  UNL     1      21.183  -1.044   8.006  1.00  0.00    -0.530 OA
ENDBRANCH  18  20
ENDBRANCH  13  15
ENDBRANCH  10  12
ENDBRANCH   6   8
BRANCH   7  23
HETATM   23  C9  UNL     1      10.905   3.334   4.130  1.00  0.00     0.188 C 
BRANCH  23  24
HETATM   24  O5  UNL     1       9.893   3.003   3.375  1.00  0.00    -0.343 OA
ATOM     25  H5  UNL     1       9.321   2.316   3.693  1.00  0.00     0.219 HD
ENDBRANCH  23  24
BRANCH  23  26
HETATM   26  N8  UNL     1      10.845   2.746   5.391  1.00  0.00    -0.276 N 
ATOM     27  H8  UNL     1      11.303   1.849   5.552  1.00  0.00     0.189 HD
BRANCH  26  28
HETATM   28  N9  UNL     1      10.142   3.390   6.471  1.00  0.00    -0.275 N 
ATOM     29  H9  UNL     1      10.384   4.343   6.744  1.00  0.00     0.189 HD
BRANCH  28  30
HETATM   30  C10 UNL     1       9.115   2.693   7.152  1.00  0.00     0.368 C 
HETATM   31  O6  UNL     1       8.010   3.269   7.303  1.00  0.00    -0.282 OA
ENDBRANCH  28  30
ENDBRANCH  26  28
ENDBRANCH  23  26
ENDBRANCH   7  23
BRANCH   1  32
HETATM   32  N1  UNL     1      10.192   5.857   2.765  1.00  0.00    -0.322 N 
ATOM     33  H12 UNL     1       9.407   5.341   2.369  1.00  0.00     0.179 HD
ATOM     34  H11 UNL     1       9.825   6.776   3.016  1.00  0.00     0.179 HD
ENDBRANCH   1  32
TORSDOF 10
ENDMDL
MODEL 5
REMARK VINA RESULT: -8.221366173      2.409      3.371
REMARK  10 active torsions:
REMARK  status: ('A' for Active; 'I' for Inactive)
REMARK    1  A    between atoms: N1_1  and  N2_4 
REMARK    2  A    between atoms: C1_9  and  C2_10 
REMARK       I    between atoms: C2_10  and  N5_12 
REMARK    3  A    between atoms: N5_12  and  N6_14 
REMARK    4  A    between atoms: C3_16  and  C4_17 
REMARK    5  A    between atoms: C7_20  and  N7_21 
REMARK    6  A    between atoms: C8_25  and  C9_26 
REMARK    7  A    between atoms: C9_26  and  O5_27 
REMARK    8  A    between atoms: C9_26  and  N8_29 
REMARK    9  A    between atoms: N8_29  and  N9_31 
REMARK   10  A    between atoms: N9_31  and  C10_33 
ROOT
HETATM    1  N2  UNL     1      13.151   6.204   4.247  1.00  0.00    -0.182 N 
HETATM    2  N3  UNL     1      13.851   6.692   3.257  1.00  0.00    -0.221 N 
ATOM      3  H3  UNL     1      13.490   7.359   2.575  1.00  0.00     0.210 HD
HETATM    4  N4  UNL     1      15.063   6.224   3.246  1.00  0.00    -0.277 N 
ATOM      5  H4  UNL     1      15.784   6.463   2.565  1.00  0.00     0.189 HD
HETATM    6  C1  UNL     1      15.220   5.343   4.315  1.00  0.00     0.153 A 
HETATM    7  C8  UNL     1      14.000   5.342   4.928  1.00  0.00     0.161 A 
ENDROOT
BRANCH   6   8
HETATM    8  C2  UNL     1      16.490   4.688   4.546  1.00  0.00     0.290 C 
HETATM    9  O1  UNL     1      17.478   5.507   4.705  1.00  0.00    -0.264 OA
HETATM   10  N5  UNL     1      16.777   3.332   4.629  1.00  0.00    -0.265 N 
ATOM     11  H5  UNL     1      15.999   2.683   4.511  1.00  0.00     0.190 HD
BRANCH  10  12
HETATM   12  N6  UNL     1      18.030   2.782   4.860  1.00  0.00    -0.306 N 
HETATM   13  C3  UNL     1      18.218   1.552   5.177  1.00  0.00     0.144 C 
ATOM     14  H6  UNL     1      18.847   3.387   4.773  1.00  0.00     0.186 HD
BRANCH  13  15
HETATM   15  C4  UNL     1      19.586   1.060   5.401  1.00  0.00     0.095 A 
HETATM   16  C5  UNL     1      19.924  -0.126   6.030  1.00  0.00     0.043 A 
HETATM   17  C6  UNL     1      21.300  -0.233   6.048  1.00  0.00     0.065 A 
HETATM   18  C7  UNL     1      21.747   0.914   5.416  1.00  0.00     0.215 A 
HETATM   19  O4  UNL     1      20.711   1.633   5.059  1.00  0.00    -0.287 OA
BRANCH  18  20
HETATM   20  N7  UNL     1      23.132   1.198   5.224  1.00  0.00    -0.090 N 
HETATM   21  O2  UNL     1      23.849   0.585   4.443  1.00  0.00    -0.530 OA
HETATM   22  O3  UNL     1      23.677   2.221   5.966  1.00  0.00    -0.530 OA
ENDBRANCH  18  20
ENDBRANCH  13  15
ENDBRANCH  10  12
ENDBRANCH   6   8
BRANCH   7  23
HETATM   23  C9  UNL     1      13.543   4.621   6.076  1.00  0.00     0.188 C 
BRANCH  23  24
HETATM   24  O5  UNL     1      13.296   5.312   7.154  1.00  0.00    -0.343 OA
ATOM     25  H5  UNL     1      13.193   4.828   7.965  1.00  0.00     0.219 HD
ENDBRANCH  23  24
BRANCH  23  26
HETATM   26  N8  UNL     1      13.298   3.260   6.245  1.00  0.00    -0.276 N 
ATOM     27  H8  UNL     1      14.071   2.632   6.470  1.00  0.00     0.189 HD
BRANCH  26  28
HETATM   28  N9  UNL     1      11.968   2.728   6.105  1.00  0.00    -0.275 N 
ATOM     29  H9  UNL     1      11.568   2.146   6.841  1.00  0.00     0.189 HD
BRANCH  28  30
HETATM   30  C10 UNL     1      11.216   3.018   4.941  1.00  0.00     0.368 C 
HETATM   31  O6  UNL     1      10.249   2.270   4.660  1.00  0.00    -0.282 OA
ENDBRANCH  28  30
ENDBRANCH  26  28
ENDBRANCH  23  26
ENDBRANCH   7  23
BRANCH   1  32
HETATM   32  N1  UNL     1      11.808   6.483   4.572  1.00  0.00    -0.322 N 
ATOM     33  H12 UNL     1      11.143   7.001   3.999  1.00  0.00     0.179 HD
ATOM     34  H11 UNL     1      11.302   6.215   5.417  1.00  0.00     0.179 HD
ENDBRANCH   1  32
TORSDOF 10
ENDMDL
