MODEL 1
REMARK VINA RESULT: -7.084423339      0.000      0.000
REMARK  11 active torsions:
REMARK  status: ('A' for Active; 'I' for Inactive)
REMARK    1  A    between atoms: C2_2  and  N1_3 
REMARK    2  A    between atoms: C3_4  and  O1_5 
REMARK    3  A    between atoms: C7_10  and  N2_11 
REMARK    4  A    between atoms: C10_15  and  O2_16 
REMARK    5  A    between atoms: N4_18  and  C11_19 
REMARK    6  A    between atoms: C11_19  and  C12_20 
REMARK    7  A    between atoms: C12_20  and  O3_21 
REMARK    8  A    between atoms: C12_20  and  C13_23 
REMARK    9  A    between atoms: C12_20  and  C14_26 
REMARK   10  A    between atoms: C13_23  and  O4_24 
REMARK   11  A    between atoms: C14_26  and  O5_27 
ROOT
HETATM    1  N2  UNL     1      15.511  -1.294   4.188  1.00  0.00    -0.284 N 
HETATM    2  C8  UNL     1      15.273  -2.235   5.259  1.00  0.00     0.169 C 
HETATM    3  C9  UNL     1      15.154  -1.668   2.892  1.00  0.00     0.184 C 
HETATM    4  N3  UNL     1      14.864  -1.995   1.803  1.00  0.00    -0.172 NA
ENDROOT
BRANCH   1   5
HETATM    5  C7  UNL     1      16.091  -0.031   4.472  1.00  0.00     0.112 A 
HETATM    6  C6  UNL     1      17.434   0.299   4.541  1.00  0.00     0.091 A 
HETATM    7  C5  UNL     1      17.581   1.644   4.845  1.00  0.00     0.059 A 
HETATM    8  C15 UNL     1      18.559  -0.474   4.362  1.00  0.00     0.264 A 
HETATM    9  C4  UNL     1      18.827   2.226   4.972  1.00  0.00     0.087 A 
HETATM   10  N4  UNL     1      16.327   2.139   4.962  1.00  0.00    -0.322 N 
HETATM   11  C3  UNL     1      19.926   1.414   4.785  1.00  0.00     0.147 A 
HETATM   12  N1  UNL     1      19.776   0.090   4.486  1.00  0.00    -0.294 N 
HETATM   13  C10 UNL     1      15.427   1.163   4.744  1.00  0.00     0.172 A 
HETATM   14  O6  UNL     1      18.400  -1.690   4.087  1.00  0.00    -0.267 OA
BRANCH  11  15
HETATM   15  O1  UNL     1      21.234   1.870   4.882  1.00  0.00    -0.346 OA
ATOM     16  H1  UNL     1      21.426   2.683   4.428  1.00  0.00     0.219 HD
ENDBRANCH  11  15
BRANCH  12  17
HETATM   17  C2  UNL     1      20.925  -0.752   4.290  1.00  0.00     0.130 C 
HETATM   18  C1  UNL     1      21.422  -0.721   2.861  1.00  0.00     0.027 C 
ENDBRANCH  12  17
BRANCH  10  19
HETATM   19  C11 UNL     1      16.024   3.503   5.274  1.00  0.00     0.173 C 
BRANCH  19  20
HETATM   20  C12 UNL     1      15.599   4.342   4.111  1.00  0.00     0.116 C 
BRANCH  20  21
HETATM   21  O3  UNL     1      15.335   3.620   2.962  1.00  0.00    -0.384 OA
ATOM     22  H3  UNL     1      15.673   4.017   2.168  1.00  0.00     0.210 HD
ENDBRANCH  20  21
BRANCH  20  23
HETATM   23  C13 UNL     1      16.791   5.250   3.776  1.00  0.00     0.205 C 
BRANCH  23  24
HETATM   24  O4  UNL     1      16.395   6.513   3.410  1.00  0.00    -0.398 OA
ATOM     25  H4  UNL     1      16.891   6.845   2.670  1.00  0.00     0.209 HD
ENDBRANCH  23  24
ENDBRANCH  20  23
BRANCH  20  26
HETATM   26  C14 UNL     1      14.392   5.204   4.411  1.00  0.00     0.205 C 
BRANCH  26  27
HETATM   27  O5  UNL     1      14.586   5.898   5.602  1.00  0.00    -0.398 OA
ATOM     28  H5  UNL     1      14.749   5.288   6.311  1.00  0.00     0.209 HD
ENDBRANCH  26  27
ENDBRANCH  20  26
ENDBRANCH  19  20
ENDBRANCH  10  19
BRANCH  13  29
HETATM   29  O2  UNL     1      14.031   1.232   4.766  1.00  0.00    -0.344 OA
ATOM     30  H2  UNL     1      13.507   0.877   4.057  1.00  0.00     0.219 HD
ENDBRANCH  13  29
ENDBRANCH   1   5
TORSDOF 11
ENDMDL
MODEL 2
REMARK VINA RESULT: -7.017301879      2.985      5.971
REMARK  11 active torsions:
REMARK  status: ('A' for Active; 'I' for Inactive)
REMARK    1  A    between atoms: C2_2  and  N1_3 
REMARK    2  A    between atoms: C3_4  and  O1_5 
REMARK    3  A    between atoms: C7_10  and  N2_11 
REMARK    4  A    between atoms: C10_15  and  O2_16 
REMARK    5  A    between atoms: N4_18  and  C11_19 
REMARK    6  A    between atoms: C11_19  and  C12_20 
REMARK    7  A    between atoms: C12_20  and  O3_21 
REMARK    8  A    between atoms: C12_20  and  C13_23 
REMARK    9  A    between atoms: C12_20  and  C14_26 
REMARK   10  A    between atoms: C13_23  and  O4_24 
REMARK   11  A    between atoms: C14_26  and  O5_27 
ROOT
HETATM    1  N2  UNL     1      15.953   5.668   4.218  1.00  0.00    -0.284 N 
HETATM    2  C8  UNL     1      15.859   5.889   2.793  1.00  0.00     0.169 C 
HETATM    3  C9  UNL     1      17.021   6.247   4.905  1.00  0.00     0.184 C 
HETATM    4  N3  UNL     1      17.929   6.726   5.474  1.00  0.00    -0.172 NA
ENDROOT
BRANCH   1   5
HETATM    5  C7  UNL     1      14.975   4.880   4.878  1.00  0.00     0.112 A 
HETATM    6  C6  UNL     1      15.004   3.521   5.140  1.00  0.00     0.091 A 
HETATM    7  C5  UNL     1      13.850   3.138   5.807  1.00  0.00     0.059 A 
HETATM    8  C15 UNL     1      15.955   2.569   4.847  1.00  0.00     0.264 A 
HETATM    9  C4  UNL     1      13.633   1.828   6.184  1.00  0.00     0.087 A 
HETATM   10  N4  UNL     1      13.114   4.264   5.954  1.00  0.00    -0.322 N 
HETATM   11  C3  UNL     1      14.612   0.909   5.870  1.00  0.00     0.147 A 
HETATM   12  N1  UNL     1      15.746   1.291   5.213  1.00  0.00    -0.294 N 
HETATM   13  C10 UNL     1      13.762   5.309   5.411  1.00  0.00     0.172 A 
HETATM   14  O6  UNL     1      16.992   2.942   4.242  1.00  0.00    -0.267 OA
BRANCH  11  15
HETATM   15  O1  UNL     1      14.521  -0.439   6.191  1.00  0.00    -0.346 OA
ATOM     16  H1  UNL     1      14.095  -0.642   7.016  1.00  0.00     0.219 HD
ENDBRANCH  11  15
BRANCH  12  17
HETATM   17  C2  UNL     1      16.764   0.329   4.889  1.00  0.00     0.130 C 
HETATM   18  C1  UNL     1      16.488  -0.379   3.581  1.00  0.00     0.027 C 
ENDBRANCH  12  17
BRANCH  10  19
HETATM   19  C11 UNL     1      11.835   4.313   6.595  1.00  0.00     0.173 C 
BRANCH  19  20
HETATM   20  C12 UNL     1      10.661   4.119   5.689  1.00  0.00     0.116 C 
BRANCH  20  21
HETATM   21  O3  UNL     1       9.931   5.269   5.457  1.00  0.00    -0.384 OA
ATOM     22  H3  UNL     1       9.228   5.161   4.827  1.00  0.00     0.210 HD
ENDBRANCH  20  21
BRANCH  20  23
HETATM   23  C13 UNL     1       9.712   3.152   6.413  1.00  0.00     0.205 C 
BRANCH  23  24
HETATM   24  O4  UNL     1      10.270   1.909   6.587  1.00  0.00    -0.398 OA
ATOM     25  H4  UNL     1      11.117   1.952   7.017  1.00  0.00     0.209 HD
ENDBRANCH  23  24
ENDBRANCH  20  23
BRANCH  20  26
HETATM   26  C14 UNL     1      11.039   3.525   4.348  1.00  0.00     0.205 C 
BRANCH  26  27
HETATM   27  O5  UNL     1       9.936   2.903   3.774  1.00  0.00    -0.398 OA
ATOM     28  H5  UNL     1       9.134   3.258   4.141  1.00  0.00     0.209 HD
ENDBRANCH  26  27
ENDBRANCH  20  26
ENDBRANCH  19  20
ENDBRANCH  10  19
BRANCH  13  29
HETATM   29  O2  UNL     1      13.368   6.650   5.339  1.00  0.00    -0.344 OA
ATOM     30  H2  UNL     1      13.565   7.184   4.578  1.00  0.00     0.219 HD
ENDBRANCH  13  29
ENDBRANCH   1   5
TORSDOF 11
ENDMDL
MODEL 3
REMARK VINA RESULT: -6.803968858      1.496      5.436
REMARK  11 active torsions:
REMARK  status: ('A' for Active; 'I' for Inactive)
REMARK    1  A    between atoms: C2_2  and  N1_3 
REMARK    2  A    between atoms: C3_4  and  O1_5 
REMARK    3  A    between atoms: C7_10  and  N2_11 
REMARK    4  A    between atoms: C10_15  and  O2_16 
REMARK    5  A    between atoms: N4_18  and  C11_19 
REMARK    6  A    between atoms: C11_19  and  C12_20 
REMARK    7  A    between atoms: C12_20  and  O3_21 
REMARK    8  A    between atoms: C12_20  and  C13_23 
REMARK    9  A    between atoms: C12_20  and  C14_26 
REMARK   10  A    between atoms: C13_23  and  O4_24 
REMARK   11  A    between atoms: C14_26  and  O5_27 
ROOT
HETATM    1  N2  UNL     1      15.748  -1.152   4.512  1.00  0.00    -0.284 N 
HETATM    2  C8  UNL     1      15.145  -1.803   5.653  1.00  0.00     0.169 C 
HETATM    3  C9  UNL     1      15.237  -1.437   3.245  1.00  0.00     0.184 C 
HETATM    4  N3  UNL     1      14.811  -1.693   2.182  1.00  0.00    -0.172 NA
ENDROOT
BRANCH   1   5
HETATM    5  C7  UNL     1      16.827  -0.250   4.701  1.00  0.00     0.112 A 
HETATM    6  C6  UNL     1      16.794   1.134   4.724  1.00  0.00     0.091 A 
HETATM    7  C5  UNL     1      18.068   1.638   4.936  1.00  0.00     0.059 A 
HETATM    8  C15 UNL     1      15.742   2.009   4.576  1.00  0.00     0.264 A 
HETATM    9  C4  UNL     1      18.306   2.997   5.001  1.00  0.00     0.087 A 
HETATM   10  N4  UNL     1      18.883   0.564   5.042  1.00  0.00    -0.322 N 
HETATM   11  C3  UNL     1      17.224   3.837   4.847  1.00  0.00     0.147 A 
HETATM   12  N1  UNL     1      15.971   3.335   4.639  1.00  0.00    -0.294 N 
HETATM   13  C10 UNL     1      18.168  -0.568   4.906  1.00  0.00     0.172 A 
HETATM   14  O6  UNL     1      14.597   1.527   4.385  1.00  0.00    -0.267 OA
BRANCH  11  15
HETATM   15  O1  UNL     1      17.323   5.222   4.892  1.00  0.00    -0.346 OA
ATOM     16  H1  UNL     1      17.370   5.662   4.051  1.00  0.00     0.219 HD
ENDBRANCH  11  15
BRANCH  12  17
HETATM   17  C2  UNL     1      14.846   4.215   4.480  1.00  0.00     0.130 C 
HETATM   18  C1  UNL     1      14.204   4.571   5.803  1.00  0.00     0.027 C 
ENDBRANCH  12  17
BRANCH  10  19
HETATM   19  C11 UNL     1      20.295   0.640   5.265  1.00  0.00     0.173 C 
BRANCH  19  20
HETATM   20  C12 UNL     1      21.142   0.424   4.051  1.00  0.00     0.116 C 
BRANCH  20  21
HETATM   21  O3  UNL     1      20.461  -0.117   2.977  1.00  0.00    -0.384 OA
ATOM     22  H3  UNL     1      20.854   0.075   2.133  1.00  0.00     0.210 HD
ENDBRANCH  20  21
BRANCH  20  23
HETATM   23  C13 UNL     1      22.205  -0.613   4.445  1.00  0.00     0.205 C 
BRANCH  23  24
HETATM   24  O4  UNL     1      21.674  -1.649   5.174  1.00  0.00    -0.398 OA
ATOM     25  H4  UNL     1      20.749  -1.776   4.998  1.00  0.00     0.209 HD
ENDBRANCH  23  24
ENDBRANCH  20  23
BRANCH  20  26
HETATM   26  C14 UNL     1      21.835   1.685   3.581  1.00  0.00     0.205 C 
BRANCH  26  27
HETATM   27  O5  UNL     1      22.163   1.574   2.233  1.00  0.00    -0.398 OA
ATOM     28  H5  UNL     1      23.104   1.638   2.120  1.00  0.00     0.209 HD
ENDBRANCH  26  27
ENDBRANCH  20  26
ENDBRANCH  19  20
ENDBRANCH  10  19
BRANCH  13  29
HETATM   29  O2  UNL     1      18.604  -1.896   4.947  1.00  0.00    -0.344 OA
ATOM     30  H2  UNL     1      18.960  -2.325   4.177  1.00  0.00     0.219 HD
ENDBRANCH  13  29
ENDBRANCH   1   5
TORSDOF 11
ENDMDL
MODEL 4
REMARK VINA RESULT: -6.714180555      0.501      1.069
REMARK  11 active torsions:
REMARK  status: ('A' for Active; 'I' for Inactive)
REMARK    1  A    between atoms: C2_2  and  N1_3 
REMARK    2  A    between atoms: C3_4  and  O1_5 
REMARK    3  A    between atoms: C7_10  and  N2_11 
REMARK    4  A    between atoms: C10_15  and  O2_16 
REMARK    5  A    between atoms: N4_18  and  C11_19 
REMARK    6  A    between atoms: C11_19  and  C12_20 
REMARK    7  A    between atoms: C12_20  and  O3_21 
REMARK    8  A    between atoms: C12_20  and  C13_23 
REMARK    9  A    between atoms: C12_20  and  C14_26 
REMARK   10  A    between atoms: C13_23  and  O4_24 
REMARK   11  A    between atoms: C14_26  and  O5_27 
ROOT
HETATM    1  N2  UNL     1      15.520  -1.259   3.935  1.00  0.00    -0.284 N 
HETATM    2  C8  UNL     1      15.199  -1.522   2.551  1.00  0.00     0.169 C 
HETATM    3  C9  UNL     1      15.243  -2.251   4.876  1.00  0.00     0.184 C 
HETATM    4  N3  UNL     1      14.994  -3.085   5.663  1.00  0.00    -0.172 NA
ENDROOT
BRANCH   1   5
HETATM    5  C7  UNL     1      16.101  -0.017   4.302  1.00  0.00     0.112 A 
HETATM    6  C6  UNL     1      17.444   0.295   4.436  1.00  0.00     0.091 A 
HETATM    7  C5  UNL     1      17.591   1.621   4.812  1.00  0.00     0.059 A 
HETATM    8  C15 UNL     1      18.568  -0.481   4.258  1.00  0.00     0.264 A 
HETATM    9  C4  UNL     1      18.837   2.182   5.011  1.00  0.00     0.087 A 
HETATM   10  N4  UNL     1      16.338   2.123   4.909  1.00  0.00    -0.322 N 
HETATM   11  C3  UNL     1      19.934   1.370   4.823  1.00  0.00     0.147 A 
HETATM   12  N1  UNL     1      19.784   0.064   4.452  1.00  0.00    -0.294 N 
HETATM   13  C10 UNL     1      15.438   1.168   4.611  1.00  0.00     0.172 A 
HETATM   14  O6  UNL     1      18.407  -1.679   3.917  1.00  0.00    -0.267 OA
BRANCH  11  15
HETATM   15  O1  UNL     1      21.242   1.806   4.989  1.00  0.00    -0.346 OA
ATOM     16  H1  UNL     1      21.348   2.723   5.216  1.00  0.00     0.219 HD
ENDBRANCH  11  15
BRANCH  12  17
HETATM   17  C2  UNL     1      20.932  -0.779   4.256  1.00  0.00     0.130 C 
HETATM   18  C1  UNL     1      21.476  -0.687   2.847  1.00  0.00     0.027 C 
ENDBRANCH  12  17
BRANCH  10  19
HETATM   19  C11 UNL     1      16.035   3.472   5.278  1.00  0.00     0.173 C 
BRANCH  19  20
HETATM   20  C12 UNL     1      15.661   4.373   4.144  1.00  0.00     0.116 C 
BRANCH  20  21
HETATM   21  O3  UNL     1      15.413   3.710   2.957  1.00  0.00    -0.384 OA
ATOM     22  H3  UNL     1      15.938   2.928   2.832  1.00  0.00     0.210 HD
ENDBRANCH  20  21
BRANCH  20  23
HETATM   23  C13 UNL     1      16.881   5.269   3.883  1.00  0.00     0.205 C 
BRANCH  23  24
HETATM   24  O4  UNL     1      16.521   6.552   3.549  1.00  0.00    -0.398 OA
ATOM     25  H4  UNL     1      16.742   6.764   2.650  1.00  0.00     0.209 HD
ENDBRANCH  23  24
ENDBRANCH  20  23
BRANCH  20  26
HETATM   26  C14 UNL     1      14.464   5.248   4.452  1.00  0.00     0.205 C 
BRANCH  26  27
HETATM   27  O5  UNL     1      14.647   5.893   5.671  1.00  0.00    -0.398 OA
ATOM     28  H5  UNL     1      14.367   6.798   5.606  1.00  0.00     0.209 HD
ENDBRANCH  26  27
ENDBRANCH  20  26
ENDBRANCH  19  20
ENDBRANCH  10  19
BRANCH  13  29
HETATM   29  O2  UNL     1      14.042   1.251   4.586  1.00  0.00    -0.344 OA
ATOM     30  H2  UNL     1      13.579   1.937   5.053  1.00  0.00     0.219 HD
ENDBRANCH  13  29
ENDBRANCH   1   5
TORSDOF 11
ENDMDL
MODEL 5
REMARK VINA RESULT: -6.695662437      2.782      7.384
REMARK  11 active torsions:
REMARK  status: ('A' for Active; 'I' for Inactive)
REMARK    1  A    between atoms: C2_2  and  N1_3 
REMARK    2  A    between atoms: C3_4  and  O1_5 
REMARK    3  A    between atoms: C7_10  and  N2_11 
REMARK    4  A    between atoms: C10_15  and  O2_16 
REMARK    5  A    between atoms: N4_18  and  C11_19 
REMARK    6  A    between atoms: C11_19  and  C12_20 
REMARK    7  A    between atoms: C12_20  and  O3_21 
REMARK    8  A    between atoms: C12_20  and  C13_23 
REMARK    9  A    between atoms: C12_20  and  C14_26 
REMARK   10  A    between atoms: C13_23  and  O4_24 
REMARK   11  A    between atoms: C14_26  and  O5_27 
ROOT
HETATM    1  N2  UNL     1      16.008   5.670   4.128  1.00  0.00    -0.284 N 
HETATM    2  C8  UNL     1      16.757   6.401   5.125  1.00  0.00     0.169 C 
HETATM    3  C9  UNL     1      15.872   6.237   2.860  1.00  0.00     0.184 C 
HETATM    4  N3  UNL     1      15.750   6.726   1.801  1.00  0.00    -0.172 NA
ENDROOT
BRANCH   1   5
HETATM    5  C7  UNL     1      15.437   4.413   4.454  1.00  0.00     0.112 A 
HETATM    6  C6  UNL     1      14.100   4.100   4.634  1.00  0.00     0.091 A 
HETATM    7  C5  UNL     1      13.962   2.755   4.943  1.00  0.00     0.059 A 
HETATM    8  C15 UNL     1      12.974   4.888   4.552  1.00  0.00     0.264 A 
HETATM    9  C4  UNL     1      12.724   2.189   5.171  1.00  0.00     0.087 A 
HETATM   10  N4  UNL     1      15.215   2.244   4.954  1.00  0.00    -0.322 N 
HETATM   11  C3  UNL     1      11.624   3.015   5.079  1.00  0.00     0.147 A 
HETATM   12  N1  UNL     1      11.765   4.338   4.774  1.00  0.00    -0.294 N 
HETATM   13  C10 UNL     1      16.106   3.210   4.666  1.00  0.00     0.172 A 
HETATM   14  O6  UNL     1      13.126   6.103   4.270  1.00  0.00    -0.267 OA
BRANCH  11  15
HETATM   15  O1  UNL     1      10.322   2.575   5.283  1.00  0.00    -0.346 OA
ATOM     16  H1  UNL     1      10.177   1.642   5.173  1.00  0.00     0.219 HD
ENDBRANCH  11  15
BRANCH  12  17
HETATM   17  C2  UNL     1      10.615   5.195   4.679  1.00  0.00     0.130 C 
HETATM   18  C1  UNL     1      10.212   5.458   3.244  1.00  0.00     0.027 C 
ENDBRANCH  12  17
BRANCH  10  19
HETATM   19  C11 UNL     1      15.526   0.875   5.233  1.00  0.00     0.173 C 
BRANCH  19  20
HETATM   20  C12 UNL     1      15.950   0.065   4.050  1.00  0.00     0.116 C 
BRANCH  20  21
HETATM   21  O3  UNL     1      15.534   0.578   2.836  1.00  0.00    -0.384 OA
ATOM     22  H3  UNL     1      16.236   0.717   2.212  1.00  0.00     0.210 HD
ENDBRANCH  20  21
BRANCH  20  23
HETATM   23  C13 UNL     1      15.262  -1.301   4.192  1.00  0.00     0.205 C 
BRANCH  23  24
HETATM   24  O4  UNL     1      15.111  -1.935   2.982  1.00  0.00    -0.398 OA
ATOM     25  H4  UNL     1      14.744  -2.806   3.077  1.00  0.00     0.209 HD
ENDBRANCH  23  24
ENDBRANCH  20  23
BRANCH  20  26
HETATM   26  C14 UNL     1      17.449  -0.144   3.981  1.00  0.00     0.205 C 
BRANCH  26  27
HETATM   27  O5  UNL     1      17.831  -0.423   2.673  1.00  0.00    -0.398 OA
ATOM     28  H5  UNL     1      18.753  -0.653   2.646  1.00  0.00     0.209 HD
ENDBRANCH  26  27
ENDBRANCH  20  26
ENDBRANCH  19  20
ENDBRANCH  10  19
BRANCH  13  29
HETATM   29  O2  UNL     1      17.499   3.123   4.570  1.00  0.00    -0.344 OA
ATOM     30  H2  UNL     1      18.019   3.850   4.246  1.00  0.00     0.219 HD
ENDBRANCH  13  29
ENDBRANCH   1   5
TORSDOF 11
ENDMDL
