MODEL 1
REMARK VINA RESULT: -7.143581261      0.000      0.000
REMARK  7 active torsions:
REMARK  status: ('A' for Active; 'I' for Inactive)
REMARK    1  A    between atoms: C4_4  and  N1_5 
REMARK    2  A    between atoms: N2_10  and  C6_11 
REMARK    3  A    between atoms: C7_12  and  O1_13 
REMARK    4  A    between atoms: O1_13  and  C8_14 
REMARK    5  A    between atoms: C16_23  and  C17_24 
REMARK    6  A    between atoms: C17_24  and  O3_25 
REMARK    7  A    between atoms: N4_31  and  C20_32 
ROOT
HETATM    1  C6  UNL     1      -3.566   4.748  10.975  1.00  0.00     0.106 A 
HETATM    2  C7  UNL     1      -2.762   3.696  10.655  1.00  0.00     0.109 A 
HETATM    3  C16 UNL     1      -2.823   2.575  11.520  1.00  0.00     0.030 A 
HETATM    4  C18 UNL     1      -3.650   2.570  12.614  1.00  0.00     0.074 A 
HETATM    5  N3  UNL     1      -3.888   1.650  13.572  1.00  0.00    -0.350 N 
ATOM      6  H3  UNL     1      -3.452   0.730  13.638  1.00  0.00     0.166 HD
HETATM    7  C19 UNL     1      -4.798   2.152  14.423  1.00  0.00     0.184 A 
HETATM    8  N4  UNL     1      -5.174   3.386  14.056  1.00  0.00    -0.334 N 
HETATM    9  C23 UNL     1      -4.455   3.645  12.925  1.00  0.00     0.105 A 
HETATM   10  C24 UNL     1      -4.421   4.741  12.110  1.00  0.00     0.174 A 
HETATM   11  F1  UNL     1      -5.214   5.816  12.408  1.00  0.00    -0.201 F 
ENDROOT
BRANCH   1  12
HETATM   12  N2  UNL     1      -3.736   5.968  10.242  1.00  0.00    -0.370 N 
HETATM   13  C2  UNL     1      -2.875   7.161  10.346  1.00  0.00     0.082 C 
HETATM   14  C1  UNL     1      -3.526   8.319  11.010  1.00  0.00     0.032 C 
HETATM   15  C3  UNL     1      -2.531   7.489   8.903  1.00  0.00     0.059 C 
HETATM   16  C4  UNL     1      -3.786   7.080   8.172  1.00  0.00     0.203 C 
HETATM   17  C5  UNL     1      -4.651   6.342   9.188  1.00  0.00     0.156 C 
BRANCH  16  18
HETATM   18  N1  UNL     1      -4.428   8.258   7.654  1.00  0.00    -0.073 N 
ATOM     19  H13 UNL     1      -3.759   8.946   7.308  1.00  0.00     0.274 HD
ATOM     20  H12 UNL     1      -4.917   8.080   6.776  1.00  0.00     0.274 HD
ATOM     21  H11 UNL     1      -5.043   8.642   8.371  1.00  0.00     0.274 HD
ENDBRANCH  16  18
ENDBRANCH   1  12
BRANCH   2  22
HETATM   22  O1  UNL     1      -1.946   3.686   9.599  1.00  0.00    -0.343 OA
BRANCH  22  23
HETATM   23  C8  UNL     1      -0.695   4.013   9.200  1.00  0.00     0.130 C 
HETATM   24  C9  UNL     1      -0.638   4.817   7.912  1.00  0.00     0.039 C 
HETATM   25  C10 UNL     1       0.777   5.180   7.570  1.00  0.00     0.012 C 
HETATM   26  C11 UNL     1       1.697   4.017   7.421  1.00  0.00     0.172 C 
HETATM   27  C14 UNL     1       1.359   6.109   8.642  1.00  0.00     0.013 C 
HETATM   28  O2  UNL     1       2.731   3.975   8.324  1.00  0.00    -0.390 OA
HETATM   29  C12 UNL     1       2.345   4.100   9.643  1.00  0.00     0.172 C 
HETATM   30  C13 UNL     1       1.414   5.258   9.881  1.00  0.00     0.012 C 
HETATM   31  C15 UNL     1       0.015   4.820  10.250  1.00  0.00     0.039 C 
ENDBRANCH  22  23
ENDBRANCH   2  22
BRANCH   3  32
HETATM   32  C17 UNL     1      -1.986   1.390  11.237  1.00  0.00     0.208 C 
BRANCH  32  33
HETATM   33  O3  UNL     1      -2.498   0.680  10.147  1.00  0.00    -0.396 OA
ATOM     34  H3  UNL     1      -2.618  -0.235  10.373  1.00  0.00     0.209 HD
ENDBRANCH  32  33
ENDBRANCH   3  32
BRANCH   8  35
HETATM   35  C20 UNL     1      -6.120   4.274  14.686  1.00  0.00     0.091 A 
HETATM   36  C21 UNL     1      -6.328   4.178  16.150  1.00  0.00     0.028 A 
HETATM   37  C22 UNL     1      -5.519   5.319  15.600  1.00  0.00     0.028 A 
ENDBRANCH   8  35
TORSDOF 7
ENDMDL
MODEL 2
REMARK VINA RESULT: -7.121549847      0.586      1.191
REMARK  7 active torsions:
REMARK  status: ('A' for Active; 'I' for Inactive)
REMARK    1  A    between atoms: C4_4  and  N1_5 
REMARK    2  A    between atoms: N2_10  and  C6_11 
REMARK    3  A    between atoms: C7_12  and  O1_13 
REMARK    4  A    between atoms: O1_13  and  C8_14 
REMARK    5  A    between atoms: C16_23  and  C17_24 
REMARK    6  A    between atoms: C17_24  and  O3_25 
REMARK    7  A    between atoms: N4_31  and  C20_32 
ROOT
HETATM    1  C6  UNL     1      -3.572   4.725  11.107  1.00  0.00     0.106 A 
HETATM    2  C7  UNL     1      -2.810   3.652  10.756  1.00  0.00     0.109 A 
HETATM    3  C16 UNL     1      -2.918   2.508  11.585  1.00  0.00     0.030 A 
HETATM    4  C18 UNL     1      -3.747   2.502  12.678  1.00  0.00     0.074 A 
HETATM    5  N3  UNL     1      -4.023   1.563  13.607  1.00  0.00    -0.350 N 
ATOM      6  H3  UNL     1      -3.623   0.625  13.645  1.00  0.00     0.166 HD
HETATM    7  C19 UNL     1      -4.914   2.074  14.472  1.00  0.00     0.184 A 
HETATM    8  N4  UNL     1      -5.241   3.332  14.142  1.00  0.00    -0.334 N 
HETATM    9  C23 UNL     1      -4.510   3.598  13.021  1.00  0.00     0.105 A 
HETATM   10  C24 UNL     1      -4.430   4.717  12.240  1.00  0.00     0.174 A 
HETATM   11  F1  UNL     1      -5.181   5.812  12.570  1.00  0.00    -0.201 F 
ENDROOT
BRANCH   1  12
HETATM   12  N2  UNL     1      -3.693   5.972  10.412  1.00  0.00    -0.370 N 
HETATM   13  C2  UNL     1      -4.681   6.279   9.360  1.00  0.00     0.082 C 
HETATM   14  C1  UNL     1      -4.095   6.409   8.002  1.00  0.00     0.032 C 
HETATM   15  C3  UNL     1      -5.298   7.591   9.811  1.00  0.00     0.059 C 
HETATM   16  C4  UNL     1      -4.135   8.280  10.483  1.00  0.00     0.203 C 
HETATM   17  C5  UNL     1      -3.023   7.242  10.581  1.00  0.00     0.156 C 
BRANCH  16  18
HETATM   18  N1  UNL     1      -3.754   9.423   9.699  1.00  0.00    -0.073 N 
ATOM     19  H13 UNL     1      -2.761   9.423   9.468  1.00  0.00     0.274 HD
ATOM     20  H12 UNL     1      -4.122   9.383   8.748  1.00  0.00     0.274 HD
ATOM     21  H11 UNL     1      -4.038  10.271  10.190  1.00  0.00     0.274 HD
ENDBRANCH  16  18
ENDBRANCH   1  12
BRANCH   2  22
HETATM   22  O1  UNL     1      -1.992   3.642   9.701  1.00  0.00    -0.343 OA
BRANCH  22  23
HETATM   23  C8  UNL     1      -0.749   3.992   9.297  1.00  0.00     0.130 C 
HETATM   24  C9  UNL     1      -0.716   4.869   8.057  1.00  0.00     0.039 C 
HETATM   25  C10 UNL     1       0.692   5.252   7.709  1.00  0.00     0.012 C 
HETATM   26  C11 UNL     1       1.608   4.099   7.475  1.00  0.00     0.172 C 
HETATM   27  C14 UNL     1       1.295   6.118   8.821  1.00  0.00     0.013 C 
HETATM   28  O2  UNL     1       2.659   4.006   8.355  1.00  0.00    -0.390 OA
HETATM   29  C12 UNL     1       2.299   4.054   9.686  1.00  0.00     0.172 C 
HETATM   30  C13 UNL     1       1.374   5.196  10.008  1.00  0.00     0.012 C 
HETATM   31  C15 UNL     1      -0.018   4.738  10.378  1.00  0.00     0.039 C 
ENDBRANCH  22  23
ENDBRANCH   2  22
BRANCH   3  32
HETATM   32  C17 UNL     1      -2.127   1.300  11.267  1.00  0.00     0.208 C 
BRANCH  32  33
HETATM   33  O3  UNL     1      -2.659   0.649  10.150  1.00  0.00    -0.396 OA
ATOM     34  H3  UNL     1      -2.100   0.779   9.393  1.00  0.00     0.209 HD
ENDBRANCH  32  33
ENDBRANCH   3  32
BRANCH   8  35
HETATM   35  C20 UNL     1      -6.153   4.237  14.798  1.00  0.00     0.091 A 
HETATM   36  C21 UNL     1      -6.356   4.115  16.261  1.00  0.00     0.028 A 
HETATM   37  C22 UNL     1      -5.511   5.240  15.732  1.00  0.00     0.028 A 
ENDBRANCH   8  35
TORSDOF 7
ENDMDL
MODEL 3
REMARK VINA RESULT: -6.819712129      3.638      7.888
REMARK  7 active torsions:
REMARK  status: ('A' for Active; 'I' for Inactive)
REMARK    1  A    between atoms: C4_4  and  N1_5 
REMARK    2  A    between atoms: N2_10  and  C6_11 
REMARK    3  A    between atoms: C7_12  and  O1_13 
REMARK    4  A    between atoms: O1_13  and  C8_14 
REMARK    5  A    between atoms: C16_23  and  C17_24 
REMARK    6  A    between atoms: C17_24  and  O3_25 
REMARK    7  A    between atoms: N4_31  and  C20_32 
ROOT
HETATM    1  C6  UNL     1      -3.084   3.910  12.574  1.00  0.00     0.106 A 
HETATM    2  C7  UNL     1      -3.830   4.420  13.594  1.00  0.00     0.109 A 
HETATM    3  C16 UNL     1      -3.407   5.669  14.115  1.00  0.00     0.030 A 
HETATM    4  C18 UNL     1      -2.306   6.310  13.609  1.00  0.00     0.074 A 
HETATM    5  N3  UNL     1      -1.708   7.479  13.922  1.00  0.00    -0.350 N 
ATOM      6  H3  UNL     1      -2.010   8.129  14.649  1.00  0.00     0.166 HD
HETATM    7  C19 UNL     1      -0.648   7.641  13.114  1.00  0.00     0.184 A 
HETATM    8  N4  UNL     1      -0.524   6.608  12.267  1.00  0.00    -0.334 N 
HETATM    9  C23 UNL     1      -1.560   5.777  12.579  1.00  0.00     0.105 A 
HETATM   10  C24 UNL     1      -1.942   4.575  12.053  1.00  0.00     0.174 A 
HETATM   11  F1  UNL     1      -1.210   4.035  11.030  1.00  0.00    -0.201 F 
ENDROOT
BRANCH   1  12
HETATM   12  N2  UNL     1      -3.326   2.705  11.838  1.00  0.00    -0.370 N 
HETATM   13  C2  UNL     1      -2.718   1.389  12.117  1.00  0.00     0.082 C 
HETATM   14  C1  UNL     1      -1.730   0.953  11.099  1.00  0.00     0.032 C 
HETATM   15  C3  UNL     1      -3.905   0.442  12.159  1.00  0.00     0.059 C 
HETATM   16  C4  UNL     1      -4.836   1.045  11.135  1.00  0.00     0.203 C 
HETATM   17  C5  UNL     1      -4.238   2.397  10.760  1.00  0.00     0.156 C 
BRANCH  16  18
HETATM   18  N1  UNL     1      -4.932   0.154  10.011  1.00  0.00    -0.073 N 
ATOM     19  H13 UNL     1      -4.647   0.597   9.138  1.00  0.00     0.274 HD
ATOM     20  H12 UNL     1      -4.225  -0.581  10.036  1.00  0.00     0.274 HD
ATOM     21  H11 UNL     1      -5.880  -0.219   9.965  1.00  0.00     0.274 HD
ENDBRANCH  16  18
ENDBRANCH   1  12
BRANCH   2  22
HETATM   22  O1  UNL     1      -4.901   3.807  14.103  1.00  0.00    -0.343 OA
BRANCH  22  23
HETATM   23  C8  UNL     1      -5.291   2.949  15.073  1.00  0.00     0.130 C 
HETATM   24  C9  UNL     1      -4.162   2.446  15.956  1.00  0.00     0.039 C 
HETATM   25  C10 UNL     1      -4.687   1.543  17.034  1.00  0.00     0.012 C 
HETATM   26  C11 UNL     1      -5.438   0.356  16.536  1.00  0.00     0.172 C 
HETATM   27  C14 UNL     1      -5.608   2.325  17.978  1.00  0.00     0.013 C 
HETATM   28  O2  UNL     1      -6.759   0.308  16.909  1.00  0.00    -0.390 OA
HETATM   29  C12 UNL     1      -7.473   1.458  16.643  1.00  0.00     0.172 C 
HETATM   30  C13 UNL     1      -6.782   2.707  17.118  1.00  0.00     0.012 C 
HETATM   31  C15 UNL     1      -6.306   3.583  15.982  1.00  0.00     0.039 C 
ENDBRANCH  22  23
ENDBRANCH   2  22
BRANCH   3  32
HETATM   32  C17 UNL     1      -4.168   6.292  15.218  1.00  0.00     0.208 C 
BRANCH  32  33
HETATM   33  O3  UNL     1      -3.358   7.181  15.928  1.00  0.00    -0.396 OA
ATOM     34  H3  UNL     1      -3.583   8.079  15.715  1.00  0.00     0.209 HD
ENDBRANCH  32  33
ENDBRANCH   3  32
BRANCH   8  35
HETATM   35  C20 UNL     1       0.468   6.385  11.244  1.00  0.00     0.091 A 
HETATM   36  C21 UNL     1       1.740   7.146  11.299  1.00  0.00     0.028 A 
HETATM   37  C22 UNL     1       1.735   5.700  11.707  1.00  0.00     0.028 A 
ENDBRANCH   8  35
TORSDOF 7
ENDMDL
MODEL 4
REMARK VINA RESULT: -6.812937227      1.880      2.516
REMARK  7 active torsions:
REMARK  status: ('A' for Active; 'I' for Inactive)
REMARK    1  A    between atoms: C4_4  and  N1_5 
REMARK    2  A    between atoms: N2_10  and  C6_11 
REMARK    3  A    between atoms: C7_12  and  O1_13 
REMARK    4  A    between atoms: O1_13  and  C8_14 
REMARK    5  A    between atoms: C16_23  and  C17_24 
REMARK    6  A    between atoms: C17_24  and  O3_25 
REMARK    7  A    between atoms: N4_31  and  C20_32 
ROOT
HETATM    1  C6  UNL     1      -2.836   4.864  12.775  1.00  0.00     0.106 A 
HETATM    2  C7  UNL     1      -2.525   3.929  11.835  1.00  0.00     0.109 A 
HETATM    3  C16 UNL     1      -2.974   2.610  12.091  1.00  0.00     0.030 A 
HETATM    4  C18 UNL     1      -3.680   2.311  13.229  1.00  0.00     0.074 A 
HETATM    5  N3  UNL     1      -4.208   1.161  13.698  1.00  0.00    -0.350 N 
ATOM      6  H3  UNL     1      -4.162   0.251  13.238  1.00  0.00     0.166 HD
HETATM    7  C19 UNL     1      -4.804   1.419  14.874  1.00  0.00     0.184 A 
HETATM    8  N4  UNL     1      -4.687   2.714  15.201  1.00  0.00    -0.334 N 
HETATM    9  C23 UNL     1      -3.984   3.270  14.172  1.00  0.00     0.105 A 
HETATM   10  C24 UNL     1      -3.566   4.552  13.954  1.00  0.00     0.174 A 
HETATM   11  F1  UNL     1      -3.860   5.514  14.882  1.00  0.00    -0.201 F 
ENDROOT
BRANCH   1  12
HETATM   12  N2  UNL     1      -2.555   6.269  12.733  1.00  0.00    -0.370 N 
HETATM   13  C2  UNL     1      -1.414   6.938  13.387  1.00  0.00     0.082 C 
HETATM   14  C1  UNL     1      -1.796   7.788  14.543  1.00  0.00     0.032 C 
HETATM   15  C3  UNL     1      -0.799   7.777  12.280  1.00  0.00     0.059 C 
HETATM   16  C4  UNL     1      -2.007   8.173  11.467  1.00  0.00     0.203 C 
HETATM   17  C5  UNL     1      -3.175   7.358  12.012  1.00  0.00     0.156 C 
BRANCH  16  18
HETATM   18  N1  UNL     1      -2.215   9.590  11.601  1.00  0.00    -0.073 N 
ATOM     19  H13 UNL     1      -3.090   9.812  12.075  1.00  0.00     0.274 HD
ATOM     20  H12 UNL     1      -1.576  10.014  12.274  1.00  0.00     0.274 HD
ATOM     21  H11 UNL     1      -2.153  10.022  10.679  1.00  0.00     0.274 HD
ENDBRANCH  16  18
ENDBRANCH   1  12
BRANCH   2  22
HETATM   22  O1  UNL     1      -1.833   4.200  10.726  1.00  0.00    -0.343 OA
BRANCH  22  23
HETATM   23  C8  UNL     1      -0.626   4.623  10.285  1.00  0.00     0.130 C 
HETATM   24  C9  UNL     1       0.515   4.384  11.258  1.00  0.00     0.039 C 
HETATM   25  C10 UNL     1       1.822   4.833  10.673  1.00  0.00     0.012 C 
HETATM   26  C11 UNL     1       1.860   6.267  10.271  1.00  0.00     0.172 C 
HETATM   27  C14 UNL     1       2.168   3.987   9.442  1.00  0.00     0.013 C 
HETATM   28  O2  UNL     1       2.054   6.489   8.929  1.00  0.00    -0.390 OA
HETATM   29  C12 UNL     1       1.194   5.795   8.103  1.00  0.00     0.172 C 
HETATM   30  C13 UNL     1       1.099   4.332   8.442  1.00  0.00     0.012 C 
HETATM   31  C15 UNL     1      -0.251   3.943   8.998  1.00  0.00     0.039 C 
ENDBRANCH  22  23
ENDBRANCH   2  22
BRANCH   3  32
HETATM   32  C17 UNL     1      -2.682   1.539  11.115  1.00  0.00     0.208 C 
BRANCH  32  33
HETATM   33  O3  UNL     1      -1.325   1.208  11.145  1.00  0.00    -0.396 OA
ATOM     34  H3  UNL     1      -0.957   1.237  10.269  1.00  0.00     0.209 HD
ENDBRANCH  32  33
ENDBRANCH   3  32
BRANCH   8  35
HETATM   35  C20 UNL     1      -5.177   3.405  16.368  1.00  0.00     0.091 A 
HETATM   36  C21 UNL     1      -6.433   4.186  16.265  1.00  0.00     0.028 A 
HETATM   37  C22 UNL     1      -6.456   2.853  16.959  1.00  0.00     0.028 A 
ENDBRANCH   8  35
TORSDOF 7
ENDMDL
MODEL 5
REMARK VINA RESULT: -6.785455674      0.875      1.799
REMARK  7 active torsions:
REMARK  status: ('A' for Active; 'I' for Inactive)
REMARK    1  A    between atoms: C4_4  and  N1_5 
REMARK    2  A    between atoms: N2_10  and  C6_11 
REMARK    3  A    between atoms: C7_12  and  O1_13 
REMARK    4  A    between atoms: O1_13  and  C8_14 
REMARK    5  A    between atoms: C16_23  and  C17_24 
REMARK    6  A    between atoms: C17_24  and  O3_25 
REMARK    7  A    between atoms: N4_31  and  C20_32 
ROOT
HETATM    1  C6  UNL     1      -3.411   4.882  11.041  1.00  0.00     0.106 A 
HETATM    2  C7  UNL     1      -2.593   3.847  10.699  1.00  0.00     0.109 A 
HETATM    3  C16 UNL     1      -2.683   2.685  11.505  1.00  0.00     0.030 A 
HETATM    4  C18 UNL     1      -3.548   2.626  12.568  1.00  0.00     0.074 A 
HETATM    5  N3  UNL     1      -3.818   1.661  13.471  1.00  0.00    -0.350 N 
ATOM      6  H3  UNL     1      -3.381   0.739  13.508  1.00  0.00     0.166 HD
HETATM    7  C19 UNL     1      -4.758   2.120  14.313  1.00  0.00     0.184 A 
HETATM    8  N4  UNL     1      -5.124   3.370  13.992  1.00  0.00    -0.334 N 
HETATM    9  C23 UNL     1      -4.366   3.685  12.902  1.00  0.00     0.105 A 
HETATM   10  C24 UNL     1      -4.305   4.819  12.143  1.00  0.00     0.174 A 
HETATM   11  F1  UNL     1      -5.112   5.878  12.464  1.00  0.00    -0.201 F 
ENDROOT
BRANCH   1  12
HETATM   12  N2  UNL     1      -3.558   6.136  10.362  1.00  0.00    -0.370 N 
HETATM   13  C2  UNL     1      -4.480   6.405   9.242  1.00  0.00     0.082 C 
HETATM   14  C1  UNL     1      -3.802   6.604   7.937  1.00  0.00     0.032 C 
HETATM   15  C3  UNL     1      -5.214   7.665   9.669  1.00  0.00     0.059 C 
HETATM   16  C4  UNL     1      -4.153   8.409  10.443  1.00  0.00     0.203 C 
HETATM   17  C5  UNL     1      -2.986   7.440  10.607  1.00  0.00     0.156 C 
BRANCH  16  18
HETATM   18  N1  UNL     1      -3.788   9.592   9.713  1.00  0.00    -0.073 N 
ATOM     19  H13 UNL     1      -3.365  10.303  10.310  1.00  0.00     0.274 HD
ATOM     20  H12 UNL     1      -2.993   9.436   9.092  1.00  0.00     0.274 HD
ATOM     21  H11 UNL     1      -4.607   9.940   9.215  1.00  0.00     0.274 HD
ENDBRANCH  16  18
ENDBRANCH   1  12
BRANCH   2  22
HETATM   22  O1  UNL     1      -1.741   3.889   9.673  1.00  0.00    -0.343 OA
BRANCH  22  23
HETATM   23  C8  UNL     1      -0.586   4.457   9.253  1.00  0.00     0.130 C 
HETATM   24  C9  UNL     1       0.663   3.892   9.906  1.00  0.00     0.039 C 
HETATM   25  C10 UNL     1       1.898   4.539   9.350  1.00  0.00     0.012 C 
HETATM   26  C11 UNL     1       1.939   6.022   9.495  1.00  0.00     0.172 C 
HETATM   27  C14 UNL     1       2.044   4.205   7.861  1.00  0.00     0.013 C 
HETATM   28  O2  UNL     1       1.962   6.720   8.313  1.00  0.00    -0.390 OA
HETATM   29  C12 UNL     1       0.974   6.366   7.418  1.00  0.00     0.172 C 
HETATM   30  C13 UNL     1       0.867   4.879   7.211  1.00  0.00     0.012 C 
HETATM   31  C15 UNL     1      -0.412   4.299   7.769  1.00  0.00     0.039 C 
ENDBRANCH  22  23
ENDBRANCH   2  22
BRANCH   3  32
HETATM   32  C17 UNL     1      -1.834   1.516  11.195  1.00  0.00     0.208 C 
BRANCH  32  33
HETATM   33  O3  UNL     1      -2.324   0.840  10.074  1.00  0.00    -0.396 OA
ATOM     34  H3  UNL     1      -1.672   0.237   9.738  1.00  0.00     0.209 HD
ENDBRANCH  32  33
ENDBRANCH   3  32
BRANCH   8  35
HETATM   35  C20 UNL     1      -6.094   4.226  14.631  1.00  0.00     0.091 A 
HETATM   36  C21 UNL     1      -6.342   4.069  16.084  1.00  0.00     0.028 A 
HETATM   37  C22 UNL     1      -5.526   5.237  15.603  1.00  0.00     0.028 A 
ENDBRANCH   8  35
TORSDOF 7
ENDMDL
