MODEL 1
REMARK VINA RESULT: -9.030362172      0.000      0.000
REMARK  9 active torsions:
REMARK  status: ('A' for Active; 'I' for Inactive)
REMARK    1  A    between atoms: C2_2  and  C3_3 
REMARK    2  A    between atoms: C6_6  and  N1_7 
REMARK       I    between atoms: N1_7  and  C7_9 
REMARK       I    between atoms: C7_9  and  N2_11 
REMARK    3  A    between atoms: C8_13  and  C9_14 
REMARK    4  A    between atoms: C8_13  and  C17_25 
REMARK    5  A    between atoms: C9_14  and  C10_15 
REMARK    6  A    between atoms: C9_14  and  C15_21 
REMARK    7  A    between atoms: C10_15  and  C11_16 
REMARK    8  A    between atoms: C15_21  and  O4_23 
REMARK    9  A    between atoms: C17_25  and  O5_26 
ROOT
HETATM    1  N1  UNL     1      -5.130   5.822  10.111  1.00  0.00    -0.294 N 
ATOM      2  H1  UNL     1      -5.676   5.114   9.620  1.00  0.00     0.172 HD
HETATM    3  C7  UNL     1      -4.009   5.388  10.885  1.00  0.00     0.326 C 
HETATM    4  O1  UNL     1      -2.874   5.787  10.450  1.00  0.00    -0.247 OA
HETATM    5  N2  UNL     1      -4.055   4.611  12.008  1.00  0.00    -0.312 N 
ATOM      6  H2  UNL     1      -4.101   5.175  12.857  1.00  0.00     0.170 HD
HETATM    7  C8  UNL     1      -4.057   3.375  12.268  1.00  0.00     0.039 C 
ENDROOT
BRANCH   7   8
HETATM    8  C9  UNL     1      -4.124   3.060  13.746  1.00  0.00     0.137 C 
BRANCH   8   9
HETATM    9  C10 UNL     1      -5.551   3.277  14.164  1.00  0.00     0.052 C 
BRANCH   9  10
HETATM   10  C11 UNL     1      -6.133   2.466  15.233  1.00  0.00     0.122 C 
HETATM   11  C12 UNL     1      -6.508   2.988  16.537  1.00  0.00     0.034 C 
HETATM   12  C13 UNL     1      -5.652   2.238  17.546  1.00  0.00     0.029 C 
HETATM   13  C14 UNL     1      -4.785   1.390  16.686  1.00  0.00     0.168 C 
HETATM   14  O2  UNL     1      -5.302   1.343  15.428  1.00  0.00    -0.386 OA
ENDBRANCH   9  10
ENDBRANCH   8   9
BRANCH   8  15
HETATM   15  C15 UNL     1      -3.336   4.132  14.467  1.00  0.00     0.268 C 
HETATM   16  O3  UNL     1      -3.827   4.979  15.225  1.00  0.00    -0.264 OA
BRANCH  15  17
HETATM   17  O4  UNL     1      -1.954   4.158  14.252  1.00  0.00    -0.326 OA
HETATM   18  C16 UNL     1      -1.352   5.377  13.799  1.00  0.00     0.213 C 
ENDBRANCH  15  17
ENDBRANCH   8  15
ENDBRANCH   7   8
BRANCH   7  19
HETATM   19  C17 UNL     1      -3.993   2.375  11.195  1.00  0.00     0.097 C 
HETATM   20  C18 UNL     1      -2.624   2.063  10.773  1.00  0.00     0.050 C 
HETATM   21  C19 UNL     1      -2.061   0.719  11.151  1.00  0.00     0.082 C 
HETATM   22  C20 UNL     1      -3.044  -0.417  10.950  1.00  0.00     0.243 C 
HETATM   23  F1  UNL     1      -2.454  -1.562  11.432  1.00  0.00    -0.206 F 
HETATM   24  F2  UNL     1      -3.432  -0.566   9.653  1.00  0.00    -0.206 F 
HETATM   25  C21 UNL     1      -4.199  -0.066  11.876  1.00  0.00     0.082 C 
HETATM   26  C22 UNL     1      -4.880   1.184  11.464  1.00  0.00     0.050 C 
BRANCH  19  27
HETATM   27  O5  UNL     1      -4.618   2.987  10.067  1.00  0.00    -0.384 OA
ATOM     28  H5  UNL     1      -4.007   2.877   9.348  1.00  0.00     0.211 HD
ENDBRANCH  19  27
ENDBRANCH   7  19
BRANCH   1  29
HETATM   29  C6  UNL     1      -5.489   7.045   9.998  1.00  0.00     0.108 A 
HETATM   30  C5  UNL     1      -6.309   7.670  10.906  1.00  0.00     0.049 A 
HETATM   31  C4  UNL     1      -6.641   9.002  10.693  1.00  0.00     0.016 A 
HETATM   32  C3  UNL     1      -6.186   9.726   9.613  1.00  0.00    -0.021 A 
HETATM   33  C23 UNL     1      -5.354   9.028   8.727  1.00  0.00     0.101 A 
HETATM   34  N3  UNL     1      -5.040   7.743   8.943  1.00  0.00    -0.351 N 
ATOM     35  H3  UNL     1      -4.430   7.273   8.274  1.00  0.00     0.166 HD
BRANCH  32  36
HETATM   36  C2  UNL     1      -6.510  11.112   9.359  1.00  0.00     0.002 C 
HETATM   37  C1  UNL     1      -6.285  12.029  10.263  1.00  0.00     0.012 C 
ENDBRANCH  32  36
ENDBRANCH   1  29
TORSDOF 9
ENDMDL
MODEL 2
REMARK VINA RESULT: -8.592523532      0.743      1.061
REMARK  9 active torsions:
REMARK  status: ('A' for Active; 'I' for Inactive)
REMARK    1  A    between atoms: C2_2  and  C3_3 
REMARK    2  A    between atoms: C6_6  and  N1_7 
REMARK       I    between atoms: N1_7  and  C7_9 
REMARK       I    between atoms: C7_9  and  N2_11 
REMARK    3  A    between atoms: C8_13  and  C9_14 
REMARK    4  A    between atoms: C8_13  and  C17_25 
REMARK    5  A    between atoms: C9_14  and  C10_15 
REMARK    6  A    between atoms: C9_14  and  C15_21 
REMARK    7  A    between atoms: C10_15  and  C11_16 
REMARK    8  A    between atoms: C15_21  and  O4_23 
REMARK    9  A    between atoms: C17_25  and  O5_26 
ROOT
HETATM    1  N1  UNL     1      -5.187   5.861  10.147  1.00  0.00    -0.294 N 
ATOM      2  H1  UNL     1      -5.833   5.136   9.834  1.00  0.00     0.172 HD
HETATM    3  C7  UNL     1      -3.926   5.452  10.682  1.00  0.00     0.326 C 
HETATM    4  O1  UNL     1      -2.912   5.800   9.984  1.00  0.00    -0.247 OA
HETATM    5  N2  UNL     1      -3.729   4.746  11.836  1.00  0.00    -0.312 N 
ATOM      6  H2  UNL     1      -3.582   5.362  12.635  1.00  0.00     0.170 HD
HETATM    7  C8  UNL     1      -3.682   3.528  12.168  1.00  0.00     0.039 C 
ENDROOT
BRANCH   7   8
HETATM    8  C9  UNL     1      -3.423   3.306  13.642  1.00  0.00     0.137 C 
BRANCH   8   9
HETATM    9  C10 UNL     1      -4.740   3.497  14.339  1.00  0.00     0.052 C 
BRANCH   9  10
HETATM   10  C11 UNL     1      -4.896   3.092  15.736  1.00  0.00     0.122 C 
HETATM   11  C12 UNL     1      -4.338   1.871  16.296  1.00  0.00     0.034 C 
HETATM   12  C13 UNL     1      -5.527   1.054  16.777  1.00  0.00     0.029 C 
HETATM   13  C14 UNL     1      -6.692   1.879  16.360  1.00  0.00     0.168 C 
HETATM   14  O2  UNL     1      -6.270   3.135  16.052  1.00  0.00    -0.386 OA
ENDBRANCH   9  10
ENDBRANCH   8   9
BRANCH   8  15
HETATM   15  C15 UNL     1      -2.556   4.450  14.121  1.00  0.00     0.268 C 
HETATM   16  O3  UNL     1      -1.326   4.399  14.247  1.00  0.00    -0.264 OA
BRANCH  15  17
HETATM   17  O4  UNL     1      -3.205   5.648  14.440  1.00  0.00    -0.326 OA
HETATM   18  C16 UNL     1      -2.464   6.873  14.360  1.00  0.00     0.213 C 
ENDBRANCH  15  17
ENDBRANCH   8  15
ENDBRANCH   7   8
BRANCH   7  19
HETATM   19  C17 UNL     1      -3.863   2.463  11.174  1.00  0.00     0.097 C 
HETATM   20  C18 UNL     1      -2.604   2.001  10.582  1.00  0.00     0.050 C 
HETATM   21  C19 UNL     1      -2.104   0.636  10.974  1.00  0.00     0.082 C 
HETATM   22  C20 UNL     1      -3.197  -0.414  11.001  1.00  0.00     0.243 C 
HETATM   23  F1  UNL     1      -2.638  -1.577  11.476  1.00  0.00    -0.206 F 
HETATM   24  F2  UNL     1      -3.787  -0.605   9.789  1.00  0.00    -0.206 F 
HETATM   25  C21 UNL     1      -4.166   0.099  12.057  1.00  0.00     0.082 C 
HETATM   26  C22 UNL     1      -4.795   1.379  11.656  1.00  0.00     0.050 C 
BRANCH  19  27
HETATM   27  O5  UNL     1      -4.599   3.061  10.107  1.00  0.00    -0.384 OA
ATOM     28  H5  UNL     1      -5.499   2.787  10.236  1.00  0.00     0.211 HD
ENDBRANCH  19  27
ENDBRANCH   7  19
BRANCH   1  29
HETATM   29  C6  UNL     1      -5.554   7.082  10.037  1.00  0.00     0.108 A 
HETATM   30  C5  UNL     1      -6.376   7.700  10.947  1.00  0.00     0.049 A 
HETATM   31  C4  UNL     1      -6.716   9.031  10.738  1.00  0.00     0.016 A 
HETATM   32  C3  UNL     1      -6.267   9.760   9.659  1.00  0.00    -0.021 A 
HETATM   33  C23 UNL     1      -5.432   9.069   8.770  1.00  0.00     0.101 A 
HETATM   34  N3  UNL     1      -5.110   7.784   8.983  1.00  0.00    -0.351 N 
ATOM     35  H3  UNL     1      -4.499   7.319   8.312  1.00  0.00     0.166 HD
BRANCH  32  36
HETATM   36  C2  UNL     1      -6.599  11.145   9.408  1.00  0.00     0.002 C 
HETATM   37  C1  UNL     1      -6.228  12.083  10.237  1.00  0.00     0.012 C 
ENDBRANCH  32  36
ENDBRANCH   1  29
TORSDOF 9
ENDMDL
MODEL 3
REMARK VINA RESULT: -8.303916224      2.918      4.911
REMARK  9 active torsions:
REMARK  status: ('A' for Active; 'I' for Inactive)
REMARK    1  A    between atoms: C2_2  and  C3_3 
REMARK    2  A    between atoms: C6_6  and  N1_7 
REMARK       I    between atoms: N1_7  and  C7_9 
REMARK       I    between atoms: C7_9  and  N2_11 
REMARK    3  A    between atoms: C8_13  and  C9_14 
REMARK    4  A    between atoms: C8_13  and  C17_25 
REMARK    5  A    between atoms: C9_14  and  C10_15 
REMARK    6  A    between atoms: C9_14  and  C15_21 
REMARK    7  A    between atoms: C10_15  and  C11_16 
REMARK    8  A    between atoms: C15_21  and  O4_23 
REMARK    9  A    between atoms: C17_25  and  O5_26 
ROOT
HETATM    1  N1  UNL     1      -6.268   6.770  11.213  1.00  0.00    -0.294 N 
ATOM      2  H1  UNL     1      -6.891   6.586  11.999  1.00  0.00     0.172 HD
HETATM    3  C7  UNL     1      -5.142   5.909  11.033  1.00  0.00     0.326 C 
HETATM    4  O1  UNL     1      -5.174   5.204   9.966  1.00  0.00    -0.247 OA
HETATM    5  N2  UNL     1      -4.075   5.785  11.879  1.00  0.00    -0.312 N 
ATOM      6  H2  UNL     1      -3.315   6.414  11.623  1.00  0.00     0.170 HD
HETATM    7  C8  UNL     1      -3.788   5.093  12.896  1.00  0.00     0.039 C 
ENDROOT
BRANCH   7   8
HETATM    8  C9  UNL     1      -2.412   5.375  13.459  1.00  0.00     0.137 C 
BRANCH   8   9
HETATM    9  C10 UNL     1      -2.228   6.865  13.409  1.00  0.00     0.052 C 
BRANCH   9  10
HETATM   10  C11 UNL     1      -1.307   7.521  14.337  1.00  0.00     0.122 C 
HETATM   11  C12 UNL     1      -1.723   8.455  15.372  1.00  0.00     0.034 C 
HETATM   12  C13 UNL     1      -1.039   9.772  15.042  1.00  0.00     0.029 C 
HETATM   13  C14 UNL     1      -0.339   9.476  13.763  1.00  0.00     0.168 C 
HETATM   14  O2  UNL     1      -0.285   8.129  13.579  1.00  0.00    -0.386 OA
ENDBRANCH   9  10
ENDBRANCH   8   9
BRANCH   8  15
HETATM   15  C15 UNL     1      -1.406   4.821  12.475  1.00  0.00     0.268 C 
HETATM   16  O3  UNL     1      -0.827   5.488  11.606  1.00  0.00    -0.264 OA
BRANCH  15  17
HETATM   17  O4  UNL     1      -1.117   3.456  12.562  1.00  0.00    -0.326 OA
HETATM   18  C16 UNL     1      -1.388   2.621  11.428  1.00  0.00     0.213 C 
ENDBRANCH  15  17
ENDBRANCH   8  15
ENDBRANCH   7   8
BRANCH   7  19
HETATM   19  C17 UNL     1      -4.738   4.115  13.441  1.00  0.00     0.097 C 
HETATM   20  C18 UNL     1      -4.105   3.106  14.295  1.00  0.00     0.050 C 
HETATM   21  C19 UNL     1      -4.359   3.181  15.777  1.00  0.00     0.082 C 
HETATM   22  C20 UNL     1      -5.808   3.462  16.120  1.00  0.00     0.243 C 
HETATM   23  F1  UNL     1      -5.885   3.616  17.485  1.00  0.00    -0.206 F 
HETATM   24  F2  UNL     1      -6.660   2.494  15.681  1.00  0.00    -0.206 F 
HETATM   25  C21 UNL     1      -6.076   4.818  15.485  1.00  0.00     0.082 C 
HETATM   26  C22 UNL     1      -5.975   4.768  14.008  1.00  0.00     0.050 C 
BRANCH  19  27
HETATM   27  O5  UNL     1      -5.244   3.407  12.310  1.00  0.00    -0.384 OA
ATOM     28  H5  UNL     1      -5.202   2.488  12.548  1.00  0.00     0.211 HD
ENDBRANCH  19  27
ENDBRANCH   7  19
BRANCH   1  29
HETATM   29  C6  UNL     1      -6.540   7.759  10.447  1.00  0.00     0.108 A 
HETATM   30  C5  UNL     1      -5.987   9.005  10.611  1.00  0.00     0.049 A 
HETATM   31  C4  UNL     1      -6.348  10.013   9.725  1.00  0.00     0.016 A 
HETATM   32  C3  UNL     1      -7.236   9.820   8.690  1.00  0.00    -0.021 A 
HETATM   33  C23 UNL     1      -7.762   8.525   8.580  1.00  0.00     0.101 A 
HETATM   34  N3  UNL     1      -7.406   7.561   9.441  1.00  0.00    -0.351 N 
ATOM     35  H3  UNL     1      -7.812   6.632   9.325  1.00  0.00     0.166 HD
BRANCH  32  36
HETATM   36  C2  UNL     1      -7.636  10.843   7.749  1.00  0.00     0.002 C 
HETATM   37  C1  UNL     1      -8.898  11.105   7.542  1.00  0.00     0.012 C 
ENDBRANCH  32  36
ENDBRANCH   1  29
TORSDOF 9
ENDMDL
MODEL 4
REMARK VINA RESULT: -8.221719313      3.868      7.855
REMARK  9 active torsions:
REMARK  status: ('A' for Active; 'I' for Inactive)
REMARK    1  A    between atoms: C2_2  and  C3_3 
REMARK    2  A    between atoms: C6_6  and  N1_7 
REMARK       I    between atoms: N1_7  and  C7_9 
REMARK       I    between atoms: C7_9  and  N2_11 
REMARK    3  A    between atoms: C8_13  and  C9_14 
REMARK    4  A    between atoms: C8_13  and  C17_25 
REMARK    5  A    between atoms: C9_14  and  C10_15 
REMARK    6  A    between atoms: C9_14  and  C15_21 
REMARK    7  A    between atoms: C10_15  and  C11_16 
REMARK    8  A    between atoms: C15_21  and  O4_23 
REMARK    9  A    between atoms: C17_25  and  O5_26 
ROOT
HETATM    1  N1  UNL     1      -3.380   5.133  14.272  1.00  0.00    -0.294 N 
ATOM      2  H1  UNL     1      -3.201   6.095  14.559  1.00  0.00     0.172 HD
HETATM    3  C7  UNL     1      -2.764   4.665  13.069  1.00  0.00     0.326 C 
HETATM    4  O1  UNL     1      -1.899   3.738  13.238  1.00  0.00    -0.247 OA
HETATM    5  N2  UNL     1      -3.019   5.115  11.804  1.00  0.00    -0.312 N 
ATOM      6  H2  UNL     1      -3.745   4.564  11.346  1.00  0.00     0.170 HD
HETATM    7  C8  UNL     1      -2.589   6.036  11.054  1.00  0.00     0.039 C 
ENDROOT
BRANCH   7   8
HETATM    8  C9  UNL     1      -3.252   6.080   9.695  1.00  0.00     0.137 C 
BRANCH   8   9
HETATM    9  C10 UNL     1      -4.728   5.936   9.937  1.00  0.00     0.052 C 
BRANCH   9  10
HETATM   10  C11 UNL     1      -5.638   7.025   9.582  1.00  0.00     0.122 C 
HETATM   11  C12 UNL     1      -5.323   8.435   9.747  1.00  0.00     0.034 C 
HETATM   12  C13 UNL     1      -6.356   8.980  10.721  1.00  0.00     0.029 C 
HETATM   13  C14 UNL     1      -7.138   7.771  11.092  1.00  0.00     0.168 C 
HETATM   14  O2  UNL     1      -6.880   6.774  10.203  1.00  0.00    -0.386 OA
ENDBRANCH   9  10
ENDBRANCH   8   9
BRANCH   8  15
HETATM   15  C15 UNL     1      -2.850   4.819   8.962  1.00  0.00     0.268 C 
HETATM   16  O3  UNL     1      -2.036   3.987   9.383  1.00  0.00    -0.264 OA
BRANCH  15  17
HETATM   17  O4  UNL     1      -3.448   4.589   7.719  1.00  0.00    -0.326 OA
HETATM   18  C16 UNL     1      -3.093   5.436   6.618  1.00  0.00     0.213 C 
ENDBRANCH  15  17
ENDBRANCH   8  15
ENDBRANCH   7   8
BRANCH   7  19
HETATM   19  C17 UNL     1      -1.535   6.952  11.508  1.00  0.00     0.097 C 
HETATM   20  C18 UNL     1      -0.582   7.308  10.452  1.00  0.00     0.050 C 
HETATM   21  C19 UNL     1      -0.637   8.708   9.900  1.00  0.00     0.082 C 
HETATM   22  C20 UNL     1      -0.795   9.766  10.973  1.00  0.00     0.243 C 
HETATM   23  F1  UNL     1      -0.943  10.977  10.338  1.00  0.00    -0.206 F 
HETATM   24  F2  UNL     1       0.240   9.792  11.857  1.00  0.00    -0.206 F 
HETATM   25  C21 UNL     1      -2.124   9.422  11.629  1.00  0.00     0.082 C 
HETATM   26  C22 UNL     1      -2.082   8.107  12.310  1.00  0.00     0.050 C 
BRANCH  19  27
HETATM   27  O5  UNL     1      -0.786   6.220  12.477  1.00  0.00    -0.384 OA
ATOM     28  H5  UNL     1      -1.291   6.274  13.281  1.00  0.00     0.211 HD
ENDBRANCH  19  27
ENDBRANCH   7  19
BRANCH   1  29
HETATM   29  C6  UNL     1      -4.141   4.416  15.009  1.00  0.00     0.108 A 
HETATM   30  C5  UNL     1      -5.397   4.815  15.396  1.00  0.00     0.049 A 
HETATM   31  C4  UNL     1      -6.146   3.963  16.198  1.00  0.00     0.016 A 
HETATM   32  C3  UNL     1      -5.688   2.736  16.624  1.00  0.00    -0.021 A 
HETATM   33  C23 UNL     1      -4.400   2.391  16.193  1.00  0.00     0.101 A 
HETATM   34  N3  UNL     1      -3.686   3.221  15.418  1.00  0.00    -0.351 N 
ATOM     35  H3  UNL     1      -2.753   2.931  15.126  1.00  0.00     0.166 HD
BRANCH  32  36
HETATM   36  C2  UNL     1      -6.438   1.824  17.458  1.00  0.00     0.002 C 
HETATM   37  C1  UNL     1      -7.388   1.082  16.954  1.00  0.00     0.012 C 
ENDBRANCH  32  36
ENDBRANCH   1  29
TORSDOF 9
ENDMDL
MODEL 5
REMARK VINA RESULT: -8.150189830      3.814      7.814
REMARK  9 active torsions:
REMARK  status: ('A' for Active; 'I' for Inactive)
REMARK    1  A    between atoms: C2_2  and  C3_3 
REMARK    2  A    between atoms: C6_6  and  N1_7 
REMARK       I    between atoms: N1_7  and  C7_9 
REMARK       I    between atoms: C7_9  and  N2_11 
REMARK    3  A    between atoms: C8_13  and  C9_14 
REMARK    4  A    between atoms: C8_13  and  C17_25 
REMARK    5  A    between atoms: C9_14  and  C10_15 
REMARK    6  A    between atoms: C9_14  and  C15_21 
REMARK    7  A    between atoms: C10_15  and  C11_16 
REMARK    8  A    between atoms: C15_21  and  O4_23 
REMARK    9  A    between atoms: C17_25  and  O5_26 
ROOT
HETATM    1  N1  UNL     1      -3.341   4.999  14.325  1.00  0.00    -0.294 N 
ATOM      2  H1  UNL     1      -3.091   5.933  14.647  1.00  0.00     0.172 HD
HETATM    3  C7  UNL     1      -2.788   4.544  13.088  1.00  0.00     0.326 C 
HETATM    4  O1  UNL     1      -1.982   3.555  13.194  1.00  0.00    -0.247 OA
HETATM    5  N2  UNL     1      -3.042   5.063  11.850  1.00  0.00    -0.312 N 
ATOM      6  H2  UNL     1      -3.814   4.582  11.389  1.00  0.00     0.170 HD
HETATM    7  C8  UNL     1      -2.569   5.986  11.128  1.00  0.00     0.039 C 
ENDROOT
BRANCH   7   8
HETATM    8  C9  UNL     1      -3.261   6.132   9.790  1.00  0.00     0.137 C 
BRANCH   8   9
HETATM    9  C10 UNL     1      -4.725   5.908  10.041  1.00  0.00     0.052 C 
BRANCH   9  10
HETATM   10  C11 UNL     1      -5.698   6.933   9.666  1.00  0.00     0.122 C 
HETATM   11  C12 UNL     1      -5.412   8.359   9.650  1.00  0.00     0.034 C 
HETATM   12  C13 UNL     1      -6.362   8.985  10.658  1.00  0.00     0.029 C 
HETATM   13  C14 UNL     1      -7.067   7.808  11.231  1.00  0.00     0.168 C 
HETATM   14  O2  UNL     1      -6.865   6.726  10.430  1.00  0.00    -0.386 OA
ENDBRANCH   9  10
ENDBRANCH   8   9
BRANCH   8  15
HETATM   15  C15 UNL     1      -2.826   4.964   8.933  1.00  0.00     0.268 C 
HETATM   16  O3  UNL     1      -1.869   4.220   9.186  1.00  0.00    -0.264 OA
BRANCH  15  17
HETATM   17  O4  UNL     1      -3.567   4.716   7.773  1.00  0.00    -0.326 OA
HETATM   18  C16 UNL     1      -3.219   5.419   6.572  1.00  0.00     0.213 C 
ENDBRANCH  15  17
ENDBRANCH   8  15
ENDBRANCH   7   8
BRANCH   7  19
HETATM   19  C17 UNL     1      -1.446   6.810  11.590  1.00  0.00     0.097 C 
HETATM   20  C18 UNL     1      -1.310   8.071  10.855  1.00  0.00     0.050 C 
HETATM   21  C19 UNL     1      -1.672   9.344  11.572  1.00  0.00     0.082 C 
HETATM   22  C20 UNL     1      -1.149   9.397  12.993  1.00  0.00     0.243 C 
HETATM   23  F1  UNL     1      -1.637  10.547  13.569  1.00  0.00    -0.206 F 
HETATM   24  F2  UNL     1       0.210   9.343  13.067  1.00  0.00    -0.206 F 
HETATM   25  C21 UNL     1      -1.825   8.216  13.674  1.00  0.00     0.082 C 
HETATM   26  C22 UNL     1      -1.395   6.922  13.094  1.00  0.00     0.050 C 
BRANCH  19  27
HETATM   27  O5  UNL     1      -0.272   6.056  11.290  1.00  0.00    -0.384 OA
ATOM     28  H5  UNL     1       0.377   6.333  11.927  1.00  0.00     0.211 HD
ENDBRANCH  19  27
ENDBRANCH   7  19
BRANCH   1  29
HETATM   29  C6  UNL     1      -4.131   4.302  15.052  1.00  0.00     0.108 A 
HETATM   30  C5  UNL     1      -5.386   4.729  15.411  1.00  0.00     0.049 A 
HETATM   31  C4  UNL     1      -6.167   3.898  16.205  1.00  0.00     0.016 A 
HETATM   32  C3  UNL     1      -5.742   2.665  16.648  1.00  0.00    -0.021 A 
HETATM   33  C23 UNL     1      -4.452   2.292  16.245  1.00  0.00     0.101 A 
HETATM   34  N3  UNL     1      -3.707   3.102  15.479  1.00  0.00    -0.351 N 
ATOM     35  H3  UNL     1      -2.774   2.791  15.207  1.00  0.00     0.166 HD
BRANCH  32  36
HETATM   36  C2  UNL     1      -6.526   1.774  17.474  1.00  0.00     0.002 C 
HETATM   37  C1  UNL     1      -7.449   1.014  16.949  1.00  0.00     0.012 C 
ENDBRANCH  32  36
ENDBRANCH   1  29
TORSDOF 9
ENDMDL
