MODEL 1
REMARK VINA RESULT: -5.604034163      0.000      0.000
REMARK  2 active torsions:
REMARK  status: ('A' for Active; 'I' for Inactive)
REMARK    1  A    between atoms: O1_1  and  N1_3 
REMARK    2  A    between atoms: N1_3  and  C1_4 
ROOT
HETATM    1  C1  UNL     1      24.003 -14.644 -11.948  1.00  0.00     0.109 C 
HETATM    2  C2  UNL     1      24.249 -14.553 -13.591  1.00  0.00     0.050 C 
HETATM    3  C3  UNL     1      24.263 -15.965 -13.676  1.00  0.00    -0.029 C 
HETATM    4  C4  UNL     1      24.252 -16.940 -13.384  1.00  0.00    -0.031 C 
HETATM    5  C5  UNL     1      24.208 -18.057 -12.546  1.00  0.00     0.027 C 
HETATM    6  C6  UNL     1      23.986 -17.111 -11.187  1.00  0.00     0.005 C 
HETATM    7  C7  UNL     1      24.737 -15.836 -11.434  1.00  0.00     0.024 C 
ENDROOT
BRANCH   1   8
HETATM    8  N1  UNL     1      24.409 -13.379 -11.417  1.00  0.00    -0.099 NA
BRANCH   8   9
HETATM    9  O1  UNL     1      25.068 -12.748 -12.413  1.00  0.00    -0.296 OA
ATOM     10  H1  UNL     1      24.904 -11.820 -12.292  1.00  0.00     0.238 HD
ENDBRANCH   8   9
ENDBRANCH   1   8
TORSDOF 2
ENDMDL
MODEL 2
REMARK VINA RESULT: -5.500543112      1.301      1.446
REMARK  2 active torsions:
REMARK  status: ('A' for Active; 'I' for Inactive)
REMARK    1  A    between atoms: O1_1  and  N1_3 
REMARK    2  A    between atoms: N1_3  and  C1_4 
ROOT
HETATM    1  C1  UNL     1      24.751 -14.232 -12.955  1.00  0.00     0.109 C 
HETATM    2  C2  UNL     1      26.227 -14.515 -13.669  1.00  0.00     0.050 C 
HETATM    3  C3  UNL     1      25.888 -15.877 -13.848  1.00  0.00    -0.029 C 
HETATM    4  C4  UNL     1      25.361 -16.747 -13.791  1.00  0.00    -0.031 C 
HETATM    5  C5  UNL     1      24.336 -17.639 -13.467  1.00  0.00     0.027 C 
HETATM    6  C6  UNL     1      23.407 -16.428 -12.789  1.00  0.00     0.005 C 
HETATM    7  C7  UNL     1      24.367 -15.448 -12.184  1.00  0.00     0.024 C 
ENDROOT
BRANCH   1   8
HETATM    8  N1  UNL     1      24.905 -13.029 -12.196  1.00  0.00    -0.099 NA
BRANCH   8   9
HETATM    9  O1  UNL     1      24.157 -13.190 -11.082  1.00  0.00    -0.296 OA
ATOM     10  H1  UNL     1      23.553 -12.457 -11.061  1.00  0.00     0.238 HD
ENDBRANCH   8   9
ENDBRANCH   1   8
TORSDOF 2
ENDMDL
MODEL 3
REMARK VINA RESULT: -5.457696326      1.464      1.584
REMARK  2 active torsions:
REMARK  status: ('A' for Active; 'I' for Inactive)
REMARK    1  A    between atoms: O1_1  and  N1_3 
REMARK    2  A    between atoms: N1_3  and  C1_4 
ROOT
HETATM    1  C1  UNL     1      24.363 -15.039 -12.470  1.00  0.00     0.109 C 
HETATM    2  C2  UNL     1      25.900 -14.829 -13.072  1.00  0.00     0.050 C 
HETATM    3  C3  UNL     1      26.280 -16.095 -12.567  1.00  0.00    -0.029 C 
HETATM    4  C4  UNL     1      26.223 -16.982 -12.071  1.00  0.00    -0.031 C 
HETATM    5  C5  UNL     1      25.700 -18.018 -11.294  1.00  0.00     0.027 C 
HETATM    6  C6  UNL     1      24.206 -17.279 -11.197  1.00  0.00     0.005 C 
HETATM    7  C7  UNL     1      24.465 -15.802 -11.193  1.00  0.00     0.024 C 
ENDROOT
BRANCH   1   8
HETATM    8  N1  UNL     1      23.793 -13.730 -12.376  1.00  0.00    -0.099 NA
BRANCH   8   9
HETATM    9  O1  UNL     1      24.166 -13.245 -11.171  1.00  0.00    -0.296 OA
ATOM     10  H1  UNL     1      23.541 -13.588 -10.544  1.00  0.00     0.238 HD
ENDBRANCH   8   9
ENDBRANCH   1   8
TORSDOF 2
ENDMDL
MODEL 4
REMARK VINA RESULT: -5.403985481      1.735      2.161
REMARK  2 active torsions:
REMARK  status: ('A' for Active; 'I' for Inactive)
REMARK    1  A    between atoms: O1_1  and  N1_3 
REMARK    2  A    between atoms: N1_3  and  C1_4 
ROOT
HETATM    1  C1  UNL     1      25.120 -14.402 -12.636  1.00  0.00     0.109 C 
HETATM    2  C2  UNL     1      23.655 -14.838 -13.295  1.00  0.00     0.050 C 
HETATM    3  C3  UNL     1      24.279 -15.893 -14.003  1.00  0.00    -0.029 C 
HETATM    4  C4  UNL     1      25.015 -16.495 -14.368  1.00  0.00    -0.031 C 
HETATM    5  C5  UNL     1      26.292 -17.006 -14.608  1.00  0.00     0.027 C 
HETATM    6  C6  UNL     1      26.997 -15.911 -13.562  1.00  0.00     0.005 C 
HETATM    7  C7  UNL     1      26.181 -14.656 -13.651  1.00  0.00     0.024 C 
ENDROOT
BRANCH   1   8
HETATM    8  N1  UNL     1      24.971 -13.044 -12.209  1.00  0.00    -0.099 NA
BRANCH   8   9
HETATM    9  O1  UNL     1      24.167 -13.078 -11.124  1.00  0.00    -0.296 OA
ATOM     10  H1  UNL     1      24.526 -12.449 -10.509  1.00  0.00     0.238 HD
ENDBRANCH   8   9
ENDBRANCH   1   8
TORSDOF 2
ENDMDL
MODEL 5
REMARK VINA RESULT: -5.328840347      1.254      1.285
REMARK  2 active torsions:
REMARK  status: ('A' for Active; 'I' for Inactive)
REMARK    1  A    between atoms: O1_1  and  N1_3 
REMARK    2  A    between atoms: N1_3  and  C1_4 
ROOT
HETATM    1  C1  UNL     1      23.745 -15.088 -12.915  1.00  0.00     0.109 C 
HETATM    2  C2  UNL     1      25.063 -15.155 -13.929  1.00  0.00     0.050 C 
HETATM    3  C3  UNL     1      24.987 -16.568 -13.948  1.00  0.00    -0.029 C 
HETATM    4  C4  UNL     1      24.678 -17.511 -13.722  1.00  0.00    -0.031 C 
HETATM    5  C5  UNL     1      23.955 -18.546 -13.122  1.00  0.00     0.027 C 
HETATM    6  C6  UNL     1      22.957 -17.473 -12.321  1.00  0.00     0.005 C 
HETATM    7  C7  UNL     1      23.796 -16.270 -12.008  1.00  0.00     0.024 C 
ENDROOT
BRANCH   1   8
HETATM    8  N1  UNL     1      23.800 -13.806 -12.281  1.00  0.00    -0.099 NA
BRANCH   8   9
HETATM    9  O1  UNL     1      23.917 -14.048 -10.956  1.00  0.00    -0.296 OA
ATOM     10  H1  UNL     1      23.058 -13.892 -10.583  1.00  0.00     0.238 HD
ENDBRANCH   8   9
ENDBRANCH   1   8
TORSDOF 2
ENDMDL
