MODEL 1
REMARK VINA RESULT: -6.716485908      0.000      0.000
REMARK  5 active torsions:
REMARK  status: ('A' for Active; 'I' for Inactive)
REMARK    1  A    between atoms: N1_1  and  C1_5 
REMARK    2  A    between atoms: C1_5  and  C2_6 
REMARK    3  A    between atoms: C5_9  and  C6_10 
REMARK    4  A    between atoms: C6_10  and  N2_11 
REMARK    5  A    between atoms: C8_16  and  N5_17 
ROOT
HETATM    1  C2  UNL     1     -21.060  16.093  -4.820  1.00  0.00     0.042 C 
HETATM    2  C3  UNL     1     -19.605  16.229  -4.527  1.00  0.00     0.009 C 
HETATM    3  C4  UNL     1     -18.983  14.856  -4.771  1.00  0.00     0.009 C 
HETATM    4  C5  UNL     1     -20.184  14.008  -4.996  1.00  0.00     0.034 C 
HETATM    5  C8  UNL     1     -21.080  14.911  -5.772  1.00  0.00     0.194 C 
ENDROOT
BRANCH   4   6
HETATM    6  C6  UNL     1     -19.942  12.667  -5.550  1.00  0.00     0.128 C 
BRANCH   6   7
HETATM    7  N2  UNL     1     -20.947  11.688  -5.330  1.00  0.00    -0.366 N 
HETATM    8  C7  UNL     1     -20.685  10.457  -5.614  1.00  0.00     0.196 C 
HETATM    9  N3  UNL     1     -21.660   9.452  -5.410  1.00  0.00    -0.067 NA
HETATM   10  N4  UNL     1     -19.426  10.047  -6.142  1.00  0.00    -0.067 NA
ATOM     11  H2  UNL     1     -21.858  11.952  -4.954  1.00  0.00     0.161 HD
ENDBRANCH   6   7
ENDBRANCH   4   6
BRANCH   5  12
HETATM   12  N5  UNL     1     -20.555  15.362  -7.019  1.00  0.00    -0.074 N 
ATOM     13  H53 UNL     1     -19.959  16.184  -6.927  1.00  0.00     0.274 HD
ATOM     14  H52 UNL     1     -19.853  14.732  -7.407  1.00  0.00     0.274 HD
ATOM     15  H51 UNL     1     -21.346  15.511  -7.646  1.00  0.00     0.274 HD
ENDBRANCH   5  12
BRANCH   1  16
HETATM   16  C1  UNL     1     -21.726  17.308  -5.326  1.00  0.00     0.236 C 
BRANCH  16  17
HETATM   17  N1  UNL     1     -23.143  17.308  -5.314  1.00  0.00    -0.079 N 
ATOM     18  H13 UNL     1     -23.480  16.579  -4.685  1.00  0.00     0.274 HD
ATOM     19  H12 UNL     1     -23.482  18.141  -4.832  1.00  0.00     0.274 HD
ATOM     20  H11 UNL     1     -23.608  17.221  -6.217  1.00  0.00     0.274 HD
ENDBRANCH  16  17
ENDBRANCH   1  16
TORSDOF 5
ENDMDL
MODEL 2
REMARK VINA RESULT: -6.470264993      1.116      1.122
REMARK  5 active torsions:
REMARK  status: ('A' for Active; 'I' for Inactive)
REMARK    1  A    between atoms: N1_1  and  C1_5 
REMARK    2  A    between atoms: C1_5  and  C2_6 
REMARK    3  A    between atoms: C5_9  and  C6_10 
REMARK    4  A    between atoms: C6_10  and  N2_11 
REMARK    5  A    between atoms: C8_16  and  N5_17 
ROOT
HETATM    1  C2  UNL     1     -20.719  16.330  -5.325  1.00  0.00     0.042 C 
HETATM    2  C3  UNL     1     -20.294  16.054  -3.923  1.00  0.00     0.009 C 
HETATM    3  C4  UNL     1     -19.996  14.559  -3.845  1.00  0.00     0.009 C 
HETATM    4  C5  UNL     1     -20.468  14.081  -5.173  1.00  0.00     0.034 C 
HETATM    5  C8  UNL     1     -20.063  15.190  -6.081  1.00  0.00     0.194 C 
ENDROOT
BRANCH   4   6
HETATM    6  C6  UNL     1     -20.066  12.719  -5.556  1.00  0.00     0.128 C 
BRANCH   6   7
HETATM    7  N2  UNL     1     -21.015  11.683  -5.343  1.00  0.00    -0.366 N 
HETATM    8  C7  UNL     1     -20.679  10.469  -5.621  1.00  0.00     0.196 C 
HETATM    9  N3  UNL     1     -21.596   9.410  -5.424  1.00  0.00    -0.067 NA
HETATM   10  N4  UNL     1     -19.392  10.131  -6.134  1.00  0.00    -0.067 NA
ATOM     11  H2  UNL     1     -21.943  11.895  -4.978  1.00  0.00     0.161 HD
ENDBRANCH   6   7
ENDBRANCH   4   6
BRANCH   5  12
HETATM   12  N5  UNL     1     -18.663  15.458  -6.126  1.00  0.00    -0.074 N 
ATOM     13  H53 UNL     1     -18.181  15.202  -5.264  1.00  0.00     0.274 HD
ATOM     14  H52 UNL     1     -18.157  14.831  -6.752  1.00  0.00     0.274 HD
ATOM     15  H51 UNL     1     -18.550  16.442  -6.368  1.00  0.00     0.274 HD
ENDBRANCH   5  12
BRANCH   1  16
HETATM   16  C1  UNL     1     -20.401  17.677  -5.837  1.00  0.00     0.236 C 
BRANCH  16  17
HETATM   17  N1  UNL     1     -21.356  18.693  -5.586  1.00  0.00    -0.079 N 
ATOM     18  H13 UNL     1     -22.296  18.308  -5.670  1.00  0.00     0.274 HD
ATOM     19  H12 UNL     1     -21.343  18.939  -4.596  1.00  0.00     0.274 HD
ATOM     20  H11 UNL     1     -21.281  19.540  -6.150  1.00  0.00     0.274 HD
ENDBRANCH  16  17
ENDBRANCH   1  16
TORSDOF 5
ENDMDL
MODEL 3
REMARK VINA RESULT: -6.230501999      1.443      5.344
REMARK  5 active torsions:
REMARK  status: ('A' for Active; 'I' for Inactive)
REMARK    1  A    between atoms: N1_1  and  C1_5 
REMARK    2  A    between atoms: C1_5  and  C2_6 
REMARK    3  A    between atoms: C5_9  and  C6_10 
REMARK    4  A    between atoms: C6_10  and  N2_11 
REMARK    5  A    between atoms: C8_16  and  N5_17 
ROOT
HETATM    1  C2  UNL     1     -19.973  12.628  -6.277  1.00  0.00     0.042 C 
HETATM    2  C3  UNL     1     -18.647  13.245  -6.568  1.00  0.00     0.009 C 
HETATM    3  C4  UNL     1     -18.855  14.757  -6.538  1.00  0.00     0.009 C 
HETATM    4  C5  UNL     1     -20.335  14.862  -6.423  1.00  0.00     0.034 C 
HETATM    5  C8  UNL     1     -20.671  13.735  -5.508  1.00  0.00     0.194 C 
ENDROOT
BRANCH   4   6
HETATM    6  C6  UNL     1     -20.869  16.189  -6.076  1.00  0.00     0.128 C 
BRANCH   6   7
HETATM    7  N2  UNL     1     -22.164  16.229  -5.494  1.00  0.00    -0.366 N 
HETATM    8  C7  UNL     1     -22.657  17.374  -5.162  1.00  0.00     0.196 C 
HETATM    9  N3  UNL     1     -23.944  17.457  -4.579  1.00  0.00    -0.067 NA
HETATM   10  N4  UNL     1     -21.949  18.597  -5.357  1.00  0.00    -0.067 NA
ATOM     11  H2  UNL     1     -22.694  15.371  -5.342  1.00  0.00     0.161 HD
ENDBRANCH   6   7
ENDBRANCH   4   6
BRANCH   5  12
HETATM   12  N5  UNL     1     -20.072  13.801  -4.217  1.00  0.00    -0.074 N 
ATOM     13  H53 UNL     1     -19.978  12.887  -3.774  1.00  0.00     0.274 HD
ATOM     14  H52 UNL     1     -19.079  14.034  -4.249  1.00  0.00     0.274 HD
ATOM     15  H51 UNL     1     -20.618  14.458  -3.661  1.00  0.00     0.274 HD
ENDBRANCH   5  12
BRANCH   1  16
HETATM   16  C1  UNL     1     -19.933  11.325  -5.586  1.00  0.00     0.236 C 
BRANCH  16  17
HETATM   17  N1  UNL     1     -21.183  10.724  -5.293  1.00  0.00    -0.079 N 
ATOM     18  H13 UNL     1     -21.033   9.865  -4.763  1.00  0.00     0.274 HD
ATOM     19  H12 UNL     1     -21.679  11.286  -4.602  1.00  0.00     0.274 HD
ATOM     20  H11 UNL     1     -21.796  10.535  -6.086  1.00  0.00     0.274 HD
ENDBRANCH  16  17
ENDBRANCH   1  16
TORSDOF 5
ENDMDL
MODEL 4
REMARK VINA RESULT: -6.215442906      2.012      5.913
REMARK  5 active torsions:
REMARK  status: ('A' for Active; 'I' for Inactive)
REMARK    1  A    between atoms: N1_1  and  C1_5 
REMARK    2  A    between atoms: C1_5  and  C2_6 
REMARK    3  A    between atoms: C5_9  and  C6_10 
REMARK    4  A    between atoms: C6_10  and  N2_11 
REMARK    5  A    between atoms: C8_16  and  N5_17 
ROOT
HETATM    1  C2  UNL     1     -20.012  13.308  -6.130  1.00  0.00     0.042 C 
HETATM    2  C3  UNL     1     -18.705  13.975  -6.390  1.00  0.00     0.009 C 
HETATM    3  C4  UNL     1     -18.912  15.461  -6.110  1.00  0.00     0.009 C 
HETATM    4  C5  UNL     1     -20.383  15.534  -5.900  1.00  0.00     0.034 C 
HETATM    5  C8  UNL     1     -20.669  14.273  -5.160  1.00  0.00     0.194 C 
ENDROOT
BRANCH   4   6
HETATM    6  C6  UNL     1     -20.898  16.784  -5.320  1.00  0.00     0.128 C 
BRANCH   6   7
HETATM    7  N2  UNL     1     -20.231  17.984  -5.683  1.00  0.00    -0.366 N 
HETATM    8  C7  UNL     1     -20.905  19.084  -5.704  1.00  0.00     0.196 C 
HETATM    9  N3  UNL     1     -20.278  20.301  -6.060  1.00  0.00    -0.067 NA
HETATM   10  N4  UNL     1     -22.293  19.136  -5.378  1.00  0.00    -0.067 NA
ATOM     11  H2  UNL     1     -19.240  17.978  -5.921  1.00  0.00     0.161 HD
ENDBRANCH   6   7
ENDBRANCH   4   6
BRANCH   5  12
HETATM   12  N5  UNL     1     -20.000  14.139  -3.908  1.00  0.00    -0.074 N 
ATOM     13  H53 UNL     1     -20.628  13.878  -3.147  1.00  0.00     0.274 HD
ATOM     14  H52 UNL     1     -19.394  13.320  -3.865  1.00  0.00     0.274 HD
ATOM     15  H51 UNL     1     -19.503  15.012  -3.733  1.00  0.00     0.274 HD
ENDBRANCH   5  12
BRANCH   1  16
HETATM   16  C1  UNL     1     -19.935  11.912  -5.658  1.00  0.00     0.236 C 
BRANCH  16  17
HETATM   17  N1  UNL     1     -21.162  11.283  -5.331  1.00  0.00    -0.079 N 
ATOM     18  H13 UNL     1     -21.809  11.973  -4.949  1.00  0.00     0.274 HD
ATOM     19  H12 UNL     1     -21.651  11.022  -6.187  1.00  0.00     0.274 HD
ATOM     20  H11 UNL     1     -21.111  10.479  -4.706  1.00  0.00     0.274 HD
ENDBRANCH  16  17
ENDBRANCH   1  16
TORSDOF 5
ENDMDL
MODEL 5
REMARK VINA RESULT: -5.994780860      2.044      2.465
REMARK  5 active torsions:
REMARK  status: ('A' for Active; 'I' for Inactive)
REMARK    1  A    between atoms: N1_1  and  C1_5 
REMARK    2  A    between atoms: C1_5  and  C2_6 
REMARK    3  A    between atoms: C5_9  and  C6_10 
REMARK    4  A    between atoms: C6_10  and  N2_11 
REMARK    5  A    between atoms: C8_16  and  N5_17 
ROOT
HETATM    1  C2  UNL     1     -20.099  17.544  -6.347  1.00  0.00     0.042 C 
HETATM    2  C3  UNL     1     -21.197  17.508  -5.339  1.00  0.00     0.009 C 
HETATM    3  C4  UNL     1     -21.119  16.143  -4.660  1.00  0.00     0.009 C 
HETATM    4  C5  UNL     1     -20.095  15.446  -5.485  1.00  0.00     0.034 C 
HETATM    5  C8  UNL     1     -19.120  16.532  -5.780  1.00  0.00     0.194 C 
ENDROOT
BRANCH   4   6
HETATM    6  C6  UNL     1     -19.557  14.192  -4.934  1.00  0.00     0.128 C 
BRANCH   6   7
HETATM    7  N2  UNL     1     -20.423  13.067  -4.930  1.00  0.00    -0.366 N 
HETATM    8  C7  UNL     1     -20.119  12.049  -5.662  1.00  0.00     0.196 C 
HETATM    9  N3  UNL     1     -20.956  10.909  -5.686  1.00  0.00    -0.067 NA
HETATM   10  N4  UNL     1     -18.948  12.016  -6.475  1.00  0.00    -0.067 NA
ATOM     11  H2  UNL     1     -21.268  13.062  -4.359  1.00  0.00     0.161 HD
ENDBRANCH   6   7
ENDBRANCH   4   6
BRANCH   5  12
HETATM   12  N5  UNL     1     -18.508  17.126  -4.637  1.00  0.00    -0.074 N 
ATOM     13  H53 UNL     1     -18.113  16.440  -3.994  1.00  0.00     0.274 HD
ATOM     14  H52 UNL     1     -17.641  17.615  -4.858  1.00  0.00     0.274 HD
ATOM     15  H51 UNL     1     -19.205  17.728  -4.198  1.00  0.00     0.274 HD
ENDBRANCH   5  12
BRANCH   1  16
HETATM   16  C1  UNL     1     -19.526  18.876  -6.620  1.00  0.00     0.236 C 
BRANCH  16  17
HETATM   17  N1  UNL     1     -20.059  19.960  -5.881  1.00  0.00    -0.079 N 
ATOM     18  H13 UNL     1     -19.597  20.825  -6.160  1.00  0.00     0.274 HD
ATOM     19  H12 UNL     1     -21.013  20.150  -6.191  1.00  0.00     0.274 HD
ATOM     20  H11 UNL     1     -20.040  19.875  -4.865  1.00  0.00     0.274 HD
ENDBRANCH  16  17
ENDBRANCH   1  16
TORSDOF 5
ENDMDL
