MODEL 1
REMARK VINA RESULT: -6.071100606      0.000      0.000
REMARK  3 active torsions:
REMARK  status: ('A' for Active; 'I' for Inactive)
REMARK       I    between atoms: C1_4  and  N3_6 
REMARK    1  A    between atoms: N3_6  and  C2_8 
REMARK    2  A    between atoms: C4_10  and  C5_11 
REMARK    3  A    between atoms: C7_14  and  N4_15 
ROOT
HETATM    1  C2  UNL     1       3.845  25.713  29.204  1.00  0.00     0.115 C 
HETATM    2  C3  UNL     1       2.495  25.774  28.523  1.00  0.00     0.038 C 
HETATM    3  C4  UNL     1       1.761  24.617  29.181  1.00  0.00     0.051 C 
HETATM    4  C6  UNL     1       2.341  24.545  30.571  1.00  0.00     0.046 C 
HETATM    5  C7  UNL     1       3.417  25.596  30.660  1.00  0.00     0.207 C 
ENDROOT
BRANCH   1   6
HETATM    6  N3  UNL     1       4.622  26.906  28.963  1.00  0.00    -0.358 N 
HETATM    7  C1  UNL     1       6.034  26.857  28.818  1.00  0.00     0.182 C 
HETATM    8  N1  UNL     1       6.802  27.820  29.264  1.00  0.00    -0.374 N 
HETATM    9  N2  UNL     1       6.722  25.784  28.191  1.00  0.00    -0.064 NA
ATOM     10  H12 UNL     1       7.816  27.785  29.160  1.00  0.00     0.158 HD
ATOM     11  H11 UNL     1       6.308  28.590  29.715  1.00  0.00     0.158 HD
ATOM     12  H3  UNL     1       4.146  27.805  28.895  1.00  0.00     0.162 HD
ENDBRANCH   1   6
BRANCH   5  13
HETATM   13  N4  UNL     1       4.463  25.105  31.509  1.00  0.00    -0.073 N 
ATOM     14  H43 UNL     1       4.885  24.263  31.118  1.00  0.00     0.274 HD
ATOM     15  H42 UNL     1       5.274  25.724  31.484  1.00  0.00     0.274 HD
ATOM     16  H41 UNL     1       4.153  24.948  32.467  1.00  0.00     0.274 HD
ENDBRANCH   5  13
BRANCH   3  17
HETATM   17  C5  UNL     1       2.042  23.374  28.395  1.00  0.00     0.235 C 
HETATM   18  O1  UNL     1       1.148  22.701  27.903  1.00  0.00    -0.306 OA
ENDBRANCH   3  17
TORSDOF 3
ENDMDL
MODEL 2
REMARK VINA RESULT: -5.881439376      2.520      2.977
REMARK  3 active torsions:
REMARK  status: ('A' for Active; 'I' for Inactive)
REMARK       I    between atoms: C1_4  and  N3_6 
REMARK    1  A    between atoms: N3_6  and  C2_8 
REMARK    2  A    between atoms: C4_10  and  C5_11 
REMARK    3  A    between atoms: C7_14  and  N4_15 
ROOT
HETATM    1  C2  UNL     1       3.939  25.973  29.833  1.00  0.00     0.115 C 
HETATM    2  C3  UNL     1       4.042  24.865  28.807  1.00  0.00     0.038 C 
HETATM    3  C4  UNL     1       4.376  23.664  29.676  1.00  0.00     0.051 C 
HETATM    4  C6  UNL     1       3.693  23.949  30.990  1.00  0.00     0.046 C 
HETATM    5  C7  UNL     1       3.049  25.306  30.873  1.00  0.00     0.207 C 
ENDROOT
BRANCH   1   6
HETATM    6  N3  UNL     1       3.331  27.161  29.282  1.00  0.00    -0.358 N 
HETATM    7  C1  UNL     1       3.801  28.459  29.613  1.00  0.00     0.182 C 
HETATM    8  N1  UNL     1       2.982  29.474  29.734  1.00  0.00    -0.374 N 
HETATM    9  N2  UNL     1       5.171  28.764  29.838  1.00  0.00    -0.064 NA
ATOM     10  H12 UNL     1       3.320  30.407  29.971  1.00  0.00     0.158 HD
ATOM     11  H11 UNL     1       1.999  29.255  29.573  1.00  0.00     0.158 HD
ATOM     12  H3  UNL     1       2.544  27.066  28.640  1.00  0.00     0.162 HD
ENDBRANCH   1   6
BRANCH   5  13
HETATM   13  N4  UNL     1       3.111  25.951  32.152  1.00  0.00    -0.073 N 
ATOM     14  H43 UNL     1       2.192  26.288  32.436  1.00  0.00     0.274 HD
ATOM     15  H42 UNL     1       3.277  25.273  32.896  1.00  0.00     0.274 HD
ATOM     16  H41 UNL     1       3.801  26.701  32.183  1.00  0.00     0.274 HD
ENDBRANCH   5  13
BRANCH   3  17
HETATM   17  C5  UNL     1       5.864  23.591  29.826  1.00  0.00     0.235 C 
HETATM   18  O1  UNL     1       6.543  22.805  29.182  1.00  0.00    -0.306 OA
ENDBRANCH   3  17
TORSDOF 3
ENDMDL
MODEL 3
REMARK VINA RESULT: -5.823772549      1.629      2.636
REMARK  3 active torsions:
REMARK  status: ('A' for Active; 'I' for Inactive)
REMARK       I    between atoms: C1_4  and  N3_6 
REMARK    1  A    between atoms: N3_6  and  C2_8 
REMARK    2  A    between atoms: C4_10  and  C5_11 
REMARK    3  A    between atoms: C7_14  and  N4_15 
ROOT
HETATM    1  C2  UNL     1       3.129  25.717  29.344  1.00  0.00     0.115 C 
HETATM    2  C3  UNL     1       3.066  24.315  29.913  1.00  0.00     0.038 C 
HETATM    3  C4  UNL     1       2.155  23.615  28.919  1.00  0.00     0.051 C 
HETATM    4  C6  UNL     1       2.426  24.307  27.608  1.00  0.00     0.046 C 
HETATM    5  C7  UNL     1       3.416  25.408  27.881  1.00  0.00     0.207 C 
ENDROOT
BRANCH   1   6
HETATM    6  N3  UNL     1       4.182  26.496  29.950  1.00  0.00    -0.358 N 
HETATM    7  C1  UNL     1       4.341  27.878  29.667  1.00  0.00     0.182 C 
HETATM    8  N1  UNL     1       5.527  28.431  29.597  1.00  0.00    -0.374 N 
HETATM    9  N2  UNL     1       3.253  28.763  29.439  1.00  0.00    -0.064 NA
ATOM     10  H12 UNL     1       5.641  29.424  29.394  1.00  0.00     0.158 HD
ATOM     11  H11 UNL     1       6.308  27.796  29.761  1.00  0.00     0.158 HD
ATOM     12  H3  UNL     1       4.827  26.043  30.598  1.00  0.00     0.162 HD
ENDBRANCH   1   6
BRANCH   5  13
HETATM   13  N4  UNL     1       3.121  26.512  27.013  1.00  0.00    -0.073 N 
ATOM     14  H43 UNL     1       2.149  26.485  26.707  1.00  0.00     0.274 HD
ATOM     15  H42 UNL     1       3.108  27.390  27.531  1.00  0.00     0.274 HD
ATOM     16  H41 UNL     1       3.754  26.567  26.216  1.00  0.00     0.274 HD
ENDBRANCH   5  13
BRANCH   3  17
HETATM   17  C5  UNL     1       0.739  23.802  29.367  1.00  0.00     0.235 C 
HETATM   18  O1  UNL     1      -0.126  22.966  29.152  1.00  0.00    -0.306 OA
ENDBRANCH   3  17
TORSDOF 3
ENDMDL
MODEL 4
REMARK VINA RESULT: -5.758584029      2.081      2.818
REMARK  3 active torsions:
REMARK  status: ('A' for Active; 'I' for Inactive)
REMARK       I    between atoms: C1_4  and  N3_6 
REMARK    1  A    between atoms: N3_6  and  C2_8 
REMARK    2  A    between atoms: C4_10  and  C5_11 
REMARK    3  A    between atoms: C7_14  and  N4_15 
ROOT
HETATM    1  C2  UNL     1       4.687  25.768  29.930  1.00  0.00     0.115 C 
HETATM    2  C3  UNL     1       4.541  24.396  30.555  1.00  0.00     0.038 C 
HETATM    3  C4  UNL     1       3.031  24.245  30.627  1.00  0.00     0.051 C 
HETATM    4  C6  UNL     1       2.517  25.025  29.444  1.00  0.00     0.046 C 
HETATM    5  C7  UNL     1       3.711  25.648  28.768  1.00  0.00     0.207 C 
ENDROOT
BRANCH   1   6
HETATM    6  N3  UNL     1       6.037  26.012  29.481  1.00  0.00    -0.358 N 
HETATM    7  C1  UNL     1       6.430  27.273  28.959  1.00  0.00     0.182 C 
HETATM    8  N1  UNL     1       7.301  27.370  27.985  1.00  0.00    -0.374 N 
HETATM    9  N2  UNL     1       5.924  28.512  29.436  1.00  0.00    -0.064 NA
ATOM     10  H12 UNL     1       7.584  28.276  27.611  1.00  0.00     0.158 HD
ATOM     11  H11 UNL     1       7.664  26.480  27.643  1.00  0.00     0.158 HD
ATOM     12  H3  UNL     1       6.725  25.262  29.540  1.00  0.00     0.162 HD
ENDBRANCH   1   6
BRANCH   5  13
HETATM   13  N4  UNL     1       3.321  26.922  28.238  1.00  0.00    -0.073 N 
ATOM     14  H43 UNL     1       2.446  27.238  28.655  1.00  0.00     0.274 HD
ATOM     15  H42 UNL     1       3.940  27.661  28.571  1.00  0.00     0.274 HD
ATOM     16  H41 UNL     1       3.263  26.925  27.220  1.00  0.00     0.274 HD
ENDBRANCH   5  13
BRANCH   3  17
HETATM   17  C5  UNL     1       2.562  24.827  31.925  1.00  0.00     0.235 C 
HETATM   18  O1  UNL     1       2.512  24.167  32.952  1.00  0.00    -0.306 OA
ENDBRANCH   3  17
TORSDOF 3
ENDMDL
MODEL 5
REMARK VINA RESULT: -5.757603398      3.196      4.743
REMARK  3 active torsions:
REMARK  status: ('A' for Active; 'I' for Inactive)
REMARK       I    between atoms: C1_4  and  N3_6 
REMARK    1  A    between atoms: N3_6  and  C2_8 
REMARK    2  A    between atoms: C4_10  and  C5_11 
REMARK    3  A    between atoms: C7_14  and  N4_15 
ROOT
HETATM    1  C2  UNL     1       2.858  24.451  29.649  1.00  0.00     0.115 C 
HETATM    2  C3  UNL     1       3.935  24.218  30.687  1.00  0.00     0.038 C 
HETATM    3  C4  UNL     1       5.146  24.857  30.029  1.00  0.00     0.051 C 
HETATM    4  C6  UNL     1       4.577  25.982  29.203  1.00  0.00     0.046 C 
HETATM    5  C7  UNL     1       3.078  25.927  29.348  1.00  0.00     0.207 C 
ENDROOT
BRANCH   1   6
HETATM    6  N3  UNL     1       1.539  24.197  30.177  1.00  0.00    -0.358 N 
HETATM    7  C1  UNL     1       0.512  23.636  29.375  1.00  0.00     0.182 C 
HETATM    8  N1  UNL     1      -0.741  23.991  29.517  1.00  0.00    -0.374 N 
HETATM    9  N2  UNL     1       0.747  22.660  28.368  1.00  0.00    -0.064 NA
ATOM     10  H12 UNL     1      -1.479  23.588  28.940  1.00  0.00     0.158 HD
ATOM     11  H11 UNL     1      -0.910  24.692  30.239  1.00  0.00     0.158 HD
ATOM     12  H3  UNL     1       1.339  24.427  31.151  1.00  0.00     0.162 HD
ENDBRANCH   1   6
BRANCH   5  13
HETATM   13  N4  UNL     1       2.485  26.335  28.108  1.00  0.00    -0.073 N 
ATOM     14  H43 UNL     1       2.931  25.867  27.319  1.00  0.00     0.274 HD
ATOM     15  H42 UNL     1       1.542  25.958  28.012  1.00  0.00     0.274 HD
ATOM     16  H41 UNL     1       2.489  27.346  27.982  1.00  0.00     0.274 HD
ENDBRANCH   5  13
BRANCH   3  17
HETATM   17  C5  UNL     1       5.818  23.825  29.178  1.00  0.00     0.235 C 
HETATM   18  O1  UNL     1       5.989  22.677  29.562  1.00  0.00    -0.306 OA
ENDBRANCH   3  17
TORSDOF 3
ENDMDL
