MODEL 1
REMARK VINA RESULT: -7.621897983      0.000      0.000
REMARK  6 active torsions:
REMARK  status: ('A' for Active; 'I' for Inactive)
REMARK    1  A    between atoms: C3_4  and  C4_5 
REMARK    2  A    between atoms: C4_5  and  C5_6 
REMARK    3  A    between atoms: C13_15  and  O3_16 
REMARK    4  A    between atoms: C15_18  and  C16_19 
REMARK    5  A    between atoms: C17_21  and  O5_22 
REMARK    6  A    between atoms: C18_24  and  O6_25 
ROOT
HETATM    1  C1  UNL     1      -3.764   2.619  11.419  1.00  0.00     0.052 C 
HETATM    2  C2  UNL     1      -4.281   3.333  12.316  1.00  0.00     0.081 A 
HETATM    3  O1  UNL     1      -4.521   4.625  12.210  1.00  0.00    -0.307 OA
HETATM    4  C3  UNL     1      -5.038   5.400  13.150  1.00  0.00     0.127 A 
HETATM    5  C11 UNL     1      -5.347   4.824  14.333  1.00  0.00     0.219 A 
HETATM    6  O2  UNL     1      -5.835   5.492  15.279  1.00  0.00    -0.284 OA
HETATM    7  C12 UNL     1      -5.134   3.450  14.551  1.00  0.00     0.067 A 
HETATM    8  C13 UNL     1      -5.431   2.813  15.735  1.00  0.00     0.099 A 
HETATM    9  C15 UNL     1      -5.189   1.438  15.878  1.00  0.00     0.072 A 
HETATM   10  C17 UNL     1      -4.664   0.663  14.882  1.00  0.00     0.116 A 
HETATM   11  C18 UNL     1      -4.370   1.340  13.686  1.00  0.00     0.114 A 
HETATM   12  C19 UNL     1      -4.598   2.709  13.527  1.00  0.00     0.050 A 
ENDROOT
BRANCH   4  13
HETATM   13  C4  UNL     1      -5.215   6.693  12.850  1.00  0.00     0.053 C 
BRANCH  13  14
HETATM   14  C5  UNL     1      -5.711   7.127  11.564  1.00  0.00    -0.034 A 
HETATM   15  C6  UNL     1      -4.853   7.010  10.474  1.00  0.00     0.011 A 
HETATM   16  C7  UNL     1      -5.331   7.402   9.247  1.00  0.00     0.001 A 
HETATM   17  C8  UNL     1      -6.626   7.893   9.099  1.00  0.00     0.000 A 
HETATM   18  C9  UNL     1      -7.440   7.981  10.242  1.00  0.00     0.001 A 
HETATM   19  C10 UNL     1      -6.997   7.606  11.479  1.00  0.00     0.011 A 
ENDBRANCH  13  14
ENDBRANCH   4  13
BRANCH   8  20
HETATM   20  O3  UNL     1      -5.958   3.543  16.780  1.00  0.00    -0.354 OA
HETATM   21  C14 UNL     1      -7.320   3.258  17.144  1.00  0.00     0.210 C 
ENDBRANCH   8  20
BRANCH  11  22
HETATM   22  O6  UNL     1      -3.857   0.643  12.672  1.00  0.00    -0.357 OA
ATOM     23  H6  UNL     1      -3.012   0.905  12.325  1.00  0.00     0.217 HD
ENDBRANCH  11  22
BRANCH   9  24
HETATM   24  C16 UNL     1      -5.542   0.848  17.199  1.00  0.00     0.275 C 
HETATM   25  O4  UNL     1      -5.967  -0.322  17.299  1.00  0.00    -0.301 OA
ENDBRANCH   9  24
BRANCH  10  26
HETATM   26  O5  UNL     1      -4.394  -0.685  14.947  1.00  0.00    -0.357 OA
ATOM     27  H5  UNL     1      -3.932  -1.138  15.643  1.00  0.00     0.217 HD
ENDBRANCH  10  26
TORSDOF 6
ENDMDL
MODEL 2
REMARK VINA RESULT: -7.507920509      2.928      4.418
REMARK  6 active torsions:
REMARK  status: ('A' for Active; 'I' for Inactive)
REMARK    1  A    between atoms: C3_4  and  C4_5 
REMARK    2  A    between atoms: C4_5  and  C5_6 
REMARK    3  A    between atoms: C13_15  and  O3_16 
REMARK    4  A    between atoms: C15_18  and  C16_19 
REMARK    5  A    between atoms: C17_21  and  O5_22 
REMARK    6  A    between atoms: C18_24  and  O6_25 
ROOT
HETATM    1  C1  UNL     1      -4.081   5.690  10.494  1.00  0.00     0.052 C 
HETATM    2  C2  UNL     1      -3.944   5.340  11.693  1.00  0.00     0.081 A 
HETATM    3  O1  UNL     1      -3.659   6.152  12.691  1.00  0.00    -0.307 OA
HETATM    4  C3  UNL     1      -3.483   5.802  13.955  1.00  0.00     0.127 A 
HETATM    5  C11 UNL     1      -3.600   4.490  14.261  1.00  0.00     0.219 A 
HETATM    6  O2  UNL     1      -3.440   4.074  15.435  1.00  0.00    -0.284 OA
HETATM    7  C12 UNL     1      -3.905   3.537  13.270  1.00  0.00     0.067 A 
HETATM    8  C13 UNL     1      -4.036   2.191  13.526  1.00  0.00     0.099 A 
HETATM    9  C15 UNL     1      -4.342   1.300  12.485  1.00  0.00     0.072 A 
HETATM   10  C17 UNL     1      -4.529   1.697  11.191  1.00  0.00     0.116 A 
HETATM   11  C18 UNL     1      -4.389   3.077  10.960  1.00  0.00     0.114 A 
HETATM   12  C19 UNL     1      -4.078   3.977  11.982  1.00  0.00     0.050 A 
ENDROOT
BRANCH   4  13
HETATM   13  C4  UNL     1      -3.206   6.777  14.829  1.00  0.00     0.053 C 
BRANCH  13  14
HETATM   14  C5  UNL     1      -2.095   7.683  14.650  1.00  0.00    -0.034 A 
HETATM   15  C6  UNL     1      -1.287   7.493  13.533  1.00  0.00     0.011 A 
HETATM   16  C7  UNL     1      -0.242   8.367  13.349  1.00  0.00     0.001 A 
HETATM   17  C8  UNL     1      -0.005   9.407  14.245  1.00  0.00     0.000 A 
HETATM   18  C9  UNL     1      -0.863   9.544  15.351  1.00  0.00     0.001 A 
HETATM   19  C10 UNL     1      -1.908   8.690  15.569  1.00  0.00     0.011 A 
ENDBRANCH  13  14
ENDBRANCH   4  13
BRANCH   8  20
HETATM   20  O3  UNL     1      -3.854   1.727  14.812  1.00  0.00    -0.354 OA
HETATM   21  C14 UNL     1      -5.040   1.379  15.547  1.00  0.00     0.210 C 
ENDBRANCH   8  20
BRANCH  11  22
HETATM   22  O6  UNL     1      -4.560   3.533   9.719  1.00  0.00    -0.357 OA
ATOM     23  H6  UNL     1      -5.351   4.021   9.522  1.00  0.00     0.217 HD
ENDBRANCH  11  22
BRANCH   9  24
HETATM   24  C16 UNL     1      -4.458  -0.135  12.868  1.00  0.00     0.275 C 
HETATM   25  O4  UNL     1      -4.062  -1.046  12.112  1.00  0.00    -0.301 OA
ENDBRANCH   9  24
BRANCH  10  26
HETATM   26  O5  UNL     1      -4.826   0.888  10.118  1.00  0.00    -0.357 OA
ATOM     27  H5  UNL     1      -4.204   0.474   9.531  1.00  0.00     0.217 HD
ENDBRANCH  10  26
TORSDOF 6
ENDMDL
MODEL 3
REMARK VINA RESULT: -7.367118299      1.351      2.029
REMARK  6 active torsions:
REMARK  status: ('A' for Active; 'I' for Inactive)
REMARK    1  A    between atoms: C3_4  and  C4_5 
REMARK    2  A    between atoms: C4_5  and  C5_6 
REMARK    3  A    between atoms: C13_15  and  O3_16 
REMARK    4  A    between atoms: C15_18  and  C16_19 
REMARK    5  A    between atoms: C17_21  and  O5_22 
REMARK    6  A    between atoms: C18_24  and  O6_25 
ROOT
HETATM    1  C1  UNL     1      -3.810   2.402  11.325  1.00  0.00     0.052 C 
HETATM    2  C2  UNL     1      -4.306   3.156  12.201  1.00  0.00     0.081 A 
HETATM    3  O1  UNL     1      -4.547   4.442  12.044  1.00  0.00    -0.307 OA
HETATM    4  C3  UNL     1      -5.041   5.259  12.960  1.00  0.00     0.127 A 
HETATM    5  C11 UNL     1      -5.325   4.737  14.174  1.00  0.00     0.219 A 
HETATM    6  O2  UNL     1      -5.790   5.446  15.100  1.00  0.00    -0.284 OA
HETATM    7  C12 UNL     1      -5.108   3.373  14.448  1.00  0.00     0.067 A 
HETATM    8  C13 UNL     1      -5.380   2.790  15.664  1.00  0.00     0.099 A 
HETATM    9  C15 UNL     1      -5.136   1.421  15.863  1.00  0.00     0.072 A 
HETATM   10  C17 UNL     1      -4.634   0.602  14.890  1.00  0.00     0.116 A 
HETATM   11  C18 UNL     1      -4.367   1.225  13.659  1.00  0.00     0.114 A 
HETATM   12  C19 UNL     1      -4.596   2.587  13.446  1.00  0.00     0.050 A 
ENDROOT
BRANCH   4  13
HETATM   13  C4  UNL     1      -5.224   6.538  12.607  1.00  0.00     0.053 C 
BRANCH  13  14
HETATM   14  C5  UNL     1      -4.120   7.431  12.340  1.00  0.00    -0.034 A 
HETATM   15  C6  UNL     1      -4.273   8.347  11.303  1.00  0.00     0.011 A 
HETATM   16  C7  UNL     1      -3.232   9.212  11.062  1.00  0.00     0.001 A 
HETATM   17  C8  UNL     1      -2.071   9.175  11.830  1.00  0.00     0.000 A 
HETATM   18  C9  UNL     1      -1.984   8.227  12.864  1.00  0.00     0.001 A 
HETATM   19  C10 UNL     1      -2.997   7.347  13.129  1.00  0.00     0.011 A 
ENDBRANCH  13  14
ENDBRANCH   4  13
BRANCH   8  20
HETATM   20  O3  UNL     1      -5.882   3.566  16.688  1.00  0.00    -0.354 OA
HETATM   21  C14 UNL     1      -7.241   3.309  17.085  1.00  0.00     0.210 C 
ENDBRANCH   8  20
BRANCH  11  22
HETATM   22  O6  UNL     1      -3.877   0.483  12.665  1.00  0.00    -0.357 OA
ATOM     23  H6  UNL     1      -3.409   0.920  11.963  1.00  0.00     0.217 HD
ENDBRANCH  11  22
BRANCH   9  24
HETATM   24  C16 UNL     1      -5.460   0.891  17.216  1.00  0.00     0.275 C 
HETATM   25  O4  UNL     1      -5.993  -0.228  17.368  1.00  0.00    -0.301 OA
ENDBRANCH   9  24
BRANCH  10  26
HETATM   26  O5  UNL     1      -4.365  -0.743  15.008  1.00  0.00    -0.357 OA
ATOM     27  H5  UNL     1      -3.772  -1.251  14.468  1.00  0.00     0.217 HD
ENDBRANCH  10  26
TORSDOF 6
ENDMDL
MODEL 4
REMARK VINA RESULT: -7.327031687      2.508      6.778
REMARK  6 active torsions:
REMARK  status: ('A' for Active; 'I' for Inactive)
REMARK    1  A    between atoms: C3_4  and  C4_5 
REMARK    2  A    between atoms: C4_5  and  C5_6 
REMARK    3  A    between atoms: C13_15  and  O3_16 
REMARK    4  A    between atoms: C15_18  and  C16_19 
REMARK    5  A    between atoms: C17_21  and  O5_22 
REMARK    6  A    between atoms: C18_24  and  O6_25 
ROOT
HETATM    1  C1  UNL     1      -4.414   2.221  11.131  1.00  0.00     0.052 C 
HETATM    2  C2  UNL     1      -4.147   3.031  12.053  1.00  0.00     0.081 A 
HETATM    3  O1  UNL     1      -4.122   2.735  13.337  1.00  0.00    -0.307 OA
HETATM    4  C3  UNL     1      -3.870   3.578  14.326  1.00  0.00     0.127 A 
HETATM    5  C11 UNL     1      -3.619   4.865  14.000  1.00  0.00     0.219 A 
HETATM    6  O2  UNL     1      -3.379   5.729  14.879  1.00  0.00    -0.284 OA
HETATM    7  C12 UNL     1      -3.618   5.288  12.657  1.00  0.00     0.067 A 
HETATM    8  C13 UNL     1      -3.368   6.585  12.269  1.00  0.00     0.099 A 
HETATM    9  C15 UNL     1      -3.386   6.932  10.909  1.00  0.00     0.072 A 
HETATM   10  C17 UNL     1      -3.638   6.034   9.910  1.00  0.00     0.116 A 
HETATM   11  C18 UNL     1      -3.890   4.718  10.336  1.00  0.00     0.114 A 
HETATM   12  C19 UNL     1      -3.884   4.355  11.686  1.00  0.00     0.050 A 
ENDROOT
BRANCH   4  13
HETATM   13  C4  UNL     1      -3.882   3.084  15.571  1.00  0.00     0.053 C 
BRANCH  13  14
HETATM   14  C5  UNL     1      -5.034   2.409  16.123  1.00  0.00    -0.034 A 
HETATM   15  C6  UNL     1      -4.840   1.132  16.641  1.00  0.00     0.011 A 
HETATM   16  C7  UNL     1      -5.930   0.497  17.187  1.00  0.00     0.001 A 
HETATM   17  C8  UNL     1      -7.180   1.112  17.225  1.00  0.00     0.000 A 
HETATM   18  C9  UNL     1      -7.304   2.405  16.688  1.00  0.00     0.001 A 
HETATM   19  C10 UNL     1      -6.243   3.065  16.132  1.00  0.00     0.011 A 
ENDBRANCH  13  14
ENDBRANCH   4  13
BRANCH   8  20
HETATM   20  O3  UNL     1      -3.112   7.540  13.231  1.00  0.00    -0.354 OA
HETATM   21  C14 UNL     1      -1.742   7.949  13.386  1.00  0.00     0.210 C 
ENDBRANCH   8  20
BRANCH  11  22
HETATM   22  O6  UNL     1      -4.142   3.789   9.413  1.00  0.00    -0.357 OA
ATOM     23  H6  UNL     1      -4.637   3.020   9.670  1.00  0.00     0.217 HD
ENDBRANCH  11  22
BRANCH   9  24
HETATM   24  C16 UNL     1      -3.107   8.362  10.597  1.00  0.00     0.275 C 
HETATM   25  O4  UNL     1      -3.842   9.018   9.830  1.00  0.00    -0.301 OA
ENDBRANCH   9  24
BRANCH  10  26
HETATM   26  O5  UNL     1      -3.677   6.296   8.560  1.00  0.00    -0.357 OA
ATOM     27  H5  UNL     1      -4.230   6.932   8.122  1.00  0.00     0.217 HD
ENDBRANCH  10  26
TORSDOF 6
ENDMDL
MODEL 5
REMARK VINA RESULT: -7.294051219      1.169      3.147
REMARK  6 active torsions:
REMARK  status: ('A' for Active; 'I' for Inactive)
REMARK    1  A    between atoms: C3_4  and  C4_5 
REMARK    2  A    between atoms: C4_5  and  C5_6 
REMARK    3  A    between atoms: C13_15  and  O3_16 
REMARK    4  A    between atoms: C15_18  and  C16_19 
REMARK    5  A    between atoms: C17_21  and  O5_22 
REMARK    6  A    between atoms: C18_24  and  O6_25 
ROOT
HETATM    1  C1  UNL     1      -6.565   5.746  15.553  1.00  0.00     0.052 C 
HETATM    2  C2  UNL     1      -5.845   5.325  14.613  1.00  0.00     0.081 A 
HETATM    3  O1  UNL     1      -5.443   6.047  13.586  1.00  0.00    -0.307 OA
HETATM    4  C3  UNL     1      -4.708   5.617  12.572  1.00  0.00     0.127 A 
HETATM    5  C11 UNL     1      -4.333   4.319  12.580  1.00  0.00     0.219 A 
HETATM    6  O2  UNL     1      -3.641   3.831  11.652  1.00  0.00    -0.284 OA
HETATM    7  C12 UNL     1      -4.706   3.460  13.632  1.00  0.00     0.067 A 
HETATM    8  C13 UNL     1      -4.352   2.131  13.690  1.00  0.00     0.099 A 
HETATM    9  C15 UNL     1      -4.763   1.336  14.772  1.00  0.00     0.072 A 
HETATM   10  C17 UNL     1      -5.513   1.815  15.809  1.00  0.00     0.116 A 
HETATM   11  C18 UNL     1      -5.859   3.174  15.723  1.00  0.00     0.114 A 
HETATM   12  C19 UNL     1      -5.466   3.979  14.650  1.00  0.00     0.050 A 
ENDROOT
BRANCH   4  13
HETATM   13  C4  UNL     1      -4.392   6.507  11.623  1.00  0.00     0.053 C 
BRANCH  13  14
HETATM   14  C5  UNL     1      -5.394   7.164  10.816  1.00  0.00    -0.034 A 
HETATM   15  C6  UNL     1      -5.613   8.519  11.045  1.00  0.00     0.011 A 
HETATM   16  C7  UNL     1      -6.551   9.151  10.263  1.00  0.00     0.001 A 
HETATM   17  C8  UNL     1      -7.252   8.462   9.276  1.00  0.00     0.000 A 
HETATM   18  C9  UNL     1      -6.978   7.094   9.096  1.00  0.00     0.001 A 
HETATM   19  C10 UNL     1      -6.056   6.431   9.858  1.00  0.00     0.011 A 
ENDBRANCH  13  14
ENDBRANCH   4  13
BRANCH   8  20
HETATM   20  O3  UNL     1      -3.600   1.588  12.669  1.00  0.00    -0.354 OA
HETATM   21  C14 UNL     1      -4.286   0.712  11.757  1.00  0.00     0.210 C 
ENDBRANCH   8  20
BRANCH  11  22
HETATM   22  O6  UNL     1      -6.590   3.707  16.703  1.00  0.00    -0.357 OA
ATOM     23  H6  UNL     1      -7.535   3.628  16.657  1.00  0.00     0.217 HD
ENDBRANCH  11  22
BRANCH   9  24
HETATM   24  C16 UNL     1      -4.329  -0.088  14.736  1.00  0.00     0.275 C 
HETATM   25  O4  UNL     1      -4.707  -0.907  15.599  1.00  0.00    -0.301 OA
ENDBRANCH   9  24
BRANCH  10  26
HETATM   26  O5  UNL     1      -5.957   1.101  16.899  1.00  0.00    -0.357 OA
ATOM     27  H5  UNL     1      -6.287   0.211  16.897  1.00  0.00     0.217 HD
ENDBRANCH  10  26
TORSDOF 6
ENDMDL
