MODEL 1
REMARK VINA RESULT: -7.711596456      0.000      0.000
REMARK  4 active torsions:
REMARK  status: ('A' for Active; 'I' for Inactive)
REMARK    1  A    between atoms: O1_3  and  N1_4 
REMARK    2  A    between atoms: C3_6  and  C4_7 
REMARK    3  A    between atoms: C7_10  and  N2_11 
REMARK    4  A    between atoms: C14_26  and  N7_27 
ROOT
HETATM    1  C1  UNL     1      -5.999   1.878  17.628  1.00  0.00     0.047 C 
HETATM    2  C2  UNL     1      -5.072   1.461  16.978  1.00  0.00     0.073 C 
HETATM    3  O1  UNL     1      -3.997   0.992  16.253  1.00  0.00    -0.187 OA
ENDROOT
BRANCH   3   4
HETATM    4  N1  UNL     1      -4.173   0.050  15.328  1.00  0.00    -0.262 N 
HETATM    5  C3  UNL     1      -4.328   0.091  14.074  1.00  0.00     0.126 C 
ATOM      6  H1  UNL     1      -4.185  -0.895  15.708  1.00  0.00     0.194 HD
BRANCH   5   7
HETATM    7  C4  UNL     1      -4.368   1.236  13.189  1.00  0.00    -0.019 A 
HETATM    8  C5  UNL     1      -4.650   1.073  11.841  1.00  0.00     0.015 A 
HETATM    9  C6  UNL     1      -4.691   2.143  10.999  1.00  0.00     0.030 A 
HETATM   10  C7  UNL     1      -4.458   3.443  11.425  1.00  0.00     0.033 A 
HETATM   11  C17 UNL     1      -4.179   3.584  12.766  1.00  0.00     0.030 A 
HETATM   12  C18 UNL     1      -4.133   2.495  13.650  1.00  0.00     0.015 A 
BRANCH  10  13
HETATM   13  N2  UNL     1      -4.499   4.561  10.549  1.00  0.00    -0.342 N 
HETATM   14  C8  UNL     1      -3.362   5.070  10.152  1.00  0.00     0.123 A 
HETATM   15  N3  UNL     1      -2.185   4.554  10.557  1.00  0.00    -0.333 N 
HETATM   16  C16 UNL     1      -3.457   6.156   9.302  1.00  0.00     0.079 A 
HETATM   17  C9  UNL     1      -1.032   5.101  10.129  1.00  0.00     0.117 A 
ATOM     18  H3  UNL     1      -2.167   3.751  11.185  1.00  0.00     0.168 HD
HETATM   19  C10 UNL     1       0.237   4.544  10.564  1.00  0.00     0.117 C 
HETATM   20  C11 UNL     1      -1.071   6.187   9.279  1.00  0.00     0.071 A 
HETATM   21  N4  UNL     1       1.248   4.108  10.927  1.00  0.00    -0.190 NA
HETATM   22  C12 UNL     1      -2.278   6.719   8.862  1.00  0.00     0.053 A 
HETATM   23  N5  UNL     1      -2.344   7.780   8.032  1.00  0.00    -0.351 N 
HETATM   24  C13 UNL     1      -3.544   8.260   7.656  1.00  0.00     0.182 A 
ATOM     25  H5  UNL     1      -1.488   8.217   7.690  1.00  0.00     0.166 HD
HETATM   26  N6  UNL     1      -4.693   7.705   8.090  1.00  0.00    -0.338 N 
HETATM   27  C14 UNL     1      -4.701   6.645   8.918  1.00  0.00     0.118 A 
ATOM     28  H6  UNL     1      -5.581   8.100   7.781  1.00  0.00     0.168 HD
ATOM     29  H2  UNL     1      -5.388   4.954  10.239  1.00  0.00     0.167 HD
BRANCH  27  30
HETATM   30  N7  UNL     1      -5.790   6.100   9.345  1.00  0.00    -0.380 N 
HETATM   31  C15 UNL     1      -7.012   6.862   9.257  1.00  0.00     0.147 C 
ATOM     32  H7  UNL     1      -5.787   5.156   9.734  1.00  0.00     0.160 HD
ENDBRANCH  27  30
ENDBRANCH  10  13
ENDBRANCH   5   7
ENDBRANCH   3   4
TORSDOF 4
ENDMDL
MODEL 2
REMARK VINA RESULT: -7.459622888      1.686      1.802
REMARK  4 active torsions:
REMARK  status: ('A' for Active; 'I' for Inactive)
REMARK    1  A    between atoms: O1_3  and  N1_4 
REMARK    2  A    between atoms: C3_6  and  C4_7 
REMARK    3  A    between atoms: C7_10  and  N2_11 
REMARK    4  A    between atoms: C14_26  and  N7_27 
ROOT
HETATM    1  C1  UNL     1      -6.552   2.273  18.440  1.00  0.00     0.047 C 
HETATM    2  C2  UNL     1      -6.446   1.404  17.611  1.00  0.00     0.073 C 
HETATM    3  O1  UNL     1      -6.347   0.416  16.654  1.00  0.00    -0.187 OA
ENDROOT
BRANCH   3   4
HETATM    4  N1  UNL     1      -5.152   0.013  16.228  1.00  0.00    -0.262 N 
HETATM    5  C3  UNL     1      -4.304   0.515  15.436  1.00  0.00     0.126 C 
ATOM      6  H1  UNL     1      -4.861  -0.882  16.620  1.00  0.00     0.194 HD
BRANCH   5   7
HETATM    7  C4  UNL     1      -4.361   1.757  14.695  1.00  0.00    -0.019 A 
HETATM    8  C5  UNL     1      -4.595   1.748  13.327  1.00  0.00     0.015 A 
HETATM    9  C6  UNL     1      -4.652   2.910  12.619  1.00  0.00     0.030 A 
HETATM   10  C7  UNL     1      -4.483   4.156  13.205  1.00  0.00     0.033 A 
HETATM   11  C17 UNL     1      -4.251   4.143  14.563  1.00  0.00     0.030 A 
HETATM   12  C18 UNL     1      -4.189   2.958  15.311  1.00  0.00     0.015 A 
BRANCH  10  13
HETATM   13  N2  UNL     1      -4.541   5.370  12.468  1.00  0.00    -0.342 N 
HETATM   14  C8  UNL     1      -3.497   5.705  11.757  1.00  0.00     0.123 A 
HETATM   15  N3  UNL     1      -2.397   4.928  11.720  1.00  0.00    -0.333 N 
HETATM   16  C16 UNL     1      -3.603   6.895  11.061  1.00  0.00     0.079 A 
HETATM   17  C9  UNL     1      -1.339   5.301  10.977  1.00  0.00     0.117 A 
ATOM     18  H3  UNL     1      -2.366   4.059  12.252  1.00  0.00     0.168 HD
HETATM   19  C10 UNL     1      -0.153   4.463  10.936  1.00  0.00     0.117 C 
HETATM   20  C11 UNL     1      -1.393   6.480  10.262  1.00  0.00     0.071 A 
HETATM   21  N4  UNL     1       0.798   3.800  10.919  1.00  0.00    -0.190 NA
HETATM   22  C12 UNL     1      -2.521   7.280  10.299  1.00  0.00     0.053 A 
HETATM   23  N5  UNL     1      -2.601   8.437   9.610  1.00  0.00    -0.351 N 
HETATM   24  C13 UNL     1      -3.721   9.180   9.679  1.00  0.00     0.182 A 
ATOM     25  H5  UNL     1      -1.816   8.747   9.038  1.00  0.00     0.166 HD
HETATM   26  N6  UNL     1      -4.776   8.797  10.426  1.00  0.00    -0.338 N 
HETATM   27  C14 UNL     1      -4.765   7.656  11.137  1.00  0.00     0.118 A 
ATOM     28  H6  UNL     1      -5.605   9.389  10.451  1.00  0.00     0.168 HD
ATOM     29  H2  UNL     1      -5.372   5.961  12.493  1.00  0.00     0.167 HD
BRANCH  27  30
HETATM   30  N7  UNL     1      -5.764   7.272  11.859  1.00  0.00    -0.380 N 
HETATM   31  C15 UNL     1      -7.044   7.899  11.636  1.00  0.00     0.147 C 
ATOM     32  H7  UNL     1      -5.652   6.545  12.566  1.00  0.00     0.160 HD
ENDBRANCH  27  30
ENDBRANCH  10  13
ENDBRANCH   5   7
ENDBRANCH   3   4
TORSDOF 4
ENDMDL
MODEL 3
REMARK VINA RESULT: -6.955727590      1.609      1.915
REMARK  4 active torsions:
REMARK  status: ('A' for Active; 'I' for Inactive)
REMARK    1  A    between atoms: O1_3  and  N1_4 
REMARK    2  A    between atoms: C3_6  and  C4_7 
REMARK    3  A    between atoms: C7_10  and  N2_11 
REMARK    4  A    between atoms: C14_26  and  N7_27 
ROOT
HETATM    1  C1  UNL     1      -7.311   1.520  16.990  1.00  0.00     0.047 C 
HETATM    2  C2  UNL     1      -6.294   1.531  16.342  1.00  0.00     0.073 C 
HETATM    3  O1  UNL     1      -5.145   1.537  15.581  1.00  0.00    -0.187 OA
ENDROOT
BRANCH   3   4
HETATM    4  N1  UNL     1      -4.130   2.335  15.906  1.00  0.00    -0.262 N 
HETATM    5  C3  UNL     1      -3.574   3.307  15.319  1.00  0.00     0.126 C 
ATOM      6  H1  UNL     1      -3.716   2.118  16.812  1.00  0.00     0.194 HD
BRANCH   5   7
HETATM    7  C4  UNL     1      -3.877   3.899  14.033  1.00  0.00    -0.019 A 
HETATM    8  C5  UNL     1      -3.970   3.104  12.899  1.00  0.00     0.015 A 
HETATM    9  C6  UNL     1      -4.255   3.649  11.683  1.00  0.00     0.030 A 
HETATM   10  C7  UNL     1      -4.466   5.008  11.500  1.00  0.00     0.033 A 
HETATM   11  C17 UNL     1      -4.369   5.779  12.638  1.00  0.00     0.030 A 
HETATM   12  C18 UNL     1      -4.078   5.238  13.899  1.00  0.00     0.015 A 
BRANCH  10  13
HETATM   13  N2  UNL     1      -4.763   5.579  10.233  1.00  0.00    -0.342 N 
HETATM   14  C8  UNL     1      -3.793   5.673   9.362  1.00  0.00     0.123 A 
HETATM   15  N3  UNL     1      -2.549   5.243   9.651  1.00  0.00    -0.333 N 
HETATM   16  C16 UNL     1      -4.133   6.237   8.146  1.00  0.00     0.079 A 
HETATM   17  C9  UNL     1      -1.573   5.354   8.731  1.00  0.00     0.117 A 
ATOM     18  H3  UNL     1      -2.347   4.835  10.563  1.00  0.00     0.168 HD
HETATM   19  C10 UNL     1      -0.232   4.889   9.041  1.00  0.00     0.117 C 
HETATM   20  C11 UNL     1      -1.859   5.909   7.500  1.00  0.00     0.071 A 
HETATM   21  N4  UNL     1       0.841   4.533   9.299  1.00  0.00    -0.190 NA
HETATM   22  C12 UNL     1      -3.135   6.351   7.202  1.00  0.00     0.053 A 
HETATM   23  N5  UNL     1      -3.442   6.898   6.008  1.00  0.00    -0.351 N 
HETATM   24  C13 UNL     1      -4.699   7.313   5.766  1.00  0.00     0.182 A 
ATOM     25  H5  UNL     1      -2.725   6.995   5.290  1.00  0.00     0.166 HD
HETATM   26  N6  UNL     1      -5.670   7.198   6.694  1.00  0.00    -0.338 N 
HETATM   27  C14 UNL     1      -5.435   6.662   7.905  1.00  0.00     0.118 A 
ATOM     28  H6  UNL     1      -6.610   7.525   6.471  1.00  0.00     0.168 HD
ATOM     29  H2  UNL     1      -5.703   5.905  10.010  1.00  0.00     0.167 HD
BRANCH  27  30
HETATM   30  N7  UNL     1      -6.350   6.544   8.807  1.00  0.00    -0.380 N 
HETATM   31  C15 UNL     1      -7.692   6.954   8.472  1.00  0.00     0.147 C 
ATOM     32  H7  UNL     1      -6.132   6.170   9.731  1.00  0.00     0.160 HD
ENDBRANCH  27  30
ENDBRANCH  10  13
ENDBRANCH   5   7
ENDBRANCH   3   4
TORSDOF 4
ENDMDL
MODEL 4
REMARK VINA RESULT: -6.922447322      3.301      4.369
REMARK  4 active torsions:
REMARK  status: ('A' for Active; 'I' for Inactive)
REMARK    1  A    between atoms: O1_3  and  N1_4 
REMARK    2  A    between atoms: C3_6  and  C4_7 
REMARK    3  A    between atoms: C7_10  and  N2_11 
REMARK    4  A    between atoms: C14_26  and  N7_27 
ROOT
HETATM    1  C1  UNL     1      -4.330   0.414  12.110  1.00  0.00     0.047 C 
HETATM    2  C2  UNL     1      -4.266   0.406  13.314  1.00  0.00     0.073 C 
HETATM    3  O1  UNL     1      -4.168   0.394  14.689  1.00  0.00    -0.187 OA
ENDROOT
BRANCH   3   4
HETATM    4  N1  UNL     1      -5.110   0.970  15.433  1.00  0.00    -0.262 N 
HETATM    5  C3  UNL     1      -5.384   2.176  15.697  1.00  0.00     0.126 C 
ATOM      6  H1  UNL     1      -5.737   0.303  15.882  1.00  0.00     0.194 HD
BRANCH   5   7
HETATM    7  C4  UNL     1      -4.725   3.386  15.253  1.00  0.00    -0.019 A 
HETATM    8  C5  UNL     1      -5.471   4.494  14.877  1.00  0.00     0.015 A 
HETATM    9  C6  UNL     1      -4.862   5.639  14.458  1.00  0.00     0.030 A 
HETATM   10  C7  UNL     1      -3.484   5.770  14.378  1.00  0.00     0.033 A 
HETATM   11  C17 UNL     1      -2.762   4.659  14.754  1.00  0.00     0.030 A 
HETATM   12  C18 UNL     1      -3.368   3.471  15.190  1.00  0.00     0.015 A 
BRANCH  10  13
HETATM   13  N2  UNL     1      -2.846   6.963  13.940  1.00  0.00    -0.342 N 
HETATM   14  C8  UNL     1      -2.607   7.094  12.662  1.00  0.00     0.123 A 
HETATM   15  N3  UNL     1      -2.950   6.133  11.782  1.00  0.00    -0.333 N 
HETATM   16  C16 UNL     1      -1.984   8.271  12.288  1.00  0.00     0.079 A 
HETATM   17  C9  UNL     1      -2.689   6.300  10.473  1.00  0.00     0.117 A 
ATOM     18  H3  UNL     1      -3.407   5.282  12.108  1.00  0.00     0.168 HD
HETATM   19  C10 UNL     1      -3.061   5.264   9.524  1.00  0.00     0.117 C 
HETATM   20  C11 UNL     1      -2.070   7.457  10.046  1.00  0.00     0.071 A 
HETATM   21  N4  UNL     1      -3.343   4.428   8.773  1.00  0.00    -0.190 NA
HETATM   22  C12 UNL     1      -1.715   8.445  10.947  1.00  0.00     0.053 A 
HETATM   23  N5  UNL     1      -1.109   9.585  10.557  1.00  0.00    -0.351 N 
HETATM   24  C13 UNL     1      -0.784  10.516  11.473  1.00  0.00     0.182 A 
ATOM     25  H5  UNL     1      -0.898   9.741   9.572  1.00  0.00     0.166 HD
HETATM   26  N6  UNL     1      -1.050  10.340  12.782  1.00  0.00    -0.338 N 
HETATM   27  C14 UNL     1      -1.653   9.228  13.241  1.00  0.00     0.118 A 
ATOM     28  H6  UNL     1      -0.787  11.070  13.444  1.00  0.00     0.168 HD
ATOM     29  H2  UNL     1      -2.585   7.693  14.602  1.00  0.00     0.167 HD
BRANCH  27  30
HETATM   30  N7  UNL     1      -1.916   9.040  14.491  1.00  0.00    -0.380 N 
HETATM   31  C15 UNL     1      -0.947   9.483  15.463  1.00  0.00     0.147 C 
ATOM     32  H7  UNL     1      -2.784   8.590  14.782  1.00  0.00     0.160 HD
ENDBRANCH  27  30
ENDBRANCH  10  13
ENDBRANCH   5   7
ENDBRANCH   3   4
TORSDOF 4
ENDMDL
MODEL 5
REMARK VINA RESULT: -6.808603269      3.433      4.890
REMARK  4 active torsions:
REMARK  status: ('A' for Active; 'I' for Inactive)
REMARK    1  A    between atoms: O1_3  and  N1_4 
REMARK    2  A    between atoms: C3_6  and  C4_7 
REMARK    3  A    between atoms: C7_10  and  N2_11 
REMARK    4  A    between atoms: C14_26  and  N7_27 
ROOT
HETATM    1  C1  UNL     1      -4.332   0.368  12.188  1.00  0.00     0.047 C 
HETATM    2  C2  UNL     1      -4.292   0.374  13.393  1.00  0.00     0.073 C 
HETATM    3  O1  UNL     1      -4.222   0.379  14.770  1.00  0.00    -0.187 OA
ENDROOT
BRANCH   3   4
HETATM    4  N1  UNL     1      -5.183   0.958  15.488  1.00  0.00    -0.262 N 
HETATM    5  C3  UNL     1      -5.470   2.164  15.732  1.00  0.00     0.126 C 
ATOM      6  H1  UNL     1      -5.816   0.292  15.931  1.00  0.00     0.194 HD
BRANCH   5   7
HETATM    7  C4  UNL     1      -4.810   3.374  15.287  1.00  0.00    -0.019 A 
HETATM    8  C5  UNL     1      -5.547   4.520  15.026  1.00  0.00     0.015 A 
HETATM    9  C6  UNL     1      -4.937   5.664  14.608  1.00  0.00     0.030 A 
HETATM   10  C7  UNL     1      -3.566   5.758  14.417  1.00  0.00     0.033 A 
HETATM   11  C17 UNL     1      -2.853   4.609  14.681  1.00  0.00     0.030 A 
HETATM   12  C18 UNL     1      -3.462   3.421  15.113  1.00  0.00     0.015 A 
BRANCH  10  13
HETATM   13  N2  UNL     1      -2.927   6.950  13.980  1.00  0.00    -0.342 N 
HETATM   14  C8  UNL     1      -3.336   7.488  12.861  1.00  0.00     0.123 A 
HETATM   15  N3  UNL     1      -4.331   6.935  12.140  1.00  0.00    -0.333 N 
HETATM   16  C16 UNL     1      -2.682   8.645  12.480  1.00  0.00     0.079 A 
HETATM   17  C9  UNL     1      -4.727   7.514  10.993  1.00  0.00     0.117 A 
ATOM     18  H3  UNL     1      -4.782   6.080  12.463  1.00  0.00     0.168 HD
HETATM   19  C10 UNL     1      -5.801   6.918  10.216  1.00  0.00     0.117 C 
HETATM   20  C11 UNL     1      -4.108   8.671  10.566  1.00  0.00     0.071 A 
HETATM   21  N4  UNL     1      -6.646   6.431   9.590  1.00  0.00    -0.190 NA
HETATM   22  C12 UNL     1      -3.086   9.241  11.304  1.00  0.00     0.053 A 
HETATM   23  N5  UNL     1      -2.463  10.371  10.911  1.00  0.00    -0.351 N 
HETATM   24  C13 UNL     1      -1.474  10.886  11.665  1.00  0.00     0.182 A 
ATOM     25  H5  UNL     1      -2.741  10.834  10.046  1.00  0.00     0.166 HD
HETATM   26  N6  UNL     1      -1.084  10.298  12.813  1.00  0.00    -0.338 N 
HETATM   27  C14 UNL     1      -1.661   9.170  13.265  1.00  0.00     0.118 A 
ATOM     28  H6  UNL     1      -0.330  10.720  13.354  1.00  0.00     0.168 HD
ATOM     29  H2  UNL     1      -2.174   7.373  14.523  1.00  0.00     0.167 HD
BRANCH  27  30
HETATM   30  N7  UNL     1      -1.302   8.592  14.361  1.00  0.00    -0.380 N 
HETATM   31  C15 UNL     1      -0.957   9.424  15.488  1.00  0.00     0.147 C 
ATOM     32  H7  UNL     1      -1.262   7.574  14.430  1.00  0.00     0.160 HD
ENDBRANCH  27  30
ENDBRANCH  10  13
ENDBRANCH   5   7
ENDBRANCH   3   4
TORSDOF 4
ENDMDL
