MODEL 1
REMARK VINA RESULT: -7.372204196      0.000      0.000
REMARK  9 active torsions:
REMARK  status: ('A' for Active; 'I' for Inactive)
REMARK    1  A    between atoms: C2_2  and  O1_3 
REMARK    2  A    between atoms: O1_3  and  C3_4 
REMARK    3  A    between atoms: N1_6  and  O2_8 
REMARK    4  A    between atoms: O2_8  and  C5_9 
REMARK    5  A    between atoms: C5_9  and  C6_10 
REMARK    6  A    between atoms: C8_12  and  O3_13 
REMARK    7  A    between atoms: C8_12  and  C9_15 
REMARK    8  A    between atoms: C14_22  and  C15_23 
REMARK    9  A    between atoms: C15_23  and  O6_24 
ROOT
HETATM    1  C6  UNL     1      -2.918   0.340  11.289  1.00  0.00     0.156 C 
HETATM    2  C7  UNL     1      -3.396   1.652  10.701  1.00  0.00     0.106 C 
HETATM    3  C8  UNL     1      -1.874   1.766  10.543  1.00  0.00     0.198 C 
HETATM    4  O7  UNL     1      -1.787   1.032  11.726  1.00  0.00    -0.344 OA
ENDROOT
BRANCH   3   5
HETATM    5  O3  UNL     1      -1.410   1.021   9.487  1.00  0.00    -0.363 OA
ATOM      6  H3  UNL     1      -1.640   1.409   8.650  1.00  0.00     0.213 HD
ENDBRANCH   3   5
BRANCH   3   7
HETATM    7  C9  UNL     1      -1.367   3.183  10.642  1.00  0.00     0.145 C 
HETATM    8  C10 UNL     1      -0.182   3.335   9.764  1.00  0.00     0.055 C 
HETATM    9  O4  UNL     1      -0.953   3.383  11.967  1.00  0.00    -0.337 OA
HETATM   10  C11 UNL     1      -1.306   4.659  12.322  1.00  0.00     0.159 C 
HETATM   11  C12 UNL     1      -0.190   5.662  12.160  1.00  0.00     0.078 C 
HETATM   12  C13 UNL     1      -1.686   4.664  13.809  1.00  0.00     0.078 C 
HETATM   13  O5  UNL     1      -2.364   5.067  11.544  1.00  0.00    -0.345 OA
HETATM   14  C14 UNL     1      -2.435   4.191  10.474  1.00  0.00     0.188 C 
BRANCH  14  15
HETATM   15  C15 UNL     1      -2.383   4.969   9.196  1.00  0.00     0.199 C 
BRANCH  15  16
HETATM   16  O6  UNL     1      -3.329   4.576   8.272  1.00  0.00    -0.398 OA
ATOM     17  H6  UNL     1      -2.998   3.961   7.629  1.00  0.00     0.209 HD
ENDBRANCH  15  16
ENDBRANCH  14  15
ENDBRANCH   3   7
BRANCH   1  18
HETATM   18  C5  UNL     1      -3.766  -0.215  12.400  1.00  0.00     0.233 C 
BRANCH  18  19
HETATM   19  O2  UNL     1      -3.591   0.543  13.560  1.00  0.00    -0.276 OA
BRANCH  19  20
HETATM   20  N1  UNL     1      -4.126   0.209  14.777  1.00  0.00    -0.249 N 
HETATM   21  C3  UNL     1      -4.235   1.001  15.770  1.00  0.00     0.133 C 
HETATM   22  C4  UNL     1      -3.807   2.414  15.787  1.00  0.00     0.099 C 
ATOM     23  H1  UNL     1      -4.462  -0.747  14.898  1.00  0.00     0.196 HD
BRANCH  21  24
HETATM   24  O1  UNL     1      -4.805   0.491  16.934  1.00  0.00    -0.338 OA
BRANCH  24  25
HETATM   25  C2  UNL     1      -5.769   1.260  17.656  1.00  0.00     0.172 C 
HETATM   26  C1  UNL     1      -7.081   1.116  16.913  1.00  0.00     0.034 C 
ENDBRANCH  24  25
ENDBRANCH  21  24
ENDBRANCH  19  20
ENDBRANCH  18  19
ENDBRANCH   1  18
TORSDOF 9
ENDMDL
MODEL 2
REMARK VINA RESULT: -7.288416738      1.259      2.625
REMARK  9 active torsions:
REMARK  status: ('A' for Active; 'I' for Inactive)
REMARK    1  A    between atoms: C2_2  and  O1_3 
REMARK    2  A    between atoms: O1_3  and  C3_4 
REMARK    3  A    between atoms: N1_6  and  O2_8 
REMARK    4  A    between atoms: O2_8  and  C5_9 
REMARK    5  A    between atoms: C5_9  and  C6_10 
REMARK    6  A    between atoms: C8_12  and  O3_13 
REMARK    7  A    between atoms: C8_12  and  C9_15 
REMARK    8  A    between atoms: C14_22  and  C15_23 
REMARK    9  A    between atoms: C15_23  and  O6_24 
ROOT
HETATM    1  C6  UNL     1      -4.180   1.038  11.404  1.00  0.00     0.156 C 
HETATM    2  C7  UNL     1      -4.216   2.394  12.078  1.00  0.00     0.106 C 
HETATM    3  C8  UNL     1      -3.675   2.743  10.686  1.00  0.00     0.198 C 
HETATM    4  O7  UNL     1      -3.056   1.493  10.713  1.00  0.00    -0.344 OA
ENDROOT
BRANCH   3   5
HETATM    5  O3  UNL     1      -4.668   2.762   9.738  1.00  0.00    -0.363 OA
ATOM      6  H3  UNL     1      -4.316   2.772   8.855  1.00  0.00     0.213 HD
ENDBRANCH   3   5
BRANCH   3   7
HETATM    7  C9  UNL     1      -2.725   3.915  10.690  1.00  0.00     0.145 C 
HETATM    8  C10 UNL     1      -3.502   5.166  10.861  1.00  0.00     0.055 C 
HETATM    9  O4  UNL     1      -2.111   3.955   9.429  1.00  0.00    -0.337 OA
HETATM   10  C11 UNL     1      -0.803   4.314   9.618  1.00  0.00     0.159 C 
HETATM   11  C12 UNL     1      -0.547   5.790   9.434  1.00  0.00     0.078 C 
HETATM   12  C13 UNL     1       0.058   3.588   8.575  1.00  0.00     0.078 C 
HETATM   13  O5  UNL     1      -0.421   3.970  10.894  1.00  0.00    -0.345 OA
HETATM   14  C14 UNL     1      -1.582   3.728  11.608  1.00  0.00     0.188 C 
BRANCH  14  15
HETATM   15  C15 UNL     1      -1.596   4.592  12.830  1.00  0.00     0.199 C 
BRANCH  15  16
HETATM   16  O6  UNL     1      -0.980   4.014  13.921  1.00  0.00    -0.398 OA
ATOM     17  H6  UNL     1      -0.137   3.627  13.719  1.00  0.00     0.209 HD
ENDBRANCH  15  16
ENDBRANCH  14  15
ENDBRANCH   3   7
BRANCH   1  18
HETATM   18  C5  UNL     1      -3.910  -0.127  12.316  1.00  0.00     0.233 C 
BRANCH  18  19
HETATM   19  O2  UNL     1      -3.435   0.329  13.548  1.00  0.00    -0.276 OA
BRANCH  19  20
HETATM   20  N1  UNL     1      -4.037   0.051  14.748  1.00  0.00    -0.249 N 
HETATM   21  C3  UNL     1      -4.175   0.881  15.705  1.00  0.00     0.133 C 
HETATM   22  C4  UNL     1      -3.713   2.284  15.694  1.00  0.00     0.099 C 
ATOM     23  H1  UNL     1      -4.402  -0.891  14.885  1.00  0.00     0.196 HD
BRANCH  21  24
HETATM   24  O1  UNL     1      -4.814   0.428  16.857  1.00  0.00    -0.338 OA
BRANCH  24  25
HETATM   25  C2  UNL     1      -5.708   1.286  17.566  1.00  0.00     0.172 C 
HETATM   26  C1  UNL     1      -7.058   1.159  16.891  1.00  0.00     0.034 C 
ENDBRANCH  24  25
ENDBRANCH  21  24
ENDBRANCH  19  20
ENDBRANCH  18  19
ENDBRANCH   1  18
TORSDOF 9
ENDMDL
MODEL 3
REMARK VINA RESULT: -7.179916174      1.353      1.621
REMARK  9 active torsions:
REMARK  status: ('A' for Active; 'I' for Inactive)
REMARK    1  A    between atoms: C2_2  and  O1_3 
REMARK    2  A    between atoms: O1_3  and  C3_4 
REMARK    3  A    between atoms: N1_6  and  O2_8 
REMARK    4  A    between atoms: O2_8  and  C5_9 
REMARK    5  A    between atoms: C5_9  and  C6_10 
REMARK    6  A    between atoms: C8_12  and  O3_13 
REMARK    7  A    between atoms: C8_12  and  C9_15 
REMARK    8  A    between atoms: C14_22  and  C15_23 
REMARK    9  A    between atoms: C15_23  and  O6_24 
ROOT
HETATM    1  C6  UNL     1      -4.178   0.959  11.460  1.00  0.00     0.156 C 
HETATM    2  C7  UNL     1      -4.548   2.259  12.143  1.00  0.00     0.106 C 
HETATM    3  C8  UNL     1      -3.827   2.754  10.882  1.00  0.00     0.198 C 
HETATM    4  O7  UNL     1      -3.034   1.612  10.998  1.00  0.00    -0.344 OA
ENDROOT
BRANCH   3   5
HETATM    5  O3  UNL     1      -4.624   2.667   9.767  1.00  0.00    -0.363 OA
ATOM      6  H3  UNL     1      -4.224   3.084   9.012  1.00  0.00     0.213 HD
ENDBRANCH   3   5
BRANCH   3   7
HETATM    7  C9  UNL     1      -3.092   4.054  11.085  1.00  0.00     0.145 C 
HETATM    8  C10 UNL     1      -1.801   3.999  10.357  1.00  0.00     0.055 C 
HETATM    9  O4  UNL     1      -2.811   4.163  12.455  1.00  0.00    -0.337 OA
HETATM   10  C11 UNL     1      -2.971   5.477  12.807  1.00  0.00     0.159 C 
HETATM   11  C12 UNL     1      -1.684   6.264  12.809  1.00  0.00     0.078 C 
HETATM   12  C13 UNL     1      -3.521   5.536  14.239  1.00  0.00     0.078 C 
HETATM   13  O5  UNL     1      -3.838   6.078  11.924  1.00  0.00    -0.345 OA
HETATM   14  C14 UNL     1      -3.935   5.240  10.826  1.00  0.00     0.188 C 
BRANCH  14  15
HETATM   15  C15 UNL     1      -3.592   6.010   9.589  1.00  0.00     0.199 C 
BRANCH  15  16
HETATM   16  O6  UNL     1      -4.226   5.544   8.456  1.00  0.00    -0.398 OA
ATOM     17  H6  UNL     1      -3.938   5.970   7.657  1.00  0.00     0.209 HD
ENDBRANCH  15  16
ENDBRANCH  14  15
ENDBRANCH   3   7
BRANCH   1  18
HETATM   18  C5  UNL     1      -3.896  -0.195  12.383  1.00  0.00     0.233 C 
BRANCH  18  19
HETATM   19  O2  UNL     1      -3.445   0.278  13.617  1.00  0.00    -0.276 OA
BRANCH  19  20
HETATM   20  N1  UNL     1      -4.062   0.007  14.810  1.00  0.00    -0.249 N 
HETATM   21  C3  UNL     1      -4.196   0.835  15.769  1.00  0.00     0.133 C 
HETATM   22  C4  UNL     1      -3.713   2.230  15.767  1.00  0.00     0.099 C 
ATOM     23  H1  UNL     1      -4.444  -0.931  14.941  1.00  0.00     0.196 HD
BRANCH  21  24
HETATM   24  O1  UNL     1      -4.853   0.388  16.914  1.00  0.00    -0.338 OA
BRANCH  24  25
HETATM   25  C2  UNL     1      -5.747   1.255  17.612  1.00  0.00     0.172 C 
HETATM   26  C1  UNL     1      -7.080   1.171  16.896  1.00  0.00     0.034 C 
ENDBRANCH  24  25
ENDBRANCH  21  24
ENDBRANCH  19  20
ENDBRANCH  18  19
ENDBRANCH   1  18
TORSDOF 9
ENDMDL
MODEL 4
REMARK VINA RESULT: -7.169013473      1.434      1.636
REMARK  9 active torsions:
REMARK  status: ('A' for Active; 'I' for Inactive)
REMARK    1  A    between atoms: C2_2  and  O1_3 
REMARK    2  A    between atoms: O1_3  and  C3_4 
REMARK    3  A    between atoms: N1_6  and  O2_8 
REMARK    4  A    between atoms: O2_8  and  C5_9 
REMARK    5  A    between atoms: C5_9  and  C6_10 
REMARK    6  A    between atoms: C8_12  and  O3_13 
REMARK    7  A    between atoms: C8_12  and  C9_15 
REMARK    8  A    between atoms: C14_22  and  C15_23 
REMARK    9  A    between atoms: C15_23  and  O6_24 
ROOT
HETATM    1  C6  UNL     1      -3.281   0.845  11.512  1.00  0.00     0.156 C 
HETATM    2  C7  UNL     1      -4.119   1.869  10.775  1.00  0.00     0.106 C 
HETATM    3  C8  UNL     1      -2.745   2.550  10.816  1.00  0.00     0.198 C 
HETATM    4  O7  UNL     1      -2.571   1.920  12.049  1.00  0.00    -0.344 OA
ENDROOT
BRANCH   3   5
HETATM    5  O3  UNL     1      -1.882   2.024   9.887  1.00  0.00    -0.363 OA
ATOM      6  H3  UNL     1      -1.394   2.701   9.432  1.00  0.00     0.213 HD
ENDBRANCH   3   5
BRANCH   3   7
HETATM    7  C9  UNL     1      -2.825   4.055  10.885  1.00  0.00     0.145 C 
HETATM    8  C10 UNL     1      -1.480   4.623  10.628  1.00  0.00     0.055 C 
HETATM    9  O4  UNL     1      -3.195   4.391  12.195  1.00  0.00    -0.337 OA
HETATM   10  C11 UNL     1      -4.055   5.455  12.122  1.00  0.00     0.159 C 
HETATM   11  C12 UNL     1      -3.383   6.792  12.310  1.00  0.00     0.078 C 
HETATM   12  C13 UNL     1      -5.090   5.324  13.248  1.00  0.00     0.078 C 
HETATM   13  O5  UNL     1      -4.668   5.454  10.890  1.00  0.00    -0.345 OA
HETATM   14  C14 UNL     1      -3.931   4.610  10.077  1.00  0.00     0.188 C 
BRANCH  14  15
HETATM   15  C15 UNL     1      -3.512   5.355   8.848  1.00  0.00     0.199 C 
BRANCH  15  16
HETATM   16  O6  UNL     1      -3.446   4.564   7.719  1.00  0.00    -0.398 OA
ATOM     17  H6  UNL     1      -2.587   4.554   7.313  1.00  0.00     0.209 HD
ENDBRANCH  15  16
ENDBRANCH  14  15
ENDBRANCH   3   7
BRANCH   1  18
HETATM   18  C5  UNL     1      -4.018   0.024  12.533  1.00  0.00     0.233 C 
BRANCH  18  19
HETATM   19  O2  UNL     1      -3.377   0.111  13.771  1.00  0.00    -0.276 OA
BRANCH  19  20
HETATM   20  N1  UNL     1      -4.018  -0.031  14.974  1.00  0.00    -0.249 N 
HETATM   21  C3  UNL     1      -4.207   0.907  15.816  1.00  0.00     0.133 C 
HETATM   22  C4  UNL     1      -3.771   2.307  15.648  1.00  0.00     0.099 C 
ATOM     23  H1  UNL     1      -4.372  -0.957  15.214  1.00  0.00     0.196 HD
BRANCH  21  24
HETATM   24  O1  UNL     1      -4.881   0.584  16.992  1.00  0.00    -0.338 OA
BRANCH  24  25
HETATM   25  C2  UNL     1      -5.850   1.483  17.532  1.00  0.00     0.172 C 
HETATM   26  C1  UNL     1      -7.152   1.200  16.811  1.00  0.00     0.034 C 
ENDBRANCH  24  25
ENDBRANCH  21  24
ENDBRANCH  19  20
ENDBRANCH  18  19
ENDBRANCH   1  18
TORSDOF 9
ENDMDL
MODEL 5
REMARK VINA RESULT: -7.021407401      1.054      2.475
REMARK  9 active torsions:
REMARK  status: ('A' for Active; 'I' for Inactive)
REMARK    1  A    between atoms: C2_2  and  O1_3 
REMARK    2  A    between atoms: O1_3  and  C3_4 
REMARK    3  A    between atoms: N1_6  and  O2_8 
REMARK    4  A    between atoms: O2_8  and  C5_9 
REMARK    5  A    between atoms: C5_9  and  C6_10 
REMARK    6  A    between atoms: C8_12  and  O3_13 
REMARK    7  A    between atoms: C8_12  and  C9_15 
REMARK    8  A    between atoms: C14_22  and  C15_23 
REMARK    9  A    between atoms: C15_23  and  O6_24 
ROOT
HETATM    1  C6  UNL     1      -2.805   0.326  11.365  1.00  0.00     0.156 C 
HETATM    2  C7  UNL     1      -3.532   1.325  10.489  1.00  0.00     0.106 C 
HETATM    3  C8  UNL     1      -2.120   1.921  10.550  1.00  0.00     0.198 C 
HETATM    4  O7  UNL     1      -2.054   1.401  11.843  1.00  0.00    -0.344 OA
ENDROOT
BRANCH   3   5
HETATM    5  O3  UNL     1      -1.245   1.256   9.726  1.00  0.00    -0.363 OA
ATOM      6  H3  UNL     1      -0.476   1.778   9.528  1.00  0.00     0.213 HD
ENDBRANCH   3   5
BRANCH   3   7
HETATM    7  C9  UNL     1      -2.102   3.427  10.475  1.00  0.00     0.145 C 
HETATM    8  C10 UNL     1      -3.381   3.953  11.010  1.00  0.00     0.055 C 
HETATM    9  O4  UNL     1      -2.024   3.774   9.118  1.00  0.00    -0.337 OA
HETATM   10  C11 UNL     1      -1.200   4.863   9.016  1.00  0.00     0.159 C 
HETATM   11  C12 UNL     1      -1.938   6.179   8.980  1.00  0.00     0.078 C 
HETATM   12  C13 UNL     1      -0.420   4.764   7.698  1.00  0.00     0.078 C 
HETATM   13  O5  UNL     1      -0.343   4.883  10.092  1.00  0.00    -0.345 OA
HETATM   14  C14 UNL     1      -0.869   4.017  11.037  1.00  0.00     0.188 C 
BRANCH  14  15
HETATM   15  C15 UNL     1      -1.044   4.750  12.331  1.00  0.00     0.199 C 
BRANCH  15  16
HETATM   16  O6  UNL     1      -0.898   3.947  13.443  1.00  0.00    -0.398 OA
ATOM     17  H6  UNL     1      -0.654   3.052  13.236  1.00  0.00     0.209 HD
ENDBRANCH  15  16
ENDBRANCH  14  15
ENDBRANCH   3   7
BRANCH   1  18
HETATM   18  C5  UNL     1      -3.650  -0.346  12.412  1.00  0.00     0.233 C 
BRANCH  18  19
HETATM   19  O2  UNL     1      -4.124   0.599  13.325  1.00  0.00    -0.276 OA
BRANCH  19  20
HETATM   20  N1  UNL     1      -4.359   0.331  14.648  1.00  0.00    -0.249 N 
HETATM   21  C3  UNL     1      -4.228   1.170  15.599  1.00  0.00     0.133 C 
HETATM   22  C4  UNL     1      -3.802   2.575  15.446  1.00  0.00     0.099 C 
ATOM     23  H1  UNL     1      -4.662  -0.613  14.891  1.00  0.00     0.196 HD
BRANCH  21  24
HETATM   24  O1  UNL     1      -4.512   0.724  16.888  1.00  0.00    -0.338 OA
BRANCH  24  25
HETATM   25  C2  UNL     1      -5.554   1.339  17.646  1.00  0.00     0.172 C 
HETATM   26  C1  UNL     1      -6.848   1.053  16.912  1.00  0.00     0.034 C 
ENDBRANCH  24  25
ENDBRANCH  21  24
ENDBRANCH  19  20
ENDBRANCH  18  19
ENDBRANCH   1  18
TORSDOF 9
ENDMDL
