MODEL 1
REMARK VINA RESULT: -5.828147258      0.000      0.000
REMARK  1 active torsions:
REMARK  status: ('A' for Active; 'I' for Inactive)
REMARK    1  A    between atoms: N1_7  and  O1_9 
ROOT
HETATM    1  C1  UNL     1     -27.453 -17.224  10.475  1.00  0.00     0.017 C 
HETATM    2  C2  UNL     1     -28.914 -16.819  10.401  1.00  0.00    -0.025 C 
HETATM    3  C3  UNL     1     -28.988 -15.289  10.318  1.00  0.00     0.017 C 
HETATM    4  C4  UNL     1     -29.623 -17.201  11.684  1.00  0.00     0.019 C 
HETATM    5  C5  UNL     1     -29.785 -18.727  11.705  1.00  0.00     0.087 C 
HETATM    6  C6  UNL     1     -30.760 -19.024  10.623  1.00  0.00     0.137 C 
HETATM    7  N1  UNL     1     -31.533 -20.040  10.689  1.00  0.00    -0.251 N 
ATOM      8  H1  UNL     1     -32.188 -20.210   9.926  1.00  0.00     0.196 HD
HETATM    9  O2  UNL     1     -30.774 -18.141   9.554  1.00  0.00    -0.337 OA
HETATM   10  C7  UNL     1     -29.610 -17.401   9.215  1.00  0.00     0.185 C 
ENDROOT
BRANCH   7  11
HETATM   11  O1  UNL     1     -31.514 -20.909  11.750  1.00  0.00    -0.288 OA
ATOM     12  H1  UNL     1     -32.261 -21.025  12.326  1.00  0.00     0.244 HD
ENDBRANCH   7  11
TORSDOF 1
ENDMDL
MODEL 2
REMARK VINA RESULT: -5.658710928      1.281      2.057
REMARK  1 active torsions:
REMARK  status: ('A' for Active; 'I' for Inactive)
REMARK    1  A    between atoms: N1_7  and  O1_9 
ROOT
HETATM    1  C1  UNL     1     -29.244 -15.910  10.059  1.00  0.00     0.017 C 
HETATM    2  C2  UNL     1     -28.516 -17.208  10.359  1.00  0.00    -0.025 C 
HETATM    3  C3  UNL     1     -27.026 -17.009  10.050  1.00  0.00     0.017 C 
HETATM    4  C4  UNL     1     -28.992 -18.299   9.423  1.00  0.00     0.019 C 
HETATM    5  C5  UNL     1     -30.412 -18.704   9.843  1.00  0.00     0.087 C 
HETATM    6  C6  UNL     1     -30.245 -19.372  11.161  1.00  0.00     0.137 C 
HETATM    7  N1  UNL     1     -31.052 -20.286  11.546  1.00  0.00    -0.251 N 
ATOM      8  H1  UNL     1     -30.905 -20.721  12.457  1.00  0.00     0.196 HD
HETATM    9  O2  UNL     1     -29.175 -18.945  11.931  1.00  0.00    -0.337 OA
HETATM   10  C7  UNL     1     -28.661 -17.629  11.784  1.00  0.00     0.185 C 
ENDROOT
BRANCH   7  11
HETATM   11  O1  UNL     1     -32.109 -20.705  10.777  1.00  0.00    -0.288 OA
ATOM     12  H1  UNL     1     -31.988 -21.141   9.942  1.00  0.00     0.244 HD
ENDBRANCH   7  11
TORSDOF 1
ENDMDL
MODEL 3
REMARK VINA RESULT: -5.414504937      1.427      2.439
REMARK  1 active torsions:
REMARK  status: ('A' for Active; 'I' for Inactive)
REMARK    1  A    between atoms: N1_7  and  O1_9 
ROOT
HETATM    1  C1  UNL     1     -28.643 -15.165  10.505  1.00  0.00     0.017 C 
HETATM    2  C2  UNL     1     -28.527 -16.648  10.811  1.00  0.00    -0.025 C 
HETATM    3  C3  UNL     1     -27.165 -16.900  11.471  1.00  0.00     0.017 C 
HETATM    4  C4  UNL     1     -28.518 -17.444   9.523  1.00  0.00     0.019 C 
HETATM    5  C5  UNL     1     -29.936 -17.419   8.935  1.00  0.00     0.087 C 
HETATM    6  C6  UNL     1     -30.756 -18.221   9.879  1.00  0.00     0.137 C 
HETATM    7  N1  UNL     1     -31.785 -18.867   9.478  1.00  0.00    -0.251 N 
ATOM      8  H1  UNL     1     -32.323 -19.406  10.157  1.00  0.00     0.196 HD
HETATM    9  O2  UNL     1     -30.340 -18.224  11.201  1.00  0.00    -0.337 OA
HETATM   10  C7  UNL     1     -29.603 -17.129  11.726  1.00  0.00     0.185 C 
ENDROOT
BRANCH   7  11
HETATM   11  O1  UNL     1     -32.191 -18.860   8.168  1.00  0.00    -0.288 OA
ATOM     12  H1  UNL     1     -31.735 -19.346   7.492  1.00  0.00     0.244 HD
ENDBRANCH   7  11
TORSDOF 1
ENDMDL
MODEL 4
REMARK VINA RESULT: -5.307894077      0.984      1.051
REMARK  1 active torsions:
REMARK  status: ('A' for Active; 'I' for Inactive)
REMARK    1  A    between atoms: N1_7  and  O1_9 
ROOT
HETATM    1  C1  UNL     1     -27.083 -16.686  11.888  1.00  0.00     0.017 C 
HETATM    2  C2  UNL     1     -28.225 -16.514  10.903  1.00  0.00    -0.025 C 
HETATM    3  C3  UNL     1     -28.177 -15.083  10.353  1.00  0.00     0.017 C 
HETATM    4  C4  UNL     1     -29.553 -16.639  11.620  1.00  0.00     0.019 C 
HETATM    5  C5  UNL     1     -29.760 -18.114  11.991  1.00  0.00     0.087 C 
HETATM    6  C6  UNL     1     -29.957 -18.810  10.692  1.00  0.00     0.137 C 
HETATM    7  N1  UNL     1     -30.671 -19.868  10.610  1.00  0.00    -0.251 N 
ATOM      8  H1  UNL     1     -30.782 -20.317   9.701  1.00  0.00     0.196 HD
HETATM    9  O2  UNL     1     -29.325 -18.247   9.595  1.00  0.00    -0.337 OA
HETATM   10  C7  UNL     1     -28.146 -17.473   9.761  1.00  0.00     0.185 C 
ENDROOT
BRANCH   7  11
HETATM   11  O1  UNL     1     -31.295 -20.419  11.701  1.00  0.00    -0.288 OA
ATOM     12  H1  UNL     1     -31.858 -21.180  11.633  1.00  0.00     0.244 HD
ENDBRANCH   7  11
TORSDOF 1
ENDMDL
MODEL 5
REMARK VINA RESULT: -5.214054165      2.997      4.090
REMARK  1 active torsions:
REMARK  status: ('A' for Active; 'I' for Inactive)
REMARK    1  A    between atoms: N1_7  and  O1_9 
ROOT
HETATM    1  C1  UNL     1     -27.715 -13.917  12.408  1.00  0.00     0.017 C 
HETATM    2  C2  UNL     1     -28.064 -15.385  12.568  1.00  0.00    -0.025 C 
HETATM    3  C3  UNL     1     -28.477 -15.629  14.025  1.00  0.00     0.017 C 
HETATM    4  C4  UNL     1     -26.835 -16.239  12.335  1.00  0.00     0.019 C 
HETATM    5  C5  UNL     1     -26.514 -16.218  10.834  1.00  0.00     0.087 C 
HETATM    6  C6  UNL     1     -27.629 -16.965  10.194  1.00  0.00     0.137 C 
HETATM    7  N1  UNL     1     -27.453 -17.611   9.105  1.00  0.00    -0.251 N 
ATOM      8  H1  UNL     1     -28.242 -18.111   8.696  1.00  0.00     0.196 HD
HETATM    9  O2  UNL     1     -28.851 -16.914  10.845  1.00  0.00    -0.337 OA
HETATM   10  C7  UNL     1     -29.182 -15.809  11.673  1.00  0.00     0.185 C 
ENDROOT
BRANCH   7  11
HETATM   11  O1  UNL     1     -26.239 -17.657   8.467  1.00  0.00    -0.288 OA
ATOM     12  H1  UNL     1     -26.002 -17.046   7.780  1.00  0.00     0.244 HD
ENDBRANCH   7  11
TORSDOF 1
ENDMDL
