MODEL 1
REMARK VINA RESULT: -4.229371657      0.000      0.000
REMARK  1 active torsions:
REMARK  status: ('A' for Active; 'I' for Inactive)
REMARK    1  A    between atoms: N1_8  and  O1_9 
ROOT
HETATM    1  C1  UNL     1     -29.266 -15.465  11.931  1.00  0.00     0.052 C 
HETATM    2  C2  UNL     1     -28.620 -16.461  10.983  1.00  0.00     0.099 C 
HETATM    3  C3  UNL     1     -27.204 -16.122  10.615  1.00  0.00     0.052 C 
HETATM    4  S1  UNL     1     -28.686 -18.187  11.588  1.00  0.00    -0.104 SA
HETATM    5  C4  UNL     1     -29.641 -18.241  10.063  1.00  0.00     0.099 C 
HETATM    6  C5  UNL     1     -28.997 -18.959   8.912  1.00  0.00     0.052 C 
HETATM    7  C6  UNL     1     -31.042 -18.710  10.339  1.00  0.00     0.052 C 
HETATM    8  N1  UNL     1     -29.506 -16.827   9.947  1.00  0.00    -0.258 N 
ENDROOT
BRANCH   8   9
HETATM    9  O1  UNL     1     -29.415 -16.280   8.760  1.00  0.00    -0.289 OA
ATOM     10  H1  UNL     1     -29.985 -16.554   8.051  1.00  0.00     0.244 HD
ENDBRANCH   8   9
TORSDOF 1
ENDMDL
MODEL 2
REMARK VINA RESULT: -4.214216744      1.836      3.389
REMARK  1 active torsions:
REMARK  status: ('A' for Active; 'I' for Inactive)
REMARK    1  A    between atoms: N1_8  and  O1_9 
ROOT
HETATM    1  C1  UNL     1     -29.388 -18.803  10.716  1.00  0.00     0.052 C 
HETATM    2  C2  UNL     1     -28.980 -17.430  10.210  1.00  0.00     0.099 C 
HETATM    3  C3  UNL     1     -29.657 -17.026   8.931  1.00  0.00     0.052 C 
HETATM    4  S1  UNL     1     -29.202 -16.104  11.451  1.00  0.00    -0.104 SA
HETATM    5  C4  UNL     1     -27.428 -16.100  11.145  1.00  0.00     0.099 C 
HETATM    6  C5  UNL     1     -26.896 -14.921  10.383  1.00  0.00     0.052 C 
HETATM    7  C6  UNL     1     -26.676 -16.362  12.421  1.00  0.00     0.052 C 
HETATM    8  N1  UNL     1     -27.585 -17.244  10.310  1.00  0.00    -0.258 N 
ENDROOT
BRANCH   8   9
HETATM    9  O1  UNL     1     -26.809 -17.394   9.264  1.00  0.00    -0.289 OA
ATOM     10  H1  UNL     1     -26.639 -18.257   8.903  1.00  0.00     0.244 HD
ENDBRANCH   8   9
TORSDOF 1
ENDMDL
MODEL 3
REMARK VINA RESULT: -4.179466037      1.921      3.552
REMARK  1 active torsions:
REMARK  status: ('A' for Active; 'I' for Inactive)
REMARK    1  A    between atoms: N1_8  and  O1_9 
ROOT
HETATM    1  C1  UNL     1     -29.892 -17.511   9.331  1.00  0.00     0.052 C 
HETATM    2  C2  UNL     1     -29.061 -17.351  10.592  1.00  0.00     0.099 C 
HETATM    3  C3  UNL     1     -29.117 -18.536  11.514  1.00  0.00     0.052 C 
HETATM    4  S1  UNL     1     -27.310 -16.933  10.261  1.00  0.00    -0.104 SA
HETATM    5  C4  UNL     1     -27.915 -15.507  11.179  1.00  0.00     0.099 C 
HETATM    6  C5  UNL     1     -27.398 -15.363  12.581  1.00  0.00     0.052 C 
HETATM    7  C6  UNL     1     -27.758 -14.254  10.363  1.00  0.00     0.052 C 
HETATM    8  N1  UNL     1     -29.226 -16.066  11.152  1.00  0.00    -0.258 N 
ENDROOT
BRANCH   8   9
HETATM    9  O1  UNL     1     -30.033 -15.873  12.167  1.00  0.00    -0.289 OA
ATOM     10  H1  UNL     1     -29.736 -15.420  12.947  1.00  0.00     0.244 HD
ENDBRANCH   8   9
TORSDOF 1
ENDMDL
MODEL 4
REMARK VINA RESULT: -3.964331015      1.639      2.175
REMARK  1 active torsions:
REMARK  status: ('A' for Active; 'I' for Inactive)
REMARK    1  A    between atoms: N1_8  and  O1_9 
ROOT
HETATM    1  C1  UNL     1     -29.929 -13.981  12.343  1.00  0.00     0.052 C 
HETATM    2  C2  UNL     1     -28.662 -14.705  11.921  1.00  0.00     0.099 C 
HETATM    3  C3  UNL     1     -27.396 -13.999  12.316  1.00  0.00     0.052 C 
HETATM    4  S1  UNL     1     -28.588 -16.439  12.502  1.00  0.00    -0.104 SA
HETATM    5  C4  UNL     1     -28.579 -16.597  10.708  1.00  0.00     0.099 C 
HETATM    6  C5  UNL     1     -27.281 -17.036  10.095  1.00  0.00     0.052 C 
HETATM    7  C6  UNL     1     -29.753 -17.417  10.249  1.00  0.00     0.052 C 
HETATM    8  N1  UNL     1     -28.767 -15.189  10.599  1.00  0.00    -0.258 N 
ENDROOT
BRANCH   8   9
HETATM    9  O1  UNL     1     -28.224 -14.538   9.599  1.00  0.00    -0.289 OA
ATOM     10  H1  UNL     1     -27.315 -14.680   9.361  1.00  0.00     0.244 HD
ENDBRANCH   8   9
TORSDOF 1
ENDMDL
MODEL 5
REMARK VINA RESULT: -3.938643853      2.330      3.945
REMARK  1 active torsions:
REMARK  status: ('A' for Active; 'I' for Inactive)
REMARK    1  A    between atoms: N1_8  and  O1_9 
ROOT
HETATM    1  C1  UNL     1     -29.252 -16.899   9.521  1.00  0.00     0.052 C 
HETATM    2  C2  UNL     1     -28.586 -16.505  10.829  1.00  0.00     0.099 C 
HETATM    3  C3  UNL     1     -28.319 -17.662  11.750  1.00  0.00     0.052 C 
HETATM    4  S1  UNL     1     -27.041 -15.552  10.600  1.00  0.00    -0.104 SA
HETATM    5  C4  UNL     1     -28.115 -14.404  11.476  1.00  0.00     0.099 C 
HETATM    6  C5  UNL     1     -27.751 -14.126  12.906  1.00  0.00     0.052 C 
HETATM    7  C6  UNL     1     -28.315 -13.153  10.667  1.00  0.00     0.052 C 
HETATM    8  N1  UNL     1     -29.179 -15.346  11.374  1.00  0.00    -0.258 N 
ENDROOT
BRANCH   8   9
HETATM    9  O1  UNL     1     -30.063 -15.433  12.339  1.00  0.00    -0.289 OA
ATOM     10  H1  UNL     1     -29.828 -15.798  13.184  1.00  0.00     0.244 HD
ENDBRANCH   8   9
TORSDOF 1
ENDMDL
