MODEL 1
REMARK VINA RESULT: -4.242332992      0.000      0.000
REMARK  1 active torsions:
REMARK  status: ('A' for Active; 'I' for Inactive)
REMARK    1  A    between atoms: C2_2  and  O1_3 
ROOT
HETATM    1  C1  UNL     1      -0.173 -23.351  -5.755  1.00  0.00     0.081 C 
HETATM    2  C2  UNL     1       1.127 -22.664  -5.391  1.00  0.00     0.179 A 
HETATM    3  C3  UNL     1       2.045 -22.218  -6.405  1.00  0.00     0.239 A 
HETATM    4  O2  UNL     1       2.321 -23.521  -5.704  1.00  0.00    -0.348 OA
ENDROOT
BRANCH   2   5
HETATM    5  O1  UNL     1       1.281 -22.192  -4.107  1.00  0.00    -0.364 OA
ATOM      6  H1  UNL     1       1.636 -21.319  -3.986  1.00  0.00     0.213 HD
ENDBRANCH   2   5
TORSDOF 1
ENDMDL
MODEL 2
REMARK VINA RESULT: -3.970729884      1.110      2.070
REMARK  1 active torsions:
REMARK  status: ('A' for Active; 'I' for Inactive)
REMARK    1  A    between atoms: C2_2  and  O1_3 
ROOT
HETATM    1  C1  UNL     1       2.106 -22.263  -6.555  1.00  0.00     0.081 C 
HETATM    2  C2  UNL     1       1.128 -22.708  -5.487  1.00  0.00     0.179 A 
HETATM    3  C3  UNL     1       0.249 -23.827  -5.698  1.00  0.00     0.239 A 
HETATM    4  O2  UNL     1      -0.296 -22.437  -5.882  1.00  0.00    -0.348 OA
ENDROOT
BRANCH   2   5
HETATM    5  O1  UNL     1       1.299 -22.237  -4.204  1.00  0.00    -0.364 OA
ATOM      6  H1  UNL     1       0.766 -21.506  -3.916  1.00  0.00     0.213 HD
ENDBRANCH   2   5
TORSDOF 1
ENDMDL
MODEL 3
REMARK VINA RESULT: -3.537085823      2.715      3.312
REMARK  1 active torsions:
REMARK  status: ('A' for Active; 'I' for Inactive)
REMARK    1  A    between atoms: C2_2  and  O1_3 
ROOT
HETATM    1  C1  UNL     1      -2.191 -24.459  -4.558  1.00  0.00     0.081 C 
HETATM    2  C2  UNL     1      -1.214 -24.045  -5.639  1.00  0.00     0.179 A 
HETATM    3  C3  UNL     1      -1.533 -23.000  -6.575  1.00  0.00     0.239 A 
HETATM    4  O2  UNL     1      -1.696 -24.432  -7.009  1.00  0.00    -0.348 OA
ENDROOT
BRANCH   2   5
HETATM    5  O1  UNL     1       0.097 -24.454  -5.530  1.00  0.00    -0.364 OA
ATOM      6  H1  UNL     1       0.570 -24.246  -4.733  1.00  0.00     0.213 HD
ENDBRANCH   2   5
TORSDOF 1
ENDMDL
MODEL 4
REMARK VINA RESULT: -3.453378931      5.221      5.735
REMARK  1 active torsions:
REMARK  status: ('A' for Active; 'I' for Inactive)
REMARK    1  A    between atoms: C2_2  and  O1_3 
ROOT
HETATM    1  C1  UNL     1      -4.431 -23.885  -3.279  1.00  0.00     0.081 C 
HETATM    2  C2  UNL     1      -3.295 -24.875  -3.438  1.00  0.00     0.179 A 
HETATM    3  C3  UNL     1      -3.004 -25.480  -4.710  1.00  0.00     0.239 A 
HETATM    4  O2  UNL     1      -3.797 -26.266  -3.702  1.00  0.00    -0.348 OA
ENDROOT
BRANCH   2   5
HETATM    5  O1  UNL     1      -2.353 -24.957  -2.438  1.00  0.00    -0.364 OA
ATOM      6  H1  UNL     1      -2.488 -25.586  -1.739  1.00  0.00     0.213 HD
ENDBRANCH   2   5
TORSDOF 1
ENDMDL
MODEL 5
REMARK VINA RESULT: -3.310193944      2.650      3.334
REMARK  1 active torsions:
REMARK  status: ('A' for Active; 'I' for Inactive)
REMARK    1  A    between atoms: C2_2  and  O1_3 
ROOT
HETATM    1  C1  UNL     1       0.587 -23.411  -5.614  1.00  0.00     0.081 C 
HETATM    2  C2  UNL     1      -0.910 -23.417  -5.847  1.00  0.00     0.179 A 
HETATM    3  C3  UNL     1      -1.786 -24.237  -5.053  1.00  0.00     0.239 A 
HETATM    4  O2  UNL     1      -1.384 -24.723  -6.419  1.00  0.00    -0.348 OA
ENDROOT
BRANCH   2   5
HETATM    5  O1  UNL     1      -1.459 -22.408  -6.605  1.00  0.00    -0.364 OA
ATOM      6  H1  UNL     1      -1.508 -21.536  -6.230  1.00  0.00     0.213 HD
ENDBRANCH   2   5
TORSDOF 1
ENDMDL
