MODEL 1
REMARK VINA RESULT: -7.206297530      0.000      0.000
REMARK  5 active torsions:
REMARK  status: ('A' for Active; 'I' for Inactive)
REMARK    1  A    between atoms: O1_2  and  C2_3 
REMARK    2  A    between atoms: C2_3  and  C3_5 
REMARK    3  A    between atoms: C4_12  and  C5_13 
REMARK    4  A    between atoms: C6_16  and  N5_17 
REMARK    5  A    between atoms: C7_22  and  N7_23 
ROOT
HETATM    1  C5  UNL     1      26.076   3.115  32.443  1.00  0.00     0.167 A 
HETATM    2  N4  UNL     1      26.229   3.001  33.755  1.00  0.00    -0.173 N 
ATOM      3  H4  UNL     1      25.485   3.379  34.340  1.00  0.00     0.186 HD
HETATM    4  C6  UNL     1      27.262   2.439  34.383  1.00  0.00     0.692 A 
HETATM    5  N6  UNL     1      28.233   1.946  33.578  1.00  0.00    -0.023 N 
ATOM      6  H6  UNL     1      29.054   1.503  33.990  1.00  0.00     0.203 HD
HETATM    7  C7  UNL     1      28.124   2.037  32.245  1.00  0.00     0.692 A 
HETATM    8  N8  UNL     1      27.072   2.608  31.663  1.00  0.00    -0.173 N 
ATOM      9  H8  UNL     1      27.012   2.665  30.646  1.00  0.00     0.186 HD
ENDROOT
BRANCH   1  10
HETATM   10  C4  UNL     1      24.963   3.722  31.743  1.00  0.00     0.129 A 
HETATM   11  C3  UNL     1      23.924   4.422  32.284  1.00  0.00     0.157 A 
HETATM   12  N1  UNL     1      23.150   4.778  31.218  1.00  0.00    -0.279 N 
HETATM   13  N2  UNL     1      23.681   4.326  30.113  1.00  0.00    -0.241 N 
ATOM     14  H1  UNL     1      22.286   5.317  31.275  1.00  0.00     0.189 HD
HETATM   15  N3  UNL     1      24.775   3.684  30.383  1.00  0.00    -0.280 N 
ATOM     16  H2  UNL     1      23.294   4.459  29.179  1.00  0.00     0.208 HD
ATOM     17  H3  UNL     1      25.388   3.230  29.706  1.00  0.00     0.188 HD
BRANCH  11  18
HETATM   18  C2  UNL     1      23.564   4.796  33.634  1.00  0.00     0.313 C 
HETATM   19  O2  UNL     1      22.943   4.126  34.470  1.00  0.00    -0.257 OA
BRANCH  18  20
HETATM   20  O1  UNL     1      23.932   6.075  34.135  1.00  0.00    -0.321 OA
HETATM   21  C1  UNL     1      25.253   6.545  33.991  1.00  0.00     0.213 C 
ENDBRANCH  18  20
ENDBRANCH  11  18
ENDBRANCH   1  10
BRANCH   4  22
HETATM   22  N5  UNL     1      27.334   2.368  35.669  1.00  0.00    -0.234 N 
ATOM     23  H52 UNL     1      26.504   2.345  36.259  1.00  0.00     0.174 HD
ATOM     24  H51 UNL     1      28.225   2.331  36.166  1.00  0.00     0.174 HD
ENDBRANCH   4  22
BRANCH   7  25
HETATM   25  N7  UNL     1      29.047   1.569  31.458  1.00  0.00    -0.234 N 
ATOM     26  H72 UNL     1      29.749   2.231  31.128  1.00  0.00     0.174 HD
ATOM     27  H71 UNL     1      29.065   0.586  31.185  1.00  0.00     0.174 HD
ENDBRANCH   7  25
TORSDOF 5
ENDMDL
MODEL 2
REMARK VINA RESULT: -7.206133906      2.323      3.504
REMARK  5 active torsions:
REMARK  status: ('A' for Active; 'I' for Inactive)
REMARK    1  A    between atoms: O1_2  and  C2_3 
REMARK    2  A    between atoms: C2_3  and  C3_5 
REMARK    3  A    between atoms: C4_12  and  C5_13 
REMARK    4  A    between atoms: C6_16  and  N5_17 
REMARK    5  A    between atoms: C7_22  and  N7_23 
ROOT
HETATM    1  C5  UNL     1      26.176   4.100  33.693  1.00  0.00     0.167 A 
HETATM    2  N4  UNL     1      27.184   3.590  32.998  1.00  0.00    -0.173 N 
ATOM      3  H4  UNL     1      27.814   4.252  32.546  1.00  0.00     0.186 HD
HETATM    4  C6  UNL     1      27.455   2.295  32.835  1.00  0.00     0.692 A 
HETATM    5  N6  UNL     1      26.601   1.442  33.448  1.00  0.00    -0.023 N 
ATOM      6  H6  UNL     1      26.747   0.436  33.365  1.00  0.00     0.203 HD
HETATM    7  C7  UNL     1      25.567   1.908  34.162  1.00  0.00     0.692 A 
HETATM    8  N8  UNL     1      25.337   3.212  34.297  1.00  0.00    -0.173 N 
ATOM      9  H8  UNL     1      24.544   3.543  34.846  1.00  0.00     0.186 HD
ENDROOT
BRANCH   1  10
HETATM   10  C4  UNL     1      25.867   5.502  33.881  1.00  0.00     0.129 A 
HETATM   11  C3  UNL     1      24.864   6.217  33.296  1.00  0.00     0.157 A 
HETATM   12  N1  UNL     1      24.996   7.480  33.797  1.00  0.00    -0.279 N 
HETATM   13  N2  UNL     1      26.006   7.525  34.625  1.00  0.00    -0.241 N 
ATOM     14  H1  UNL     1      24.397   8.270  33.560  1.00  0.00     0.189 HD
HETATM   15  N3  UNL     1      26.560   6.355  34.706  1.00  0.00    -0.280 N 
ATOM     16  H2  UNL     1      26.313   8.355  35.132  1.00  0.00     0.208 HD
ATOM     17  H3  UNL     1      27.366   6.111  35.281  1.00  0.00     0.188 HD
BRANCH  11  18
HETATM   18  C2  UNL     1      23.819   5.888  32.350  1.00  0.00     0.313 C 
HETATM   19  O2  UNL     1      22.594   5.981  32.506  1.00  0.00    -0.257 OA
BRANCH  18  20
HETATM   20  O1  UNL     1      24.162   5.390  31.064  1.00  0.00    -0.321 OA
HETATM   21  C1  UNL     1      23.979   4.027  30.753  1.00  0.00     0.213 C 
ENDBRANCH  18  20
ENDBRANCH  11  18
ENDBRANCH   1  10
BRANCH   4  22
HETATM   22  N5  UNL     1      28.459   1.881  32.140  1.00  0.00    -0.234 N 
ATOM     23  H52 UNL     1      28.815   2.398  31.337  1.00  0.00     0.174 HD
ATOM     24  H51 UNL     1      28.954   1.015  32.355  1.00  0.00     0.174 HD
ENDBRANCH   4  22
BRANCH   7  25
HETATM   25  N7  UNL     1      24.738   1.102  34.758  1.00  0.00    -0.234 N 
ATOM     26  H72 UNL     1      24.666   1.185  35.772  1.00  0.00     0.174 HD
ATOM     27  H71 UNL     1      24.188   0.422  34.232  1.00  0.00     0.174 HD
ENDBRANCH   7  25
TORSDOF 5
ENDMDL
MODEL 3
REMARK VINA RESULT: -7.159090967      2.642      4.769
REMARK  5 active torsions:
REMARK  status: ('A' for Active; 'I' for Inactive)
REMARK    1  A    between atoms: O1_2  and  C2_3 
REMARK    2  A    between atoms: C2_3  and  C3_5 
REMARK    3  A    between atoms: C4_12  and  C5_13 
REMARK    4  A    between atoms: C6_16  and  N5_17 
REMARK    5  A    between atoms: C7_22  and  N7_23 
ROOT
HETATM    1  C5  UNL     1      26.047   5.246  33.670  1.00  0.00     0.167 A 
HETATM    2  N4  UNL     1      26.588   6.155  34.471  1.00  0.00    -0.173 N 
ATOM      3  H4  UNL     1      27.543   5.984  34.782  1.00  0.00     0.186 HD
HETATM    4  C6  UNL     1      26.002   7.270  34.908  1.00  0.00     0.692 A 
HETATM    5  N6  UNL     1      24.734   7.467  34.477  1.00  0.00    -0.023 N 
ATOM      6  H6  UNL     1      24.224   8.299  34.773  1.00  0.00     0.203 HD
HETATM    7  C7  UNL     1      24.144   6.578  33.666  1.00  0.00     0.692 A 
HETATM    8  N8  UNL     1      24.770   5.478  33.255  1.00  0.00    -0.173 N 
ATOM      9  H8  UNL     1      24.300   4.816  32.637  1.00  0.00     0.186 HD
ENDROOT
BRANCH   1  10
HETATM   10  C4  UNL     1      26.667   4.031  33.185  1.00  0.00     0.129 A 
HETATM   11  C3  UNL     1      26.049   2.868  32.830  1.00  0.00     0.157 A 
HETATM   12  N1  UNL     1      27.061   2.037  32.445  1.00  0.00    -0.279 N 
HETATM   13  N2  UNL     1      28.208   2.653  32.560  1.00  0.00    -0.241 N 
ATOM     14  H1  UNL     1      26.940   1.079  32.118  1.00  0.00     0.189 HD
HETATM   15  N3  UNL     1      28.017   3.857  33.002  1.00  0.00    -0.280 N 
ATOM     16  H2  UNL     1      29.117   2.247  32.335  1.00  0.00     0.208 HD
ATOM     17  H3  UNL     1      28.742   4.552  33.182  1.00  0.00     0.188 HD
BRANCH  11  18
HETATM   18  C2  UNL     1      24.669   2.436  32.802  1.00  0.00     0.313 C 
HETATM   19  O2  UNL     1      23.788   2.752  31.990  1.00  0.00    -0.257 OA
BRANCH  18  20
HETATM   20  O1  UNL     1      24.189   1.539  33.794  1.00  0.00    -0.321 OA
HETATM   21  C1  UNL     1      24.586   1.682  35.140  1.00  0.00     0.213 C 
ENDBRANCH  18  20
ENDBRANCH  11  18
ENDBRANCH   1  10
BRANCH   4  22
HETATM   22  N5  UNL     1      26.600   8.104  35.689  1.00  0.00    -0.234 N 
ATOM     23  H52 UNL     1      26.140   8.512  36.503  1.00  0.00     0.174 HD
ATOM     24  H51 UNL     1      27.564   8.401  35.537  1.00  0.00     0.174 HD
ENDBRANCH   4  22
BRANCH   7  25
HETATM   25  N7  UNL     1      22.927   6.753  33.242  1.00  0.00    -0.234 N 
ATOM     26  H72 UNL     1      22.673   6.288  32.370  1.00  0.00     0.174 HD
ATOM     27  H71 UNL     1      22.261   7.326  33.760  1.00  0.00     0.174 HD
ENDBRANCH   7  25
TORSDOF 5
ENDMDL
MODEL 4
REMARK VINA RESULT: -7.154997238      2.625      4.852
REMARK  5 active torsions:
REMARK  status: ('A' for Active; 'I' for Inactive)
REMARK    1  A    between atoms: O1_2  and  C2_3 
REMARK    2  A    between atoms: C2_3  and  C3_5 
REMARK    3  A    between atoms: C4_12  and  C5_13 
REMARK    4  A    between atoms: C6_16  and  N5_17 
REMARK    5  A    between atoms: C7_22  and  N7_23 
ROOT
HETATM    1  C5  UNL     1      25.883   5.297  33.688  1.00  0.00     0.167 A 
HETATM    2  N4  UNL     1      24.631   5.632  33.407  1.00  0.00    -0.173 N 
ATOM      3  H4  UNL     1      24.101   4.985  32.825  1.00  0.00     0.186 HD
HETATM    4  C6  UNL     1      23.999   6.734  33.813  1.00  0.00     0.692 A 
HETATM    5  N6  UNL     1      24.730   7.572  34.584  1.00  0.00    -0.023 N 
ATOM      6  H6  UNL     1      24.311   8.435  34.930  1.00  0.00     0.203 HD
HETATM    7  C7  UNL     1      26.000   7.278  34.896  1.00  0.00     0.692 A 
HETATM    8  N8  UNL     1      26.589   6.164  34.467  1.00  0.00    -0.173 N 
ATOM      9  H8  UNL     1      27.557   5.962  34.718  1.00  0.00     0.186 HD
ENDROOT
BRANCH   1  10
HETATM   10  C4  UNL     1      26.586   4.107  33.257  1.00  0.00     0.129 A 
HETATM   11  C3  UNL     1      26.043   2.922  32.855  1.00  0.00     0.157 A 
HETATM   12  N1  UNL     1      27.114   2.131  32.555  1.00  0.00    -0.279 N 
HETATM   13  N2  UNL     1      28.224   2.789  32.761  1.00  0.00    -0.241 N 
ATOM     14  H1  UNL     1      27.057   1.169  32.221  1.00  0.00     0.189 HD
HETATM   15  N3  UNL     1      27.952   3.985  33.184  1.00  0.00    -0.280 N 
ATOM     16  H2  UNL     1      29.162   2.419  32.611  1.00  0.00     0.208 HD
ATOM     17  H3  UNL     1      28.632   4.707  33.421  1.00  0.00     0.188 HD
BRANCH  11  18
HETATM   18  C2  UNL     1      24.687   2.437  32.716  1.00  0.00     0.313 C 
HETATM   19  O2  UNL     1      24.173   1.446  33.252  1.00  0.00    -0.257 OA
BRANCH  18  20
HETATM   20  O1  UNL     1      23.772   3.130  31.876  1.00  0.00    -0.321 OA
HETATM   21  C1  UNL     1      24.158   3.540  30.584  1.00  0.00     0.213 C 
ENDBRANCH  18  20
ENDBRANCH  11  18
ENDBRANCH   1  10
BRANCH   4  22
HETATM   22  N5  UNL     1      22.775   6.986  33.494  1.00  0.00    -0.234 N 
ATOM     23  H52 UNL     1      22.528   7.700  32.809  1.00  0.00     0.174 HD
ATOM     24  H51 UNL     1      21.987   6.485  33.906  1.00  0.00     0.174 HD
ENDBRANCH   4  22
BRANCH   7  25
HETATM   25  N7  UNL     1      26.717   8.072  35.636  1.00  0.00    -0.234 N 
ATOM     26  H72 UNL     1      26.575   9.074  35.506  1.00  0.00     0.174 HD
ATOM     27  H71 UNL     1      27.386   7.707  36.314  1.00  0.00     0.174 HD
ENDBRANCH   7  25
TORSDOF 5
ENDMDL
MODEL 5
REMARK VINA RESULT: -7.144525871      2.292      3.417
REMARK  5 active torsions:
REMARK  status: ('A' for Active; 'I' for Inactive)
REMARK    1  A    between atoms: O1_2  and  C2_3 
REMARK    2  A    between atoms: C2_3  and  C3_5 
REMARK    3  A    between atoms: C4_12  and  C5_13 
REMARK    4  A    between atoms: C6_16  and  N5_17 
REMARK    5  A    between atoms: C7_22  and  N7_23 
ROOT
HETATM    1  C5  UNL     1      25.948   4.100  33.664  1.00  0.00     0.167 A 
HETATM    2  N4  UNL     1      26.944   3.624  32.930  1.00  0.00    -0.173 N 
ATOM      3  H4  UNL     1      27.538   4.307  32.462  1.00  0.00     0.186 HD
HETATM    4  C6  UNL     1      27.243   2.338  32.744  1.00  0.00     0.692 A 
HETATM    5  N6  UNL     1      26.436   1.457  33.379  1.00  0.00    -0.023 N 
ATOM      6  H6  UNL     1      26.605   0.456  33.281  1.00  0.00     0.203 HD
HETATM    7  C7  UNL     1      25.416   1.888  34.134  1.00  0.00     0.692 A 
HETATM    8  N8  UNL     1      25.155   3.184  34.289  1.00  0.00    -0.173 N 
ATOM      9  H8  UNL     1      24.373   3.488  34.869  1.00  0.00     0.186 HD
ENDROOT
BRANCH   1  10
HETATM   10  C4  UNL     1      25.608   5.492  33.877  1.00  0.00     0.129 A 
HETATM   11  C3  UNL     1      24.378   6.072  33.768  1.00  0.00     0.157 A 
HETATM   12  N1  UNL     1      24.585   7.387  34.066  1.00  0.00    -0.279 N 
HETATM   13  N2  UNL     1      25.848   7.589  34.335  1.00  0.00    -0.241 N 
ATOM     14  H1  UNL     1      23.862   8.107  34.076  1.00  0.00     0.189 HD
HETATM   15  N3  UNL     1      26.501   6.472  34.234  1.00  0.00    -0.280 N 
ATOM     16  H2  UNL     1      26.258   8.488  34.587  1.00  0.00     0.208 HD
ATOM     17  H3  UNL     1      27.501   6.345  34.391  1.00  0.00     0.188 HD
BRANCH  11  18
HETATM   18  C2  UNL     1      23.062   5.575  33.431  1.00  0.00     0.313 C 
HETATM   19  O2  UNL     1      22.415   5.776  32.394  1.00  0.00    -0.257 OA
BRANCH  18  20
HETATM   20  O1  UNL     1      22.362   4.748  34.351  1.00  0.00    -0.321 OA
HETATM   21  C1  UNL     1      21.098   5.135  34.841  1.00  0.00     0.213 C 
ENDBRANCH  18  20
ENDBRANCH  11  18
ENDBRANCH   1  10
BRANCH   4  22
HETATM   22  N5  UNL     1      28.233   1.958  32.010  1.00  0.00    -0.234 N 
ATOM     23  H52 UNL     1      28.150   1.848  31.000  1.00  0.00     0.174 HD
ATOM     24  H51 UNL     1      29.153   1.747  32.398  1.00  0.00     0.174 HD
ENDBRANCH   4  22
BRANCH   7  25
HETATM   25  N7  UNL     1      24.630   1.055  34.751  1.00  0.00    -0.234 N 
ATOM     26  H72 UNL     1      24.771   0.949  35.755  1.00  0.00     0.174 HD
ATOM     27  H71 UNL     1      23.909   0.535  34.250  1.00  0.00     0.174 HD
ENDBRANCH   7  25
TORSDOF 5
ENDMDL
