MODEL 1
REMARK VINA RESULT: -6.464349404      0.000      0.000
REMARK  9 active torsions:
REMARK  status: ('A' for Active; 'I' for Inactive)
REMARK    1  A    between atoms: C2_3  and  C3_4 
REMARK    2  A    between atoms: C3_4  and  O2_5 
REMARK    3  A    between atoms: C4_7  and  N1_8 
REMARK    4  A    between atoms: C5_9  and  C6_10 
REMARK    5  A    between atoms: C6_10  and  O3_11 
REMARK    6  A    between atoms: C6_10  and  N2_13 
REMARK    7  A    between atoms: N3_16  and  C9_17 
REMARK    8  A    between atoms: C9_17  and  C10_18 
REMARK    9  A    between atoms: C10_18  and  O4_19 
ROOT
HETATM    1  N1  UNL     1      -2.321   5.116  12.274  1.00  0.00    -0.318 N 
HETATM    2  C5  UNL     1      -3.292   5.768  12.888  1.00  0.00     0.069 A 
HETATM    3  C13 UNL     1      -2.967   6.958  13.478  1.00  0.00     0.082 A 
HETATM    4  S1  UNL     1      -1.303   7.102  13.139  1.00  0.00    -0.070 SA
HETATM    5  C14 UNL     1      -1.110   5.650  12.268  1.00  0.00     0.146 A 
HETATM    6  S2  UNL     1       0.269   5.045  11.564  1.00  0.00    -0.052 SA
ENDROOT
BRANCH   2   7
HETATM    7  C6  UNL     1      -4.731   5.272  12.967  1.00  0.00     0.271 C 
BRANCH   7   8
HETATM    8  O3  UNL     1      -5.596   6.371  12.893  1.00  0.00    -0.371 OA
ATOM      9  H3  UNL     1      -6.382   6.113  12.427  1.00  0.00     0.212 HD
ENDBRANCH   7   8
BRANCH   7  10
HETATM   10  N2  UNL     1      -4.980   4.621  14.205  1.00  0.00    -0.356 N 
HETATM   11  C7  UNL     1      -6.239   3.991  14.375  1.00  0.00     0.145 C 
HETATM   12  C8  UNL     1      -6.406   3.773  15.890  1.00  0.00     0.142 C 
HETATM   13  N3  UNL     1      -5.470   2.779  16.249  1.00  0.00    -0.385 N 
HETATM   14  C11 UNL     1      -4.193   2.808  15.663  1.00  0.00     0.102 C 
HETATM   15  C12 UNL     1      -3.876   4.000  14.819  1.00  0.00     0.105 C 
BRANCH  13  16
HETATM   16  C9  UNL     1      -5.607   2.175  17.527  1.00  0.00     0.148 C 
BRANCH  16  17
HETATM   17  C10 UNL     1      -6.553   0.981  17.377  1.00  0.00     0.183 C 
BRANCH  17  18
HETATM   18  O4  UNL     1      -5.778  -0.124  17.043  1.00  0.00    -0.399 OA
ATOM     19  H4  UNL     1      -6.364  -0.788  16.696  1.00  0.00     0.209 HD
ENDBRANCH  17  18
ENDBRANCH  16  17
ENDBRANCH  13  16
ENDBRANCH   7  10
ENDBRANCH   2   7
BRANCH   1  20
HETATM   20  C4  UNL     1      -2.546   3.806  11.601  1.00  0.00     0.174 A 
HETATM   21  C1  UNL     1      -2.505   3.717  10.155  1.00  0.00     0.159 A 
HETATM   22  O1  UNL     1      -1.937   3.723   9.084  1.00  0.00    -0.295 OA
HETATM   23  C2  UNL     1      -3.806   3.586  10.843  1.00  0.00     0.112 A 
BRANCH  23  24
HETATM   24  C3  UNL     1      -4.481   2.230  10.948  1.00  0.00     0.179 C 
BRANCH  24  25
HETATM   25  O2  UNL     1      -5.860   2.416  11.021  1.00  0.00    -0.400 OA
ATOM     26  H2  UNL     1      -6.078   2.763  11.877  1.00  0.00     0.209 HD
ENDBRANCH  24  25
ENDBRANCH  23  24
ENDBRANCH   1  20
TORSDOF 9
ENDMDL
MODEL 2
REMARK VINA RESULT: -6.256124415      1.180      1.218
REMARK  9 active torsions:
REMARK  status: ('A' for Active; 'I' for Inactive)
REMARK    1  A    between atoms: C2_3  and  C3_4 
REMARK    2  A    between atoms: C3_4  and  O2_5 
REMARK    3  A    between atoms: C4_7  and  N1_8 
REMARK    4  A    between atoms: C5_9  and  C6_10 
REMARK    5  A    between atoms: C6_10  and  O3_11 
REMARK    6  A    between atoms: C6_10  and  N2_13 
REMARK    7  A    between atoms: N3_16  and  C9_17 
REMARK    8  A    between atoms: C9_17  and  C10_18 
REMARK    9  A    between atoms: C10_18  and  O4_19 
ROOT
HETATM    1  N1  UNL     1      -1.566   4.892  11.981  1.00  0.00    -0.318 N 
HETATM    2  C5  UNL     1      -2.744   5.224  12.478  1.00  0.00     0.069 A 
HETATM    3  C13 UNL     1      -2.848   6.453  13.068  1.00  0.00     0.082 A 
HETATM    4  S1  UNL     1      -1.274   7.085  12.895  1.00  0.00    -0.070 SA
HETATM    5  C14 UNL     1      -0.573   5.761  12.085  1.00  0.00     0.146 A 
HETATM    6  S2  UNL     1       0.989   5.596  11.538  1.00  0.00    -0.052 SA
ENDROOT
BRANCH   2   7
HETATM    7  C6  UNL     1      -3.973   4.324  12.423  1.00  0.00     0.271 C 
BRANCH   7   8
HETATM    8  O3  UNL     1      -5.020   5.020  11.806  1.00  0.00    -0.371 OA
ATOM      9  H3  UNL     1      -5.833   4.809  12.249  1.00  0.00     0.212 HD
ENDBRANCH   7   8
BRANCH   7  10
HETATM   10  N2  UNL     1      -4.409   3.974  13.729  1.00  0.00    -0.356 N 
HETATM   11  C7  UNL     1      -5.788   3.694  13.909  1.00  0.00     0.145 C 
HETATM   12  C8  UNL     1      -6.047   3.787  15.424  1.00  0.00     0.142 C 
HETATM   13  N3  UNL     1      -5.390   2.682  16.005  1.00  0.00    -0.385 N 
HETATM   14  C11 UNL     1      -4.127   2.311  15.514  1.00  0.00     0.102 C 
HETATM   15  C12 UNL     1      -3.506   3.231  14.513  1.00  0.00     0.105 C 
BRANCH  13  16
HETATM   16  C9  UNL     1      -5.707   2.359  17.351  1.00  0.00     0.148 C 
BRANCH  16  17
HETATM   17  C10 UNL     1      -6.731   1.220  17.326  1.00  0.00     0.183 C 
BRANCH  17  18
HETATM   18  O4  UNL     1      -6.022   0.024  17.307  1.00  0.00    -0.399 OA
ATOM     19  H4  UNL     1      -6.129  -0.355  16.442  1.00  0.00     0.209 HD
ENDBRANCH  17  18
ENDBRANCH  16  17
ENDBRANCH  13  16
ENDBRANCH   7  10
ENDBRANCH   2   7
BRANCH   1  20
HETATM   20  C4  UNL     1      -1.323   3.578  11.321  1.00  0.00     0.174 A 
HETATM   21  C1  UNL     1      -1.481   3.448   9.887  1.00  0.00     0.159 A 
HETATM   22  O1  UNL     1      -1.148   3.641   8.737  1.00  0.00    -0.295 OA
HETATM   23  C2  UNL     1      -2.477   2.816  10.776  1.00  0.00     0.112 A 
BRANCH  23  24
HETATM   24  C3  UNL     1      -2.493   1.308  10.957  1.00  0.00     0.179 C 
BRANCH  24  25
HETATM   25  O2  UNL     1      -3.105   0.727   9.849  1.00  0.00    -0.400 OA
ATOM     26  H2  UNL     1      -3.393  -0.148  10.080  1.00  0.00     0.209 HD
ENDBRANCH  24  25
ENDBRANCH  23  24
ENDBRANCH   1  20
TORSDOF 9
ENDMDL
MODEL 3
REMARK VINA RESULT: -6.072905760      1.702      2.595
REMARK  9 active torsions:
REMARK  status: ('A' for Active; 'I' for Inactive)
REMARK    1  A    between atoms: C2_3  and  C3_4 
REMARK    2  A    between atoms: C3_4  and  O2_5 
REMARK    3  A    between atoms: C4_7  and  N1_8 
REMARK    4  A    between atoms: C5_9  and  C6_10 
REMARK    5  A    between atoms: C6_10  and  O3_11 
REMARK    6  A    between atoms: C6_10  and  N2_13 
REMARK    7  A    between atoms: N3_16  and  C9_17 
REMARK    8  A    between atoms: C9_17  and  C10_18 
REMARK    9  A    between atoms: C10_18  and  O4_19 
ROOT
HETATM    1  N1  UNL     1      -1.601   5.888  12.208  1.00  0.00    -0.318 N 
HETATM    2  C5  UNL     1      -2.684   5.692  12.938  1.00  0.00     0.069 A 
HETATM    3  C13 UNL     1      -2.953   6.611  13.914  1.00  0.00     0.082 A 
HETATM    4  S1  UNL     1      -1.662   7.712  13.756  1.00  0.00    -0.070 SA
HETATM    5  C14 UNL     1      -0.855   6.950  12.464  1.00  0.00     0.146 A 
HETATM    6  S2  UNL     1       0.538   7.429  11.693  1.00  0.00    -0.052 SA
ENDROOT
BRANCH   2   7
HETATM    7  C6  UNL     1      -3.635   4.515  12.748  1.00  0.00     0.271 C 
BRANCH   7   8
HETATM    8  O3  UNL     1      -4.679   4.907  11.901  1.00  0.00    -0.371 OA
ATOM      9  H3  UNL     1      -5.300   4.191  11.826  1.00  0.00     0.212 HD
ENDBRANCH   7   8
BRANCH   7  10
HETATM   10  N2  UNL     1      -4.215   4.122  13.983  1.00  0.00    -0.356 N 
HETATM   11  C7  UNL     1      -5.578   3.728  13.974  1.00  0.00     0.145 C 
HETATM   12  C8  UNL     1      -6.050   3.790  15.437  1.00  0.00     0.142 C 
HETATM   13  N3  UNL     1      -5.390   2.739  16.109  1.00  0.00    -0.385 N 
HETATM   14  C11 UNL     1      -4.045   2.477  15.799  1.00  0.00     0.102 C 
HETATM   15  C12 UNL     1      -3.371   3.451  14.887  1.00  0.00     0.105 C 
BRANCH  13  16
HETATM   16  C9  UNL     1      -5.861   2.383  17.400  1.00  0.00     0.148 C 
BRANCH  16  17
HETATM   17  C10 UNL     1      -6.789   1.175  17.238  1.00  0.00     0.183 C 
BRANCH  17  18
HETATM   18  O4  UNL     1      -5.997   0.033  17.285  1.00  0.00    -0.399 OA
ATOM     19  H4  UNL     1      -5.228   0.199  16.752  1.00  0.00     0.209 HD
ENDBRANCH  17  18
ENDBRANCH  16  17
ENDBRANCH  13  16
ENDBRANCH   7  10
ENDBRANCH   2   7
BRANCH   1  20
HETATM   20  C4  UNL     1      -1.196   4.954  11.120  1.00  0.00     0.174 A 
HETATM   21  C1  UNL     1      -0.953   3.556  11.418  1.00  0.00     0.159 A 
HETATM   22  O1  UNL     1      -1.304   2.434  11.713  1.00  0.00    -0.295 OA
HETATM   23  C2  UNL     1       0.195   4.429  11.096  1.00  0.00     0.112 A 
BRANCH  23  24
HETATM   24  C3  UNL     1       0.894   4.306   9.753  1.00  0.00     0.179 C 
BRANCH  24  25
HETATM   25  O2  UNL     1       2.192   3.846   9.960  1.00  0.00    -0.400 OA
ATOM     26  H2  UNL     1       2.669   4.490  10.471  1.00  0.00     0.209 HD
ENDBRANCH  24  25
ENDBRANCH  23  24
ENDBRANCH   1  20
TORSDOF 9
ENDMDL
MODEL 4
REMARK VINA RESULT: -6.072699394      1.073      1.423
REMARK  9 active torsions:
REMARK  status: ('A' for Active; 'I' for Inactive)
REMARK    1  A    between atoms: C2_3  and  C3_4 
REMARK    2  A    between atoms: C3_4  and  O2_5 
REMARK    3  A    between atoms: C4_7  and  N1_8 
REMARK    4  A    between atoms: C5_9  and  C6_10 
REMARK    5  A    between atoms: C6_10  and  O3_11 
REMARK    6  A    between atoms: C6_10  and  N2_13 
REMARK    7  A    between atoms: N3_16  and  C9_17 
REMARK    8  A    between atoms: C9_17  and  C10_18 
REMARK    9  A    between atoms: C10_18  and  O4_19 
ROOT
HETATM    1  N1  UNL     1      -2.377   4.596  11.811  1.00  0.00    -0.318 N 
HETATM    2  C5  UNL     1      -3.177   5.223  12.654  1.00  0.00     0.069 A 
HETATM    3  C13 UNL     1      -2.622   6.208  13.423  1.00  0.00     0.082 A 
HETATM    4  S1  UNL     1      -0.994   6.204  12.918  1.00  0.00    -0.070 SA
HETATM    5  C14 UNL     1      -1.105   4.958  11.763  1.00  0.00     0.146 A 
HETATM    6  S2  UNL     1       0.096   4.343  10.791  1.00  0.00    -0.052 SA
ENDROOT
BRANCH   2   7
HETATM    7  C6  UNL     1      -4.661   4.911  12.809  1.00  0.00     0.271 C 
BRANCH   7   8
HETATM    8  O3  UNL     1      -5.393   6.093  12.642  1.00  0.00    -0.371 OA
ATOM      9  H3  UNL     1      -5.651   6.170  11.731  1.00  0.00     0.212 HD
ENDBRANCH   7   8
BRANCH   7  10
HETATM   10  N2  UNL     1      -4.947   4.416  14.109  1.00  0.00    -0.356 N 
HETATM   11  C7  UNL     1      -6.289   4.057  14.396  1.00  0.00     0.145 C 
HETATM   12  C8  UNL     1      -6.394   3.990  15.930  1.00  0.00     0.142 C 
HETATM   13  N3  UNL     1      -5.641   2.864  16.327  1.00  0.00    -0.385 N 
HETATM   14  C11 UNL     1      -4.423   2.601  15.678  1.00  0.00     0.102 C 
HETATM   15  C12 UNL     1      -3.942   3.642  14.719  1.00  0.00     0.105 C 
BRANCH  13  16
HETATM   16  C9  UNL     1      -5.806   2.397  17.658  1.00  0.00     0.148 C 
BRANCH  16  17
HETATM   17  C10 UNL     1      -5.994   0.878  17.596  1.00  0.00     0.183 C 
BRANCH  17  18
HETATM   18  O4  UNL     1      -6.978   0.620  16.648  1.00  0.00    -0.399 OA
ATOM     19  H4  UNL     1      -7.427  -0.174  16.914  1.00  0.00     0.209 HD
ENDBRANCH  17  18
ENDBRANCH  16  17
ENDBRANCH  13  16
ENDBRANCH   7  10
ENDBRANCH   2   7
BRANCH   1  20
HETATM   20  C4  UNL     1      -2.859   3.498  10.925  1.00  0.00     0.174 A 
HETATM   21  C1  UNL     1      -4.197   2.966  11.093  1.00  0.00     0.159 A 
HETATM   22  O1  UNL     1      -5.405   3.026  11.016  1.00  0.00    -0.295 OA
HETATM   23  C2  UNL     1      -3.042   2.136  11.492  1.00  0.00     0.112 A 
BRANCH  23  24
HETATM   24  C3  UNL     1      -2.630   0.944  10.647  1.00  0.00     0.179 C 
BRANCH  24  25
HETATM   25  O2  UNL     1      -3.731   0.506   9.916  1.00  0.00    -0.400 OA
ATOM     26  H2  UNL     1      -4.282   1.253   9.713  1.00  0.00     0.209 HD
ENDBRANCH  24  25
ENDBRANCH  23  24
ENDBRANCH   1  20
TORSDOF 9
ENDMDL
MODEL 5
REMARK VINA RESULT: -5.940051766      3.122      6.867
REMARK  9 active torsions:
REMARK  status: ('A' for Active; 'I' for Inactive)
REMARK    1  A    between atoms: C2_3  and  C3_4 
REMARK    2  A    between atoms: C3_4  and  O2_5 
REMARK    3  A    between atoms: C4_7  and  N1_8 
REMARK    4  A    between atoms: C5_9  and  C6_10 
REMARK    5  A    between atoms: C6_10  and  O3_11 
REMARK    6  A    between atoms: C6_10  and  N2_13 
REMARK    7  A    between atoms: N3_16  and  C9_17 
REMARK    8  A    between atoms: C9_17  and  C10_18 
REMARK    9  A    between atoms: C10_18  and  O4_19 
ROOT
HETATM    1  N1  UNL     1      -4.098   2.627  13.450  1.00  0.00    -0.318 N 
HETATM    2  C5  UNL     1      -3.972   2.771  12.143  1.00  0.00     0.069 A 
HETATM    3  C13 UNL     1      -4.044   1.638  11.381  1.00  0.00     0.082 A 
HETATM    4  S1  UNL     1      -4.287   0.418  12.547  1.00  0.00    -0.070 SA
HETATM    5  C14 UNL     1      -4.285   1.409  13.933  1.00  0.00     0.146 A 
HETATM    6  S2  UNL     1      -4.484   0.960  15.521  1.00  0.00    -0.052 SA
ENDROOT
BRANCH   2   7
HETATM    7  C6  UNL     1      -3.757   4.114  11.454  1.00  0.00     0.271 C 
BRANCH   7   8
HETATM    8  O3  UNL     1      -4.787   4.319  10.528  1.00  0.00    -0.371 OA
ATOM      9  H3  UNL     1      -4.600   5.105  10.027  1.00  0.00     0.212 HD
ENDBRANCH   7   8
BRANCH   7  10
HETATM   10  N2  UNL     1      -2.532   4.129  10.735  1.00  0.00    -0.356 N 
HETATM   11  C7  UNL     1      -2.495   4.850   9.514  1.00  0.00     0.145 C 
HETATM   12  C8  UNL     1      -1.252   4.347   8.759  1.00  0.00     0.142 C 
HETATM   13  N3  UNL     1      -0.135   4.824   9.477  1.00  0.00    -0.385 N 
HETATM   14  C11 UNL     1      -0.177   4.810  10.882  1.00  0.00     0.102 C 
HETATM   15  C12 UNL     1      -1.353   4.131  11.505  1.00  0.00     0.105 C 
BRANCH  13  16
HETATM   16  C9  UNL     1       1.135   4.756   8.845  1.00  0.00     0.148 C 
BRANCH  16  17
HETATM   17  C10 UNL     1       2.159   4.336   9.904  1.00  0.00     0.183 C 
BRANCH  17  18
HETATM   18  O4  UNL     1       3.195   3.684   9.244  1.00  0.00    -0.399 OA
ATOM     19  H4  UNL     1       3.723   4.349   8.817  1.00  0.00     0.209 HD
ENDBRANCH  17  18
ENDBRANCH  16  17
ENDBRANCH  13  16
ENDBRANCH   7  10
ENDBRANCH   2   7
BRANCH   1  20
HETATM   20  C4  UNL     1      -4.028   3.783  14.388  1.00  0.00     0.174 A 
HETATM   21  C1  UNL     1      -5.248   4.416  14.849  1.00  0.00     0.159 A 
HETATM   22  O1  UNL     1      -6.269   4.456  15.500  1.00  0.00    -0.295 OA
HETATM   23  C2  UNL     1      -4.383   5.140  13.894  1.00  0.00     0.112 A 
BRANCH  23  24
HETATM   24  C3  UNL     1      -3.545   6.317  14.363  1.00  0.00     0.179 C 
BRANCH  24  25
HETATM   25  O2  UNL     1      -3.128   7.045  13.252  1.00  0.00    -0.400 OA
ATOM     26  H2  UNL     1      -2.318   7.493  13.464  1.00  0.00     0.209 HD
ENDBRANCH  24  25
ENDBRANCH  23  24
ENDBRANCH   1  20
TORSDOF 9
ENDMDL
