MODEL 1
REMARK VINA RESULT: -7.726574306      0.000      0.000
REMARK  3 active torsions:
REMARK  status: ('A' for Active; 'I' for Inactive)
REMARK    1  A    between atoms: N3_4  and  N4_6 
REMARK    2  A    between atoms: C2_8  and  C3_9 
REMARK    3  A    between atoms: C8_16  and  N7_17 
ROOT
HETATM    1  C3  UNL     1      14.205  27.269  75.654  1.00  0.00     0.016 A 
HETATM    2  C4  UNL     1      12.938  27.379  75.022  1.00  0.00     0.043 A 
HETATM    3  C5  UNL     1      12.830  28.079  73.846  1.00  0.00     0.071 A 
HETATM    4  N5  UNL     1      11.523  28.156  73.248  1.00  0.00    -0.100 NA
HETATM    5  C6  UNL     1      13.922  28.680  73.258  1.00  0.00     0.072 A 
HETATM    6  N6  UNL     1      13.750  29.383  72.049  1.00  0.00    -0.100 NA
HETATM    7  C7  UNL     1      15.121  28.555  73.892  1.00  0.00     0.065 A 
HETATM    8  C8  UNL     1      15.296  27.847  75.109  1.00  0.00     0.116 A 
ENDROOT
BRANCH   1   9
HETATM    9  C2  UNL     1      14.223  26.431  76.845  1.00  0.00     0.121 C 
HETATM   10  N4  UNL     1      14.784  26.680  77.934  1.00  0.00    -0.309 N 
ATOM     11  H4  UNL     1      15.269  27.577  77.942  1.00  0.00     0.186 HD
BRANCH  10  12
HETATM   12  N3  UNL     1      14.879  26.025  79.077  1.00  0.00    -0.276 N 
HETATM   13  C1  UNL     1      15.682  26.041  80.020  1.00  0.00     0.215 C 
HETATM   14  N1  UNL     1      16.830  26.858  80.117  1.00  0.00    -0.065 NA
HETATM   15  N2  UNL     1      15.426  25.140  81.117  1.00  0.00    -0.065 NA
ATOM     16  H3  UNL     1      14.122  25.356  79.215  1.00  0.00     0.189 HD
ENDBRANCH  10  12
ENDBRANCH   1   9
BRANCH   8  17
HETATM   17  N7  UNL     1      16.589  27.808  75.656  1.00  0.00    -0.115 N 
HETATM   18  O1  UNL     1      17.280  26.882  76.029  1.00  0.00    -0.532 OA
HETATM   19  O2  UNL     1      17.150  29.095  75.889  1.00  0.00    -0.532 OA
ENDBRANCH   8  17
TORSDOF 3
ENDMDL
MODEL 2
REMARK VINA RESULT: -7.629299970      1.336      1.421
REMARK  3 active torsions:
REMARK  status: ('A' for Active; 'I' for Inactive)
REMARK    1  A    between atoms: N3_4  and  N4_6 
REMARK    2  A    between atoms: C2_8  and  C3_9 
REMARK    3  A    between atoms: C8_16  and  N7_17 
ROOT
HETATM    1  C3  UNL     1      14.253  27.242  75.949  1.00  0.00     0.016 A 
HETATM    2  C4  UNL     1      12.969  27.187  75.346  1.00  0.00     0.043 A 
HETATM    3  C5  UNL     1      12.771  27.783  74.126  1.00  0.00     0.071 A 
HETATM    4  N5  UNL     1      11.450  27.694  73.560  1.00  0.00    -0.100 NA
HETATM    5  C6  UNL     1      13.788  28.437  73.466  1.00  0.00     0.072 A 
HETATM    6  N6  UNL     1      13.526  29.030  72.214  1.00  0.00    -0.100 NA
HETATM    7  C7  UNL     1      15.007  28.472  74.074  1.00  0.00     0.065 A 
HETATM    8  C8  UNL     1      15.273  27.876  75.334  1.00  0.00     0.116 A 
ENDROOT
BRANCH   1   9
HETATM    9  C2  UNL     1      14.375  26.501  77.197  1.00  0.00     0.121 C 
HETATM   10  N4  UNL     1      15.169  25.568  77.446  1.00  0.00    -0.309 N 
ATOM     11  H4  UNL     1      15.777  25.335  76.661  1.00  0.00     0.186 HD
BRANCH  10  12
HETATM   12  N3  UNL     1      15.386  24.820  78.514  1.00  0.00    -0.276 N 
HETATM   13  C1  UNL     1      16.151  23.882  78.772  1.00  0.00     0.215 C 
HETATM   14  N1  UNL     1      17.091  23.310  77.885  1.00  0.00    -0.065 NA
HETATM   15  N2  UNL     1      16.074  23.317  80.097  1.00  0.00    -0.065 NA
ATOM     16  H3  UNL     1      14.790  25.073  79.301  1.00  0.00     0.189 HD
ENDBRANCH  10  12
ENDBRANCH   1   9
BRANCH   8  17
HETATM   17  N7  UNL     1      16.575  27.998  75.846  1.00  0.00    -0.115 N 
HETATM   18  O1  UNL     1      17.459  27.181  76.008  1.00  0.00    -0.532 OA
HETATM   19  O2  UNL     1      16.875  29.299  76.339  1.00  0.00    -0.532 OA
ENDBRANCH   8  17
TORSDOF 3
ENDMDL
MODEL 3
REMARK VINA RESULT: -7.494184431      2.745      5.045
REMARK  3 active torsions:
REMARK  status: ('A' for Active; 'I' for Inactive)
REMARK    1  A    between atoms: N3_4  and  N4_6 
REMARK    2  A    between atoms: C2_8  and  C3_9 
REMARK    3  A    between atoms: C8_16  and  N7_17 
ROOT
HETATM    1  C3  UNL     1      14.949  27.405  75.880  1.00  0.00     0.016 A 
HETATM    2  C4  UNL     1      15.858  26.920  76.856  1.00  0.00     0.043 A 
HETATM    3  C5  UNL     1      17.208  27.084  76.662  1.00  0.00     0.071 A 
HETATM    4  N5  UNL     1      18.083  26.576  77.686  1.00  0.00    -0.100 NA
HETATM    5  C6  UNL     1      17.707  27.708  75.539  1.00  0.00     0.072 A 
HETATM    6  N6  UNL     1      19.102  27.849  75.394  1.00  0.00    -0.100 NA
HETATM    7  C7  UNL     1      16.806  28.159  74.622  1.00  0.00     0.065 A 
HETATM    8  C8  UNL     1      15.402  28.018  74.766  1.00  0.00     0.116 A 
ENDROOT
BRANCH   1   9
HETATM    9  C2  UNL     1      13.543  27.260  76.229  1.00  0.00     0.121 C 
HETATM   10  N4  UNL     1      12.752  28.167  76.569  1.00  0.00    -0.309 N 
ATOM     11  H4  UNL     1      13.184  29.091  76.590  1.00  0.00     0.186 HD
BRANCH  10  12
HETATM   12  N3  UNL     1      11.475  28.180  76.905  1.00  0.00    -0.276 N 
HETATM   13  C1  UNL     1      10.438  28.573  76.354  1.00  0.00     0.215 C 
HETATM   14  N1  UNL     1      10.355  29.177  75.079  1.00  0.00    -0.065 NA
HETATM   15  N2  UNL     1       9.203  28.405  77.080  1.00  0.00    -0.065 NA
ATOM     16  H3  UNL     1      11.304  27.776  77.826  1.00  0.00     0.189 HD
ENDBRANCH  10  12
ENDBRANCH   1   9
BRANCH   8  17
HETATM   17  N7  UNL     1      14.591  28.523  73.735  1.00  0.00    -0.115 N 
HETATM   18  O1  UNL     1      13.499  28.181  73.327  1.00  0.00    -0.532 OA
HETATM   19  O2  UNL     1      15.202  29.568  72.988  1.00  0.00    -0.532 OA
ENDBRANCH   8  17
TORSDOF 3
ENDMDL
MODEL 4
REMARK VINA RESULT: -7.363046233      2.580      4.951
REMARK  3 active torsions:
REMARK  status: ('A' for Active; 'I' for Inactive)
REMARK    1  A    between atoms: N3_4  and  N4_6 
REMARK    2  A    between atoms: C2_8  and  C3_9 
REMARK    3  A    between atoms: C8_16  and  N7_17 
ROOT
HETATM    1  C3  UNL     1      15.127  27.465  76.276  1.00  0.00     0.016 A 
HETATM    2  C4  UNL     1      15.591  28.150  75.122  1.00  0.00     0.043 A 
HETATM    3  C5  UNL     1      16.940  28.229  74.882  1.00  0.00     0.071 A 
HETATM    4  N5  UNL     1      17.354  28.932  73.696  1.00  0.00    -0.100 NA
HETATM    5  C6  UNL     1      17.861  27.659  75.733  1.00  0.00     0.072 A 
HETATM    6  N6  UNL     1      19.235  27.772  75.435  1.00  0.00    -0.100 NA
HETATM    7  C7  UNL     1      17.382  27.011  76.832  1.00  0.00     0.065 A 
HETATM    8  C8  UNL     1      16.000  26.897  77.134  1.00  0.00     0.116 A 
ENDROOT
BRANCH   1   9
HETATM    9  C2  UNL     1      13.678  27.363  76.385  1.00  0.00     0.121 C 
HETATM   10  N4  UNL     1      12.884  28.259  76.745  1.00  0.00    -0.309 N 
ATOM     11  H4  UNL     1      13.346  29.137  76.979  1.00  0.00     0.186 HD
BRANCH  10  12
HETATM   12  N3  UNL     1      11.571  28.306  76.887  1.00  0.00    -0.276 N 
HETATM   13  C1  UNL     1      10.625  28.518  76.117  1.00  0.00     0.215 C 
HETATM   14  N1  UNL     1      10.726  28.796  74.736  1.00  0.00    -0.065 NA
HETATM   15  N2  UNL     1       9.298  28.484  76.682  1.00  0.00    -0.065 NA
ATOM     16  H3  UNL     1      11.270  28.128  77.844  1.00  0.00     0.189 HD
ENDBRANCH  10  12
ENDBRANCH   1   9
BRANCH   8  17
HETATM   17  N7  UNL     1      15.648  26.209  78.307  1.00  0.00    -0.115 N 
HETATM   18  O1  UNL     1      15.665  26.541  79.475  1.00  0.00    -0.532 OA
HETATM   19  O2  UNL     1      15.286  24.851  78.084  1.00  0.00    -0.532 OA
ENDBRANCH   8  17
TORSDOF 3
ENDMDL
MODEL 5
REMARK VINA RESULT: -7.331501088      1.402      1.662
REMARK  3 active torsions:
REMARK  status: ('A' for Active; 'I' for Inactive)
REMARK    1  A    between atoms: N3_4  and  N4_6 
REMARK    2  A    between atoms: C2_8  and  C3_9 
REMARK    3  A    between atoms: C8_16  and  N7_17 
ROOT
HETATM    1  C3  UNL     1      14.235  27.364  75.805  1.00  0.00     0.016 A 
HETATM    2  C4  UNL     1      12.824  27.214  75.822  1.00  0.00     0.043 A 
HETATM    3  C5  UNL     1      12.083  27.683  74.765  1.00  0.00     0.071 A 
HETATM    4  N5  UNL     1      10.657  27.501  74.834  1.00  0.00    -0.100 NA
HETATM    5  C6  UNL     1      12.674  28.301  73.685  1.00  0.00     0.072 A 
HETATM    6  N6  UNL     1      11.862  28.762  72.629  1.00  0.00    -0.100 NA
HETATM    7  C7  UNL     1      14.030  28.431  73.703  1.00  0.00     0.065 A 
HETATM    8  C8  UNL     1      14.849  27.967  74.765  1.00  0.00     0.116 A 
ENDROOT
BRANCH   1   9
HETATM    9  C2  UNL     1      14.928  26.751  76.929  1.00  0.00     0.121 C 
HETATM   10  N4  UNL     1      14.469  25.907  77.730  1.00  0.00    -0.309 N 
ATOM     11  H4  UNL     1      13.501  25.652  77.535  1.00  0.00     0.186 HD
BRANCH  10  12
HETATM   12  N3  UNL     1      14.975  25.276  78.774  1.00  0.00    -0.276 N 
HETATM   13  C1  UNL     1      15.728  24.303  78.917  1.00  0.00     0.215 C 
HETATM   14  N1  UNL     1      16.298  23.536  77.876  1.00  0.00    -0.065 NA
HETATM   15  N2  UNL     1      16.049  23.913  80.268  1.00  0.00    -0.065 NA
ATOM     16  H3  UNL     1      14.680  25.680  79.662  1.00  0.00     0.189 HD
ENDBRANCH  10  12
ENDBRANCH   1   9
BRANCH   8  17
HETATM   17  N7  UNL     1      16.233  28.177  74.655  1.00  0.00    -0.115 N 
HETATM   18  O1  UNL     1      17.165  27.783  75.327  1.00  0.00    -0.532 OA
HETATM   19  O2  UNL     1      16.593  29.080  73.617  1.00  0.00    -0.532 OA
ENDBRANCH   8  17
TORSDOF 3
ENDMDL
