MODEL 1
REMARK VINA RESULT: -7.162386593      0.000      0.000
REMARK  4 active torsions:
REMARK  status: ('A' for Active; 'I' for Inactive)
REMARK    1  A    between atoms: N1_2  and  C2_4 
REMARK    2  A    between atoms: C4_11  and  N5_12 
REMARK    3  A    between atoms: N5_12  and  N6_14 
REMARK    4  A    between atoms: N6_14  and  O1_16 
ROOT
HETATM    1  C2  UNL     1     -12.598 -28.380 -27.073  1.00  0.00     0.694 A 
HETATM    2  N2  UNL     1     -12.316 -28.566 -28.367  1.00  0.00    -0.162 N 
ATOM      3  H2  UNL     1     -13.027 -28.328 -29.058  1.00  0.00     0.187 HD
HETATM    4  C3  UNL     1     -11.158 -29.044 -28.794  1.00  0.00     0.221 A 
HETATM    5  N3  UNL     1     -10.928 -29.214 -30.185  1.00  0.00    -0.062 NA
HETATM    6  N4  UNL     1     -10.230 -29.352 -27.845  1.00  0.00    -0.161 N 
ATOM      7  H4  UNL     1      -9.324 -29.723 -28.130  1.00  0.00     0.187 HD
HETATM    8  C4  UNL     1     -10.493 -29.174 -26.545  1.00  0.00     0.715 A 
HETATM    9  N7  UNL     1     -11.681 -28.686 -26.147  1.00  0.00    -0.021 N 
ATOM     10  H7  UNL     1     -11.879 -28.551 -25.156  1.00  0.00     0.203 HD
ENDROOT
BRANCH   8  11
HETATM   11  N5  UNL     1      -9.576 -29.484 -25.698  1.00  0.00    -0.112 N 
ATOM     12  H5  UNL     1      -9.242 -28.772 -25.048  1.00  0.00     0.207 HD
BRANCH  11  13
HETATM   13  N6  UNL     1      -9.029 -30.760 -25.641  1.00  0.00    -0.196 N 
ATOM     14  H6  UNL     1      -8.628 -31.150 -26.493  1.00  0.00     0.216 HD
BRANCH  13  15
HETATM   15  O1  UNL     1      -9.001 -31.453 -24.607  1.00  0.00    -0.274 OA
ATOM     16  H1  UNL     1      -9.646 -32.121 -24.403  1.00  0.00     0.246 HD
ENDBRANCH  13  15
ENDBRANCH  11  13
ENDBRANCH   8  11
BRANCH   1  17
HETATM   17  N1  UNL     1     -13.749 -27.911 -26.751  1.00  0.00    -0.230 N 
HETATM   18  C1  UNL     1     -14.904 -28.274 -27.565  1.00  0.00     0.165 C 
ATOM     19  H1  UNL     1     -13.853 -27.298 -25.942  1.00  0.00     0.177 HD
ENDBRANCH   1  17
TORSDOF 4
ENDMDL
MODEL 2
REMARK VINA RESULT: -6.807226435      2.065      3.404
REMARK  4 active torsions:
REMARK  status: ('A' for Active; 'I' for Inactive)
REMARK    1  A    between atoms: N1_2  and  C2_4 
REMARK    2  A    between atoms: C4_11  and  N5_12 
REMARK    3  A    between atoms: N5_12  and  N6_14 
REMARK    4  A    between atoms: N6_14  and  O1_16 
ROOT
HETATM    1  C2  UNL     1     -11.670 -27.596 -26.519  1.00  0.00     0.694 A 
HETATM    2  N2  UNL     1     -10.639 -28.184 -25.902  1.00  0.00    -0.162 N 
ATOM      3  H2  UNL     1     -10.526 -28.037 -24.899  1.00  0.00     0.187 HD
HETATM    4  C3  UNL     1      -9.759 -28.946 -26.530  1.00  0.00     0.221 A 
HETATM    5  N3  UNL     1      -8.688 -29.540 -25.809  1.00  0.00    -0.062 NA
HETATM    6  N4  UNL     1      -9.938 -29.122 -27.869  1.00  0.00    -0.161 N 
ATOM      7  H4  UNL     1      -9.283 -29.702 -28.393  1.00  0.00     0.187 HD
HETATM    8  C4  UNL     1     -10.963 -28.542 -28.506  1.00  0.00     0.715 A 
HETATM    9  N7  UNL     1     -11.839 -27.773 -27.836  1.00  0.00    -0.021 N 
ATOM     10  H7  UNL     1     -12.619 -27.332 -28.322  1.00  0.00     0.203 HD
ENDROOT
BRANCH   8  11
HETATM   11  N5  UNL     1     -11.078 -28.745 -29.770  1.00  0.00    -0.112 N 
ATOM     12  H5  UNL     1     -11.246 -27.949 -30.386  1.00  0.00     0.207 HD
BRANCH  11  13
HETATM   13  N6  UNL     1     -10.980 -30.017 -30.323  1.00  0.00    -0.196 N 
ATOM     14  H6  UNL     1     -11.819 -30.430 -30.730  1.00  0.00     0.216 HD
BRANCH  13  15
HETATM   15  O1  UNL     1      -9.926 -30.679 -30.348  1.00  0.00    -0.274 OA
ATOM     16  H1  UNL     1      -9.606 -31.129 -31.122  1.00  0.00     0.246 HD
ENDBRANCH  13  15
ENDBRANCH  11  13
ENDBRANCH   8  11
BRANCH   1  17
HETATM   17  N1  UNL     1     -12.475 -26.873 -25.829  1.00  0.00    -0.230 N 
HETATM   18  C1  UNL     1     -13.910 -27.086 -25.979  1.00  0.00     0.165 C 
ATOM     19  H1  UNL     1     -12.118 -26.163 -25.189  1.00  0.00     0.177 HD
ENDBRANCH   1  17
TORSDOF 4
ENDMDL
MODEL 3
REMARK VINA RESULT: -6.213244991      1.624      3.155
REMARK  4 active torsions:
REMARK  status: ('A' for Active; 'I' for Inactive)
REMARK    1  A    between atoms: N1_2  and  C2_4 
REMARK    2  A    between atoms: C4_11  and  N5_12 
REMARK    3  A    between atoms: N5_12  and  N6_14 
REMARK    4  A    between atoms: N6_14  and  O1_16 
ROOT
HETATM    1  C2  UNL     1     -11.833 -28.169 -28.421  1.00  0.00     0.694 A 
HETATM    2  N2  UNL     1     -13.088 -27.999 -27.990  1.00  0.00    -0.162 N 
ATOM      3  H2  UNL     1     -13.850 -28.096 -28.661  1.00  0.00     0.187 HD
HETATM    4  C3  UNL     1     -13.389 -27.711 -26.734  1.00  0.00     0.221 A 
HETATM    5  N3  UNL     1     -14.746 -27.545 -26.347  1.00  0.00    -0.062 NA
HETATM    6  N4  UNL     1     -12.349 -27.588 -25.862  1.00  0.00    -0.161 N 
ATOM      7  H4  UNL     1     -12.535 -27.368 -24.884  1.00  0.00     0.187 HD
HETATM    8  C4  UNL     1     -11.086 -27.755 -26.274  1.00  0.00     0.715 A 
HETATM    9  N7  UNL     1     -10.817 -28.046 -27.558  1.00  0.00    -0.021 N 
ATOM     10  H7  UNL     1      -9.854 -28.172 -27.870  1.00  0.00     0.203 HD
ENDROOT
BRANCH   8  11
HETATM   11  N5  UNL     1     -10.148 -27.626 -25.404  1.00  0.00    -0.112 N 
ATOM     12  H5  UNL     1     -10.173 -26.832 -24.763  1.00  0.00     0.207 HD
BRANCH  11  13
HETATM   13  N6  UNL     1      -9.102 -28.536 -25.310  1.00  0.00    -0.196 N 
ATOM     14  H6  UNL     1      -8.852 -28.889 -24.386  1.00  0.00     0.216 HD
BRANCH  13  15
HETATM   15  O1  UNL     1      -8.452 -28.943 -26.290  1.00  0.00    -0.274 OA
ATOM     16  H1  UNL     1      -7.509 -29.065 -26.284  1.00  0.00     0.246 HD
ENDBRANCH  13  15
ENDBRANCH  11  13
ENDBRANCH   8  11
BRANCH   1  17
HETATM   17  N1  UNL     1     -11.635 -28.446 -29.658  1.00  0.00    -0.230 N 
HETATM   18  C1  UNL     1     -10.852 -29.631 -29.993  1.00  0.00     0.165 C 
ATOM     19  H1  UNL     1     -12.018 -27.851 -30.393  1.00  0.00     0.177 HD
ENDBRANCH   1  17
TORSDOF 4
ENDMDL
MODEL 4
REMARK VINA RESULT: -6.179425552      2.124      4.248
REMARK  4 active torsions:
REMARK  status: ('A' for Active; 'I' for Inactive)
REMARK    1  A    between atoms: N1_2  and  C2_4 
REMARK    2  A    between atoms: C4_11  and  N5_12 
REMARK    3  A    between atoms: N5_12  and  N6_14 
REMARK    4  A    between atoms: N6_14  and  O1_16 
ROOT
HETATM    1  C2  UNL     1     -10.032 -28.887 -26.528  1.00  0.00     0.694 A 
HETATM    2  N2  UNL     1     -10.944 -28.081 -25.973  1.00  0.00    -0.162 N 
ATOM      3  H2  UNL     1     -10.887 -27.902 -24.970  1.00  0.00     0.187 HD
HETATM    4  C3  UNL     1     -11.916 -27.506 -26.661  1.00  0.00     0.221 A 
HETATM    5  N3  UNL     1     -12.849 -26.660 -26.005  1.00  0.00    -0.062 NA
HETATM    6  N4  UNL     1     -11.964 -27.766 -27.998  1.00  0.00    -0.161 N 
ATOM      7  H4  UNL     1     -12.696 -27.344 -28.567  1.00  0.00     0.187 HD
HETATM    8  C4  UNL     1     -11.061 -28.570 -28.573  1.00  0.00     0.715 A 
HETATM    9  N7  UNL     1     -10.086 -29.139 -27.842  1.00  0.00    -0.021 N 
ATOM     10  H7  UNL     1      -9.399 -29.751 -28.282  1.00  0.00     0.203 HD
ENDROOT
BRANCH   8  11
HETATM   11  N5  UNL     1     -11.159 -28.777 -29.838  1.00  0.00    -0.112 N 
ATOM     12  H5  UNL     1     -11.359 -27.989 -30.455  1.00  0.00     0.207 HD
BRANCH  11  13
HETATM   13  N6  UNL     1     -11.000 -30.042 -30.391  1.00  0.00    -0.196 N 
ATOM     14  H6  UNL     1     -11.803 -30.471 -30.851  1.00  0.00     0.216 HD
BRANCH  13  15
HETATM   15  O1  UNL     1      -9.932 -30.682 -30.356  1.00  0.00    -0.274 OA
ATOM     16  H1  UNL     1      -9.587 -31.171 -31.094  1.00  0.00     0.246 HD
ENDBRANCH  13  15
ENDBRANCH  11  13
ENDBRANCH   8  11
BRANCH   1  17
HETATM   17  N1  UNL     1      -9.123 -29.402 -25.782  1.00  0.00    -0.230 N 
HETATM   18  C1  UNL     1      -9.091 -30.852 -25.619  1.00  0.00     0.165 C 
ATOM     19  H1  UNL     1      -8.438 -28.810 -25.312  1.00  0.00     0.177 HD
ENDBRANCH   1  17
TORSDOF 4
ENDMDL
MODEL 5
REMARK VINA RESULT: -6.162521001      2.135      3.896
REMARK  4 active torsions:
REMARK  status: ('A' for Active; 'I' for Inactive)
REMARK    1  A    between atoms: N1_2  and  C2_4 
REMARK    2  A    between atoms: C4_11  and  N5_12 
REMARK    3  A    between atoms: N5_12  and  N6_14 
REMARK    4  A    between atoms: N6_14  and  O1_16 
ROOT
HETATM    1  C2  UNL     1     -10.663 -29.537 -26.583  1.00  0.00     0.694 A 
HETATM    2  N2  UNL     1     -10.546 -29.715 -27.904  1.00  0.00    -0.162 N 
ATOM      3  H2  UNL     1      -9.942 -30.465 -28.241  1.00  0.00     0.187 HD
HETATM    4  C3  UNL     1     -11.176 -28.966 -28.794  1.00  0.00     0.221 A 
HETATM    5  N3  UNL     1     -11.005 -29.213 -30.182  1.00  0.00    -0.062 NA
HETATM    6  N4  UNL     1     -11.974 -27.973 -28.311  1.00  0.00    -0.161 N 
ATOM      7  H4  UNL     1     -12.479 -27.371 -28.961  1.00  0.00     0.187 HD
HETATM    8  C4  UNL     1     -12.105 -27.778 -26.993  1.00  0.00     0.715 A 
HETATM    9  N7  UNL     1     -11.449 -28.558 -26.117  1.00  0.00    -0.021 N 
ATOM     10  H7  UNL     1     -11.550 -28.408 -25.113  1.00  0.00     0.203 HD
ENDROOT
BRANCH   8  11
HETATM   11  N5  UNL     1     -12.873 -26.825 -26.599  1.00  0.00    -0.112 N 
ATOM     12  H5  UNL     1     -12.993 -26.006 -27.197  1.00  0.00     0.207 HD
BRANCH  11  13
HETATM   13  N6  UNL     1     -13.545 -26.876 -25.384  1.00  0.00    -0.196 N 
ATOM     14  H6  UNL     1     -13.463 -26.078 -24.754  1.00  0.00     0.216 HD
BRANCH  13  15
HETATM   15  O1  UNL     1     -14.242 -27.843 -25.021  1.00  0.00    -0.274 OA
ATOM     16  H1  UNL     1     -13.940 -28.512 -24.418  1.00  0.00     0.246 HD
ENDBRANCH  13  15
ENDBRANCH  11  13
ENDBRANCH   8  11
BRANCH   1  17
HETATM   17  N1  UNL     1     -10.014 -30.312 -25.793  1.00  0.00    -0.230 N 
HETATM   18  C1  UNL     1      -8.718 -30.824 -26.226  1.00  0.00     0.165 C 
ATOM     19  H1  UNL     1     -10.396 -30.566 -24.882  1.00  0.00     0.177 HD
ENDBRANCH   1  17
TORSDOF 4
ENDMDL
