MODEL 1
REMARK VINA RESULT: -6.481692109      0.000      0.000
REMARK  3 active torsions:
REMARK  status: ('A' for Active; 'I' for Inactive)
REMARK    1  A    between atoms: N1_1  and  C1_5 
REMARK    2  A    between atoms: N4_11  and  N5_12 
REMARK    3  A    between atoms: N5_12  and  C3_14 
ROOT
HETATM    1  C1  UNL     1     -14.699 -27.550 -25.479  1.00  0.00     0.518 C 
HETATM    2  N2  UNL     1     -15.523 -28.673 -25.879  1.00  0.00    -0.011 N 
ATOM      3  H21 UNL     1     -16.518 -28.518 -25.721  1.00  0.00     0.283 HD
ATOM      4  H22 UNL     1     -15.420 -29.484 -25.269  1.00  0.00     0.283 HD
HETATM    5  C2  UNL     1     -15.205 -28.952 -27.247  1.00  0.00     0.373 C 
HETATM    6  N3  UNL     1     -14.068 -28.145 -27.573  1.00  0.00    -0.091 NA
HETATM    7  N4  UNL     1     -13.572 -27.609 -26.378  1.00  0.00    -0.165 N 
ENDROOT
BRANCH   7   8
HETATM    8  N5  UNL     1     -12.244 -27.249 -26.227  1.00  0.00    -0.113 N 
ATOM      9  H5  UNL     1     -12.052 -26.287 -25.948  1.00  0.00     0.207 HD
BRANCH   8  10
HETATM   10  C3  UNL     1     -11.244 -28.011 -26.404  1.00  0.00     0.712 A 
HETATM   11  N6  UNL     1     -11.096 -28.910 -27.373  1.00  0.00    -0.198 N 
HETATM   12  C4  UNL     1     -10.029 -29.686 -27.518  1.00  0.00     0.124 A 
ATOM     13  H6  UNL     1     -11.852 -29.010 -28.050  1.00  0.00     0.183 HD
HETATM   14  C5  UNL     1      -9.000 -29.568 -26.618  1.00  0.00     0.125 A 
HETATM   15  N7  UNL     1      -9.149 -28.655 -25.632  1.00  0.00    -0.296 N 
HETATM   16  N8  UNL     1     -10.219 -27.898 -25.513  1.00  0.00    -0.131 N 
ATOM     17  H7  UNL     1      -8.398 -28.547 -24.951  1.00  0.00     0.186 HD
ATOM     18  H8  UNL     1     -10.282 -27.225 -24.749  1.00  0.00     0.205 HD
ENDBRANCH   8  10
ENDBRANCH   7   8
BRANCH   1  19
HETATM   19  N1  UNL     1     -15.421 -26.289 -25.602  1.00  0.00    -0.030 N 
ATOM     20  H13 UNL     1     -15.283 -25.868 -26.521  1.00  0.00     0.279 HD
ATOM     21  H12 UNL     1     -16.430 -26.439 -25.648  1.00  0.00     0.279 HD
ATOM     22  H11 UNL     1     -15.173 -25.642 -24.854  1.00  0.00     0.279 HD
ENDBRANCH   1  19
TORSDOF 3
ENDMDL
MODEL 2
REMARK VINA RESULT: -6.253573602      0.872      1.573
REMARK  3 active torsions:
REMARK  status: ('A' for Active; 'I' for Inactive)
REMARK    1  A    between atoms: N1_1  and  C1_5 
REMARK    2  A    between atoms: N4_11  and  N5_12 
REMARK    3  A    between atoms: N5_12  and  C3_14 
ROOT
HETATM    1  C1  UNL     1     -14.459 -28.549 -27.171  1.00  0.00     0.518 C 
HETATM    2  N2  UNL     1     -15.803 -28.010 -27.113  1.00  0.00    -0.011 N 
ATOM      3  H21 UNL     1     -16.521 -28.729 -27.025  1.00  0.00     0.283 HD
ATOM      4  H22 UNL     1     -16.119 -27.620 -28.001  1.00  0.00     0.283 HD
HETATM    5  C2  UNL     1     -15.821 -27.059 -26.042  1.00  0.00     0.373 C 
HETATM    6  N3  UNL     1     -14.463 -26.893 -25.622  1.00  0.00    -0.091 NA
HETATM    7  N4  UNL     1     -13.646 -27.517 -26.574  1.00  0.00    -0.165 N 
ENDROOT
BRANCH   7   8
HETATM    8  N5  UNL     1     -12.338 -27.121 -26.796  1.00  0.00    -0.113 N 
ATOM      9  H5  UNL     1     -12.176 -26.131 -26.979  1.00  0.00     0.207 HD
BRANCH   8  10
HETATM   10  C3  UNL     1     -11.322 -27.882 -26.791  1.00  0.00     0.712 A 
HETATM   11  N6  UNL     1     -10.974 -28.744 -27.743  1.00  0.00    -0.198 N 
HETATM   12  C4  UNL     1      -9.900 -29.521 -27.692  1.00  0.00     0.124 A 
ATOM     13  H6  UNL     1     -11.573 -28.813 -28.565  1.00  0.00     0.183 HD
HETATM   14  C5  UNL     1      -9.081 -29.445 -26.594  1.00  0.00     0.125 A 
HETATM   15  N7  UNL     1      -9.433 -28.570 -25.626  1.00  0.00    -0.296 N 
HETATM   16  N8  UNL     1     -10.505 -27.811 -25.702  1.00  0.00    -0.131 N 
ATOM     17  H7  UNL     1      -8.840 -28.494 -24.800  1.00  0.00     0.186 HD
ATOM     18  H8  UNL     1     -10.726 -27.167 -24.943  1.00  0.00     0.205 HD
ENDBRANCH   8  10
ENDBRANCH   7   8
BRANCH   1  19
HETATM   19  N1  UNL     1     -14.357 -29.806 -26.439  1.00  0.00    -0.030 N 
ATOM     20  H13 UNL     1     -14.216 -30.595 -27.070  1.00  0.00     0.279 HD
ATOM     21  H12 UNL     1     -13.482 -29.863 -25.917  1.00  0.00     0.279 HD
ATOM     22  H11 UNL     1     -15.164 -29.951 -25.832  1.00  0.00     0.279 HD
ENDBRANCH   1  19
TORSDOF 3
ENDMDL
MODEL 3
REMARK VINA RESULT: -6.245741317      1.454      4.988
REMARK  3 active torsions:
REMARK  status: ('A' for Active; 'I' for Inactive)
REMARK    1  A    between atoms: N1_1  and  C1_5 
REMARK    2  A    between atoms: N4_11  and  N5_12 
REMARK    3  A    between atoms: N5_12  and  C3_14 
ROOT
HETATM    1  C1  UNL     1      -9.962 -29.120 -26.222  1.00  0.00     0.518 C 
HETATM    2  N2  UNL     1      -9.399 -28.556 -27.432  1.00  0.00    -0.011 N 
ATOM      3  H21 UNL     1      -8.419 -28.801 -27.572  1.00  0.00     0.283 HD
ATOM      4  H22 UNL     1      -9.274 -27.545 -27.384  1.00  0.00     0.283 HD
HETATM    5  C2  UNL     1     -10.244 -28.968 -28.512  1.00  0.00     0.373 C 
HETATM    6  N3  UNL     1     -11.393 -29.582 -27.918  1.00  0.00    -0.091 NA
HETATM    7  N4  UNL     1     -11.355 -29.312 -26.544  1.00  0.00    -0.165 N 
ENDROOT
BRANCH   7   8
HETATM    8  N5  UNL     1     -12.502 -29.268 -25.770  1.00  0.00    -0.113 N 
ATOM      9  H5  UNL     1     -12.450 -29.680 -24.839  1.00  0.00     0.207 HD
BRANCH   8  10
HETATM   10  C3  UNL     1     -13.613 -28.761 -26.116  1.00  0.00     0.712 A 
HETATM   11  N6  UNL     1     -14.274 -28.999 -27.246  1.00  0.00    -0.198 N 
HETATM   12  C4  UNL     1     -15.435 -28.442 -27.565  1.00  0.00     0.124 A 
ATOM     13  H6  UNL     1     -13.861 -29.652 -27.911  1.00  0.00     0.183 HD
HETATM   14  C5  UNL     1     -16.008 -27.559 -26.684  1.00  0.00     0.125 A 
HETATM   15  N7  UNL     1     -15.338 -27.316 -25.536  1.00  0.00    -0.296 N 
HETATM   16  N8  UNL     1     -14.186 -27.883 -25.246  1.00  0.00    -0.131 N 
ATOM     17  H7  UNL     1     -15.743 -26.664 -24.865  1.00  0.00     0.186 HD
ATOM     18  H8  UNL     1     -13.721 -27.664 -24.365  1.00  0.00     0.205 HD
ENDBRANCH   8  10
ENDBRANCH   7   8
BRANCH   1  19
HETATM   19  N1  UNL     1      -9.313 -30.377 -25.868  1.00  0.00    -0.030 N 
ATOM     20  H13 UNL     1      -9.335 -31.039 -26.643  1.00  0.00     0.279 HD
ATOM     21  H12 UNL     1      -8.302 -30.264 -25.784  1.00  0.00     0.279 HD
ATOM     22  H11 UNL     1      -9.716 -30.779 -25.021  1.00  0.00     0.279 HD
ENDBRANCH   1  19
TORSDOF 3
ENDMDL
MODEL 4
REMARK VINA RESULT: -6.245515978      1.453      1.710
REMARK  3 active torsions:
REMARK  status: ('A' for Active; 'I' for Inactive)
REMARK    1  A    between atoms: N1_1  and  C1_5 
REMARK    2  A    between atoms: N4_11  and  N5_12 
REMARK    3  A    between atoms: N5_12  and  C3_14 
ROOT
HETATM    1  C1  UNL     1     -14.571 -28.212 -25.517  1.00  0.00     0.518 C 
HETATM    2  N2  UNL     1     -15.977 -27.871 -25.612  1.00  0.00    -0.011 N 
ATOM      3  H21 UNL     1     -16.207 -26.987 -25.158  1.00  0.00     0.283 HD
ATOM      4  H22 UNL     1     -16.574 -28.469 -25.040  1.00  0.00     0.283 HD
HETATM    5  C2  UNL     1     -16.316 -27.898 -27.002  1.00  0.00     0.373 C 
HETATM    6  N3  UNL     1     -15.186 -28.449 -27.687  1.00  0.00    -0.091 NA
HETATM    7  N4  UNL     1     -14.318 -28.970 -26.719  1.00  0.00    -0.165 N 
ENDROOT
BRANCH   7   8
HETATM    8  N5  UNL     1     -13.441 -30.005 -26.996  1.00  0.00    -0.113 N 
ATOM      9  H5  UNL     1     -13.848 -30.924 -27.170  1.00  0.00     0.207 HD
BRANCH   8  10
HETATM   10  C3  UNL     1     -12.177 -29.913 -27.051  1.00  0.00     0.712 A 
HETATM   11  N6  UNL     1     -11.455 -29.540 -28.105  1.00  0.00    -0.198 N 
HETATM   12  C4  UNL     1     -10.131 -29.459 -28.114  1.00  0.00     0.124 A 
ATOM     13  H6  UNL     1     -11.953 -29.301 -28.962  1.00  0.00     0.183 HD
HETATM   14  C5  UNL     1      -9.442 -29.777 -26.971  1.00  0.00     0.125 A 
HETATM   15  N7  UNL     1     -10.173 -30.156 -25.899  1.00  0.00    -0.296 N 
HETATM   16  N8  UNL     1     -11.487 -30.228 -25.918  1.00  0.00    -0.131 N 
ATOM     17  H7  UNL     1      -9.685 -30.397 -25.037  1.00  0.00     0.186 HD
ATOM     18  H8  UNL     1     -11.991 -30.521 -25.082  1.00  0.00     0.205 HD
ENDBRANCH   8  10
ENDBRANCH   7   8
BRANCH   1  19
HETATM   19  N1  UNL     1     -13.737 -27.018 -25.447  1.00  0.00    -0.030 N 
ATOM     20  H13 UNL     1     -12.880 -27.129 -25.990  1.00  0.00     0.279 HD
ATOM     21  H12 UNL     1     -14.151 -26.242 -25.964  1.00  0.00     0.279 HD
ATOM     22  H11 UNL     1     -13.537 -26.759 -24.482  1.00  0.00     0.279 HD
ENDBRANCH   1  19
TORSDOF 3
ENDMDL
MODEL 5
REMARK VINA RESULT: -6.183167398      1.263      1.990
REMARK  3 active torsions:
REMARK  status: ('A' for Active; 'I' for Inactive)
REMARK    1  A    between atoms: N1_1  and  C1_5 
REMARK    2  A    between atoms: N4_11  and  N5_12 
REMARK    3  A    between atoms: N5_12  and  C3_14 
ROOT
HETATM    1  C1  UNL     1     -14.815 -28.317 -26.857  1.00  0.00     0.518 C 
HETATM    2  N2  UNL     1     -16.112 -27.671 -26.874  1.00  0.00    -0.011 N 
ATOM      3  H21 UNL     1     -16.889 -28.330 -26.929  1.00  0.00     0.283 HD
ATOM      4  H22 UNL     1     -16.302 -27.174 -27.744  1.00  0.00     0.283 HD
HETATM    5  C2  UNL     1     -16.169 -26.827 -25.718  1.00  0.00     0.373 C 
HETATM    6  N3  UNL     1     -14.852 -26.820 -25.155  1.00  0.00    -0.091 NA
HETATM    7  N4  UNL     1     -13.991 -27.420 -26.082  1.00  0.00    -0.165 N 
ENDROOT
BRANCH   7   8
HETATM    8  N5  UNL     1     -12.640 -27.122 -26.135  1.00  0.00    -0.113 N 
ATOM      9  H5  UNL     1     -12.354 -26.204 -25.794  1.00  0.00     0.207 HD
BRANCH   8  10
HETATM   10  C3  UNL     1     -11.728 -27.888 -26.570  1.00  0.00     0.712 A 
HETATM   11  N6  UNL     1     -11.349 -29.049 -26.043  1.00  0.00    -0.198 N 
HETATM   12  C4  UNL     1     -10.386 -29.817 -26.536  1.00  0.00     0.124 A 
ATOM     13  H6  UNL     1     -11.831 -29.371 -25.204  1.00  0.00     0.183 HD
HETATM   14  C5  UNL     1      -9.724 -29.402 -27.664  1.00  0.00     0.125 A 
HETATM   15  N7  UNL     1     -10.106 -28.223 -28.201  1.00  0.00    -0.296 N 
HETATM   16  N8  UNL     1     -11.066 -27.481 -27.691  1.00  0.00    -0.131 N 
ATOM     17  H7  UNL     1      -9.630 -27.893 -29.041  1.00  0.00     0.186 HD
ATOM     18  H8  UNL     1     -11.315 -26.598 -28.135  1.00  0.00     0.205 HD
ENDBRANCH   8  10
ENDBRANCH   7   8
BRANCH   1  19
HETATM   19  N1  UNL     1     -14.887 -29.641 -26.250  1.00  0.00    -0.030 N 
ATOM     20  H13 UNL     1     -15.426 -30.288 -26.827  1.00  0.00     0.279 HD
ATOM     21  H12 UNL     1     -13.984 -30.116 -26.282  1.00  0.00     0.279 HD
ATOM     22  H11 UNL     1     -15.252 -29.597 -25.299  1.00  0.00     0.279 HD
ENDBRANCH   1  19
TORSDOF 3
ENDMDL
