MODEL 1
REMARK VINA RESULT: -7.756572057      0.000      0.000
REMARK  10 active torsions:
REMARK  status: ('A' for Active; 'I' for Inactive)
REMARK    1  A    between atoms: C4_4  and  C5_5 
REMARK    2  A    between atoms: C6_6  and  S1_7 
REMARK    3  A    between atoms: S1_7  and  C7_8 
REMARK    4  A    between atoms: C7_8  and  C8_9 
REMARK    5  A    between atoms: C8_9  and  O1_10 
REMARK    6  A    between atoms: C8_9  and  S2_12 
REMARK    7  A    between atoms: S2_12  and  C9_13 
REMARK    8  A    between atoms: C12_16  and  S3_17 
REMARK    9  A    between atoms: C16_26  and  C17_27 
REMARK   10  A    between atoms: C17_27  and  O6_28 
ROOT
HETATM    1  C8  UNL     1      -8.529  26.424  84.324  1.00  0.00     0.194 C 
ENDROOT
BRANCH   1   2
HETATM    2  C7  UNL     1      -8.064  26.117  82.899  1.00  0.00     0.121 C 
BRANCH   2   3
HETATM    3  S1  UNL     1      -9.379  26.506  81.717  1.00  0.00    -0.138 SA
BRANCH   3   4
HETATM    4  C6  UNL     1      -8.845  27.822  80.653  1.00  0.00     0.043 C 
HETATM    5  C5  UNL     1      -7.640  27.786  80.106  1.00  0.00     0.012 C 
BRANCH   5   6
HETATM    6  C4  UNL     1      -7.250  28.925  79.220  1.00  0.00     0.148 C 
HETATM    7  C3  UNL     1      -5.846  28.806  78.695  1.00  0.00     0.070 C 
HETATM    8  C2  UNL     1      -5.818  29.419  77.341  1.00  0.00    -0.078 C 
HETATM    9  C1  UNL     1      -5.031  30.410  76.983  1.00  0.00     0.015 C 
HETATM   10  C16 UNL     1      -6.769  28.841  76.345  1.00  0.00     0.061 C 
HETATM   11  C15 UNL     1      -7.856  28.162  77.167  1.00  0.00     0.179 C 
HETATM   12  O5  UNL     1      -8.218  28.999  78.220  1.00  0.00    -0.381 OA
BRANCH  10  13
HETATM   13  C17 UNL     1      -5.980  27.835  75.527  1.00  0.00     0.175 C 
BRANCH  13  14
HETATM   14  O6  UNL     1      -6.429  26.570  75.886  1.00  0.00    -0.400 OA
ATOM     15  H6  UNL     1      -7.379  26.590  75.863  1.00  0.00     0.209 HD
ENDBRANCH  13  14
ENDBRANCH  10  13
ENDBRANCH   5   6
ENDBRANCH   3   4
ENDBRANCH   2   3
ENDBRANCH   1   2
BRANCH   1  16
HETATM   16  O1  UNL     1      -7.380  26.566  85.095  1.00  0.00    -0.384 OA
ATOM     17  H1  UNL     1      -6.941  27.350  84.786  1.00  0.00     0.211 HD
ENDBRANCH   1  16
BRANCH   1  18
HETATM   18  S2  UNL     1      -9.362  28.054  84.359  1.00  0.00    -0.098 SA
BRANCH  18  19
HETATM   19  C9  UNL     1      -8.116  29.341  84.403  1.00  0.00     0.004 A 
HETATM   20  C10 UNL     1      -7.069  29.297  83.505  1.00  0.00     0.020 A 
HETATM   21  C11 UNL     1      -6.070  30.250  83.474  1.00  0.00     0.029 A 
HETATM   22  C12 UNL     1      -6.111  31.302  84.383  1.00  0.00     0.104 A 
HETATM   23  C13 UNL     1      -7.156  31.346  85.280  1.00  0.00     0.071 A 
HETATM   24  N1  UNL     1      -7.216  32.418  86.219  1.00  0.00    -0.101 NA
HETATM   25  C14 UNL     1      -8.157  30.387  85.307  1.00  0.00     0.046 A 
BRANCH  22  26
HETATM   26  S3  UNL     1      -4.912  32.550  84.433  1.00  0.00     0.139 S 
HETATM   27  O2  UNL     1      -4.227  32.590  85.794  1.00  0.00    -0.591 OA
HETATM   28  O3  UNL     1      -3.807  32.182  83.453  1.00  0.00    -0.591 OA
HETATM   29  O4  UNL     1      -5.481  34.046  83.992  1.00  0.00    -0.591 OA
ENDBRANCH  22  26
ENDBRANCH  18  19
ENDBRANCH   1  18
TORSDOF 10
ENDMDL
MODEL 2
REMARK VINA RESULT: -7.532971916      3.901      6.912
REMARK  10 active torsions:
REMARK  status: ('A' for Active; 'I' for Inactive)
REMARK    1  A    between atoms: C4_4  and  C5_5 
REMARK    2  A    between atoms: C6_6  and  S1_7 
REMARK    3  A    between atoms: S1_7  and  C7_8 
REMARK    4  A    between atoms: C7_8  and  C8_9 
REMARK    5  A    between atoms: C8_9  and  O1_10 
REMARK    6  A    between atoms: C8_9  and  S2_12 
REMARK    7  A    between atoms: S2_12  and  C9_13 
REMARK    8  A    between atoms: C12_16  and  S3_17 
REMARK    9  A    between atoms: C16_26  and  C17_27 
REMARK   10  A    between atoms: C17_27  and  O6_28 
ROOT
HETATM    1  C8  UNL     1      -7.775  27.461  83.939  1.00  0.00     0.194 C 
ENDROOT
BRANCH   1   2
HETATM    2  C7  UNL     1      -7.458  28.737  84.721  1.00  0.00     0.121 C 
BRANCH   2   3
HETATM    3  S1  UNL     1      -6.556  29.904  83.670  1.00  0.00    -0.138 SA
BRANCH   3   4
HETATM    4  C6  UNL     1      -6.098  29.099  82.155  1.00  0.00     0.043 C 
HETATM    5  C5  UNL     1      -6.468  29.613  80.993  1.00  0.00     0.012 C 
BRANCH   5   6
HETATM    6  C4  UNL     1      -6.051  28.888  79.754  1.00  0.00     0.148 C 
HETATM    7  C3  UNL     1      -6.759  29.377  78.521  1.00  0.00     0.070 C 
HETATM    8  C2  UNL     1      -5.820  29.239  77.377  1.00  0.00    -0.078 C 
HETATM    9  C1  UNL     1      -6.063  28.543  76.288  1.00  0.00     0.015 C 
HETATM   10  C16 UNL     1      -4.516  29.954  77.515  1.00  0.00     0.061 C 
HETATM   11  C15 UNL     1      -4.324  30.165  79.011  1.00  0.00     0.179 C 
HETATM   12  O5  UNL     1      -4.663  28.991  79.682  1.00  0.00    -0.381 OA
BRANCH  10  13
HETATM   13  C17 UNL     1      -4.668  31.274  76.783  1.00  0.00     0.175 C 
BRANCH  13  14
HETATM   14  O6  UNL     1      -3.618  32.091  77.183  1.00  0.00    -0.400 OA
ATOM     15  H6  UNL     1      -3.918  32.990  77.117  1.00  0.00     0.209 HD
ENDBRANCH  13  14
ENDBRANCH  10  13
ENDBRANCH   5   6
ENDBRANCH   3   4
ENDBRANCH   2   3
ENDBRANCH   1   2
BRANCH   1  16
HETATM   16  O1  UNL     1      -7.445  26.394  84.769  1.00  0.00    -0.384 OA
ATOM     17  H1  UNL     1      -7.787  25.611  84.354  1.00  0.00     0.211 HD
ENDBRANCH   1  16
BRANCH   1  18
HETATM   18  S2  UNL     1      -9.583  27.343  83.665  1.00  0.00    -0.098 SA
BRANCH  18  19
HETATM   19  C9  UNL     1      -9.903  26.048  82.468  1.00  0.00     0.004 A 
HETATM   20  C10 UNL     1     -10.751  25.013  82.805  1.00  0.00     0.020 A 
HETATM   21  C11 UNL     1     -11.048  23.979  81.940  1.00  0.00     0.029 A 
HETATM   22  C12 UNL     1     -10.475  23.971  80.672  1.00  0.00     0.104 A 
HETATM   23  C13 UNL     1      -9.628  25.005  80.336  1.00  0.00     0.071 A 
HETATM   24  N1  UNL     1      -9.030  25.015  79.041  1.00  0.00    -0.101 NA
HETATM   25  C14 UNL     1      -9.332  26.041  81.209  1.00  0.00     0.046 A 
BRANCH  22  26
HETATM   26  S3  UNL     1     -10.777  22.725  79.509  1.00  0.00     0.139 S 
HETATM   27  O2  UNL     1      -9.471  22.132  78.996  1.00  0.00    -0.591 OA
HETATM   28  O3  UNL     1     -11.474  21.575  80.221  1.00  0.00    -0.591 OA
HETATM   29  O4  UNL     1     -11.765  23.199  78.261  1.00  0.00    -0.591 OA
ENDBRANCH  22  26
ENDBRANCH  18  19
ENDBRANCH   1  18
TORSDOF 10
ENDMDL
MODEL 3
REMARK VINA RESULT: -7.516865630      2.688      4.564
REMARK  10 active torsions:
REMARK  status: ('A' for Active; 'I' for Inactive)
REMARK    1  A    between atoms: C4_4  and  C5_5 
REMARK    2  A    between atoms: C6_6  and  S1_7 
REMARK    3  A    between atoms: S1_7  and  C7_8 
REMARK    4  A    between atoms: C7_8  and  C8_9 
REMARK    5  A    between atoms: C8_9  and  O1_10 
REMARK    6  A    between atoms: C8_9  and  S2_12 
REMARK    7  A    between atoms: S2_12  and  C9_13 
REMARK    8  A    between atoms: C12_16  and  S3_17 
REMARK    9  A    between atoms: C16_26  and  C17_27 
REMARK   10  A    between atoms: C17_27  and  O6_28 
ROOT
HETATM    1  C8  UNL     1      -8.651  28.669  79.553  1.00  0.00     0.194 C 
ENDROOT
BRANCH   1   2
HETATM    2  C7  UNL     1      -8.348  27.616  78.485  1.00  0.00     0.121 C 
BRANCH   2   3
HETATM    3  S1  UNL     1      -7.289  28.321  77.197  1.00  0.00    -0.138 SA
BRANCH   3   4
HETATM    4  C6  UNL     1      -5.749  28.834  77.915  1.00  0.00     0.043 C 
HETATM    5  C5  UNL     1      -5.443  30.120  77.980  1.00  0.00     0.012 C 
BRANCH   5   6
HETATM    6  C4  UNL     1      -4.132  30.487  78.597  1.00  0.00     0.148 C 
HETATM    7  C3  UNL     1      -3.953  31.972  78.756  1.00  0.00     0.070 C 
HETATM    8  C2  UNL     1      -3.134  32.198  79.976  1.00  0.00    -0.078 C 
HETATM    9  C1  UNL     1      -1.992  32.850  80.001  1.00  0.00     0.015 C 
HETATM   10  C16 UNL     1      -3.681  31.627  81.243  1.00  0.00     0.061 C 
HETATM   11  C15 UNL     1      -4.638  30.525  80.812  1.00  0.00     0.179 C 
HETATM   12  O5  UNL     1      -4.045  29.780  79.794  1.00  0.00    -0.381 OA
BRANCH  10  13
HETATM   13  C17 UNL     1      -4.413  32.756  81.945  1.00  0.00     0.175 C 
BRANCH  13  14
HETATM   14  O6  UNL     1      -4.631  32.353  83.256  1.00  0.00    -0.400 OA
ATOM     15  H6  UNL     1      -3.881  32.634  83.766  1.00  0.00     0.209 HD
ENDBRANCH  13  14
ENDBRANCH  10  13
ENDBRANCH   5   6
ENDBRANCH   3   4
ENDBRANCH   2   3
ENDBRANCH   1   2
BRANCH   1  16
HETATM   16  O1  UNL     1      -9.764  29.376  79.108  1.00  0.00    -0.384 OA
ATOM     17  H1  UNL     1     -10.472  29.172  79.708  1.00  0.00     0.211 HD
ENDBRANCH   1  16
BRANCH   1  18
HETATM   18  S2  UNL     1      -9.168  27.842  81.103  1.00  0.00    -0.098 SA
BRANCH  18  19
HETATM   19  C9  UNL     1      -8.488  28.742  82.495  1.00  0.00     0.004 A 
HETATM   20  C10 UNL     1      -7.120  28.771  82.676  1.00  0.00     0.020 A 
HETATM   21  C11 UNL     1      -6.519  29.443  83.723  1.00  0.00     0.029 A 
HETATM   22  C12 UNL     1      -7.317  30.120  84.639  1.00  0.00     0.104 A 
HETATM   23  C13 UNL     1      -8.683  30.090  84.458  1.00  0.00     0.071 A 
HETATM   24  N1  UNL     1      -9.519  30.780  85.386  1.00  0.00    -0.101 NA
HETATM   25  C14 UNL     1      -9.282  29.415  83.405  1.00  0.00     0.046 A 
BRANCH  22  26
HETATM   26  S3  UNL     1      -6.671  30.993  85.987  1.00  0.00     0.139 S 
HETATM   27  O2  UNL     1      -7.049  30.321  87.301  1.00  0.00    -0.591 OA
HETATM   28  O3  UNL     1      -5.153  30.899  85.925  1.00  0.00    -0.591 OA
HETATM   29  O4  UNL     1      -7.062  32.606  85.992  1.00  0.00    -0.591 OA
ENDBRANCH  22  26
ENDBRANCH  18  19
ENDBRANCH   1  18
TORSDOF 10
ENDMDL
MODEL 4
REMARK VINA RESULT: -7.480452458      4.063      6.985
REMARK  10 active torsions:
REMARK  status: ('A' for Active; 'I' for Inactive)
REMARK    1  A    between atoms: C4_4  and  C5_5 
REMARK    2  A    between atoms: C6_6  and  S1_7 
REMARK    3  A    between atoms: S1_7  and  C7_8 
REMARK    4  A    between atoms: C7_8  and  C8_9 
REMARK    5  A    between atoms: C8_9  and  O1_10 
REMARK    6  A    between atoms: C8_9  and  S2_12 
REMARK    7  A    between atoms: S2_12  and  C9_13 
REMARK    8  A    between atoms: C12_16  and  S3_17 
REMARK    9  A    between atoms: C16_26  and  C17_27 
REMARK   10  A    between atoms: C17_27  and  O6_28 
ROOT
HETATM    1  C8  UNL     1      -7.802  27.385  83.660  1.00  0.00     0.194 C 
ENDROOT
BRANCH   1   2
HETATM    2  C7  UNL     1      -7.344  28.580  84.499  1.00  0.00     0.121 C 
BRANCH   2   3
HETATM    3  S1  UNL     1      -6.565  29.824  83.439  1.00  0.00    -0.138 SA
BRANCH   3   4
HETATM    4  C6  UNL     1      -6.044  29.062  81.922  1.00  0.00     0.043 C 
HETATM    5  C5  UNL     1      -6.541  29.476  80.767  1.00  0.00     0.012 C 
BRANCH   5   6
HETATM    6  C4  UNL     1      -6.062  28.795  79.526  1.00  0.00     0.148 C 
HETATM    7  C3  UNL     1      -6.744  29.293  78.282  1.00  0.00     0.070 C 
HETATM    8  C2  UNL     1      -5.764  29.211  77.167  1.00  0.00    -0.078 C 
HETATM    9  C1  UNL     1      -5.951  28.536  76.054  1.00  0.00     0.015 C 
HETATM   10  C16 UNL     1      -4.488  29.960  77.366  1.00  0.00     0.061 C 
HETATM   11  C15 UNL     1      -4.352  30.140  78.871  1.00  0.00     0.179 C 
HETATM   12  O5  UNL     1      -4.677  28.941  79.503  1.00  0.00    -0.381 OA
BRANCH  10  13
HETATM   13  C17 UNL     1      -4.656  31.294  76.661  1.00  0.00     0.175 C 
BRANCH  13  14
HETATM   14  O6  UNL     1      -3.608  32.110  77.067  1.00  0.00    -0.400 OA
ATOM     15  H6  UNL     1      -3.795  32.388  77.956  1.00  0.00     0.209 HD
ENDBRANCH  13  14
ENDBRANCH  10  13
ENDBRANCH   5   6
ENDBRANCH   3   4
ENDBRANCH   2   3
ENDBRANCH   1   2
BRANCH   1  16
HETATM   16  O1  UNL     1      -7.890  26.301  84.526  1.00  0.00    -0.384 OA
ATOM     17  H1  UNL     1      -7.415  25.587  84.117  1.00  0.00     0.211 HD
ENDBRANCH   1  16
BRANCH   1  18
HETATM   18  S2  UNL     1      -9.504  27.680  83.051  1.00  0.00    -0.098 SA
BRANCH  18  19
HETATM   19  C9  UNL     1     -10.000  26.298  82.023  1.00  0.00     0.004 A 
HETATM   20  C10 UNL     1      -9.063  25.690  81.213  1.00  0.00     0.020 A 
HETATM   21  C11 UNL     1      -9.365  24.620  80.393  1.00  0.00     0.029 A 
HETATM   22  C12 UNL     1     -10.666  24.128  80.376  1.00  0.00     0.104 A 
HETATM   23  C13 UNL     1     -11.601  24.735  81.185  1.00  0.00     0.071 A 
HETATM   24  N1  UNL     1     -12.941  24.244  81.181  1.00  0.00    -0.101 NA
HETATM   25  C14 UNL     1     -11.294  25.809  82.006  1.00  0.00     0.046 A 
BRANCH  22  26
HETATM   26  S3  UNL     1     -11.155  22.794  79.387  1.00  0.00     0.139 S 
HETATM   27  O2  UNL     1     -12.039  23.264  78.238  1.00  0.00    -0.591 OA
HETATM   28  O3  UNL     1      -9.913  22.226  78.714  1.00  0.00    -0.591 OA
HETATM   29  O4  UNL     1     -11.863  21.555  80.235  1.00  0.00    -0.591 OA
ENDBRANCH  22  26
ENDBRANCH  18  19
ENDBRANCH   1  18
TORSDOF 10
ENDMDL
MODEL 5
REMARK VINA RESULT: -7.400553788      2.844      4.976
REMARK  10 active torsions:
REMARK  status: ('A' for Active; 'I' for Inactive)
REMARK    1  A    between atoms: C4_4  and  C5_5 
REMARK    2  A    between atoms: C6_6  and  S1_7 
REMARK    3  A    between atoms: S1_7  and  C7_8 
REMARK    4  A    between atoms: C7_8  and  C8_9 
REMARK    5  A    between atoms: C8_9  and  O1_10 
REMARK    6  A    between atoms: C8_9  and  S2_12 
REMARK    7  A    between atoms: S2_12  and  C9_13 
REMARK    8  A    between atoms: C12_16  and  S3_17 
REMARK    9  A    between atoms: C16_26  and  C17_27 
REMARK   10  A    between atoms: C17_27  and  O6_28 
ROOT
HETATM    1  C8  UNL     1      -8.395  28.770  78.915  1.00  0.00     0.194 C 
ENDROOT
BRANCH   1   2
HETATM    2  C7  UNL     1      -8.555  28.049  77.575  1.00  0.00     0.121 C 
BRANCH   2   3
HETATM    3  S1  UNL     1      -7.211  28.513  76.453  1.00  0.00    -0.138 SA
BRANCH   3   4
HETATM    4  C6  UNL     1      -5.784  28.974  77.403  1.00  0.00     0.043 C 
HETATM    5  C5  UNL     1      -5.124  30.084  77.112  1.00  0.00     0.012 C 
BRANCH   5   6
HETATM    6  C4  UNL     1      -3.931  30.417  77.949  1.00  0.00     0.148 C 
HETATM    7  C3  UNL     1      -3.795  31.890  78.218  1.00  0.00     0.070 C 
HETATM    8  C2  UNL     1      -3.183  32.048  79.563  1.00  0.00    -0.078 C 
HETATM    9  C1  UNL     1      -2.066  32.699  79.806  1.00  0.00     0.015 C 
HETATM   10  C16 UNL     1      -3.919  31.405  80.693  1.00  0.00     0.061 C 
HETATM   11  C15 UNL     1      -4.784  30.328  80.054  1.00  0.00     0.179 C 
HETATM   12  O5  UNL     1      -4.028  29.643  79.104  1.00  0.00    -0.381 OA
BRANCH  10  13
HETATM   13  C17 UNL     1      -4.765  32.492  81.331  1.00  0.00     0.175 C 
BRANCH  13  14
HETATM   14  O6  UNL     1      -4.313  32.654  82.634  1.00  0.00    -0.400 OA
ATOM     15  H6  UNL     1      -4.564  33.527  82.913  1.00  0.00     0.209 HD
ENDBRANCH  13  14
ENDBRANCH  10  13
ENDBRANCH   5   6
ENDBRANCH   3   4
ENDBRANCH   2   3
ENDBRANCH   1   2
BRANCH   1  16
HETATM   16  O1  UNL     1      -9.626  29.349  79.205  1.00  0.00    -0.384 OA
ATOM     17  H1  UNL     1     -10.131  29.329  78.401  1.00  0.00     0.211 HD
ENDBRANCH   1  16
BRANCH   1  18
HETATM   18  S2  UNL     1      -8.092  27.542  80.240  1.00  0.00    -0.098 SA
BRANCH  18  19
HETATM   19  C9  UNL     1      -8.099  28.384  81.822  1.00  0.00     0.004 A 
HETATM   20  C10 UNL     1      -9.239  28.352  82.599  1.00  0.00     0.020 A 
HETATM   21  C11 UNL     1      -9.323  28.974  83.829  1.00  0.00     0.029 A 
HETATM   22  C12 UNL     1      -8.218  29.666  84.314  1.00  0.00     0.104 A 
HETATM   23  C13 UNL     1      -7.080  29.699  83.537  1.00  0.00     0.071 A 
HETATM   24  N1  UNL     1      -5.936  30.403  84.018  1.00  0.00    -0.101 NA
HETATM   25  C14 UNL     1      -6.999  29.072  82.303  1.00  0.00     0.046 A 
BRANCH  22  26
HETATM   26  S3  UNL     1      -8.213  30.483  85.840  1.00  0.00     0.139 S 
HETATM   27  O2  UNL     1      -8.131  31.992  85.648  1.00  0.00    -0.591 OA
HETATM   28  O3  UNL     1      -9.563  30.248  86.504  1.00  0.00    -0.591 OA
HETATM   29  O4  UNL     1      -7.049  29.936  86.890  1.00  0.00    -0.591 OA
ENDBRANCH  22  26
ENDBRANCH  18  19
ENDBRANCH   1  18
TORSDOF 10
ENDMDL
