MODEL 1
REMARK VINA RESULT: -8.295870434      0.000      0.000
REMARK  6 active torsions:
REMARK  status: ('A' for Active; 'I' for Inactive)
REMARK    1  A    between atoms: C2_2  and  N1_4 
REMARK    2  A    between atoms: C8_13  and  N4_14 
REMARK       I    between atoms: N4_14  and  C9_16 
REMARK       I    between atoms: C9_16  and  N5_18 
REMARK    3  A    between atoms: N6_25  and  C15_26 
REMARK    4  A    between atoms: C15_26  and  C16_27 
REMARK    5  A    between atoms: C16_27  and  O2_28 
REMARK    6  A    between atoms: C16_27  and  C17_30 
ROOT
HETATM    1  N4  UNL     1      -0.651   3.773  10.872  1.00  0.00    -0.293 N 
ATOM      2  H4  UNL     1      -1.030   4.583  11.363  1.00  0.00     0.172 HD
HETATM    3  C9  UNL     1      -1.320   2.519  10.977  1.00  0.00     0.324 C 
HETATM    4  O1  UNL     1      -0.833   1.545  10.372  1.00  0.00    -0.247 OA
HETATM    5  N5  UNL     1      -2.515   2.418  11.763  1.00  0.00    -0.330 N 
HETATM    6  C10 UNL     1      -3.152   1.122  11.832  1.00  0.00     0.166 C 
HETATM    7  C11 UNL     1      -4.539   1.325  12.399  1.00  0.00     0.277 C 
HETATM    8  C12 UNL     1      -5.111   2.544  11.713  1.00  0.00     0.240 C 
HETATM    9  F1  UNL     1      -4.590   2.868  10.489  1.00  0.00    -0.245 F 
HETATM   10  C13 UNL     1      -4.478   3.266  12.883  1.00  0.00     0.277 C 
HETATM   11  C14 UNL     1      -3.038   3.589  12.440  1.00  0.00     0.166 C 
HETATM   12  N6  UNL     1      -4.408   2.063  13.620  1.00  0.00     0.109 N 
ENDROOT
BRANCH   1  13
HETATM   13  C8  UNL     1       0.529   3.918  10.101  1.00  0.00     0.134 A 
HETATM   14  N3  UNL     1       0.612   3.780   8.758  1.00  0.00    -0.318 N 
HETATM   15  C7  UNL     1       1.893   3.996   8.400  1.00  0.00     0.194 A 
ATOM     16  H3  UNL     1      -0.158   3.553   8.130  1.00  0.00     0.169 HD
HETATM   17  C6  UNL     1       2.401   3.943   7.050  1.00  0.00     0.160 A 
HETATM   18  O3  UNL     1       2.555   4.253   9.483  1.00  0.00    -0.299 OA
HETATM   19  N1  UNL     1       3.664   4.152   6.647  1.00  0.00    -0.334 N 
HETATM   20  N2  UNL     1       1.631   3.664   5.976  1.00  0.00    -0.347 N 
HETATM   21  C4  UNL     1       3.668   3.999   5.296  1.00  0.00     0.110 A 
HETATM   22  C5  UNL     1       2.407   3.699   4.897  1.00  0.00     0.107 A 
ATOM     23  H2  UNL     1       0.631   3.463   5.990  1.00  0.00     0.167 HD
HETATM   24  C21 UNL     1       1.801   4.223  10.536  1.00  0.00     0.193 A 
BRANCH  19  25
HETATM   25  C2  UNL     1       4.852   4.480   7.405  1.00  0.00     0.083 C 
HETATM   26  C1  UNL     1       5.799   5.399   6.700  1.00  0.00     0.032 C 
HETATM   27  C3  UNL     1       5.578   3.257   7.931  1.00  0.00     0.032 C 
ENDBRANCH  19  25
ENDBRANCH   1  13
BRANCH  12  28
HETATM   28  C15 UNL     1      -5.218   1.767  14.708  1.00  0.00     0.306 C 
BRANCH  28  29
HETATM   29  C16 UNL     1      -4.727   1.992  16.087  1.00  0.00     0.153 C 
BRANCH  29  30
HETATM   30  O2  UNL     1      -4.046   0.911  16.640  1.00  0.00    -0.393 OA
ATOM     31  H2  UNL     1      -4.303   0.697  17.529  1.00  0.00     0.210 HD
ENDBRANCH  29  30
BRANCH  29  32
HETATM   32  C17 UNL     1      -5.959   2.180  16.985  1.00  0.00    -0.024 C 
HETATM   33  C18 UNL     1      -7.016   1.149  16.639  1.00  0.00     0.017 C 
HETATM   34  C19 UNL     1      -6.534   3.538  16.630  1.00  0.00     0.017 C 
HETATM   35  C20 UNL     1      -5.617   2.129  18.435  1.00  0.00     0.017 C 
ENDBRANCH  29  32
ENDBRANCH  28  29
ENDBRANCH  12  28
TORSDOF 6
ENDMDL
MODEL 2
REMARK VINA RESULT: -8.167842016      1.275      1.469
REMARK  6 active torsions:
REMARK  status: ('A' for Active; 'I' for Inactive)
REMARK    1  A    between atoms: C2_2  and  N1_4 
REMARK    2  A    between atoms: C8_13  and  N4_14 
REMARK       I    between atoms: N4_14  and  C9_16 
REMARK       I    between atoms: C9_16  and  N5_18 
REMARK    3  A    between atoms: N6_25  and  C15_26 
REMARK    4  A    between atoms: C15_26  and  C16_27 
REMARK    5  A    between atoms: C16_27  and  O2_28 
REMARK    6  A    between atoms: C16_27  and  C17_30 
ROOT
HETATM    1  N4  UNL     1      -0.086   4.474  11.847  1.00  0.00    -0.293 N 
ATOM      2  H4  UNL     1      -0.026   5.136  12.620  1.00  0.00     0.172 HD
HETATM    3  C9  UNL     1      -1.262   3.684  11.696  1.00  0.00     0.324 C 
HETATM    4  O1  UNL     1      -1.307   2.879  10.746  1.00  0.00    -0.247 OA
HETATM    5  N5  UNL     1      -2.341   3.836  12.628  1.00  0.00    -0.330 N 
HETATM    6  C10 UNL     1      -3.509   3.009  12.426  1.00  0.00     0.166 C 
HETATM    7  C11 UNL     1      -4.622   3.574  13.281  1.00  0.00     0.277 C 
HETATM    8  C12 UNL     1      -4.573   5.075  13.114  1.00  0.00     0.240 C 
HETATM    9  F1  UNL     1      -3.998   5.553  11.967  1.00  0.00    -0.245 F 
HETATM   10  C13 UNL     1      -3.642   4.989  14.303  1.00  0.00     0.277 C 
HETATM   11  C14 UNL     1      -2.233   4.794  13.712  1.00  0.00     0.166 C 
HETATM   12  N6  UNL     1      -4.124   3.699  14.619  1.00  0.00     0.109 N 
ENDROOT
BRANCH   1  13
HETATM   13  C8  UNL     1       1.001   4.360  10.945  1.00  0.00     0.134 A 
HETATM   14  N3  UNL     1       0.898   4.234   9.602  1.00  0.00    -0.318 N 
HETATM   15  C7  UNL     1       2.145   4.157   9.098  1.00  0.00     0.194 A 
ATOM     16  H3  UNL     1       0.030   4.204   9.067  1.00  0.00     0.169 HD
HETATM   17  C6  UNL     1       2.472   4.017   7.699  1.00  0.00     0.160 A 
HETATM   18  O3  UNL     1       2.967   4.232  10.096  1.00  0.00    -0.299 OA
HETATM   19  N1  UNL     1       3.695   3.937   7.153  1.00  0.00    -0.334 N 
HETATM   20  N2  UNL     1       1.542   3.946   6.722  1.00  0.00    -0.347 N 
HETATM   21  C4  UNL     1       3.511   3.816   5.811  1.00  0.00     0.110 A 
HETATM   22  C5  UNL     1       2.178   3.823   5.561  1.00  0.00     0.107 A 
ATOM     23  H2  UNL     1       0.531   3.980   6.852  1.00  0.00     0.167 HD
HETATM   24  C21 UNL     1       2.350   4.354  11.229  1.00  0.00     0.193 A 
BRANCH  19  25
HETATM   25  C2  UNL     1       5.005   3.967   7.768  1.00  0.00     0.083 C 
HETATM   26  C1  UNL     1       6.019   4.772   7.020  1.00  0.00     0.032 C 
HETATM   27  C3  UNL     1       5.542   2.586   8.089  1.00  0.00     0.032 C 
ENDBRANCH  19  25
ENDBRANCH   1  13
BRANCH  12  28
HETATM   28  C15 UNL     1      -4.946   3.417  15.702  1.00  0.00     0.306 C 
BRANCH  28  29
HETATM   29  C16 UNL     1      -4.583   2.342  16.654  1.00  0.00     0.153 C 
BRANCH  29  30
HETATM   30  O2  UNL     1      -4.042   1.206  16.061  1.00  0.00    -0.393 OA
ATOM     31  H2  UNL     1      -4.474   0.394  16.299  1.00  0.00     0.210 HD
ENDBRANCH  29  30
BRANCH  29  32
HETATM   32  C17 UNL     1      -5.883   1.860  17.315  1.00  0.00    -0.024 C 
HETATM   33  C18 UNL     1      -5.933   0.343  17.315  1.00  0.00     0.017 C 
HETATM   34  C19 UNL     1      -7.011   2.338  16.421  1.00  0.00     0.017 C 
HETATM   35  C20 UNL     1      -6.053   2.400  18.694  1.00  0.00     0.017 C 
ENDBRANCH  29  32
ENDBRANCH  28  29
ENDBRANCH  12  28
TORSDOF 6
ENDMDL
MODEL 3
REMARK VINA RESULT: -7.875854647      1.395      2.186
REMARK  6 active torsions:
REMARK  status: ('A' for Active; 'I' for Inactive)
REMARK    1  A    between atoms: C2_2  and  N1_4 
REMARK    2  A    between atoms: C8_13  and  N4_14 
REMARK       I    between atoms: N4_14  and  C9_16 
REMARK       I    between atoms: C9_16  and  N5_18 
REMARK    3  A    between atoms: N6_25  and  C15_26 
REMARK    4  A    between atoms: C15_26  and  C16_27 
REMARK    5  A    between atoms: C16_27  and  O2_28 
REMARK    6  A    between atoms: C16_27  and  C17_30 
ROOT
HETATM    1  N4  UNL     1      -0.684   3.878  10.865  1.00  0.00    -0.293 N 
ATOM      2  H4  UNL     1      -1.118   4.682  11.320  1.00  0.00     0.172 HD
HETATM    3  C9  UNL     1      -1.283   2.593  11.004  1.00  0.00     0.324 C 
HETATM    4  O1  UNL     1      -0.730   1.627  10.443  1.00  0.00    -0.247 OA
HETATM    5  N5  UNL     1      -2.485   2.451  11.774  1.00  0.00    -0.330 N 
HETATM    6  C10 UNL     1      -3.048   1.124  11.880  1.00  0.00     0.166 C 
HETATM    7  C11 UNL     1      -4.455   1.267  12.416  1.00  0.00     0.277 C 
HETATM    8  C12 UNL     1      -5.082   2.427  11.677  1.00  0.00     0.240 C 
HETATM    9  F1  UNL     1      -4.558   2.736  10.451  1.00  0.00    -0.245 F 
HETATM   10  C13 UNL     1      -4.513   3.225  12.830  1.00  0.00     0.277 C 
HETATM   11  C14 UNL     1      -3.086   3.613  12.399  1.00  0.00     0.166 C 
HETATM   12  N6  UNL     1      -4.388   2.055  13.612  1.00  0.00     0.109 N 
ENDROOT
BRANCH   1  13
HETATM   13  C8  UNL     1       0.500   4.063  10.109  1.00  0.00     0.134 A 
HETATM   14  N3  UNL     1       1.712   4.388  10.613  1.00  0.00    -0.318 N 
HETATM   15  C7  UNL     1       2.578   4.470   9.585  1.00  0.00     0.194 A 
ATOM     16  H3  UNL     1       1.931   4.544  11.597  1.00  0.00     0.169 HD
HETATM   17  C6  UNL     1       3.981   4.793   9.699  1.00  0.00     0.160 A 
HETATM   18  O3  UNL     1       1.916   4.205   8.503  1.00  0.00    -0.299 OA
HETATM   19  N1  UNL     1       4.878   4.884   8.706  1.00  0.00    -0.334 N 
HETATM   20  N2  UNL     1       4.589   5.057  10.875  1.00  0.00    -0.347 N 
HETATM   21  C4  UNL     1       6.064   5.209   9.286  1.00  0.00     0.110 A 
HETATM   22  C5  UNL     1       5.869   5.312  10.624  1.00  0.00     0.107 A 
ATOM     23  H2  UNL     1       4.145   5.060  11.793  1.00  0.00     0.167 HD
HETATM   24  C21 UNL     1       0.668   3.953   8.745  1.00  0.00     0.193 A 
BRANCH  19  25
HETATM   25  C2  UNL     1       4.727   4.694   7.279  1.00  0.00     0.083 C 
HETATM   26  C1  UNL     1       4.916   3.282   6.822  1.00  0.00     0.032 C 
HETATM   27  C3  UNL     1       5.576   5.645   6.459  1.00  0.00     0.032 C 
ENDBRANCH  19  25
ENDBRANCH   1  13
BRANCH  12  28
HETATM   28  C15 UNL     1      -5.201   1.751  14.696  1.00  0.00     0.306 C 
BRANCH  28  29
HETATM   29  C16 UNL     1      -4.717   1.979  16.078  1.00  0.00     0.153 C 
BRANCH  29  30
HETATM   30  O2  UNL     1      -4.036   0.901  16.634  1.00  0.00    -0.393 OA
ATOM     31  H2  UNL     1      -3.378   1.140  17.276  1.00  0.00     0.210 HD
ENDBRANCH  29  30
BRANCH  29  32
HETATM   32  C17 UNL     1      -5.953   2.166  16.970  1.00  0.00    -0.024 C 
HETATM   33  C18 UNL     1      -6.998   1.118  16.634  1.00  0.00     0.017 C 
HETATM   34  C19 UNL     1      -6.542   3.512  16.595  1.00  0.00     0.017 C 
HETATM   35  C20 UNL     1      -5.614   2.137  18.421  1.00  0.00     0.017 C 
ENDBRANCH  29  32
ENDBRANCH  28  29
ENDBRANCH  12  28
TORSDOF 6
ENDMDL
MODEL 4
REMARK VINA RESULT: -7.718124829      2.031      2.571
REMARK  6 active torsions:
REMARK  status: ('A' for Active; 'I' for Inactive)
REMARK    1  A    between atoms: C2_2  and  N1_4 
REMARK    2  A    between atoms: C8_13  and  N4_14 
REMARK       I    between atoms: N4_14  and  C9_16 
REMARK       I    between atoms: C9_16  and  N5_18 
REMARK    3  A    between atoms: N6_25  and  C15_26 
REMARK    4  A    between atoms: C15_26  and  C16_27 
REMARK    5  A    between atoms: C16_27  and  O2_28 
REMARK    6  A    between atoms: C16_27  and  C17_30 
ROOT
HETATM    1  N4  UNL     1      -0.284   5.214  12.497  1.00  0.00    -0.293 N 
ATOM      2  H4  UNL     1      -0.308   5.453  13.488  1.00  0.00     0.172 HD
HETATM    3  C9  UNL     1      -1.386   4.518  11.922  1.00  0.00     0.324 C 
HETATM    4  O1  UNL     1      -1.329   4.234  10.710  1.00  0.00    -0.247 OA
HETATM    5  N5  UNL     1      -2.511   4.172  12.742  1.00  0.00    -0.330 N 
HETATM    6  C10 UNL     1      -3.600   3.467  12.104  1.00  0.00     0.166 C 
HETATM    7  C11 UNL     1      -4.787   3.520  13.040  1.00  0.00     0.277 C 
HETATM    8  C12 UNL     1      -4.852   4.933  13.573  1.00  0.00     0.240 C 
HETATM    9  F1  UNL     1      -4.271   5.911  12.811  1.00  0.00    -0.245 F 
HETATM   10  C13 UNL     1      -3.965   4.364  14.659  1.00  0.00     0.277 C 
HETATM   11  C14 UNL     1      -2.522   4.535  14.146  1.00  0.00     0.166 C 
HETATM   12  N6  UNL     1      -4.354   3.048  14.322  1.00  0.00     0.109 N 
ENDROOT
BRANCH   1  13
HETATM   13  C8  UNL     1       0.843   5.581  11.721  1.00  0.00     0.134 A 
HETATM   14  N3  UNL     1       1.505   4.771  10.864  1.00  0.00    -0.318 N 
HETATM   15  C7  UNL     1       2.511   5.481  10.317  1.00  0.00     0.194 A 
ATOM     16  H3  UNL     1       1.281   3.796  10.666  1.00  0.00     0.169 HD
HETATM   17  C6  UNL     1       3.454   4.980   9.347  1.00  0.00     0.160 A 
HETATM   18  O3  UNL     1       2.459   6.672  10.825  1.00  0.00    -0.299 OA
HETATM   19  N1  UNL     1       4.468   5.649   8.776  1.00  0.00    -0.334 N 
HETATM   20  N2  UNL     1       3.432   3.716   8.872  1.00  0.00    -0.347 N 
HETATM   21  C4  UNL     1       5.080   4.777   7.931  1.00  0.00     0.110 A 
HETATM   22  C5  UNL     1       4.429   3.589   8.002  1.00  0.00     0.107 A 
ATOM     23  H2  UNL     1       2.768   2.988   9.135  1.00  0.00     0.167 HD
HETATM   24  C21 UNL     1       1.486   6.800  11.672  1.00  0.00     0.193 A 
BRANCH  19  25
HETATM   25  C2  UNL     1       4.908   7.017   8.948  1.00  0.00     0.083 C 
HETATM   26  C1  UNL     1       5.412   7.664   7.697  1.00  0.00     0.032 C 
HETATM   27  C3  UNL     1       5.902   7.185  10.080  1.00  0.00     0.032 C 
ENDBRANCH  19  25
ENDBRANCH   1  13
BRANCH  12  28
HETATM   28  C15 UNL     1      -5.194   2.260  15.098  1.00  0.00     0.306 C 
BRANCH  28  29
HETATM   29  C16 UNL     1      -4.918   2.072  16.541  1.00  0.00     0.153 C 
BRANCH  29  30
HETATM   30  O2  UNL     1      -4.626   0.761  16.905  1.00  0.00    -0.393 OA
ATOM     31  H2  UNL     1      -3.822   0.661  17.402  1.00  0.00     0.210 HD
ENDBRANCH  29  30
BRANCH  29  32
HETATM   32  C17 UNL     1      -6.208   2.414  17.301  1.00  0.00    -0.024 C 
HETATM   33  C18 UNL     1      -5.982   2.276  18.795  1.00  0.00     0.017 C 
HETATM   34  C19 UNL     1      -7.219   1.354  16.909  1.00  0.00     0.017 C 
HETATM   35  C20 UNL     1      -6.724   3.770  16.961  1.00  0.00     0.017 C 
ENDBRANCH  29  32
ENDBRANCH  28  29
ENDBRANCH  12  28
TORSDOF 6
ENDMDL
MODEL 5
REMARK VINA RESULT: -7.656722484      2.145      2.963
REMARK  6 active torsions:
REMARK  status: ('A' for Active; 'I' for Inactive)
REMARK    1  A    between atoms: C2_2  and  N1_4 
REMARK    2  A    between atoms: C8_13  and  N4_14 
REMARK       I    between atoms: N4_14  and  C9_16 
REMARK       I    between atoms: C9_16  and  N5_18 
REMARK    3  A    between atoms: N6_25  and  C15_26 
REMARK    4  A    between atoms: C15_26  and  C16_27 
REMARK    5  A    between atoms: C16_27  and  O2_28 
REMARK    6  A    between atoms: C16_27  and  C17_30 
ROOT
HETATM    1  N4  UNL     1       0.007   4.647  12.092  1.00  0.00    -0.293 N 
ATOM      2  H4  UNL     1      -0.024   5.290  12.882  1.00  0.00     0.172 HD
HETATM    3  C9  UNL     1      -1.113   3.803  11.835  1.00  0.00     0.324 C 
HETATM    4  O1  UNL     1      -1.046   3.022  10.867  1.00  0.00    -0.247 OA
HETATM    5  N5  UNL     1      -2.264   3.877  12.686  1.00  0.00    -0.330 N 
HETATM    6  C10 UNL     1      -3.370   2.998  12.379  1.00  0.00     0.166 C 
HETATM    7  C11 UNL     1      -4.571   3.485  13.160  1.00  0.00     0.277 C 
HETATM    8  C12 UNL     1      -4.587   4.991  13.030  1.00  0.00     0.240 C 
HETATM    9  F1  UNL     1      -3.953   5.526  11.941  1.00  0.00    -0.245 F 
HETATM   10  C13 UNL     1      -3.743   4.920  14.284  1.00  0.00     0.277 C 
HETATM   11  C14 UNL     1      -2.286   4.811  13.796  1.00  0.00     0.166 C 
HETATM   12  N6  UNL     1      -4.180   3.600  14.534  1.00  0.00     0.109 N 
ENDROOT
BRANCH   1  13
HETATM   13  C8  UNL     1       1.162   4.610  11.272  1.00  0.00     0.134 A 
HETATM   14  N3  UNL     1       2.414   4.938  11.663  1.00  0.00    -0.318 N 
HETATM   15  C7  UNL     1       3.234   4.771  10.606  1.00  0.00     0.194 A 
ATOM     16  H3  UNL     1       2.689   5.254  12.592  1.00  0.00     0.169 HD
HETATM   17  C6  UNL     1       4.657   5.014  10.608  1.00  0.00     0.160 A 
HETATM   18  O3  UNL     1       2.505   4.360   9.617  1.00  0.00    -0.299 OA
HETATM   19  N1  UNL     1       5.509   4.861   9.583  1.00  0.00    -0.334 N 
HETATM   20  N2  UNL     1       5.336   5.445  11.692  1.00  0.00    -0.347 N 
HETATM   21  C4  UNL     1       6.739   5.205  10.050  1.00  0.00     0.110 A 
HETATM   22  C5  UNL     1       6.616   5.563  11.352  1.00  0.00     0.107 A 
ATOM     23  H2  UNL     1       4.937   5.645  12.609  1.00  0.00     0.167 HD
HETATM   24  C21 UNL     1       1.257   4.242   9.946  1.00  0.00     0.193 A 
BRANCH  19  25
HETATM   25  C2  UNL     1       5.278   4.425   8.222  1.00  0.00     0.083 C 
HETATM   26  C1  UNL     1       5.313   2.941   8.036  1.00  0.00     0.032 C 
HETATM   27  C3  UNL     1       6.176   5.117   7.216  1.00  0.00     0.032 C 
ENDBRANCH  19  25
ENDBRANCH   1  13
BRANCH  12  28
HETATM   28  C15 UNL     1      -5.065   3.249  15.545  1.00  0.00     0.306 C 
BRANCH  28  29
HETATM   29  C16 UNL     1      -4.623   2.368  16.651  1.00  0.00     0.153 C 
BRANCH  29  30
HETATM   30  O2  UNL     1      -3.936   1.230  16.240  1.00  0.00    -0.393 OA
ATOM     31  H2  UNL     1      -3.146   1.047  16.736  1.00  0.00     0.210 HD
ENDBRANCH  29  30
BRANCH  29  32
HETATM   32  C17 UNL     1      -5.887   1.836  17.343  1.00  0.00    -0.024 C 
HETATM   33  C18 UNL     1      -5.883   0.319  17.334  1.00  0.00     0.017 C 
HETATM   34  C19 UNL     1      -7.054   2.279  16.483  1.00  0.00     0.017 C 
HETATM   35  C20 UNL     1      -6.038   2.362  18.729  1.00  0.00     0.017 C 
ENDBRANCH  29  32
ENDBRANCH  28  29
ENDBRANCH  12  28
TORSDOF 6
ENDMDL
