MODEL 1
REMARK VINA RESULT: -7.385681060      0.000      0.000
REMARK  6 active torsions:
REMARK  status: ('A' for Active; 'I' for Inactive)
REMARK    1  A    between atoms: C2_2  and  O1_3 
REMARK    2  A    between atoms: O1_3  and  C3_4 
REMARK    3  A    between atoms: C3_4  and  C4_7 
REMARK    4  A    between atoms: C9_15  and  C10_16 
REMARK    5  A    between atoms: C11_17  and  C12_18 
REMARK    6  A    between atoms: C12_18  and  O2_19 
ROOT
HETATM    1  C4  UNL     1      -3.251   3.250  13.454  1.00  0.00     0.065 A 
HETATM    2  C5  UNL     1      -2.519   3.582  12.355  1.00  0.00     0.043 A 
HETATM    3  C6  UNL     1      -2.317   2.667  11.333  1.00  0.00     0.058 A 
HETATM    4 CL1  UNL     1      -1.367   3.150   9.943  1.00  0.00    -0.082 Cl
HETATM    5  C7  UNL     1      -2.875   1.423  11.462  1.00  0.00     0.079 A 
HETATM    6 CL2  UNL     1      -2.619   0.270  10.169  1.00  0.00    -0.081 Cl
HETATM    7  C8  UNL     1      -3.615   1.090  12.576  1.00  0.00     0.077 A 
HETATM    8 CL3  UNL     1      -4.323  -0.505  12.730  1.00  0.00    -0.081 Cl
HETATM    9  C9  UNL     1      -3.829   1.985  13.607  1.00  0.00     0.056 A 
ENDROOT
BRANCH   9  10
HETATM   10  C10 UNL     1      -4.595   1.607  14.759  1.00  0.00    -0.061 C 
HETATM   11  C11 UNL     1      -5.258   1.261  15.731  1.00  0.00    -0.051 C 
BRANCH  11  12
HETATM   12  C12 UNL     1      -6.070   0.850  16.877  1.00  0.00     0.218 C 
HETATM   13  C13 UNL     1      -7.505   1.211  16.662  1.00  0.00     0.184 C 
HETATM   14  N1  UNL     1      -7.242   2.436  17.347  1.00  0.00    -0.353 N 
HETATM   15  C14 UNL     1      -6.124   1.842  17.976  1.00  0.00     0.266 C 
ATOM     16  H1  UNL     1      -7.678   3.357  17.372  1.00  0.00     0.162 HD
HETATM   17  O3  UNL     1      -5.404   1.986  19.001  1.00  0.00    -0.269 OA
BRANCH  12  18
HETATM   18  O2  UNL     1      -5.837  -0.459  17.287  1.00  0.00    -0.368 OA
ATOM     19  H2  UNL     1      -6.429  -1.092  16.896  1.00  0.00     0.212 HD
ENDBRANCH  12  18
ENDBRANCH  11  12
ENDBRANCH   9  10
BRANCH   1  20
HETATM   20  C3  UNL     1      -3.475   4.176  14.613  1.00  0.00     0.386 C 
HETATM   21  F1  UNL     1      -2.821   3.544  15.703  1.00  0.00    -0.170 F 
HETATM   22  F2  UNL     1      -4.783   4.321  14.877  1.00  0.00    -0.170 F 
BRANCH  20  23
HETATM   23  O1  UNL     1      -2.763   5.338  14.418  1.00  0.00    -0.322 OA
BRANCH  23  24
HETATM   24  C2  UNL     1      -3.527   6.474  14.459  1.00  0.00     0.170 C 
HETATM   25  C1  UNL     1      -2.588   7.666  14.647  1.00  0.00     0.033 C 
ENDBRANCH  23  24
ENDBRANCH  20  23
ENDBRANCH   1  20
TORSDOF 6
ENDMDL
MODEL 2
REMARK VINA RESULT: -7.007988824      4.208      6.582
REMARK  6 active torsions:
REMARK  status: ('A' for Active; 'I' for Inactive)
REMARK    1  A    between atoms: C2_2  and  O1_3 
REMARK    2  A    between atoms: O1_3  and  C3_4 
REMARK    3  A    between atoms: C3_4  and  C4_7 
REMARK    4  A    between atoms: C9_15  and  C10_16 
REMARK    5  A    between atoms: C11_17  and  C12_18 
REMARK    6  A    between atoms: C12_18  and  O2_19 
ROOT
HETATM    1  C4  UNL     1      -4.531   1.352  13.863  1.00  0.00     0.065 A 
HETATM    2  C5  UNL     1      -4.804   0.623  14.980  1.00  0.00     0.043 A 
HETATM    3  C6  UNL     1      -5.454   1.197  16.062  1.00  0.00     0.058 A 
HETATM    4 CL1  UNL     1      -5.780   0.211  17.471  1.00  0.00    -0.082 Cl
HETATM    5  C7  UNL     1      -5.811   2.517  15.973  1.00  0.00     0.079 A 
HETATM    6 CL2  UNL     1      -6.632   3.239  17.341  1.00  0.00    -0.081 Cl
HETATM    7  C8  UNL     1      -5.532   3.252  14.841  1.00  0.00     0.077 A 
HETATM    8 CL3  UNL     1      -5.993   4.940  14.740  1.00  0.00    -0.081 Cl
HETATM    9  C9  UNL     1      -4.885   2.701  13.751  1.00  0.00     0.056 A 
ENDROOT
BRANCH   9  10
HETATM   10  C10 UNL     1      -4.598   3.494  12.591  1.00  0.00    -0.061 C 
HETATM   11  C11 UNL     1      -4.371   4.191  11.608  1.00  0.00    -0.051 C 
BRANCH  11  12
HETATM   12  C12 UNL     1      -4.122   5.021  10.428  1.00  0.00     0.218 C 
HETATM   13  C13 UNL     1      -3.123   6.090  10.738  1.00  0.00     0.184 C 
HETATM   14  N1  UNL     1      -4.222   6.947  11.052  1.00  0.00    -0.353 N 
HETATM   15  C14 UNL     1      -5.073   6.144  10.258  1.00  0.00     0.266 C 
ATOM     16  H1  UNL     1      -4.342   7.789  11.614  1.00  0.00     0.162 HD
HETATM   17  O3  UNL     1      -6.165   6.221   9.632  1.00  0.00    -0.269 OA
BRANCH  12  18
HETATM   18  O2  UNL     1      -3.876   4.288   9.271  1.00  0.00    -0.368 OA
ATOM     19  H2  UNL     1      -3.002   4.413   8.919  1.00  0.00     0.212 HD
ENDBRANCH  12  18
ENDBRANCH  11  12
ENDBRANCH   9  10
BRANCH   1  20
HETATM   20  C3  UNL     1      -3.796   0.806  12.674  1.00  0.00     0.386 C 
HETATM   21  F1  UNL     1      -4.613   1.148  11.565  1.00  0.00    -0.170 F 
HETATM   22  F2  UNL     1      -3.658  -0.527  12.755  1.00  0.00    -0.170 F 
BRANCH  20  23
HETATM   23  O1  UNL     1      -2.640   1.526  12.477  1.00  0.00    -0.322 OA
BRANCH  23  24
HETATM   24  C2  UNL     1      -1.985   1.223  11.312  1.00  0.00     0.170 C 
HETATM   25  C1  UNL     1      -1.097   2.412  10.949  1.00  0.00     0.033 C 
ENDBRANCH  23  24
ENDBRANCH  20  23
ENDBRANCH   1  20
TORSDOF 6
ENDMDL
MODEL 3
REMARK VINA RESULT: -6.966930401      2.760      4.230
REMARK  6 active torsions:
REMARK  status: ('A' for Active; 'I' for Inactive)
REMARK    1  A    between atoms: C2_2  and  O1_3 
REMARK    2  A    between atoms: O1_3  and  C3_4 
REMARK    3  A    between atoms: C3_4  and  C4_7 
REMARK    4  A    between atoms: C9_15  and  C10_16 
REMARK    5  A    between atoms: C11_17  and  C12_18 
REMARK    6  A    between atoms: C12_18  and  O2_19 
ROOT
HETATM    1  C4  UNL     1      -3.580   2.740  12.841  1.00  0.00     0.065 A 
HETATM    2  C5  UNL     1      -2.807   3.378  11.920  1.00  0.00     0.043 A 
HETATM    3  C6  UNL     1      -2.698   4.760  11.919  1.00  0.00     0.058 A 
HETATM    4 CL1  UNL     1      -1.687   5.527  10.711  1.00  0.00    -0.082 Cl
HETATM    5  C7  UNL     1      -3.390   5.462  12.870  1.00  0.00     0.079 A 
HETATM    6 CL2  UNL     1      -3.250   7.207  12.867  1.00  0.00    -0.081 Cl
HETATM    7  C8  UNL     1      -4.172   4.813  13.801  1.00  0.00     0.077 A 
HETATM    8 CL3  UNL     1      -5.054   5.722  15.012  1.00  0.00    -0.081 Cl
HETATM    9  C9  UNL     1      -4.296   3.436  13.820  1.00  0.00     0.056 A 
ENDROOT
BRANCH   9  10
HETATM   10  C10 UNL     1      -5.127   2.789  14.794  1.00  0.00    -0.061 C 
HETATM   11  C11 UNL     1      -5.836   2.259  15.642  1.00  0.00    -0.051 C 
BRANCH  11  12
HETATM   12  C12 UNL     1      -6.666   1.628  16.670  1.00  0.00     0.218 C 
HETATM   13  C13 UNL     1      -6.657   2.441  17.925  1.00  0.00     0.184 C 
HETATM   14  N1  UNL     1      -5.569   1.633  18.373  1.00  0.00    -0.353 N 
HETATM   15  C14 UNL     1      -5.964   0.608  17.483  1.00  0.00     0.266 C 
ATOM     16  H1  UNL     1      -4.818   1.746  19.054  1.00  0.00     0.162 HD
HETATM   17  O3  UNL     1      -5.845  -0.637  17.331  1.00  0.00    -0.269 OA
BRANCH  12  18
HETATM   18  O2  UNL     1      -7.923   1.243  16.215  1.00  0.00    -0.368 OA
ATOM     19  H2  UNL     1      -8.637   1.740  16.598  1.00  0.00     0.212 HD
ENDBRANCH  12  18
ENDBRANCH  11  12
ENDBRANCH   9  10
BRANCH   1  20
HETATM   20  C3  UNL     1      -3.774   1.252  12.874  1.00  0.00     0.386 C 
HETATM   21  F1  UNL     1      -5.093   1.056  12.388  1.00  0.00    -0.170 F 
HETATM   22  F2  UNL     1      -3.663   0.773  14.123  1.00  0.00    -0.170 F 
BRANCH  20  23
HETATM   23  O1  UNL     1      -2.972   0.663  11.924  1.00  0.00    -0.322 OA
BRANCH  23  24
HETATM   24  C2  UNL     1      -3.601  -0.303  11.183  1.00  0.00     0.170 C 
HETATM   25  C1  UNL     1      -2.905  -1.636  11.459  1.00  0.00     0.033 C 
ENDBRANCH  23  24
ENDBRANCH  20  23
ENDBRANCH   1  20
TORSDOF 6
ENDMDL
MODEL 4
REMARK VINA RESULT: -6.893752243      4.150      6.895
REMARK  6 active torsions:
REMARK  status: ('A' for Active; 'I' for Inactive)
REMARK    1  A    between atoms: C2_2  and  O1_3 
REMARK    2  A    between atoms: O1_3  and  C3_4 
REMARK    3  A    between atoms: C3_4  and  C4_7 
REMARK    4  A    between atoms: C9_15  and  C10_16 
REMARK    5  A    between atoms: C11_17  and  C12_18 
REMARK    6  A    between atoms: C12_18  and  O2_19 
ROOT
HETATM    1  C4  UNL     1      -4.580   1.592  13.755  1.00  0.00     0.065 A 
HETATM    2  C5  UNL     1      -4.826   0.836  14.861  1.00  0.00     0.043 A 
HETATM    3  C6  UNL     1      -5.478   1.375  15.959  1.00  0.00     0.058 A 
HETATM    4 CL1  UNL     1      -5.769   0.356  17.353  1.00  0.00    -0.082 Cl
HETATM    5  C7  UNL     1      -5.866   2.687  15.898  1.00  0.00     0.079 A 
HETATM    6 CL2  UNL     1      -6.690   3.365  17.286  1.00  0.00    -0.081 Cl
HETATM    7  C8  UNL     1      -5.615   3.450  14.778  1.00  0.00     0.077 A 
HETATM    8 CL3  UNL     1      -6.115   5.128  14.712  1.00  0.00    -0.081 Cl
HETATM    9  C9  UNL     1      -4.966   2.934  13.671  1.00  0.00     0.056 A 
ENDROOT
BRANCH   9  10
HETATM   10  C10 UNL     1      -4.708   3.754  12.524  1.00  0.00    -0.061 C 
HETATM   11  C11 UNL     1      -4.510   4.471  11.549  1.00  0.00    -0.051 C 
BRANCH  11  12
HETATM   12  C12 UNL     1      -4.294   5.320  10.377  1.00  0.00     0.218 C 
HETATM   13  C13 UNL     1      -3.400   6.469  10.716  1.00  0.00     0.184 C 
HETATM   14  N1  UNL     1      -4.576   7.231  10.993  1.00  0.00    -0.353 N 
HETATM   15  C14 UNL     1      -5.331   6.359  10.173  1.00  0.00     0.266 C 
ATOM     16  H1  UNL     1      -4.785   8.059  11.549  1.00  0.00     0.162 HD
HETATM   17  O3  UNL     1      -6.404   6.344   9.513  1.00  0.00    -0.269 OA
BRANCH  12  18
HETATM   18  O2  UNL     1      -3.950   4.612   9.229  1.00  0.00    -0.368 OA
ATOM     19  H2  UNL     1      -3.234   5.002   8.741  1.00  0.00     0.212 HD
ENDBRANCH  12  18
ENDBRANCH  11  12
ENDBRANCH   9  10
BRANCH   1  20
HETATM   20  C3  UNL     1      -3.844   1.084  12.550  1.00  0.00     0.386 C 
HETATM   21  F1  UNL     1      -2.606   1.776  12.573  1.00  0.00    -0.170 F 
HETATM   22  F2  UNL     1      -4.510   1.362  11.418  1.00  0.00    -0.170 F 
BRANCH  20  23
HETATM   23  O1  UNL     1      -3.499  -0.234  12.743  1.00  0.00    -0.322 OA
BRANCH  23  24
HETATM   24  C2  UNL     1      -3.963  -1.080  11.770  1.00  0.00     0.170 C 
HETATM   25  C1  UNL     1      -2.861  -2.094  11.464  1.00  0.00     0.033 C 
ENDBRANCH  23  24
ENDBRANCH  20  23
ENDBRANCH   1  20
TORSDOF 6
ENDMDL
MODEL 5
REMARK VINA RESULT: -6.891039954      4.224      6.822
REMARK  6 active torsions:
REMARK  status: ('A' for Active; 'I' for Inactive)
REMARK    1  A    between atoms: C2_2  and  O1_3 
REMARK    2  A    between atoms: O1_3  and  C3_4 
REMARK    3  A    between atoms: C3_4  and  C4_7 
REMARK    4  A    between atoms: C9_15  and  C10_16 
REMARK    5  A    between atoms: C11_17  and  C12_18 
REMARK    6  A    between atoms: C12_18  and  O2_19 
ROOT
HETATM    1  C4  UNL     1      -4.745   1.643  14.215  1.00  0.00     0.065 A 
HETATM    2  C5  UNL     1      -5.071   1.012  15.376  1.00  0.00     0.043 A 
HETATM    3  C6  UNL     1      -5.766   1.677  16.375  1.00  0.00     0.058 A 
HETATM    4 CL1  UNL     1      -6.159   0.814  17.848  1.00  0.00    -0.082 Cl
HETATM    5  C7  UNL     1      -6.114   2.984  16.159  1.00  0.00     0.079 A 
HETATM    6 CL2  UNL     1      -6.992   3.820  17.421  1.00  0.00    -0.081 Cl
HETATM    7  C8  UNL     1      -5.782   3.620  14.981  1.00  0.00     0.077 A 
HETATM    8 CL3  UNL     1      -6.231   5.293  14.716  1.00  0.00    -0.081 Cl
HETATM    9  C9  UNL     1      -5.089   2.977  13.972  1.00  0.00     0.056 A 
ENDROOT
BRANCH   9  10
HETATM   10  C10 UNL     1      -4.748   3.669  12.763  1.00  0.00    -0.061 C 
HETATM   11  C11 UNL     1      -4.478   4.276  11.733  1.00  0.00    -0.051 C 
BRANCH  11  12
HETATM   12  C12 UNL     1      -4.176   4.994  10.493  1.00  0.00     0.218 C 
HETATM   13  C13 UNL     1      -3.131   6.037  10.730  1.00  0.00     0.184 C 
HETATM   14  N1  UNL     1      -4.191   6.967  10.956  1.00  0.00    -0.353 N 
HETATM   15  C14 UNL     1      -5.071   6.142  10.217  1.00  0.00     0.266 C 
ATOM     16  H1  UNL     1      -4.278   7.857  11.446  1.00  0.00     0.162 HD
HETATM   17  O3  UNL     1      -6.150   6.218   9.571  1.00  0.00    -0.269 OA
BRANCH  12  18
HETATM   18  O2  UNL     1      -3.952   4.158   9.403  1.00  0.00    -0.368 OA
ATOM     19  H2  UNL     1      -3.651   4.616   8.627  1.00  0.00     0.212 HD
ENDBRANCH  12  18
ENDBRANCH  11  12
ENDBRANCH   9  10
BRANCH   1  20
HETATM   20  C3  UNL     1      -3.961   0.997  13.111  1.00  0.00     0.386 C 
HETATM   21  F1  UNL     1      -3.670  -0.304  13.597  1.00  0.00    -0.170 F 
HETATM   22  F2  UNL     1      -2.824   1.666  12.863  1.00  0.00    -0.170 F 
BRANCH  20  23
HETATM   23  O1  UNL     1      -4.784   0.778  12.029  1.00  0.00    -0.322 OA
BRANCH  23  24
HETATM   24  C2  UNL     1      -4.523  -0.386  11.356  1.00  0.00     0.170 C 
HETATM   25  C1  UNL     1      -3.460  -0.090  10.299  1.00  0.00     0.033 C 
ENDBRANCH  23  24
ENDBRANCH  20  23
ENDBRANCH   1  20
TORSDOF 6
ENDMDL
