MODEL 1
REMARK VINA RESULT: -9.394581546      0.000      0.000
REMARK  7 active torsions:
REMARK  status: ('A' for Active; 'I' for Inactive)
REMARK    1  A    between atoms: C2_2  and  C3_3 
REMARK    2  A    between atoms: C2_2  and  N2_18 
REMARK    3  A    between atoms: C3_3  and  C4_4 
REMARK    4  A    between atoms: C6_6  and  N1_7 
REMARK    5  A    between atoms: C10_13  and  O2_14 
REMARK       I    between atoms: N2_18  and  C12_20 
REMARK    6  A    between atoms: C12_20  and  C13_22 
REMARK    7  A    between atoms: C13_22  and  C14_23 
ROOT
HETATM    1  C4  UNL     1       5.569  -6.456   8.004  1.00  0.00     0.129 C 
HETATM    2  C5  UNL     1       5.134  -6.026   6.604  1.00  0.00     0.086 C 
HETATM    3  C6  UNL     1       3.634  -6.373   6.810  1.00  0.00     0.013 C 
HETATM    4  C11 UNL     1       3.429  -5.836   8.155  1.00  0.00     0.220 C 
HETATM    5  O3  UNL     1       4.695  -5.733   8.792  1.00  0.00    -0.380 OA
ENDROOT
BRANCH   1   6
HETATM    6  C3  UNL     1       6.980  -6.395   8.277  1.00  0.00     0.057 C 
BRANCH   6   7
HETATM    7  C2  UNL     1       7.684  -7.461   9.012  1.00  0.00     0.082 C 
HETATM    8  C1  UNL     1       7.698  -7.389  10.492  1.00  0.00     0.032 C 
BRANCH   7   9
HETATM    9  N2  UNL     1       9.082  -7.416   8.554  1.00  0.00    -0.357 N 
HETATM   10  C12 UNL     1       9.836  -8.557   8.238  1.00  0.00     0.218 C 
HETATM   11  O4  UNL     1       9.366  -9.714   8.325  1.00  0.00    -0.274 OA
ATOM     12  H2  UNL     1       9.529  -6.503   8.460  1.00  0.00     0.162 HD
BRANCH  10  13
HETATM   13  C13 UNL     1      11.232  -8.398   7.787  1.00  0.00     0.107 C 
BRANCH  13  14
HETATM   14  C14 UNL     1      12.160  -8.373   8.950  1.00  0.00    -0.002 C 
HETATM   15  C15 UNL     1      11.564  -7.909  10.239  1.00  0.00     0.005 C 
HETATM   16  C16 UNL     1      12.285  -8.686  11.336  1.00  0.00     0.001 C 
HETATM   17  C17 UNL     1      13.362  -9.503  10.612  1.00  0.00     0.005 C 
HETATM   18  C18 UNL     1      12.681  -9.755   9.280  1.00  0.00    -0.014 C 
HETATM   19  C19 UNL     1      13.611 -10.239   8.216  1.00  0.00     0.010 C 
ENDBRANCH  13  14
ENDBRANCH  10  13
ENDBRANCH   7   9
ENDBRANCH   6   7
ENDBRANCH   1   6
BRANCH   3  20
HETATM   20  N1  UNL     1       2.808  -6.245   5.754  1.00  0.00    -0.364 N 
HETATM   21  C7  UNL     1       2.347  -5.180   5.048  1.00  0.00     0.041 C 
HETATM   22  C8  UNL     1       3.278  -4.284   4.277  1.00  0.00     0.223 C 
HETATM   23  C10 UNL     1       1.391  -4.202   5.693  1.00  0.00     0.189 C 
HETATM   24  O1  UNL     1       2.315  -3.417   3.686  1.00  0.00    -0.383 OA
HETATM   25  C9  UNL     1       1.512  -3.020   4.754  1.00  0.00     0.205 C 
ATOM     26  H1  UNL     1       2.455  -7.138   5.410  1.00  0.00     0.165 HD
BRANCH  23  27
HETATM   27  O2  UNL     1       0.060  -4.632   5.602  1.00  0.00    -0.388 OA
ATOM     28  H2  UNL     1      -0.483  -4.013   5.129  1.00  0.00     0.210 HD
ENDBRANCH  23  27
ENDBRANCH   3  20
TORSDOF 7
ENDMDL
MODEL 2
REMARK VINA RESULT: -9.378722259      0.835      1.461
REMARK  7 active torsions:
REMARK  status: ('A' for Active; 'I' for Inactive)
REMARK    1  A    between atoms: C2_2  and  C3_3 
REMARK    2  A    between atoms: C2_2  and  N2_18 
REMARK    3  A    between atoms: C3_3  and  C4_4 
REMARK    4  A    between atoms: C6_6  and  N1_7 
REMARK    5  A    between atoms: C10_13  and  O2_14 
REMARK       I    between atoms: N2_18  and  C12_20 
REMARK    6  A    between atoms: C12_20  and  C13_22 
REMARK    7  A    between atoms: C13_22  and  C14_23 
ROOT
HETATM    1  C4  UNL     1       4.946  -6.316   7.581  1.00  0.00     0.129 C 
HETATM    2  C5  UNL     1       4.552  -6.004   6.138  1.00  0.00     0.086 C 
HETATM    3  C6  UNL     1       3.028  -6.208   6.361  1.00  0.00     0.013 C 
HETATM    4  C11 UNL     1       2.862  -5.516   7.639  1.00  0.00     0.220 C 
HETATM    5  O3  UNL     1       4.129  -5.447   8.278  1.00  0.00    -0.380 OA
ENDROOT
BRANCH   1   6
HETATM    6  C3  UNL     1       6.356  -6.338   7.864  1.00  0.00     0.057 C 
BRANCH   6   7
HETATM    7  C2  UNL     1       6.947  -7.280   8.831  1.00  0.00     0.082 C 
HETATM    8  C1  UNL     1       6.600  -7.113  10.263  1.00  0.00     0.032 C 
BRANCH   7   9
HETATM    9  N2  UNL     1       8.406  -7.125   8.709  1.00  0.00    -0.357 N 
HETATM   10  C12 UNL     1       9.287  -8.197   8.494  1.00  0.00     0.218 C 
HETATM   11  O4  UNL     1       8.891  -9.379   8.388  1.00  0.00    -0.274 OA
ATOM     12  H2  UNL     1       8.798  -6.187   8.786  1.00  0.00     0.162 HD
BRANCH  10  13
HETATM   13  C13 UNL     1      10.735  -7.929   8.386  1.00  0.00     0.107 C 
BRANCH  13  14
HETATM   14  C14 UNL     1      11.504  -8.838   9.280  1.00  0.00    -0.002 C 
HETATM   15  C15 UNL     1      12.848  -9.251   8.775  1.00  0.00     0.005 C 
HETATM   16  C16 UNL     1      13.727  -9.409  10.012  1.00  0.00     0.001 C 
HETATM   17  C17 UNL     1      12.792  -9.177  11.205  1.00  0.00     0.005 C 
HETATM   18  C18 UNL     1      11.812  -8.186  10.609  1.00  0.00    -0.014 C 
HETATM   19  C19 UNL     1      10.567  -8.017  11.418  1.00  0.00     0.010 C 
ENDBRANCH  13  14
ENDBRANCH  10  13
ENDBRANCH   7   9
ENDBRANCH   6   7
ENDBRANCH   1   6
BRANCH   3  20
HETATM   20  N1  UNL     1       2.220  -6.127   5.286  1.00  0.00    -0.364 N 
HETATM   21  C7  UNL     1       1.817  -5.104   4.491  1.00  0.00     0.041 C 
HETATM   22  C8  UNL     1       2.796  -4.317   3.663  1.00  0.00     0.223 C 
HETATM   23  C10 UNL     1       0.901  -4.033   5.042  1.00  0.00     0.189 C 
HETATM   24  O1  UNL     1       1.881  -3.457   2.991  1.00  0.00    -0.383 OA
HETATM   25  C9  UNL     1       1.087  -2.938   4.013  1.00  0.00     0.205 C 
ATOM     26  H1  UNL     1       1.828  -7.028   5.011  1.00  0.00     0.165 HD
BRANCH  23  27
HETATM   27  O2  UNL     1      -0.447  -4.408   4.968  1.00  0.00    -0.388 OA
ATOM     28  H2  UNL     1      -0.833  -4.520   5.828  1.00  0.00     0.210 HD
ENDBRANCH  23  27
ENDBRANCH   3  20
TORSDOF 7
ENDMDL
MODEL 3
REMARK VINA RESULT: -9.360865193      1.237      1.490
REMARK  7 active torsions:
REMARK  status: ('A' for Active; 'I' for Inactive)
REMARK    1  A    between atoms: C2_2  and  C3_3 
REMARK    2  A    between atoms: C2_2  and  N2_18 
REMARK    3  A    between atoms: C3_3  and  C4_4 
REMARK    4  A    between atoms: C6_6  and  N1_7 
REMARK    5  A    between atoms: C10_13  and  O2_14 
REMARK       I    between atoms: N2_18  and  C12_20 
REMARK    6  A    between atoms: C12_20  and  C13_22 
REMARK    7  A    between atoms: C13_22  and  C14_23 
ROOT
HETATM    1  C4  UNL     1       6.439  -6.081   8.810  1.00  0.00     0.129 C 
HETATM    2  C5  UNL     1       5.100  -6.813   8.895  1.00  0.00     0.086 C 
HETATM    3  C6  UNL     1       4.445  -6.047   7.713  1.00  0.00     0.013 C 
HETATM    4  C11 UNL     1       5.554  -6.051   6.759  1.00  0.00     0.220 C 
HETATM    5  O3  UNL     1       6.761  -6.263   7.479  1.00  0.00    -0.380 OA
ENDROOT
BRANCH   1   6
HETATM    6  C3  UNL     1       7.408  -6.410   9.821  1.00  0.00     0.057 C 
BRANCH   6   7
HETATM    7  C2  UNL     1       8.056  -7.731   9.886  1.00  0.00     0.082 C 
HETATM    8  C1  UNL     1       8.382  -8.278  11.225  1.00  0.00     0.032 C 
BRANCH   7   9
HETATM    9  N2  UNL     1       9.320  -7.602   9.142  1.00  0.00    -0.357 N 
HETATM   10  C12 UNL     1       9.876  -8.631   8.367  1.00  0.00     0.218 C 
HETATM   11  O4  UNL     1       9.330  -9.751   8.250  1.00  0.00    -0.274 OA
ATOM     12  H2  UNL     1       9.819  -6.714   9.193  1.00  0.00     0.162 HD
BRANCH  10  13
HETATM   13  C13 UNL     1      11.150  -8.394   7.660  1.00  0.00     0.107 C 
BRANCH  13  14
HETATM   14  C14 UNL     1      12.305  -8.627   8.569  1.00  0.00    -0.002 C 
HETATM   15  C15 UNL     1      12.279  -7.863   9.852  1.00  0.00     0.005 C 
HETATM   16  C16 UNL     1      12.952  -8.761  10.885  1.00  0.00     0.001 C 
HETATM   17  C17 UNL     1      13.440  -9.985  10.101  1.00  0.00     0.005 C 
HETATM   18  C18 UNL     1      12.382 -10.069   9.018  1.00  0.00    -0.014 C 
HETATM   19  C19 UNL     1      12.762 -10.960   7.881  1.00  0.00     0.010 C 
ENDBRANCH  13  14
ENDBRANCH  10  13
ENDBRANCH   7   9
ENDBRANCH   6   7
ENDBRANCH   1   6
BRANCH   3  20
HETATM   20  N1  UNL     1       3.148  -6.293   7.447  1.00  0.00    -0.364 N 
HETATM   21  C7  UNL     1       2.320  -5.955   6.426  1.00  0.00     0.041 C 
HETATM   22  C8  UNL     1       2.573  -6.423   5.019  1.00  0.00     0.223 C 
HETATM   23  C10 UNL     1       1.904  -4.514   6.235  1.00  0.00     0.189 C 
HETATM   24  O1  UNL     1       1.418  -5.876   4.390  1.00  0.00    -0.383 OA
HETATM   25  C9  UNL     1       1.399  -4.546   4.807  1.00  0.00     0.205 C 
ATOM     26  H1  UNL     1       2.691  -6.855   8.166  1.00  0.00     0.165 HD
BRANCH  23  27
HETATM   27  O2  UNL     1       0.799  -4.176   7.028  1.00  0.00    -0.388 OA
ATOM     28  H2  UNL     1       0.866  -3.295   7.376  1.00  0.00     0.210 HD
ENDBRANCH  23  27
ENDBRANCH   3  20
TORSDOF 7
ENDMDL
MODEL 4
REMARK VINA RESULT: -9.165220713      2.118     10.211
REMARK  7 active torsions:
REMARK  status: ('A' for Active; 'I' for Inactive)
REMARK    1  A    between atoms: C2_2  and  C3_3 
REMARK    2  A    between atoms: C2_2  and  N2_18 
REMARK    3  A    between atoms: C3_3  and  C4_4 
REMARK    4  A    between atoms: C6_6  and  N1_7 
REMARK    5  A    between atoms: C10_13  and  O2_14 
REMARK       I    between atoms: N2_18  and  C12_20 
REMARK    6  A    between atoms: C12_20  and  C13_22 
REMARK    7  A    between atoms: C13_22  and  C14_23 
ROOT
HETATM    1  C4  UNL     1       7.902  -7.196   8.338  1.00  0.00     0.129 C 
HETATM    2  C5  UNL     1       9.218  -7.218   7.562  1.00  0.00     0.086 C 
HETATM    3  C6  UNL     1      10.066  -7.773   8.740  1.00  0.00     0.013 C 
HETATM    4  C11 UNL     1       9.159  -8.804   9.245  1.00  0.00     0.220 C 
HETATM    5  O3  UNL     1       7.843  -8.494   8.807  1.00  0.00    -0.380 OA
ENDROOT
BRANCH   1   6
HETATM    6  C3  UNL     1       6.766  -6.644   7.648  1.00  0.00     0.057 C 
BRANCH   6   7
HETATM    7  C2  UNL     1       5.576  -6.155   8.364  1.00  0.00     0.082 C 
HETATM    8  C1  UNL     1       5.410  -6.548   9.784  1.00  0.00     0.032 C 
BRANCH   7   9
HETATM    9  N2  UNL     1       4.414  -6.673   7.623  1.00  0.00    -0.357 N 
HETATM   10  C12 UNL     1       4.015  -6.194   6.365  1.00  0.00     0.218 C 
HETATM   11  O4  UNL     1       4.627  -5.277   5.774  1.00  0.00    -0.274 OA
ATOM     12  H2  UNL     1       3.868  -7.423   8.048  1.00  0.00     0.162 HD
BRANCH  10  13
HETATM   13  C13 UNL     1       2.833  -6.787   5.709  1.00  0.00     0.107 C 
BRANCH  13  14
HETATM   14  C14 UNL     1       2.100  -5.759   4.921  1.00  0.00    -0.002 C 
HETATM   15  C15 UNL     1       1.699  -6.170   3.542  1.00  0.00     0.005 C 
HETATM   16  C16 UNL     1       0.383  -5.452   3.259  1.00  0.00     0.001 C 
HETATM   17  C17 UNL     1       0.140  -4.557   4.480  1.00  0.00     0.005 C 
HETATM   18  C18 UNL     1       0.787  -5.385   5.573  1.00  0.00    -0.014 C 
HETATM   19  C19 UNL     1       1.021  -4.625   6.838  1.00  0.00     0.010 C 
ENDBRANCH  13  14
ENDBRANCH  10  13
ENDBRANCH   7   9
ENDBRANCH   6   7
ENDBRANCH   1   6
BRANCH   3  20
HETATM   20  N1  UNL     1      11.396  -7.884   8.558  1.00  0.00    -0.364 N 
HETATM   21  C7  UNL     1      12.399  -8.436   9.287  1.00  0.00     0.041 C 
HETATM   22  C8  UNL     1      12.438  -9.910   9.583  1.00  0.00     0.223 C 
HETATM   23  C10 UNL     1      12.807  -7.814  10.603  1.00  0.00     0.189 C 
HETATM   24  O1  UNL     1      13.680  -9.966  10.279  1.00  0.00    -0.383 OA
HETATM   25  C9  UNL     1      13.583  -8.954  11.232  1.00  0.00     0.205 C 
ATOM     26  H1  UNL     1      11.718  -7.465   7.685  1.00  0.00     0.165 HD
BRANCH  23  27
HETATM   27  O2  UNL     1      13.727  -6.771  10.428  1.00  0.00    -0.388 OA
ATOM     28  H2  UNL     1      13.597  -6.072  11.058  1.00  0.00     0.210 HD
ENDBRANCH  23  27
ENDBRANCH   3  20
TORSDOF 7
ENDMDL
MODEL 5
REMARK VINA RESULT: -9.141718962      1.767      2.720
REMARK  7 active torsions:
REMARK  status: ('A' for Active; 'I' for Inactive)
REMARK    1  A    between atoms: C2_2  and  C3_3 
REMARK    2  A    between atoms: C2_2  and  N2_18 
REMARK    3  A    between atoms: C3_3  and  C4_4 
REMARK    4  A    between atoms: C6_6  and  N1_7 
REMARK    5  A    between atoms: C10_13  and  O2_14 
REMARK       I    between atoms: N2_18  and  C12_20 
REMARK    6  A    between atoms: C12_20  and  C13_22 
REMARK    7  A    between atoms: C13_22  and  C14_23 
ROOT
HETATM    1  C4  UNL     1       4.334  -5.939   6.004  1.00  0.00     0.129 C 
HETATM    2  C5  UNL     1       3.427  -4.797   6.462  1.00  0.00     0.086 C 
HETATM    3  C6  UNL     1       2.300  -5.092   5.434  1.00  0.00     0.013 C 
HETATM    4  C11 UNL     1       2.238  -6.550   5.532  1.00  0.00     0.220 C 
HETATM    5  O3  UNL     1       3.469  -7.014   6.070  1.00  0.00    -0.380 OA
ENDROOT
BRANCH   1   6
HETATM    6  C3  UNL     1       5.618  -6.027   6.647  1.00  0.00     0.057 C 
BRANCH   6   7
HETATM    7  C2  UNL     1       5.802  -6.706   7.942  1.00  0.00     0.082 C 
HETATM    8  C1  UNL     1       5.121  -6.133   9.127  1.00  0.00     0.032 C 
BRANCH   7   9
HETATM    9  N2  UNL     1       7.249  -6.683   8.210  1.00  0.00    -0.357 N 
HETATM   10  C12 UNL     1       7.920  -7.673   8.945  1.00  0.00     0.218 C 
HETATM   11  O4  UNL     1       7.328  -8.661   9.434  1.00  0.00    -0.274 OA
ATOM     12  H2  UNL     1       7.795  -5.905   7.841  1.00  0.00     0.162 HD
BRANCH  10  13
HETATM   13  C13 UNL     1       9.376  -7.553   9.155  1.00  0.00     0.107 C 
BRANCH  13  14
HETATM   14  C14 UNL     1      10.033  -8.885   9.045  1.00  0.00    -0.002 C 
HETATM   15  C15 UNL     1      10.153  -9.431   7.660  1.00  0.00     0.005 C 
HETATM   16  C16 UNL     1      11.448 -10.236   7.640  1.00  0.00     0.001 C 
HETATM   17  C17 UNL     1      11.969 -10.201   9.082  1.00  0.00     0.005 C 
HETATM   18  C18 UNL     1      11.465  -8.844   9.533  1.00  0.00    -0.014 C 
HETATM   19  C19 UNL     1      11.515  -8.651  11.014  1.00  0.00     0.010 C 
ENDBRANCH  13  14
ENDBRANCH  10  13
ENDBRANCH   7   9
ENDBRANCH   6   7
ENDBRANCH   1   6
BRANCH   3  20
HETATM   20  N1  UNL     1       1.259  -4.240   5.382  1.00  0.00    -0.364 N 
HETATM   21  C7  UNL     1       0.936  -3.200   4.571  1.00  0.00     0.041 C 
HETATM   22  C8  UNL     1       0.691  -3.398   3.100  1.00  0.00     0.223 C 
HETATM   23  C10 UNL     1       1.751  -1.928   4.611  1.00  0.00     0.189 C 
HETATM   24  O1  UNL     1       0.330  -2.065   2.751  1.00  0.00    -0.383 OA
HETATM   25  C9  UNL     1       1.342  -1.282   3.303  1.00  0.00     0.205 C 
ATOM     26  H1  UNL     1       0.563  -4.412   6.109  1.00  0.00     0.165 HD
BRANCH  23  27
HETATM   27  O2  UNL     1       1.318  -1.059   5.623  1.00  0.00    -0.388 OA
ATOM     28  H2  UNL     1       1.352  -1.467   6.480  1.00  0.00     0.210 HD
ENDBRANCH  23  27
ENDBRANCH   3  20
TORSDOF 7
ENDMDL
