MODEL 1
REMARK VINA RESULT: -5.107100887      0.000      0.000
REMARK  3 active torsions:
REMARK  status: ('A' for Active; 'I' for Inactive)
REMARK    1  A    between atoms: N2_7  and  C4_8 
REMARK    2  A    between atoms: C4_8  and  C5_9 
REMARK    3  A    between atoms: C5_9  and  O2_10 
ROOT
HETATM    1  O1  UNL     1     -35.968 -28.968  -5.868  1.00  0.00    -0.246 OA
HETATM    2  C1  UNL     1     -37.113 -29.314  -5.498  1.00  0.00     0.335 C 
HETATM    3  N1  UNL     1     -37.626 -30.565  -5.971  1.00  0.00    -0.341 N 
ATOM      4  H1  UNL     1     -36.957 -31.214  -6.386  1.00  0.00     0.164 HD
HETATM    5  C2  UNL     1     -39.037 -31.001  -5.912  1.00  0.00     0.141 C 
HETATM    6  C3  UNL     1     -39.866 -29.805  -5.596  1.00  0.00     0.135 C 
HETATM    7  N2  UNL     1     -39.954 -29.405  -4.226  1.00  0.00    -0.210 NA
HETATM    8  N5  UNL     1     -38.827 -28.785  -3.731  1.00  0.00    -0.258 N 
ATOM      9  H5  UNL     1     -38.729 -28.588  -2.735  1.00  0.00     0.202 HD
HETATM   10  N6  UNL     1     -37.837 -28.439  -4.624  1.00  0.00    -0.241 N 
ATOM     11  H6  UNL     1     -37.593 -27.450  -4.669  1.00  0.00     0.193 HD
ENDROOT
BRANCH   7  12
HETATM   12  C4  UNL     1     -40.537 -30.408  -3.382  1.00  0.00     0.189 C 
BRANCH  12  13
HETATM   13  C5  UNL     1     -41.470 -29.824  -2.407  1.00  0.00     0.272 C 
HETATM   14  C6  UNL     1     -42.768 -30.578  -2.310  1.00  0.00     0.126 C 
HETATM   15  N3  UNL     1     -43.275 -30.276  -1.186  1.00  0.00    -0.375 N 
HETATM   16  C7  UNL     1     -42.419 -29.358  -0.471  1.00  0.00     0.358 C 
ATOM     17  H3  UNL     1     -44.164 -30.633  -0.836  1.00  0.00     0.160 HD
HETATM   18  N4  UNL     1     -41.093 -29.762  -1.024  1.00  0.00    -0.021 N 
ATOM     19  H42 UNL     1     -40.666 -30.600  -0.626  1.00  0.00     0.283 HD
ATOM     20  H41 UNL     1     -40.297 -29.167  -0.791  1.00  0.00     0.283 HD
BRANCH  13  21
HETATM   21  O2  UNL     1     -41.780 -28.498  -2.796  1.00  0.00    -0.360 OA
ATOM     22  H2  UNL     1     -41.184 -27.898  -2.362  1.00  0.00     0.213 HD
ENDBRANCH  13  21
ENDBRANCH  12  13
ENDBRANCH   7  12
TORSDOF 3
ENDMDL
MODEL 2
REMARK VINA RESULT: -5.031574817      1.388      1.625
REMARK  3 active torsions:
REMARK  status: ('A' for Active; 'I' for Inactive)
REMARK    1  A    between atoms: N2_7  and  C4_8 
REMARK    2  A    between atoms: C4_8  and  C5_9 
REMARK    3  A    between atoms: C5_9  and  O2_10 
ROOT
HETATM    1  O1  UNL     1     -35.978 -28.926  -5.784  1.00  0.00    -0.246 OA
HETATM    2  C1  UNL     1     -37.159 -29.241  -5.515  1.00  0.00     0.335 C 
HETATM    3  N1  UNL     1     -37.550 -30.609  -5.694  1.00  0.00    -0.341 N 
ATOM      4  H1  UNL     1     -36.803 -31.294  -5.802  1.00  0.00     0.164 HD
HETATM    5  C2  UNL     1     -38.937 -31.115  -5.736  1.00  0.00     0.141 C 
HETATM    6  C3  UNL     1     -39.841 -29.941  -5.899  1.00  0.00     0.135 C 
HETATM    7  N2  UNL     1     -40.171 -29.194  -4.725  1.00  0.00    -0.210 NA
HETATM    8  N5  UNL     1     -39.162 -28.382  -4.254  1.00  0.00    -0.258 N 
ATOM      9  H5  UNL     1     -39.240 -27.917  -3.350  1.00  0.00     0.202 HD
HETATM   10  N6  UNL     1     -38.045 -28.219  -5.043  1.00  0.00    -0.241 N 
ATOM     11  H6  UNL     1     -37.823 -27.263  -5.324  1.00  0.00     0.193 HD
ENDROOT
BRANCH   7  12
HETATM   12  C4  UNL     1     -40.861 -29.971  -3.737  1.00  0.00     0.189 C 
BRANCH  12  13
HETATM   13  C5  UNL     1     -42.284 -29.607  -3.654  1.00  0.00     0.272 C 
HETATM   14  C6  UNL     1     -43.107 -30.188  -4.770  1.00  0.00     0.126 C 
HETATM   15  N3  UNL     1     -44.310 -30.189  -4.366  1.00  0.00    -0.375 N 
HETATM   16  C7  UNL     1     -44.399 -29.648  -3.029  1.00  0.00     0.358 C 
ATOM     17  H3  UNL     1     -45.105 -30.525  -4.910  1.00  0.00     0.160 HD
HETATM   18  N4  UNL     1     -43.049 -30.022  -2.513  1.00  0.00    -0.021 N 
ATOM     19  H42 UNL     1     -42.926 -30.987  -2.204  1.00  0.00     0.283 HD
ATOM     20  H41 UNL     1     -42.777 -29.630  -1.610  1.00  0.00     0.283 HD
BRANCH  13  21
HETATM   21  O2  UNL     1     -42.409 -28.198  -3.727  1.00  0.00    -0.360 OA
ATOM     22  H2  UNL     1     -41.860 -27.873  -4.431  1.00  0.00     0.213 HD
ENDBRANCH  13  21
ENDBRANCH  12  13
ENDBRANCH   7  12
TORSDOF 3
ENDMDL
MODEL 3
REMARK VINA RESULT: -5.011356165      1.374      1.542
REMARK  3 active torsions:
REMARK  status: ('A' for Active; 'I' for Inactive)
REMARK    1  A    between atoms: N2_7  and  C4_8 
REMARK    2  A    between atoms: C4_8  and  C5_9 
REMARK    3  A    between atoms: C5_9  and  O2_10 
ROOT
HETATM    1  O1  UNL     1     -37.291 -28.906  -5.653  1.00  0.00    -0.246 OA
HETATM    2  C1  UNL     1     -38.296 -29.182  -4.960  1.00  0.00     0.335 C 
HETATM    3  N1  UNL     1     -39.153 -30.241  -5.407  1.00  0.00    -0.341 N 
ATOM      4  H1  UNL     1     -38.784 -30.864  -6.126  1.00  0.00     0.164 HD
HETATM    5  C2  UNL     1     -40.522 -30.510  -4.922  1.00  0.00     0.141 C 
HETATM    6  C3  UNL     1     -40.973 -29.315  -4.155  1.00  0.00     0.135 C 
HETATM    7  N2  UNL     1     -40.537 -29.198  -2.798  1.00  0.00    -0.210 NA
HETATM    8  N5  UNL     1     -39.218 -28.831  -2.644  1.00  0.00    -0.258 N 
ATOM      9  H5  UNL     1     -38.768 -28.856  -1.729  1.00  0.00     0.202 HD
HETATM   10  N6  UNL     1     -38.526 -28.428  -3.764  1.00  0.00    -0.241 N 
ATOM     11  H6  UNL     1     -38.134 -27.486  -3.741  1.00  0.00     0.193 HD
ENDROOT
BRANCH   7  12
HETATM   12  C4  UNL     1     -40.987 -30.277  -1.967  1.00  0.00     0.189 C 
BRANCH  12  13
HETATM   13  C5  UNL     1     -41.876 -29.806  -0.895  1.00  0.00     0.272 C 
HETATM   14  C6  UNL     1     -43.202 -30.516  -0.876  1.00  0.00     0.126 C 
HETATM   15  N3  UNL     1     -43.675 -30.360   0.293  1.00  0.00    -0.375 N 
HETATM   16  C7  UNL     1     -42.768 -29.588   1.110  1.00  0.00     0.358 C 
ATOM     17  H3  UNL     1     -44.571 -30.730   0.610  1.00  0.00     0.160 HD
HETATM   18  N4  UNL     1     -41.470 -29.958   0.472  1.00  0.00    -0.021 N 
ATOM     19  H42 UNL     1     -41.071 -30.860   0.735  1.00  0.00     0.283 HD
ATOM     20  H41 UNL     1     -40.646 -29.434   0.768  1.00  0.00     0.283 HD
BRANCH  13  21
HETATM   21  O2  UNL     1     -42.139 -28.426  -1.082  1.00  0.00    -0.360 OA
ATOM     22  H2  UNL     1     -42.540 -28.076  -0.295  1.00  0.00     0.213 HD
ENDBRANCH  13  21
ENDBRANCH  12  13
ENDBRANCH   7  12
TORSDOF 3
ENDMDL
MODEL 4
REMARK VINA RESULT: -4.795358158      1.803      5.658
REMARK  3 active torsions:
REMARK  status: ('A' for Active; 'I' for Inactive)
REMARK    1  A    between atoms: N2_7  and  C4_8 
REMARK    2  A    between atoms: C4_8  and  C5_9 
REMARK    3  A    between atoms: C5_9  and  O2_10 
ROOT
HETATM    1  O1  UNL     1     -43.858 -30.393   0.634  1.00  0.00    -0.246 OA
HETATM    2  C1  UNL     1     -43.171 -30.334  -0.412  1.00  0.00     0.335 C 
HETATM    3  N1  UNL     1     -43.852 -30.403  -1.671  1.00  0.00    -0.341 N 
ATOM      4  H1  UNL     1     -44.862 -30.261  -1.660  1.00  0.00     0.164 HD
HETATM    5  C2  UNL     1     -43.224 -30.663  -2.982  1.00  0.00     0.141 C 
HETATM    6  C3  UNL     1     -41.845 -31.167  -2.730  1.00  0.00     0.135 C 
HETATM    7  N2  UNL     1     -40.828 -30.199  -2.457  1.00  0.00    -0.210 NA
HETATM    8  N5  UNL     1     -40.881 -29.643  -1.197  1.00  0.00    -0.258 N 
ATOM      9  H5  UNL     1     -40.296 -28.847  -0.948  1.00  0.00     0.202 HD
HETATM   10  N6  UNL     1     -41.751 -30.199  -0.285  1.00  0.00    -0.241 N 
ATOM     11  H6  UNL     1     -41.337 -30.554   0.577  1.00  0.00     0.193 HD
ENDROOT
BRANCH   7  12
HETATM   12  C4  UNL     1     -40.620 -29.279  -3.538  1.00  0.00     0.189 C 
BRANCH  12  13
HETATM   13  C5  UNL     1     -39.197 -29.163  -3.889  1.00  0.00     0.272 C 
HETATM   14  C6  UNL     1     -38.634 -30.422  -4.490  1.00  0.00     0.126 C 
HETATM   15  N3  UNL     1     -37.594 -30.080  -5.133  1.00  0.00    -0.375 N 
HETATM   16  C7  UNL     1     -37.380 -28.654  -5.033  1.00  0.00     0.358 C 
ATOM     17  H3  UNL     1     -36.993 -30.722  -5.649  1.00  0.00     0.160 HD
HETATM   18  N4  UNL     1     -38.792 -28.195  -4.868  1.00  0.00    -0.021 N 
ATOM     19  H42 UNL     1     -39.356 -28.134  -5.715  1.00  0.00     0.283 HD
ATOM     20  H41 UNL     1     -38.930 -27.213  -4.627  1.00  0.00     0.283 HD
BRANCH  13  21
HETATM   21  O2  UNL     1     -38.449 -28.885  -2.718  1.00  0.00    -0.360 OA
ATOM     22  H2  UNL     1     -37.690 -29.454  -2.691  1.00  0.00     0.213 HD
ENDBRANCH  13  21
ENDBRANCH  12  13
ENDBRANCH   7  12
TORSDOF 3
ENDMDL
MODEL 5
REMARK VINA RESULT: -4.773703628      2.400      5.862
REMARK  3 active torsions:
REMARK  status: ('A' for Active; 'I' for Inactive)
REMARK    1  A    between atoms: N2_7  and  C4_8 
REMARK    2  A    between atoms: C4_8  and  C5_9 
REMARK    3  A    between atoms: C5_9  and  O2_10 
ROOT
HETATM    1  O1  UNL     1     -46.421 -30.644  -3.652  1.00  0.00    -0.246 OA
HETATM    2  C1  UNL     1     -45.221 -30.353  -3.448  1.00  0.00     0.335 C 
HETATM    3  N1  UNL     1     -44.638 -30.735  -2.195  1.00  0.00    -0.341 N 
ATOM      4  H1  UNL     1     -45.148 -31.420  -1.636  1.00  0.00     0.164 HD
HETATM    5  C2  UNL     1     -43.368 -30.225  -1.640  1.00  0.00     0.141 C 
HETATM    6  C3  UNL     1     -42.980 -29.022  -2.429  1.00  0.00     0.135 C 
HETATM    7  N2  UNL     1     -42.323 -29.238  -3.681  1.00  0.00    -0.210 NA
HETATM    8  N5  UNL     1     -43.145 -29.671  -4.698  1.00  0.00    -0.258 N 
ATOM      9  H5  UNL     1     -42.760 -29.989  -5.587  1.00  0.00     0.202 HD
HETATM   10  N6  UNL     1     -44.504 -29.661  -4.477  1.00  0.00    -0.241 N 
ATOM     11  H6  UNL     1     -45.064 -29.097  -5.117  1.00  0.00     0.193 HD
ENDROOT
BRANCH   7  12
HETATM   12  C4  UNL     1     -41.073 -29.928  -3.550  1.00  0.00     0.189 C 
BRANCH  12  13
HETATM   13  C5  UNL     1     -39.960 -29.152  -4.116  1.00  0.00     0.272 C 
HETATM   14  C6  UNL     1     -38.762 -29.093  -3.208  1.00  0.00     0.126 C 
HETATM   15  N3  UNL     1     -37.768 -28.807  -3.944  1.00  0.00    -0.375 N 
HETATM   16  C7  UNL     1     -38.179 -28.662  -5.322  1.00  0.00     0.358 C 
ATOM     17  H3  UNL     1     -36.811 -28.695  -3.609  1.00  0.00     0.160 HD
HETATM   18  N4  UNL     1     -39.348 -29.590  -5.338  1.00  0.00    -0.021 N 
ATOM     19  H42 UNL     1     -39.142 -30.587  -5.417  1.00  0.00     0.283 HD
ATOM     20  H41 UNL     1     -39.933 -29.578  -6.174  1.00  0.00     0.283 HD
BRANCH  13  21
HETATM   21  O2  UNL     1     -40.387 -27.820  -4.339  1.00  0.00    -0.360 OA
ATOM     22  H2  UNL     1     -39.699 -27.343  -4.788  1.00  0.00     0.213 HD
ENDBRANCH  13  21
ENDBRANCH  12  13
ENDBRANCH   7  12
TORSDOF 3
ENDMDL
