MODEL 1
REMARK VINA RESULT: -8.570759885      0.000      0.000
REMARK  8 active torsions:
REMARK  status: ('A' for Active; 'I' for Inactive)
REMARK    1  A    between atoms: C2_2  and  C3_3 
REMARK    2  A    between atoms: C6_6  and  C7_7 
REMARK    3  A    between atoms: C7_7  and  C9_9 
REMARK    4  A    between atoms: C9_9  and  C10_10 
REMARK    5  A    between atoms: C13_16  and  N1_17 
REMARK       I    between atoms: N1_17  and  C14_19 
REMARK       I    between atoms: C14_19  and  N2_21 
REMARK    6  A    between atoms: N2_21  and  C15_23 
REMARK    7  A    between atoms: C17_25  and  C18_26 
REMARK    8  A    between atoms: C21_30  and  O3_31 
ROOT
HETATM    1  N1  UNL     1     -15.896 -42.328 -59.979  1.00  0.00    -0.338 N 
ATOM      2  H1  UNL     1     -15.663 -43.000 -60.709  1.00  0.00     0.164 HD
HETATM    3  C14 UNL     1     -15.712 -42.725 -58.628  1.00  0.00     0.316 C 
HETATM    4  O1  UNL     1     -16.000 -41.896 -57.725  1.00  0.00    -0.247 OA
HETATM    5  N2  UNL     1     -15.225 -44.002 -58.305  1.00  0.00    -0.338 N 
ATOM      6  H2  UNL     1     -15.002 -44.641 -59.069  1.00  0.00     0.164 HD
ENDROOT
BRANCH   1   7
HETATM    7  C13 UNL     1     -16.387 -41.049 -60.381  1.00  0.00     0.094 C 
HETATM    8  C3  UNL     1     -16.444 -40.953 -61.869  1.00  0.00    -0.024 C 
HETATM    9  C4  UNL     1     -14.980 -40.712 -62.300  1.00  0.00     0.017 C 
HETATM   10  C5  UNL     1     -17.224 -39.797 -62.380  1.00  0.00     0.016 C 
HETATM   11  C6  UNL     1     -17.666 -38.778 -61.373  1.00  0.00    -0.010 C 
HETATM   12  C11 UNL     1     -18.138 -39.293 -60.069  1.00  0.00     0.007 C 
HETATM   13  C12 UNL     1     -17.664 -40.676 -59.695  1.00  0.00     0.026 C 
BRANCH   8  14
HETATM   14  C2  UNL     1     -16.804 -42.257 -62.544  1.00  0.00     0.007 C 
HETATM   15  C1  UNL     1     -18.166 -42.371 -63.087  1.00  0.00     0.006 C 
ENDBRANCH   8  14
BRANCH  11  16
HETATM   16  C7  UNL     1     -18.788 -37.931 -61.969  1.00  0.00    -0.006 C 
HETATM   17  C8  UNL     1     -18.211 -36.770 -62.729  1.00  0.00     0.010 C 
BRANCH  16  18
HETATM   18  C9  UNL     1     -19.715 -38.706 -62.803  1.00  0.00     0.122 C 
BRANCH  18  19
HETATM   19  C10 UNL     1     -21.150 -38.657 -62.369  1.00  0.00     0.388 C 
HETATM   20  F1  UNL     1     -21.298 -39.414 -61.179  1.00  0.00    -0.171 F 
HETATM   21  F2  UNL     1     -22.043 -39.079 -63.302  1.00  0.00    -0.171 F 
HETATM   22  F3  UNL     1     -21.503 -37.357 -61.984  1.00  0.00    -0.171 F 
ENDBRANCH  18  19
ENDBRANCH  16  18
ENDBRANCH  11  16
ENDBRANCH   1   7
BRANCH   5  23
HETATM   23  C15 UNL     1     -15.019 -44.462 -56.944  1.00  0.00     0.097 A 
HETATM   24  C16 UNL     1     -14.105 -45.610 -56.736  1.00  0.00     0.039 A 
HETATM   25  C17 UNL     1     -15.625 -45.722 -56.475  1.00  0.00     0.068 A 
BRANCH  25  26
HETATM   26  C18 UNL     1     -15.961 -45.900 -55.034  1.00  0.00     0.062 A 
HETATM   27  C19 UNL     1     -16.723 -46.979 -54.598  1.00  0.00     0.091 A 
HETATM   28  C20 UNL     1     -17.054 -47.175 -53.275  1.00  0.00     0.209 A 
HETATM   29  O2  UNL     1     -17.737 -48.142 -52.873  1.00  0.00    -0.285 OA
HETATM   30  C21 UNL     1     -16.611 -46.259 -52.337  1.00  0.00     0.138 A 
HETATM   31  C22 UNL     1     -15.857 -45.205 -52.829  1.00  0.00     0.182 A 
HETATM   32  O4  UNL     1     -15.569 -45.064 -54.102  1.00  0.00    -0.324 OA
BRANCH  30  33
HETATM   33  O3  UNL     1     -16.918 -46.413 -50.992  1.00  0.00    -0.355 OA
ATOM     34  H3  UNL     1     -16.268 -46.733 -50.377  1.00  0.00     0.218 HD
ENDBRANCH  30  33
ENDBRANCH  25  26
ENDBRANCH   5  23
TORSDOF 8
ENDMDL
MODEL 2
REMARK VINA RESULT: -7.980765376      4.936      6.331
REMARK  8 active torsions:
REMARK  status: ('A' for Active; 'I' for Inactive)
REMARK    1  A    between atoms: C2_2  and  C3_3 
REMARK    2  A    between atoms: C6_6  and  C7_7 
REMARK    3  A    between atoms: C7_7  and  C9_9 
REMARK    4  A    between atoms: C9_9  and  C10_10 
REMARK    5  A    between atoms: C13_16  and  N1_17 
REMARK       I    between atoms: N1_17  and  C14_19 
REMARK       I    between atoms: C14_19  and  N2_21 
REMARK    6  A    between atoms: N2_21  and  C15_23 
REMARK    7  A    between atoms: C17_25  and  C18_26 
REMARK    8  A    between atoms: C21_30  and  O3_31 
ROOT
HETATM    1  N1  UNL     1     -13.736 -44.525 -58.804  1.00  0.00    -0.338 N 
ATOM      2  H1  UNL     1     -14.104 -45.425 -58.496  1.00  0.00     0.164 HD
HETATM    3  C14 UNL     1     -12.364 -44.252 -58.564  1.00  0.00     0.316 C 
HETATM    4  O1  UNL     1     -11.908 -43.141 -58.942  1.00  0.00    -0.247 OA
HETATM    5  N2  UNL     1     -11.537 -45.189 -57.924  1.00  0.00    -0.338 N 
ATOM      6  H2  UNL     1     -11.947 -46.078 -57.635  1.00  0.00     0.164 HD
ENDROOT
BRANCH   1   7
HETATM    7  C13 UNL     1     -14.635 -43.623 -59.448  1.00  0.00     0.094 C 
HETATM    8  C3  UNL     1     -15.190 -44.231 -60.692  1.00  0.00    -0.024 C 
HETATM    9  C4  UNL     1     -14.052 -44.099 -61.730  1.00  0.00     0.017 C 
HETATM   10  C5  UNL     1     -16.357 -43.510 -61.261  1.00  0.00     0.016 C 
HETATM   11  C6  UNL     1     -16.694 -42.180 -60.655  1.00  0.00    -0.010 C 
HETATM   12  C11 UNL     1     -16.576 -42.069 -59.185  1.00  0.00     0.007 C 
HETATM   13  C12 UNL     1     -15.675 -43.079 -58.518  1.00  0.00     0.026 C 
BRANCH   8  14
HETATM   14  C2  UNL     1     -15.407 -45.723 -60.588  1.00  0.00     0.007 C 
HETATM   15  C1  UNL     1     -15.250 -46.507 -61.823  1.00  0.00     0.006 C 
ENDBRANCH   8  14
BRANCH  11  16
HETATM   16  C7  UNL     1     -18.123 -41.799 -61.035  1.00  0.00    -0.006 C 
HETATM   17  C8  UNL     1     -18.666 -42.769 -62.046  1.00  0.00     0.010 C 
BRANCH  16  18
HETATM   18  C9  UNL     1     -19.016 -41.681 -59.876  1.00  0.00     0.122 C 
BRANCH  18  19
HETATM   19  C10 UNL     1     -19.634 -40.328 -59.686  1.00  0.00     0.388 C 
HETATM   20  F1  UNL     1     -20.599 -40.403 -58.651  1.00  0.00    -0.171 F 
HETATM   21  F2  UNL     1     -20.191 -39.792 -60.803  1.00  0.00    -0.171 F 
HETATM   22  F3  UNL     1     -18.686 -39.421 -59.194  1.00  0.00    -0.171 F 
ENDBRANCH  18  19
ENDBRANCH  16  18
ENDBRANCH  11  16
ENDBRANCH   1   7
BRANCH   5  23
HETATM   23  C15 UNL     1     -10.130 -44.964 -57.650  1.00  0.00     0.097 A 
HETATM   24  C16 UNL     1      -9.144 -45.513 -58.611  1.00  0.00     0.039 A 
HETATM   25  C17 UNL     1      -9.269 -46.061 -57.171  1.00  0.00     0.068 A 
BRANCH  25  26
HETATM   26  C18 UNL     1      -8.078 -45.764 -56.325  1.00  0.00     0.062 A 
HETATM   27  C19 UNL     1      -8.081 -46.023 -54.958  1.00  0.00     0.091 A 
HETATM   28  C20 UNL     1      -7.000 -45.762 -54.145  1.00  0.00     0.209 A 
HETATM   29  O2  UNL     1      -6.992 -45.992 -52.916  1.00  0.00    -0.285 OA
HETATM   30  C21 UNL     1      -5.861 -45.216 -54.710  1.00  0.00     0.138 A 
HETATM   31  C22 UNL     1      -5.916 -44.978 -56.075  1.00  0.00     0.182 A 
HETATM   32  O4  UNL     1      -6.974 -45.247 -56.806  1.00  0.00    -0.324 OA
BRANCH  30  33
HETATM   33  O3  UNL     1      -4.745 -44.934 -53.933  1.00  0.00    -0.355 OA
ATOM     34  H3  UNL     1      -4.337 -44.077 -53.960  1.00  0.00     0.218 HD
ENDBRANCH  30  33
ENDBRANCH  25  26
ENDBRANCH   5  23
TORSDOF 8
ENDMDL
MODEL 3
REMARK VINA RESULT: -7.813900404      7.809     10.166
REMARK  8 active torsions:
REMARK  status: ('A' for Active; 'I' for Inactive)
REMARK    1  A    between atoms: C2_2  and  C3_3 
REMARK    2  A    between atoms: C6_6  and  C7_7 
REMARK    3  A    between atoms: C7_7  and  C9_9 
REMARK    4  A    between atoms: C9_9  and  C10_10 
REMARK    5  A    between atoms: C13_16  and  N1_17 
REMARK       I    between atoms: N1_17  and  C14_19 
REMARK       I    between atoms: C14_19  and  N2_21 
REMARK    6  A    between atoms: N2_21  and  C15_23 
REMARK    7  A    between atoms: C17_25  and  C18_26 
REMARK    8  A    between atoms: C21_30  and  O3_31 
ROOT
HETATM    1  N1  UNL     1     -11.708 -45.135 -58.473  1.00  0.00    -0.338 N 
ATOM      2  H1  UNL     1     -11.932 -44.567 -59.290  1.00  0.00     0.164 HD
HETATM    3  C14 UNL     1     -12.762 -45.453 -57.578  1.00  0.00     0.316 C 
HETATM    4  O1  UNL     1     -12.488 -46.156 -56.569  1.00  0.00    -0.247 OA
HETATM    5  N2  UNL     1     -14.073 -45.001 -57.805  1.00  0.00    -0.338 N 
ATOM      6  H2  UNL     1     -14.250 -44.436 -58.636  1.00  0.00     0.164 HD
ENDROOT
BRANCH   1   7
HETATM    7  C13 UNL     1     -10.355 -45.559 -58.307  1.00  0.00     0.094 C 
HETATM    8  C3  UNL     1      -9.481 -44.950 -59.351  1.00  0.00    -0.024 C 
HETATM    9  C4  UNL     1      -9.759 -45.782 -60.624  1.00  0.00     0.017 C 
HETATM   10  C5  UNL     1      -8.025 -45.075 -59.083  1.00  0.00     0.016 C 
HETATM   11  C6  UNL     1      -7.620 -45.956 -57.939  1.00  0.00    -0.010 C 
HETATM   12  C11 UNL     1      -8.453 -45.889 -56.719  1.00  0.00     0.007 C 
HETATM   13  C12 UNL     1      -9.858 -45.370 -56.907  1.00  0.00     0.026 C 
BRANCH   8  14
HETATM   14  C2  UNL     1      -9.895 -43.550 -59.742  1.00  0.00     0.007 C 
HETATM   15  C1  UNL     1      -8.822 -42.623 -60.134  1.00  0.00     0.006 C 
ENDBRANCH   8  14
BRANCH  11  16
HETATM   16  C7  UNL     1      -6.183 -45.631 -57.537  1.00  0.00    -0.006 C 
HETATM   17  C8  UNL     1      -5.408 -45.147 -58.730  1.00  0.00     0.010 C 
BRANCH  16  18
HETATM   18  C9  UNL     1      -6.096 -44.679 -56.423  1.00  0.00     0.122 C 
BRANCH  18  19
HETATM   19  C10 UNL     1      -5.432 -45.207 -55.187  1.00  0.00     0.388 C 
HETATM   20  F1  UNL     1      -4.208 -45.823 -55.548  1.00  0.00    -0.171 F 
HETATM   21  F2  UNL     1      -6.187 -46.068 -54.456  1.00  0.00    -0.171 F 
HETATM   22  F3  UNL     1      -5.042 -44.152 -54.351  1.00  0.00    -0.171 F 
ENDBRANCH  18  19
ENDBRANCH  16  18
ENDBRANCH  11  16
ENDBRANCH   1   7
BRANCH   5  23
HETATM   23  C15 UNL     1     -15.187 -45.293 -56.924  1.00  0.00     0.097 A 
HETATM   24  C16 UNL     1     -15.865 -44.148 -56.268  1.00  0.00     0.039 A 
HETATM   25  C17 UNL     1     -15.042 -45.179 -55.461  1.00  0.00     0.068 A 
BRANCH  25  26
HETATM   26  C18 UNL     1     -15.878 -46.020 -54.558  1.00  0.00     0.062 A 
HETATM   27  C19 UNL     1     -15.957 -45.757 -53.194  1.00  0.00     0.091 A 
HETATM   28  C20 UNL     1     -16.719 -46.512 -52.329  1.00  0.00     0.209 A 
HETATM   29  O2  UNL     1     -16.796 -46.284 -51.103  1.00  0.00    -0.285 OA
HETATM   30  C21 UNL     1     -17.436 -47.581 -52.837  1.00  0.00     0.138 A 
HETATM   31  C22 UNL     1     -17.319 -47.796 -54.202  1.00  0.00     0.182 A 
HETATM   32  O4  UNL     1     -16.578 -47.044 -54.984  1.00  0.00    -0.324 OA
BRANCH  30  33
HETATM   33  O3  UNL     1     -18.218 -48.372 -52.007  1.00  0.00    -0.355 OA
ATOM     34  H3  UNL     1     -18.927 -48.897 -52.360  1.00  0.00     0.218 HD
ENDBRANCH  30  33
ENDBRANCH  25  26
ENDBRANCH   5  23
TORSDOF 8
ENDMDL
MODEL 4
REMARK VINA RESULT: -7.792597882      5.938     10.841
REMARK  8 active torsions:
REMARK  status: ('A' for Active; 'I' for Inactive)
REMARK    1  A    between atoms: C2_2  and  C3_3 
REMARK    2  A    between atoms: C6_6  and  C7_7 
REMARK    3  A    between atoms: C7_7  and  C9_9 
REMARK    4  A    between atoms: C9_9  and  C10_10 
REMARK    5  A    between atoms: C13_16  and  N1_17 
REMARK       I    between atoms: N1_17  and  C14_19 
REMARK       I    between atoms: C14_19  and  N2_21 
REMARK    6  A    between atoms: N2_21  and  C15_23 
REMARK    7  A    between atoms: C17_25  and  C18_26 
REMARK    8  A    between atoms: C21_30  and  O3_31 
ROOT
HETATM    1  N1  UNL     1     -15.383 -43.941 -59.128  1.00  0.00    -0.338 N 
ATOM      2  H1  UNL     1     -15.747 -44.696 -59.709  1.00  0.00     0.164 HD
HETATM    3  C14 UNL     1     -16.042 -42.685 -59.182  1.00  0.00     0.316 C 
HETATM    4  O1  UNL     1     -15.593 -41.752 -58.465  1.00  0.00    -0.247 OA
HETATM    5  N2  UNL     1     -17.160 -42.485 -60.008  1.00  0.00    -0.338 N 
ATOM      6  H2  UNL     1     -17.491 -43.269 -60.570  1.00  0.00     0.164 HD
ENDROOT
BRANCH   1   7
HETATM    7  C13 UNL     1     -14.243 -44.218 -58.314  1.00  0.00     0.094 C 
HETATM    8  C3  UNL     1     -14.497 -45.398 -57.437  1.00  0.00    -0.024 C 
HETATM    9  C4  UNL     1     -15.386 -44.851 -56.297  1.00  0.00     0.017 C 
HETATM   10  C5  UNL     1     -13.283 -45.953 -56.787  1.00  0.00     0.016 C 
HETATM   11  C6  UNL     1     -12.019 -45.156 -56.918  1.00  0.00    -0.010 C 
HETATM   12  C11 UNL     1     -11.763 -44.523 -58.230  1.00  0.00     0.007 C 
HETATM   13  C12 UNL     1     -12.975 -44.305 -59.104  1.00  0.00     0.026 C 
BRANCH   8  14
HETATM   14  C2  UNL     1     -15.360 -46.456 -58.086  1.00  0.00     0.007 C 
HETATM   15  C1  UNL     1     -14.674 -47.654 -58.596  1.00  0.00     0.006 C 
ENDBRANCH   8  14
BRANCH  11  16
HETATM   16  C7  UNL     1     -10.823 -46.048 -56.593  1.00  0.00    -0.006 C 
HETATM   17  C8  UNL     1     -10.795 -47.233 -57.517  1.00  0.00     0.010 C 
BRANCH  16  18
HETATM   18  C9  UNL     1      -9.544 -45.328 -56.612  1.00  0.00     0.122 C 
BRANCH  18  19
HETATM   19  C10 UNL     1      -8.600 -45.682 -55.502  1.00  0.00     0.388 C 
HETATM   20  F1  UNL     1      -7.413 -44.920 -55.645  1.00  0.00    -0.171 F 
HETATM   21  F2  UNL     1      -8.296 -47.003 -55.411  1.00  0.00    -0.171 F 
HETATM   22  F3  UNL     1      -9.117 -45.267 -54.267  1.00  0.00    -0.171 F 
ENDBRANCH  18  19
ENDBRANCH  16  18
ENDBRANCH  11  16
ENDBRANCH   1   7
BRANCH   5  23
HETATM   23  C15 UNL     1     -17.871 -41.223 -60.105  1.00  0.00     0.097 A 
HETATM   24  C16 UNL     1     -19.154 -41.098 -59.375  1.00  0.00     0.039 A 
HETATM   25  C17 UNL     1     -19.094 -41.108 -60.920  1.00  0.00     0.068 A 
BRANCH  25  26
HETATM   26  C18 UNL     1     -19.467 -39.800 -61.530  1.00  0.00     0.062 A 
HETATM   27  C19 UNL     1     -18.541 -38.769 -61.650  1.00  0.00     0.091 A 
HETATM   28  C20 UNL     1     -18.849 -37.548 -62.208  1.00  0.00     0.209 A 
HETATM   29  O2  UNL     1     -18.024 -36.615 -62.321  1.00  0.00    -0.285 OA
HETATM   30  C21 UNL     1     -20.136 -37.334 -62.669  1.00  0.00     0.138 A 
HETATM   31  C22 UNL     1     -21.016 -38.396 -62.523  1.00  0.00     0.182 A 
HETATM   32  O4  UNL     1     -20.670 -39.543 -61.983  1.00  0.00    -0.324 OA
BRANCH  30  33
HETATM   33  O3  UNL     1     -20.497 -36.121 -63.239  1.00  0.00    -0.355 OA
ATOM     34  H3  UNL     1     -21.393 -35.956 -63.507  1.00  0.00     0.218 HD
ENDBRANCH  30  33
ENDBRANCH  25  26
ENDBRANCH   5  23
TORSDOF 8
ENDMDL
MODEL 5
REMARK VINA RESULT: -7.765185058      4.155      5.484
REMARK  8 active torsions:
REMARK  status: ('A' for Active; 'I' for Inactive)
REMARK    1  A    between atoms: C2_2  and  C3_3 
REMARK    2  A    between atoms: C6_6  and  C7_7 
REMARK    3  A    between atoms: C7_7  and  C9_9 
REMARK    4  A    between atoms: C9_9  and  C10_10 
REMARK    5  A    between atoms: C13_16  and  N1_17 
REMARK       I    between atoms: N1_17  and  C14_19 
REMARK       I    between atoms: C14_19  and  N2_21 
REMARK    6  A    between atoms: N2_21  and  C15_23 
REMARK    7  A    between atoms: C17_25  and  C18_26 
REMARK    8  A    between atoms: C21_30  and  O3_31 
ROOT
HETATM    1  N1  UNL     1     -14.605 -44.192 -59.305  1.00  0.00    -0.338 N 
ATOM      2  H1  UNL     1     -15.263 -44.971 -59.330  1.00  0.00     0.164 HD
HETATM    3  C14 UNL     1     -13.262 -44.471 -58.940  1.00  0.00     0.316 C 
HETATM    4  O1  UNL     1     -12.448 -43.510 -58.907  1.00  0.00    -0.247 OA
HETATM    5  N2  UNL     1     -12.849 -45.776 -58.624  1.00  0.00    -0.338 N 
ATOM      6  H2  UNL     1     -13.541 -46.524 -58.665  1.00  0.00     0.164 HD
ENDROOT
BRANCH   1   7
HETATM    7  C13 UNL     1     -15.096 -42.894 -59.638  1.00  0.00     0.094 C 
HETATM    8  C3  UNL     1     -15.667 -42.886 -61.017  1.00  0.00    -0.024 C 
HETATM    9  C4  UNL     1     -14.434 -42.841 -61.947  1.00  0.00     0.017 C 
HETATM   10  C5  UNL     1     -16.475 -41.682 -61.339  1.00  0.00     0.016 C 
HETATM   11  C6  UNL     1     -16.445 -40.559 -60.346  1.00  0.00    -0.010 C 
HETATM   12  C11 UNL     1     -16.468 -40.933 -58.915  1.00  0.00     0.007 C 
HETATM   13  C12 UNL     1     -16.012 -42.335 -58.594  1.00  0.00     0.026 C 
BRANCH   8  14
HETATM   14  C2  UNL     1     -16.351 -44.179 -61.393  1.00  0.00     0.007 C 
HETATM   15  C1  UNL     1     -17.573 -44.075 -62.205  1.00  0.00     0.006 C 
ENDBRANCH   8  14
BRANCH  11  16
HETATM   16  C7  UNL     1     -17.629 -39.628 -60.600  1.00  0.00    -0.006 C 
HETATM   17  C8  UNL     1     -17.260 -38.588 -61.620  1.00  0.00     0.010 C 
BRANCH  16  18
HETATM   18  C9  UNL     1     -18.852 -40.342 -60.985  1.00  0.00     0.122 C 
BRANCH  18  19
HETATM   19  C10 UNL     1     -19.839 -40.555 -59.876  1.00  0.00     0.388 C 
HETATM   20  F1  UNL     1     -19.772 -41.905 -59.451  1.00  0.00    -0.171 F 
HETATM   21  F2  UNL     1     -21.121 -40.227 -60.182  1.00  0.00    -0.171 F 
HETATM   22  F3  UNL     1     -19.462 -39.827 -58.738  1.00  0.00    -0.171 F 
ENDBRANCH  18  19
ENDBRANCH  16  18
ENDBRANCH  11  16
ENDBRANCH   1   7
BRANCH   5  23
HETATM   23  C15 UNL     1     -11.491 -46.118 -58.242  1.00  0.00     0.097 A 
HETATM   24  C16 UNL     1     -11.288 -47.361 -57.461  1.00  0.00     0.039 A 
HETATM   25  C17 UNL     1     -11.038 -45.964 -56.848  1.00  0.00     0.068 A 
BRANCH  25  26
HETATM   26  C18 UNL     1      -9.601 -45.701 -56.552  1.00  0.00     0.062 A 
HETATM   27  C19 UNL     1      -9.093 -45.833 -55.264  1.00  0.00     0.091 A 
HETATM   28  C20 UNL     1      -7.772 -45.598 -54.953  1.00  0.00     0.209 A 
HETATM   29  O2  UNL     1      -7.305 -45.715 -53.799  1.00  0.00    -0.285 OA
HETATM   30  C21 UNL     1      -6.910 -45.213 -55.965  1.00  0.00     0.138 A 
HETATM   31  C22 UNL     1      -7.472 -45.097 -57.227  1.00  0.00     0.182 A 
HETATM   32  O4  UNL     1      -8.740 -45.333 -57.471  1.00  0.00    -0.324 OA
BRANCH  30  33
HETATM   33  O3  UNL     1      -5.569 -44.964 -55.703  1.00  0.00    -0.355 OA
ATOM     34  H3  UNL     1      -5.299 -44.170 -55.258  1.00  0.00     0.218 HD
ENDBRANCH  30  33
ENDBRANCH  25  26
ENDBRANCH   5  23
TORSDOF 8
ENDMDL
