MODEL 1
REMARK VINA RESULT: -3.380237674      0.000      0.000
REMARK  3 active torsions:
REMARK  status: ('A' for Active; 'I' for Inactive)
REMARK    1  A    between atoms: N1_1  and  C1_5 
REMARK    2  A    between atoms: C3_7  and  C4_8 
REMARK    3  A    between atoms: C8_15  and  N3_16 
ROOT
HETATM    1  C1  UNL     1     -45.902  16.500  -5.697  1.00  0.00     0.214 C 
HETATM    2  C2  UNL     1     -44.781  15.641  -5.121  1.00  0.00     0.043 C 
HETATM    3  C3  UNL     1     -44.289  16.897  -4.457  1.00  0.00     0.050 C 
HETATM    4  C8  UNL     1     -44.919  17.675  -5.563  1.00  0.00     0.219 C 
ENDROOT
BRANCH   3   5
HETATM    5  C4  UNL     1     -42.826  17.014  -4.225  1.00  0.00     0.192 C 
HETATM    6  C5  UNL     1     -42.607  18.048  -3.134  1.00  0.00     0.035 C 
HETATM    7  C6  UNL     1     -41.903  17.258  -2.053  1.00  0.00     0.029 C 
HETATM    8  C7  UNL     1     -41.092  16.290  -2.928  1.00  0.00     0.233 C 
HETATM    9  N2  UNL     1     -42.199  15.804  -3.776  1.00  0.00    -0.070 N 
ATOM     10  H22 UNL     1     -42.827  15.146  -3.315  1.00  0.00     0.277 HD
ATOM     11  H21 UNL     1     -41.913  15.172  -4.524  1.00  0.00     0.277 HD
ENDBRANCH   3   5
BRANCH   4  12
HETATM   12  N3  UNL     1     -44.184  17.908  -6.758  1.00  0.00    -0.073 N 
ATOM     13  H33 UNL     1     -43.824  17.035  -7.144  1.00  0.00     0.274 HD
ATOM     14  H32 UNL     1     -44.803  18.181  -7.522  1.00  0.00     0.274 HD
ATOM     15  H31 UNL     1     -43.436  18.589  -6.629  1.00  0.00     0.274 HD
ENDBRANCH   4  12
BRANCH   1  16
HETATM   16  N1  UNL     1     -46.282  16.199  -7.036  1.00  0.00    -0.073 N 
ATOM     17  H13 UNL     1     -46.339  17.057  -7.583  1.00  0.00     0.274 HD
ATOM     18  H12 UNL     1     -45.517  15.727  -7.517  1.00  0.00     0.274 HD
ATOM     19  H11 UNL     1     -47.143  15.662  -7.139  1.00  0.00     0.274 HD
ENDBRANCH   1  16
TORSDOF 3
ENDMDL
MODEL 2
REMARK VINA RESULT: -3.376950252      1.516      2.050
REMARK  3 active torsions:
REMARK  status: ('A' for Active; 'I' for Inactive)
REMARK    1  A    between atoms: N1_1  and  C1_5 
REMARK    2  A    between atoms: C3_7  and  C4_8 
REMARK    3  A    between atoms: C8_15  and  N3_16 
ROOT
HETATM    1  C1  UNL     1     -44.972  16.785  -6.152  1.00  0.00     0.214 C 
HETATM    2  C2  UNL     1     -44.159  17.900  -5.503  1.00  0.00     0.043 C 
HETATM    3  C3  UNL     1     -43.345  16.807  -4.868  1.00  0.00     0.050 C 
HETATM    4  C8  UNL     1     -44.547  15.927  -4.949  1.00  0.00     0.219 C 
ENDROOT
BRANCH   3   5
HETATM    5  C4  UNL     1     -42.740  17.094  -3.542  1.00  0.00     0.192 C 
HETATM    6  C5  UNL     1     -41.594  16.121  -3.330  1.00  0.00     0.035 C 
HETATM    7  C6  UNL     1     -40.396  17.033  -3.179  1.00  0.00     0.029 C 
HETATM    8  C7  UNL     1     -41.066  18.223  -2.474  1.00  0.00     0.233 C 
HETATM    9  N2  UNL     1     -42.188  18.413  -3.416  1.00  0.00    -0.070 N 
ATOM     10  H22 UNL     1     -41.928  18.850  -4.300  1.00  0.00     0.277 HD
ATOM     11  H21 UNL     1     -42.858  19.129  -3.137  1.00  0.00     0.277 HD
ENDBRANCH   3   5
BRANCH   4  12
HETATM   12  N3  UNL     1     -45.503  15.954  -3.896  1.00  0.00    -0.073 N 
ATOM     13  H33 UNL     1     -45.749  16.913  -3.647  1.00  0.00     0.274 HD
ATOM     14  H32 UNL     1     -46.415  15.631  -4.220  1.00  0.00     0.274 HD
ATOM     15  H31 UNL     1     -45.197  15.429  -3.077  1.00  0.00     0.274 HD
ENDBRANCH   4  12
BRANCH   1  16
HETATM   16  N1  UNL     1     -46.374  17.018  -6.243  1.00  0.00    -0.073 N 
ATOM     17  H13 UNL     1     -46.747  16.579  -7.084  1.00  0.00     0.274 HD
ATOM     18  H12 UNL     1     -46.864  16.481  -5.526  1.00  0.00     0.274 HD
ATOM     19  H11 UNL     1     -46.662  17.996  -6.203  1.00  0.00     0.274 HD
ENDBRANCH   1  16
TORSDOF 3
ENDMDL
MODEL 3
REMARK VINA RESULT: -3.265512482      9.378     10.044
REMARK  3 active torsions:
REMARK  status: ('A' for Active; 'I' for Inactive)
REMARK    1  A    between atoms: N1_1  and  C1_5 
REMARK    2  A    between atoms: C3_7  and  C4_8 
REMARK    3  A    between atoms: C8_15  and  N3_16 
ROOT
HETATM    1  C1  UNL     1     -39.770  11.056 -12.129  1.00  0.00     0.214 C 
HETATM    2  C2  UNL     1     -39.400  11.758 -10.827  1.00  0.00     0.043 C 
HETATM    3  C3  UNL     1     -38.679  10.490 -10.461  1.00  0.00     0.050 C 
HETATM    4  C8  UNL     1     -39.634   9.748 -11.333  1.00  0.00     0.219 C 
ENDROOT
BRANCH   3   5
HETATM    5  C4  UNL     1     -38.596  10.150  -9.016  1.00  0.00     0.192 C 
HETATM    6  C5  UNL     1     -38.381   8.652  -8.900  1.00  0.00     0.035 C 
HETATM    7  C6  UNL     1     -37.056   8.552  -8.177  1.00  0.00     0.029 C 
HETATM    8  C7  UNL     1     -37.161   9.792  -7.276  1.00  0.00     0.233 C 
HETATM    9  N2  UNL     1     -37.507  10.776  -8.322  1.00  0.00    -0.070 N 
ATOM     10  H22 UNL     1     -36.727  11.052  -8.918  1.00  0.00     0.277 HD
ATOM     11  H21 UNL     1     -37.710  11.713  -7.972  1.00  0.00     0.277 HD
ENDBRANCH   3   5
BRANCH   4  12
HETATM   12  N3  UNL     1     -40.875   9.308 -10.794  1.00  0.00    -0.073 N 
ATOM     13  H33 UNL     1     -40.751   8.473 -10.222  1.00  0.00     0.274 HD
ATOM     14  H32 UNL     1     -41.211   9.949 -10.076  1.00  0.00     0.274 HD
ATOM     15  H31 UNL     1     -41.582   9.160 -11.515  1.00  0.00     0.274 HD
ENDBRANCH   4  12
BRANCH   1  16
HETATM   16  N1  UNL     1     -41.082  11.315 -12.618  1.00  0.00    -0.073 N 
ATOM     17  H13 UNL     1     -41.651  10.471 -12.555  1.00  0.00     0.274 HD
ATOM     18  H12 UNL     1     -41.583  11.920 -11.966  1.00  0.00     0.274 HD
ATOM     19  H11 UNL     1     -41.133  11.701 -13.561  1.00  0.00     0.274 HD
ENDBRANCH   1  16
TORSDOF 3
ENDMDL
MODEL 4
REMARK VINA RESULT: -3.019641508      1.537      1.981
REMARK  3 active torsions:
REMARK  status: ('A' for Active; 'I' for Inactive)
REMARK    1  A    between atoms: N1_1  and  C1_5 
REMARK    2  A    between atoms: C3_7  and  C4_8 
REMARK    3  A    between atoms: C8_15  and  N3_16 
ROOT
HETATM    1  C1  UNL     1     -45.111  16.199  -6.173  1.00  0.00     0.214 C 
HETATM    2  C2  UNL     1     -44.050  17.254  -5.876  1.00  0.00     0.043 C 
HETATM    3  C3  UNL     1     -43.946  16.628  -4.513  1.00  0.00     0.050 C 
HETATM    4  C8  UNL     1     -45.364  16.189  -4.656  1.00  0.00     0.219 C 
ENDROOT
BRANCH   3   5
HETATM    5  C4  UNL     1     -43.569  17.518  -3.385  1.00  0.00     0.192 C 
HETATM    6  C5  UNL     1     -42.476  16.828  -2.589  1.00  0.00     0.035 C 
HETATM    7  C6  UNL     1     -41.318  17.797  -2.688  1.00  0.00     0.029 C 
HETATM    8  C7  UNL     1     -42.094  19.123  -2.703  1.00  0.00     0.233 C 
HETATM    9  N2  UNL     1     -43.043  18.792  -3.785  1.00  0.00    -0.070 N 
ATOM     10  H22 UNL     1     -42.639  18.809  -4.722  1.00  0.00     0.277 HD
ATOM     11  H21 UNL     1     -43.749  19.506  -3.962  1.00  0.00     0.277 HD
ENDBRANCH   3   5
BRANCH   4  12
HETATM   12  N3  UNL     1     -46.410  17.072  -4.273  1.00  0.00    -0.073 N 
ATOM     13  H33 UNL     1     -46.495  17.848  -4.930  1.00  0.00     0.274 HD
ATOM     14  H32 UNL     1     -47.324  16.641  -4.411  1.00  0.00     0.274 HD
ATOM     15  H31 UNL     1     -46.304  17.411  -3.317  1.00  0.00     0.274 HD
ENDBRANCH   4  12
BRANCH   1  16
HETATM   16  N1  UNL     1     -46.218  16.642  -6.952  1.00  0.00    -0.073 N 
ATOM     17  H13 UNL     1     -46.741  17.354  -6.442  1.00  0.00     0.274 HD
ATOM     18  H12 UNL     1     -45.888  17.193  -7.744  1.00  0.00     0.274 HD
ATOM     19  H11 UNL     1     -46.850  15.909  -7.275  1.00  0.00     0.274 HD
ENDBRANCH   1  16
TORSDOF 3
ENDMDL
MODEL 5
REMARK VINA RESULT: -3.019607153      1.356      4.476
REMARK  3 active torsions:
REMARK  status: ('A' for Active; 'I' for Inactive)
REMARK    1  A    between atoms: N1_1  and  C1_5 
REMARK    2  A    between atoms: C3_7  and  C4_8 
REMARK    3  A    between atoms: C8_15  and  N3_16 
ROOT
HETATM    1  C1  UNL     1     -42.468  18.123  -2.819  1.00  0.00     0.214 C 
HETATM    2  C2  UNL     1     -43.344  18.280  -4.057  1.00  0.00     0.043 C 
HETATM    3  C3  UNL     1     -44.133  17.114  -3.529  1.00  0.00     0.050 C 
HETATM    4  C8  UNL     1     -42.896  16.646  -2.840  1.00  0.00     0.219 C 
ENDROOT
BRANCH   3   5
HETATM    5  C4  UNL     1     -44.790  16.232  -4.528  1.00  0.00     0.192 C 
HETATM    6  C5  UNL     1     -46.281  16.230  -4.242  1.00  0.00     0.035 C 
HETATM    7  C6  UNL     1     -46.874  16.776  -5.523  1.00  0.00     0.029 C 
HETATM    8  C7  UNL     1     -45.876  16.193  -6.536  1.00  0.00     0.233 C 
HETATM    9  N2  UNL     1     -44.633  16.658  -5.889  1.00  0.00    -0.070 N 
ATOM     10  H22 UNL     1     -44.444  17.654  -6.003  1.00  0.00     0.277 HD
ATOM     11  H21 UNL     1     -43.776  16.336  -6.339  1.00  0.00     0.277 HD
ENDBRANCH   3   5
BRANCH   4  12
HETATM   12  N3  UNL     1     -41.974  15.824  -3.545  1.00  0.00    -0.073 N 
ATOM     13  H33 UNL     1     -42.411  14.949  -3.837  1.00  0.00     0.274 HD
ATOM     14  H32 UNL     1     -41.761  16.214  -4.463  1.00  0.00     0.274 HD
ATOM     15  H31 UNL     1     -41.122  15.649  -3.013  1.00  0.00     0.274 HD
ENDBRANCH   4  12
BRANCH   1  16
HETATM   16  N1  UNL     1     -41.074  18.336  -3.019  1.00  0.00    -0.073 N 
ATOM     17  H13 UNL     1     -40.542  17.897  -2.268  1.00  0.00     0.274 HD
ATOM     18  H12 UNL     1     -40.749  17.786  -3.815  1.00  0.00     0.274 HD
ATOM     19  H11 UNL     1     -40.788  19.309  -3.128  1.00  0.00     0.274 HD
ENDBRANCH   1  16
TORSDOF 3
ENDMDL
