MODEL 1
REMARK VINA RESULT: -5.999583133      0.000      0.000
REMARK  9 active torsions:
REMARK  status: ('A' for Active; 'I' for Inactive)
REMARK    1  A    between atoms: C2_2  and  C3_3 
REMARK    2  A    between atoms: C3_3  and  N1_4 
REMARK    3  A    between atoms: N1_4  and  C4_6 
REMARK    4  A    between atoms: C6_8  and  C7_9 
REMARK    5  A    between atoms: C7_9  and  N2_11 
REMARK    6  A    between atoms: N2_11  and  N3_13 
REMARK    7  A    between atoms: N3_13  and  N4_14 
REMARK    8  A    between atoms: C10_19  and  N6_20 
REMARK    9  A    between atoms: N7_23  and  N8_24 
ROOT
HETATM    1  C4  UNL     1      -9.790  -6.379 -42.891  1.00  0.00     0.142 A 
HETATM    2  C5  UNL     1      -8.894  -5.913 -43.889  1.00  0.00     0.078 A 
HETATM    3  C6  UNL     1      -7.573  -5.757 -43.621  1.00  0.00     0.054 A 
HETATM    4  N5  UNL     1      -7.114  -6.045 -42.405  1.00  0.00    -0.192 N 
ATOM      5  H5  UNL     1      -6.121  -5.926 -42.205  1.00  0.00     0.184 HD
HETATM    6  C10 UNL     1      -7.913  -6.480 -41.457  1.00  0.00     0.698 A 
HETATM    7  N7  UNL     1      -9.243  -6.637 -41.723  1.00  0.00    -0.077 N 
ENDROOT
BRANCH   3   8
HETATM    8  C7  UNL     1      -6.585  -5.274 -44.624  1.00  0.00     0.146 C 
HETATM    9  C8  UNL     1      -5.226  -5.046 -43.976  1.00  0.00     0.040 C 
BRANCH   8  10
HETATM   10  N2  UNL     1      -6.964  -4.070 -45.260  1.00  0.00    -0.306 N 
HETATM   11  C9  UNL     1      -6.543  -3.851 -46.591  1.00  0.00     0.169 C 
BRANCH  10  12
HETATM   12  N3  UNL     1      -7.199  -2.976 -44.472  1.00  0.00    -0.032 NA
BRANCH  12  13
HETATM   13  N4  UNL     1      -7.245  -1.834 -45.265  1.00  0.00    -0.329 N 
ATOM     14  H42 UNL     1      -6.601  -1.637 -46.032  1.00  0.00     0.174 HD
ATOM     15  H41 UNL     1      -8.015  -1.239 -44.960  1.00  0.00     0.174 HD
ENDBRANCH  12  13
ENDBRANCH  10  12
ENDBRANCH   8  10
ENDBRANCH   3   8
BRANCH   1  16
HETATM   16  N1  UNL     1     -11.142  -6.483 -43.243  1.00  0.00    -0.374 N 
ATOM     17  H1  UNL     1     -11.365  -7.202 -43.930  1.00  0.00     0.161 HD
BRANCH  16  18
HETATM   18  C3  UNL     1     -12.245  -5.720 -42.771  1.00  0.00     0.121 C 
BRANCH  18  19
HETATM   19  C2  UNL     1     -13.081  -5.092 -43.890  1.00  0.00     0.015 C 
HETATM   20  C1  UNL     1     -12.126  -4.684 -44.997  1.00  0.00     0.006 C 
ENDBRANCH  18  19
ENDBRANCH  16  18
ENDBRANCH   1  16
BRANCH   6  21
HETATM   21  N6  UNL     1      -7.423  -6.748 -40.298  1.00  0.00    -0.233 N 
ATOM     22  H62 UNL     1      -6.755  -7.507 -40.164  1.00  0.00     0.174 HD
ATOM     23  H61 UNL     1      -7.711  -6.189 -39.495  1.00  0.00     0.174 HD
ENDBRANCH   6  21
BRANCH   7  24
HETATM   24  N8  UNL     1      -9.998  -7.056 -40.626  1.00  0.00    -0.322 N 
ATOM     25  H82 UNL     1     -11.003  -7.085 -40.799  1.00  0.00     0.178 HD
ATOM     26  H81 UNL     1      -9.566  -7.338 -39.746  1.00  0.00     0.178 HD
ENDBRANCH   7  24
TORSDOF 9
ENDMDL
MODEL 2
REMARK VINA RESULT: -5.828845829      1.057      1.115
REMARK  9 active torsions:
REMARK  status: ('A' for Active; 'I' for Inactive)
REMARK    1  A    between atoms: C2_2  and  C3_3 
REMARK    2  A    between atoms: C3_3  and  N1_4 
REMARK    3  A    between atoms: N1_4  and  C4_6 
REMARK    4  A    between atoms: C6_8  and  C7_9 
REMARK    5  A    between atoms: C7_9  and  N2_11 
REMARK    6  A    between atoms: N2_11  and  N3_13 
REMARK    7  A    between atoms: N3_13  and  N4_14 
REMARK    8  A    between atoms: C10_19  and  N6_20 
REMARK    9  A    between atoms: N7_23  and  N8_24 
ROOT
HETATM    1  C4  UNL     1      -9.447  -6.244 -42.836  1.00  0.00     0.142 A 
HETATM    2  C5  UNL     1      -9.043  -5.830 -44.133  1.00  0.00     0.078 A 
HETATM    3  C6  UNL     1      -7.740  -5.569 -44.407  1.00  0.00     0.054 A 
HETATM    4  N5  UNL     1      -6.830  -5.704 -43.444  1.00  0.00    -0.192 N 
ATOM      5  H5  UNL     1      -5.851  -5.507 -43.651  1.00  0.00     0.184 HD
HETATM    6  C10 UNL     1      -7.166  -6.086 -42.233  1.00  0.00     0.698 A 
HETATM    7  N7  UNL     1      -8.477  -6.348 -41.954  1.00  0.00    -0.077 N 
ENDROOT
BRANCH   3   8
HETATM    8  C7  UNL     1      -7.254  -5.134 -45.744  1.00  0.00     0.146 C 
HETATM    9  C8  UNL     1      -6.204  -6.098 -46.278  1.00  0.00     0.040 C 
BRANCH   8  10
HETATM   10  N2  UNL     1      -6.688  -3.838 -45.749  1.00  0.00    -0.306 N 
HETATM   11  C9  UNL     1      -5.333  -3.697 -46.124  1.00  0.00     0.169 C 
BRANCH  10  12
HETATM   12  N3  UNL     1      -7.222  -2.903 -44.904  1.00  0.00    -0.032 NA
BRANCH  12  13
HETATM   13  N4  UNL     1      -7.196  -1.655 -45.518  1.00  0.00    -0.329 N 
ATOM     14  H42 UNL     1      -6.345  -1.141 -45.745  1.00  0.00     0.174 HD
ATOM     15  H41 UNL     1      -8.150  -1.346 -45.700  1.00  0.00     0.174 HD
ENDBRANCH  12  13
ENDBRANCH  10  12
ENDBRANCH   8  10
ENDBRANCH   3   8
BRANCH   1  16
HETATM   16  N1  UNL     1     -10.815  -6.462 -42.631  1.00  0.00    -0.374 N 
ATOM     17  H1  UNL     1     -11.097  -6.623 -41.664  1.00  0.00     0.161 HD
BRANCH  16  18
HETATM   18  C3  UNL     1     -11.865  -6.489 -43.589  1.00  0.00     0.121 C 
BRANCH  18  19
HETATM   19  C2  UNL     1     -12.661  -5.183 -43.665  1.00  0.00     0.015 C 
HETATM   20  C1  UNL     1     -12.377  -4.555 -45.018  1.00  0.00     0.006 C 
ENDBRANCH  18  19
ENDBRANCH  16  18
ENDBRANCH   1  16
BRANCH   6  21
HETATM   21  N6  UNL     1      -6.251  -6.205 -41.336  1.00  0.00    -0.233 N 
ATOM     22  H62 UNL     1      -6.081  -7.092 -40.862  1.00  0.00     0.174 HD
ATOM     23  H61 UNL     1      -5.685  -5.393 -41.093  1.00  0.00     0.174 HD
ENDBRANCH   6  21
BRANCH   7  24
HETATM   24  N8  UNL     1      -8.718  -6.697 -40.624  1.00  0.00    -0.322 N 
ATOM     25  H82 UNL     1      -8.334  -7.602 -40.355  1.00  0.00     0.178 HD
ATOM     26  H81 UNL     1      -9.210  -6.076 -39.981  1.00  0.00     0.178 HD
ENDBRANCH   7  24
TORSDOF 9
ENDMDL
MODEL 3
REMARK VINA RESULT: -5.722591067      1.529      5.475
REMARK  9 active torsions:
REMARK  status: ('A' for Active; 'I' for Inactive)
REMARK    1  A    between atoms: C2_2  and  C3_3 
REMARK    2  A    between atoms: C3_3  and  N1_4 
REMARK    3  A    between atoms: N1_4  and  C4_6 
REMARK    4  A    between atoms: C6_8  and  C7_9 
REMARK    5  A    between atoms: C7_9  and  N2_11 
REMARK    6  A    between atoms: N2_11  and  N3_13 
REMARK    7  A    between atoms: N3_13  and  N4_14 
REMARK    8  A    between atoms: C10_19  and  N6_20 
REMARK    9  A    between atoms: N7_23  and  N8_24 
ROOT
HETATM    1  C4  UNL     1      -7.868  -4.645 -44.041  1.00  0.00     0.142 A 
HETATM    2  C5  UNL     1      -9.260  -4.929 -44.034  1.00  0.00     0.078 A 
HETATM    3  C6  UNL     1      -9.731  -6.091 -43.515  1.00  0.00     0.054 A 
HETATM    4  N5  UNL     1      -8.874  -6.975 -43.008  1.00  0.00    -0.192 N 
ATOM      5  H5  UNL     1      -9.229  -7.849 -42.620  1.00  0.00     0.184 HD
HETATM    6  C10 UNL     1      -7.580  -6.746 -42.996  1.00  0.00     0.698 A 
HETATM    7  N7  UNL     1      -7.103  -5.578 -43.519  1.00  0.00    -0.077 N 
ENDROOT
BRANCH   3   8
HETATM    8  C7  UNL     1     -11.175  -6.445 -43.477  1.00  0.00     0.146 C 
HETATM    9  C8  UNL     1     -12.041  -5.208 -43.674  1.00  0.00     0.040 C 
BRANCH   8  10
HETATM   10  N2  UNL     1     -11.578  -7.061 -42.270  1.00  0.00    -0.306 N 
HETATM   11  C9  UNL     1     -11.764  -6.249 -41.129  1.00  0.00     0.169 C 
BRANCH  10  12
HETATM   12  N3  UNL     1     -11.238  -8.373 -42.076  1.00  0.00    -0.032 NA
BRANCH  12  13
HETATM   13  N4  UNL     1     -10.816  -8.553 -40.762  1.00  0.00    -0.329 N 
ATOM     14  H42 UNL     1     -11.411  -8.893 -40.006  1.00  0.00     0.174 HD
ATOM     15  H41 UNL     1      -9.833  -8.296 -40.683  1.00  0.00     0.174 HD
ENDBRANCH  12  13
ENDBRANCH  10  12
ENDBRANCH   8  10
ENDBRANCH   3   8
BRANCH   1  16
HETATM   16  N1  UNL     1      -7.465  -3.436 -44.623  1.00  0.00    -0.374 N 
ATOM     17  H1  UNL     1      -7.679  -2.595 -44.086  1.00  0.00     0.161 HD
BRANCH  16  18
HETATM   18  C3  UNL     1      -6.799  -3.223 -45.860  1.00  0.00     0.121 C 
BRANCH  18  19
HETATM   19  C2  UNL     1      -6.612  -1.743 -46.210  1.00  0.00     0.015 C 
HETATM   20  C1  UNL     1      -6.872  -1.592 -47.698  1.00  0.00     0.006 C 
ENDBRANCH  18  19
ENDBRANCH  16  18
ENDBRANCH   1  16
BRANCH   6  21
HETATM   21  N6  UNL     1      -6.792  -7.629 -42.493  1.00  0.00    -0.233 N 
ATOM     22  H62 UNL     1      -6.745  -7.791 -41.487  1.00  0.00     0.174 HD
ATOM     23  H61 UNL     1      -6.199  -8.179 -43.115  1.00  0.00     0.174 HD
ENDBRANCH   6  21
BRANCH   7  24
HETATM   24  N8  UNL     1      -5.712  -5.470 -43.495  1.00  0.00    -0.322 N 
ATOM     25  H82 UNL     1      -5.370  -4.512 -43.417  1.00  0.00     0.178 HD
ATOM     26  H81 UNL     1      -5.104  -6.288 -43.521  1.00  0.00     0.178 HD
ENDBRANCH   7  24
TORSDOF 9
ENDMDL
MODEL 4
REMARK VINA RESULT: -5.719732627      1.424      2.041
REMARK  9 active torsions:
REMARK  status: ('A' for Active; 'I' for Inactive)
REMARK    1  A    between atoms: C2_2  and  C3_3 
REMARK    2  A    between atoms: C3_3  and  N1_4 
REMARK    3  A    between atoms: N1_4  and  C4_6 
REMARK    4  A    between atoms: C6_8  and  C7_9 
REMARK    5  A    between atoms: C7_9  and  N2_11 
REMARK    6  A    between atoms: N2_11  and  N3_13 
REMARK    7  A    between atoms: N3_13  and  N4_14 
REMARK    8  A    between atoms: C10_19  and  N6_20 
REMARK    9  A    between atoms: N7_23  and  N8_24 
ROOT
HETATM    1  C4  UNL     1      -9.780  -6.297 -42.850  1.00  0.00     0.142 A 
HETATM    2  C5  UNL     1      -8.894  -5.659 -43.758  1.00  0.00     0.078 A 
HETATM    3  C6  UNL     1      -7.592  -5.457 -43.434  1.00  0.00     0.054 A 
HETATM    4  N5  UNL     1      -7.142  -5.862 -42.248  1.00  0.00    -0.192 N 
ATOM      5  H5  UNL     1      -6.163  -5.708 -42.006  1.00  0.00     0.184 HD
HETATM    6  C10 UNL     1      -7.932  -6.457 -41.383  1.00  0.00     0.698 A 
HETATM    7  N7  UNL     1      -9.244  -6.661 -41.706  1.00  0.00    -0.077 N 
ENDROOT
BRANCH   3   8
HETATM    8  C7  UNL     1      -6.615  -4.796 -44.342  1.00  0.00     0.146 C 
HETATM    9  C8  UNL     1      -7.118  -4.810 -45.779  1.00  0.00     0.040 C 
BRANCH   8  10
HETATM   10  N2  UNL     1      -5.334  -5.395 -44.330  1.00  0.00    -0.306 N 
HETATM   11  C9  UNL     1      -5.165  -6.636 -44.983  1.00  0.00     0.169 C 
BRANCH  10  12
HETATM   12  N3  UNL     1      -4.498  -5.098 -43.288  1.00  0.00    -0.032 NA
BRANCH  12  13
HETATM   13  N4  UNL     1      -3.693  -6.198 -43.011  1.00  0.00    -0.329 N 
ATOM     14  H42 UNL     1      -4.044  -7.117 -42.742  1.00  0.00     0.174 HD
ATOM     15  H41 UNL     1      -2.713  -5.938 -43.120  1.00  0.00     0.174 HD
ENDBRANCH  12  13
ENDBRANCH  10  12
ENDBRANCH   8  10
ENDBRANCH   3   8
BRANCH   1  16
HETATM   16  N1  UNL     1     -11.114  -6.439 -43.251  1.00  0.00    -0.374 N 
ATOM     17  H1  UNL     1     -11.285  -7.135 -43.978  1.00  0.00     0.161 HD
BRANCH  16  18
HETATM   18  C3  UNL     1     -12.263  -5.745 -42.784  1.00  0.00     0.121 C 
BRANCH  18  19
HETATM   19  C2  UNL     1     -13.082  -5.090 -43.900  1.00  0.00     0.015 C 
HETATM   20  C1  UNL     1     -12.111  -4.667 -44.988  1.00  0.00     0.006 C 
ENDBRANCH  18  19
ENDBRANCH  16  18
ENDBRANCH   1  16
BRANCH   6  21
HETATM   21  N6  UNL     1      -7.452  -6.834 -40.251  1.00  0.00    -0.233 N 
ATOM     22  H62 UNL     1      -6.502  -7.195 -40.168  1.00  0.00     0.174 HD
ATOM     23  H61 UNL     1      -8.036  -6.770 -39.417  1.00  0.00     0.174 HD
ENDBRANCH   6  21
BRANCH   7  24
HETATM   24  N8  UNL     1      -9.994  -7.256 -40.690  1.00  0.00    -0.322 N 
ATOM     25  H82 UNL     1     -11.000  -7.249 -40.858  1.00  0.00     0.178 HD
ATOM     26  H81 UNL     1      -9.558  -7.685 -39.874  1.00  0.00     0.178 HD
ENDBRANCH   7  24
TORSDOF 9
ENDMDL
MODEL 5
REMARK VINA RESULT: -5.697920532      2.511      3.658
REMARK  9 active torsions:
REMARK  status: ('A' for Active; 'I' for Inactive)
REMARK    1  A    between atoms: C2_2  and  C3_3 
REMARK    2  A    between atoms: C3_3  and  N1_4 
REMARK    3  A    between atoms: N1_4  and  C4_6 
REMARK    4  A    between atoms: C6_8  and  C7_9 
REMARK    5  A    between atoms: C7_9  and  N2_11 
REMARK    6  A    between atoms: N2_11  and  N3_13 
REMARK    7  A    between atoms: N3_13  and  N4_14 
REMARK    8  A    between atoms: C10_19  and  N6_20 
REMARK    9  A    between atoms: N7_23  and  N8_24 
ROOT
HETATM    1  C4  UNL     1      -9.843  -6.186 -42.994  1.00  0.00     0.142 A 
HETATM    2  C5  UNL     1      -8.428  -6.253 -42.881  1.00  0.00     0.078 A 
HETATM    3  C6  UNL     1      -7.837  -7.181 -42.087  1.00  0.00     0.054 A 
HETATM    4  N5  UNL     1      -8.596  -8.037 -41.405  1.00  0.00    -0.192 N 
ATOM      5  H5  UNL     1      -8.150  -8.733 -40.807  1.00  0.00     0.184 HD
HETATM    6  C10 UNL     1      -9.907  -8.005 -41.485  1.00  0.00     0.698 A 
HETATM    7  N7  UNL     1     -10.505  -7.072 -42.283  1.00  0.00    -0.077 N 
ENDROOT
BRANCH   3   8
HETATM    8  C7  UNL     1      -6.363  -7.304 -41.928  1.00  0.00     0.146 C 
HETATM    9  C8  UNL     1      -5.979  -8.721 -41.522  1.00  0.00     0.040 C 
BRANCH   8  10
HETATM   10  N2  UNL     1      -5.820  -6.421 -40.965  1.00  0.00    -0.306 N 
HETATM   11  C9  UNL     1      -4.422  -6.219 -40.951  1.00  0.00     0.169 C 
BRANCH  10  12
HETATM   12  N3  UNL     1      -6.506  -6.251 -39.794  1.00  0.00    -0.032 NA
BRANCH  12  13
HETATM   13  N4  UNL     1      -5.920  -5.226 -39.057  1.00  0.00    -0.329 N 
ATOM     14  H42 UNL     1      -5.360  -4.474 -39.459  1.00  0.00     0.174 HD
ATOM     15  H41 UNL     1      -6.139  -5.350 -38.069  1.00  0.00     0.174 HD
ENDBRANCH  12  13
ENDBRANCH  10  12
ENDBRANCH   8  10
ENDBRANCH   3   8
BRANCH   1  16
HETATM   16  N1  UNL     1     -10.371  -5.179 -43.812  1.00  0.00    -0.374 N 
ATOM     17  H1  UNL     1     -10.352  -4.237 -43.420  1.00  0.00     0.161 HD
BRANCH  16  18
HETATM   18  C3  UNL     1     -10.930  -5.292 -45.113  1.00  0.00     0.121 C 
BRANCH  18  19
HETATM   19  C2  UNL     1     -12.272  -4.570 -45.270  1.00  0.00     0.015 C 
HETATM   20  C1  UNL     1     -13.063  -4.798 -43.995  1.00  0.00     0.006 C 
ENDBRANCH  18  19
ENDBRANCH  16  18
ENDBRANCH   1  16
BRANCH   6  21
HETATM   21  N6  UNL     1     -10.598  -8.854 -40.810  1.00  0.00    -0.233 N 
ATOM     22  H62 UNL     1     -10.736  -9.810 -41.137  1.00  0.00     0.174 HD
ATOM     23  H61 UNL     1     -11.017  -8.563 -39.927  1.00  0.00     0.174 HD
ENDBRANCH   6  21
BRANCH   7  24
HETATM   24  N8  UNL     1     -11.900  -7.103 -42.250  1.00  0.00    -0.322 N 
ATOM     25  H82 UNL     1     -12.330  -6.215 -41.993  1.00  0.00     0.178 HD
ATOM     26  H81 UNL     1     -12.429  -7.940 -42.494  1.00  0.00     0.178 HD
ENDBRANCH   7  24
TORSDOF 9
ENDMDL
