MODEL 1
REMARK VINA RESULT: -6.493196004      0.000      0.000
REMARK  8 active torsions:
REMARK  status: ('A' for Active; 'I' for Inactive)
REMARK    1  A    between atoms: N1_1  and  N2_4 
REMARK    2  A    between atoms: C1_6  and  N3_7 
REMARK    3  A    between atoms: N3_7  and  C2_9 
REMARK    4  A    between atoms: C2_9  and  C3_10 
REMARK    5  A    between atoms: C4_12  and  N4_13 
REMARK    6  A    between atoms: N4_13  and  N5_14 
REMARK    7  A    between atoms: N5_14  and  C5_16 
REMARK    8  A    between atoms: C11_22  and  N6_23 
ROOT
HETATM    1  C3  UNL     1      -7.564  -4.241 -43.981  1.00  0.00     0.175 C 
HETATM    2  O1  UNL     1      -7.616  -3.084 -44.738  1.00  0.00    -0.357 OA
HETATM    3  C4  UNL     1      -6.719  -3.565 -45.690  1.00  0.00     0.267 C 
HETATM    4  C11 UNL     1      -6.418  -4.740 -44.792  1.00  0.00     0.260 C 
ENDROOT
BRANCH   1   5
HETATM    5  C2  UNL     1      -8.750  -5.111 -43.965  1.00  0.00     0.154 C 
BRANCH   5   6
HETATM    6  N3  UNL     1      -9.946  -4.662 -44.563  1.00  0.00    -0.383 N 
ATOM      7  H3  UNL     1      -9.920  -4.005 -45.343  1.00  0.00     0.160 HD
BRANCH   6   8
HETATM    8  C1  UNL     1     -11.188  -5.139 -44.064  1.00  0.00     0.192 C 
HETATM    9  N2  UNL     1     -12.255  -4.435 -44.190  1.00  0.00    -0.303 N 
ATOM     10  H2  UNL     1     -12.152  -3.536 -44.661  1.00  0.00     0.187 HD
BRANCH   9  11
HETATM   11  N1  UNL     1     -13.519  -4.761 -43.761  1.00  0.00    -0.344 N 
ATOM     12  H12 UNL     1     -13.947  -5.558 -44.232  1.00  0.00     0.176 HD
ATOM     13  H11 UNL     1     -14.060  -4.296 -43.033  1.00  0.00     0.176 HD
ENDBRANCH   9  11
ENDBRANCH   6   8
ENDBRANCH   5   6
ENDBRANCH   1   5
BRANCH   4  14
HETATM   14  N6  UNL     1      -6.534  -5.992 -45.465  1.00  0.00    -0.069 N 
ATOM     15  H63 UNL     1      -5.604  -6.398 -45.563  1.00  0.00     0.275 HD
ATOM     16  H62 UNL     1      -6.980  -6.661 -44.837  1.00  0.00     0.275 HD
ATOM     17  H61 UNL     1      -7.004  -6.030 -46.369  1.00  0.00     0.275 HD
ENDBRANCH   4  14
BRANCH   3  18
HETATM   18  N4  UNL     1      -5.534  -2.747 -45.857  1.00  0.00    -0.106 NA
BRANCH  18  19
HETATM   19  N5  UNL     1      -5.570  -2.196 -47.155  1.00  0.00    -0.302 N 
ATOM     20  H5  UNL     1      -6.078  -2.683 -47.894  1.00  0.00     0.182 HD
BRANCH  19  21
HETATM   21  C5  UNL     1      -4.908  -0.967 -47.449  1.00  0.00     0.044 A 
HETATM   22  C6  UNL     1      -4.895  -0.493 -48.741  1.00  0.00     0.030 A 
HETATM   23  C7  UNL     1      -4.254   0.710 -49.065  1.00  0.00     0.002 A 
HETATM   24  C8  UNL     1      -3.632   1.416 -48.062  1.00  0.00     0.000 A 
HETATM   25  C9  UNL     1      -3.632   0.965 -46.773  1.00  0.00     0.002 A 
HETATM   26  C10 UNL     1      -4.272  -0.224 -46.484  1.00  0.00     0.030 A 
ENDBRANCH  19  21
ENDBRANCH  18  19
ENDBRANCH   3  18
TORSDOF 8
ENDMDL
MODEL 2
REMARK VINA RESULT: -6.374063527      1.862      1.917
REMARK  8 active torsions:
REMARK  status: ('A' for Active; 'I' for Inactive)
REMARK    1  A    between atoms: N1_1  and  N2_4 
REMARK    2  A    between atoms: C1_6  and  N3_7 
REMARK    3  A    between atoms: N3_7  and  C2_9 
REMARK    4  A    between atoms: C2_9  and  C3_10 
REMARK    5  A    between atoms: C4_12  and  N4_13 
REMARK    6  A    between atoms: N4_13  and  N5_14 
REMARK    7  A    between atoms: N5_14  and  C5_16 
REMARK    8  A    between atoms: C11_22  and  N6_23 
ROOT
HETATM    1  C3  UNL     1      -7.381  -4.306 -43.733  1.00  0.00     0.175 C 
HETATM    2  O1  UNL     1      -7.577  -3.222 -44.569  1.00  0.00    -0.357 OA
HETATM    3  C4  UNL     1      -6.643  -3.665 -45.504  1.00  0.00     0.267 C 
HETATM    4  C11 UNL     1      -6.196  -4.729 -44.532  1.00  0.00     0.260 C 
ENDROOT
BRANCH   1   5
HETATM    5  C2  UNL     1      -8.458  -5.303 -43.630  1.00  0.00     0.154 C 
BRANCH   5   6
HETATM    6  N3  UNL     1      -8.508  -6.155 -42.506  1.00  0.00    -0.383 N 
ATOM      7  H3  UNL     1      -7.652  -6.415 -42.016  1.00  0.00     0.160 HD
BRANCH   6   8
HETATM    8  C1  UNL     1      -9.768  -6.644 -42.068  1.00  0.00     0.192 C 
HETATM    9  N2  UNL     1      -9.948  -6.969 -40.838  1.00  0.00    -0.303 N 
ATOM     10  H2  UNL     1      -9.148  -6.855 -40.217  1.00  0.00     0.187 HD
BRANCH   9  11
HETATM   11  N1  UNL     1     -11.102  -7.453 -40.270  1.00  0.00    -0.344 N 
ATOM     12  H12 UNL     1     -11.011  -8.353 -39.799  1.00  0.00     0.176 HD
ATOM     13  H11 UNL     1     -12.021  -7.011 -40.272  1.00  0.00     0.176 HD
ENDBRANCH   9  11
ENDBRANCH   6   8
ENDBRANCH   5   6
ENDBRANCH   1   5
BRANCH   4  14
HETATM   14  N6  UNL     1      -6.176  -6.032 -45.111  1.00  0.00    -0.069 N 
ATOM     15  H63 UNL     1      -6.444  -6.710 -44.398  1.00  0.00     0.275 HD
ATOM     16  H62 UNL     1      -6.954  -6.111 -45.766  1.00  0.00     0.275 HD
ATOM     17  H61 UNL     1      -5.327  -6.359 -45.571  1.00  0.00     0.275 HD
ENDBRANCH   4  14
BRANCH   3  18
HETATM   18  N4  UNL     1      -5.563  -2.731 -45.755  1.00  0.00    -0.106 NA
BRANCH  18  19
HETATM   19  N5  UNL     1      -5.830  -2.082 -46.978  1.00  0.00    -0.302 N 
ATOM     20  H5  UNL     1      -6.568  -2.439 -47.586  1.00  0.00     0.182 HD
BRANCH  19  21
HETATM   21  C5  UNL     1      -5.084  -0.933 -47.377  1.00  0.00     0.044 A 
HETATM   22  C6  UNL     1      -5.032  -0.584 -48.707  1.00  0.00     0.030 A 
HETATM   23  C7  UNL     1      -4.309   0.538 -49.134  1.00  0.00     0.002 A 
HETATM   24  C8  UNL     1      -3.645   1.291 -48.194  1.00  0.00     0.000 A 
HETATM   25  C9  UNL     1      -3.683   0.963 -46.868  1.00  0.00     0.002 A 
HETATM   26  C10 UNL     1      -4.404  -0.148 -46.478  1.00  0.00     0.030 A 
ENDBRANCH  19  21
ENDBRANCH  18  19
ENDBRANCH   3  18
TORSDOF 8
ENDMDL
MODEL 3
REMARK VINA RESULT: -6.352467738      1.857      2.215
REMARK  8 active torsions:
REMARK  status: ('A' for Active; 'I' for Inactive)
REMARK    1  A    between atoms: N1_1  and  N2_4 
REMARK    2  A    between atoms: C1_6  and  N3_7 
REMARK    3  A    between atoms: N3_7  and  C2_9 
REMARK    4  A    between atoms: C2_9  and  C3_10 
REMARK    5  A    between atoms: C4_12  and  N4_13 
REMARK    6  A    between atoms: N4_13  and  N5_14 
REMARK    7  A    between atoms: N5_14  and  C5_16 
REMARK    8  A    between atoms: C11_22  and  N6_23 
ROOT
HETATM    1  C3  UNL     1      -7.412  -4.289 -43.763  1.00  0.00     0.175 C 
HETATM    2  O1  UNL     1      -7.619  -3.224 -44.621  1.00  0.00    -0.357 OA
HETATM    3  C4  UNL     1      -6.648  -3.653 -45.524  1.00  0.00     0.267 C 
HETATM    4  C11 UNL     1      -6.195  -4.687 -44.523  1.00  0.00     0.260 C 
ENDROOT
BRANCH   1   5
HETATM    5  C2  UNL     1      -8.460  -5.317 -43.670  1.00  0.00     0.154 C 
BRANCH   5   6
HETATM    6  N3  UNL     1      -8.513  -6.153 -42.535  1.00  0.00    -0.383 N 
ATOM      7  H3  UNL     1      -7.655  -6.439 -42.063  1.00  0.00     0.160 HD
BRANCH   6   8
HETATM    8  C1  UNL     1      -9.778  -6.589 -42.058  1.00  0.00     0.192 C 
HETATM    9  N2  UNL     1      -9.927  -6.940 -40.832  1.00  0.00    -0.303 N 
ATOM     10  H2  UNL     1      -9.098  -6.885 -40.241  1.00  0.00     0.187 HD
BRANCH   9  11
HETATM   11  N1  UNL     1     -11.081  -7.381 -40.230  1.00  0.00    -0.344 N 
ATOM     12  H12 UNL     1     -11.865  -6.730 -40.262  1.00  0.00     0.176 HD
ATOM     13  H11 UNL     1     -11.228  -8.276 -39.764  1.00  0.00     0.176 HD
ENDBRANCH   9  11
ENDBRANCH   6   8
ENDBRANCH   5   6
ENDBRANCH   1   5
BRANCH   4  14
HETATM   14  N6  UNL     1      -6.119  -5.998 -45.080  1.00  0.00    -0.069 N 
ATOM     15  H63 UNL     1      -6.142  -6.677 -44.320  1.00  0.00     0.275 HD
ATOM     16  H62 UNL     1      -6.997  -6.201 -45.559  1.00  0.00     0.275 HD
ATOM     17  H61 UNL     1      -5.346  -6.230 -45.703  1.00  0.00     0.275 HD
ENDBRANCH   4  14
BRANCH   3  18
HETATM   18  N4  UNL     1      -5.591  -2.690 -45.762  1.00  0.00    -0.106 NA
BRANCH  18  19
HETATM   19  N5  UNL     1      -5.829  -2.090 -47.017  1.00  0.00    -0.302 N 
ATOM     20  H5  UNL     1      -6.546  -2.478 -47.631  1.00  0.00     0.182 HD
BRANCH  19  21
HETATM   21  C5  UNL     1      -5.084  -0.949 -47.438  1.00  0.00     0.044 A 
HETATM   22  C6  UNL     1      -4.404  -0.199 -46.506  1.00  0.00     0.030 A 
HETATM   23  C7  UNL     1      -3.662   0.928 -46.885  1.00  0.00     0.002 A 
HETATM   24  C8  UNL     1      -3.624   1.275 -48.215  1.00  0.00     0.000 A 
HETATM   25  C9  UNL     1      -4.291   0.545 -49.157  1.00  0.00     0.002 A 
HETATM   26  C10 UNL     1      -5.014  -0.560 -48.754  1.00  0.00     0.030 A 
ENDBRANCH  19  21
ENDBRANCH  18  19
ENDBRANCH   3  18
TORSDOF 8
ENDMDL
MODEL 4
REMARK VINA RESULT: -6.261484044      2.530      4.361
REMARK  8 active torsions:
REMARK  status: ('A' for Active; 'I' for Inactive)
REMARK    1  A    between atoms: N1_1  and  N2_4 
REMARK    2  A    between atoms: C1_6  and  N3_7 
REMARK    3  A    between atoms: N3_7  and  C2_9 
REMARK    4  A    between atoms: C2_9  and  C3_10 
REMARK    5  A    between atoms: C4_12  and  N4_13 
REMARK    6  A    between atoms: N4_13  and  N5_14 
REMARK    7  A    between atoms: N5_14  and  C5_16 
REMARK    8  A    between atoms: C11_22  and  N6_23 
ROOT
HETATM    1  C3  UNL     1     -11.069  -6.254 -43.606  1.00  0.00     0.175 C 
HETATM    2  O1  UNL     1      -9.743  -5.916 -43.412  1.00  0.00    -0.357 OA
HETATM    3  C4  UNL     1      -9.828  -4.775 -44.209  1.00  0.00     0.267 C 
HETATM    4  C11 UNL     1     -11.197  -5.216 -44.668  1.00  0.00     0.260 C 
ENDROOT
BRANCH   1   5
HETATM    5  C2  UNL     1     -11.994  -6.109 -42.471  1.00  0.00     0.154 C 
BRANCH   5   6
HETATM    6  N3  UNL     1     -11.583  -6.524 -41.186  1.00  0.00    -0.383 N 
ATOM      7  H3  UNL     1     -12.185  -6.372 -40.377  1.00  0.00     0.160 HD
BRANCH   6   8
HETATM    8  C1  UNL     1     -10.320  -7.157 -41.037  1.00  0.00     0.192 C 
HETATM    9  N2  UNL     1      -9.293  -6.481 -40.665  1.00  0.00    -0.303 N 
ATOM     10  H2  UNL     1      -9.443  -5.488 -40.488  1.00  0.00     0.187 HD
BRANCH   9  11
HETATM   11  N1  UNL     1      -8.015  -6.951 -40.478  1.00  0.00    -0.344 N 
ATOM     12  H12 UNL     1      -7.949  -7.915 -40.152  1.00  0.00     0.176 HD
ATOM     13  H11 UNL     1      -7.145  -6.442 -40.630  1.00  0.00     0.176 HD
ENDBRANCH   9  11
ENDBRANCH   6   8
ENDBRANCH   5   6
ENDBRANCH   1   5
BRANCH   4  14
HETATM   14  N6  UNL     1     -12.181  -4.194 -44.528  1.00  0.00    -0.069 N 
ATOM     15  H63 UNL     1     -12.682  -4.341 -43.653  1.00  0.00     0.275 HD
ATOM     16  H62 UNL     1     -11.708  -3.309 -44.342  1.00  0.00     0.275 HD
ATOM     17  H61 UNL     1     -12.860  -4.051 -45.274  1.00  0.00     0.275 HD
ENDBRANCH   4  14
BRANCH   3  18
HETATM   18  N4  UNL     1      -8.906  -4.761 -45.328  1.00  0.00    -0.106 NA
BRANCH  18  19
HETATM   19  N5  UNL     1      -7.780  -4.002 -44.948  1.00  0.00    -0.302 N 
ATOM     20  H5  UNL     1      -7.595  -3.837 -43.958  1.00  0.00     0.182 HD
BRANCH  19  21
HETATM   21  C5  UNL     1      -6.895  -3.461 -45.929  1.00  0.00     0.044 A 
HETATM   22  C6  UNL     1      -6.262  -4.305 -46.813  1.00  0.00     0.030 A 
HETATM   23  C7  UNL     1      -5.386  -3.808 -47.787  1.00  0.00     0.002 A 
HETATM   24  C8  UNL     1      -5.168  -2.451 -47.847  1.00  0.00     0.000 A 
HETATM   25  C9  UNL     1      -5.786  -1.596 -46.980  1.00  0.00     0.002 A 
HETATM   26  C10 UNL     1      -6.643  -2.115 -46.029  1.00  0.00     0.030 A 
ENDBRANCH  19  21
ENDBRANCH  18  19
ENDBRANCH   3  18
TORSDOF 8
ENDMDL
MODEL 5
REMARK VINA RESULT: -6.219347348      1.202      1.850
REMARK  8 active torsions:
REMARK  status: ('A' for Active; 'I' for Inactive)
REMARK    1  A    between atoms: N1_1  and  N2_4 
REMARK    2  A    between atoms: C1_6  and  N3_7 
REMARK    3  A    between atoms: N3_7  and  C2_9 
REMARK    4  A    between atoms: C2_9  and  C3_10 
REMARK    5  A    between atoms: C4_12  and  N4_13 
REMARK    6  A    between atoms: N4_13  and  N5_14 
REMARK    7  A    between atoms: N5_14  and  C5_16 
REMARK    8  A    between atoms: C11_22  and  N6_23 
ROOT
HETATM    1  C3  UNL     1      -7.756  -5.035 -43.542  1.00  0.00     0.175 C 
HETATM    2  O1  UNL     1      -8.191  -3.908 -44.215  1.00  0.00    -0.357 OA
HETATM    3  C4  UNL     1      -7.252  -4.050 -45.235  1.00  0.00     0.267 C 
HETATM    4  C11 UNL     1      -6.565  -5.128 -44.433  1.00  0.00     0.260 C 
ENDROOT
BRANCH   1   5
HETATM    5  C2  UNL     1      -8.630  -6.219 -43.536  1.00  0.00     0.154 C 
BRANCH   5   6
HETATM    6  N3  UNL     1      -9.914  -6.128 -42.959  1.00  0.00    -0.383 N 
ATOM      7  H3  UNL     1     -10.045  -6.289 -41.960  1.00  0.00     0.160 HD
BRANCH   6   8
HETATM    8  C1  UNL     1     -11.022  -5.810 -43.790  1.00  0.00     0.192 C 
HETATM    9  N2  UNL     1     -11.163  -4.624 -44.262  1.00  0.00    -0.303 N 
ATOM     10  H2  UNL     1     -10.446  -3.946 -44.008  1.00  0.00     0.187 HD
BRANCH   9  11
HETATM   11  N1  UNL     1     -12.175  -4.170 -45.073  1.00  0.00    -0.344 N 
ATOM     12  H12 UNL     1     -12.039  -4.331 -46.071  1.00  0.00     0.176 HD
ATOM     13  H11 UNL     1     -13.031  -3.698 -44.783  1.00  0.00     0.176 HD
ENDBRANCH   9  11
ENDBRANCH   6   8
ENDBRANCH   5   6
ENDBRANCH   1   5
BRANCH   4  14
HETATM   14  N6  UNL     1      -6.348  -6.320 -45.184  1.00  0.00    -0.069 N 
ATOM     15  H63 UNL     1      -7.167  -6.920 -45.089  1.00  0.00     0.275 HD
ATOM     16  H62 UNL     1      -6.381  -6.091 -46.178  1.00  0.00     0.275 HD
ATOM     17  H61 UNL     1      -5.513  -6.877 -45.005  1.00  0.00     0.275 HD
ENDBRANCH   4  14
BRANCH   3  18
HETATM   18  N4  UNL     1      -6.371  -2.909 -45.395  1.00  0.00    -0.106 NA
BRANCH  18  19
HETATM   19  N5  UNL     1      -6.991  -2.009 -46.287  1.00  0.00    -0.302 N 
ATOM     20  H5  UNL     1      -7.975  -1.771 -46.158  1.00  0.00     0.182 HD
BRANCH  19  21
HETATM   21  C5  UNL     1      -6.263  -1.427 -47.367  1.00  0.00     0.044 A 
HETATM   22  C6  UNL     1      -5.040  -0.842 -47.126  1.00  0.00     0.030 A 
HETATM   23  C7  UNL     1      -4.299  -0.262 -48.164  1.00  0.00     0.002 A 
HETATM   24  C8  UNL     1      -4.816  -0.286 -49.437  1.00  0.00     0.000 A 
HETATM   25  C9  UNL     1      -6.027  -0.861 -49.699  1.00  0.00     0.002 A 
HETATM   26  C10 UNL     1      -6.736  -1.425 -48.657  1.00  0.00     0.030 A 
ENDBRANCH  19  21
ENDBRANCH  18  19
ENDBRANCH   3  18
TORSDOF 8
ENDMDL
