MODEL 1
REMARK VINA RESULT: -7.634490112      0.000      0.000
REMARK  13 active torsions:
REMARK  status: ('A' for Active; 'I' for Inactive)
REMARK    1  A    between atoms: N1_1  and  C1_5 
REMARK    2  A    between atoms: C1_5  and  C2_6 
REMARK    3  A    between atoms: C1_5  and  C9_17 
REMARK    4  A    between atoms: C2_6  and  O1_7 
REMARK    5  A    between atoms: O1_7  and  C3_8 
REMARK    6  A    between atoms: C7_12  and  N2_13 
REMARK    7  A    between atoms: C9_17  and  N3_18 
REMARK    8  A    between atoms: C9_17  and  C10_22 
REMARK    9  A    between atoms: C10_22  and  O4_23 
REMARK   10  A    between atoms: C10_22  and  N4_25 
REMARK   11  A    between atoms: N4_25  and  C11_28 
REMARK   12  A    between atoms: C11_28  and  N5_30 
REMARK   13  A    between atoms: N5_30  and  O5_31 
ROOT
HETATM    1  C1  UNL     1     -11.516  26.983 -23.581  1.00  0.00     0.242 C 
ENDROOT
BRANCH   1   2
HETATM    2  N1  UNL     1     -11.315  25.702 -22.935  1.00  0.00    -0.071 N 
ATOM      3  H13 UNL     1     -11.632  24.912 -23.495  1.00  0.00     0.274 HD
ATOM      4  H12 UNL     1     -10.334  25.427 -22.876  1.00  0.00     0.274 HD
ATOM      5  H11 UNL     1     -11.774  25.767 -22.026  1.00  0.00     0.274 HD
ENDBRANCH   1   2
BRANCH   1   6
HETATM    6  C2  UNL     1     -10.237  27.786 -23.341  1.00  0.00     0.210 C 
BRANCH   6   7
HETATM    7  O1  UNL     1      -9.464  27.692 -24.531  1.00  0.00    -0.349 OA
BRANCH   7   8
HETATM    8  C3  UNL     1      -8.146  27.277 -24.385  1.00  0.00     0.071 A 
HETATM    9  C4  UNL     1      -7.794  26.022 -23.917  1.00  0.00     0.037 A 
HETATM   10  C5  UNL     1      -6.475  25.636 -23.783  1.00  0.00     0.005 A 
HETATM   11  C6  UNL     1      -5.447  26.493 -24.111  1.00  0.00     0.036 A 
HETATM   12  C7  UNL     1      -5.786  27.749 -24.581  1.00  0.00     0.105 A 
HETATM   13  C8  UNL     1      -7.105  28.120 -24.709  1.00  0.00     0.072 A 
BRANCH  12  14
HETATM   14  N2  UNL     1      -4.755  28.656 -24.929  1.00  0.00    -0.116 N 
HETATM   15  O2  UNL     1      -4.986  29.886 -25.004  1.00  0.00    -0.532 OA
HETATM   16  O3  UNL     1      -3.506  28.150 -25.177  1.00  0.00    -0.532 OA
ENDBRANCH  12  14
ENDBRANCH   7   8
ENDBRANCH   6   7
ENDBRANCH   1   6
BRANCH   1  17
HETATM   17  C9  UNL     1     -11.680  26.862 -25.065  1.00  0.00     0.271 C 
BRANCH  17  18
HETATM   18  N3  UNL     1     -12.960  27.485 -25.406  1.00  0.00    -0.069 N 
ATOM     19  H33 UNL     1     -13.683  27.325 -24.705  1.00  0.00     0.275 HD
ATOM     20  H32 UNL     1     -12.940  28.503 -25.343  1.00  0.00     0.275 HD
ATOM     21  H31 UNL     1     -13.219  27.145 -26.333  1.00  0.00     0.275 HD
ENDBRANCH  17  18
BRANCH  17  22
HETATM   22  C10 UNL     1     -11.704  25.433 -25.542  1.00  0.00     0.354 C 
BRANCH  22  23
HETATM   23  O4  UNL     1     -10.433  25.063 -25.935  1.00  0.00    -0.368 OA
ATOM     24  H4  UNL     1     -10.231  24.207 -25.576  1.00  0.00     0.212 HD
ENDBRANCH  22  23
BRANCH  22  25
HETATM   25  N4  UNL     1     -12.646  25.371 -26.651  1.00  0.00    -0.017 N 
ATOM     26  H42 UNL     1     -13.390  24.697 -26.472  1.00  0.00     0.283 HD
ATOM     27  H41 UNL     1     -13.211  26.217 -26.710  1.00  0.00     0.283 HD
BRANCH  25  28
HETATM   28  C11 UNL     1     -11.970  25.095 -27.904  1.00  0.00     0.380 C 
HETATM   29  S1  UNL     1     -12.399  23.464 -28.566  1.00  0.00    -0.042 SA
BRANCH  28  30
HETATM   30  N5  UNL     1     -12.364  26.090 -28.860  1.00  0.00    -0.058 NA
BRANCH  30  31
HETATM   31  O5  UNL     1     -12.014  27.332 -28.520  1.00  0.00    -0.293 OA
ATOM     32  H5  UNL     1     -11.202  27.624 -28.917  1.00  0.00     0.238 HD
ENDBRANCH  30  31
ENDBRANCH  28  30
ENDBRANCH  25  28
ENDBRANCH  22  25
ENDBRANCH  17  22
ENDBRANCH   1  17
TORSDOF 13
ENDMDL
MODEL 2
REMARK VINA RESULT: -7.560114091      1.542      2.005
REMARK  13 active torsions:
REMARK  status: ('A' for Active; 'I' for Inactive)
REMARK    1  A    between atoms: N1_1  and  C1_5 
REMARK    2  A    between atoms: C1_5  and  C2_6 
REMARK    3  A    between atoms: C1_5  and  C9_17 
REMARK    4  A    between atoms: C2_6  and  O1_7 
REMARK    5  A    between atoms: O1_7  and  C3_8 
REMARK    6  A    between atoms: C7_12  and  N2_13 
REMARK    7  A    between atoms: C9_17  and  N3_18 
REMARK    8  A    between atoms: C9_17  and  C10_22 
REMARK    9  A    between atoms: C10_22  and  O4_23 
REMARK   10  A    between atoms: C10_22  and  N4_25 
REMARK   11  A    between atoms: N4_25  and  C11_28 
REMARK   12  A    between atoms: C11_28  and  N5_30 
REMARK   13  A    between atoms: N5_30  and  O5_31 
ROOT
HETATM    1  C1  UNL     1     -11.684  27.131 -24.391  1.00  0.00     0.242 C 
ENDROOT
BRANCH   1   2
HETATM    2  N1  UNL     1     -12.568  27.560 -23.327  1.00  0.00    -0.071 N 
ATOM      3  H13 UNL     1     -12.085  27.747 -22.449  1.00  0.00     0.274 HD
ATOM      4  H12 UNL     1     -12.944  28.499 -23.465  1.00  0.00     0.274 HD
ATOM      5  H11 UNL     1     -13.289  26.842 -23.251  1.00  0.00     0.274 HD
ENDBRANCH   1   2
BRANCH   1   6
HETATM    6  C2  UNL     1     -10.334  26.841 -23.732  1.00  0.00     0.210 C 
BRANCH   6   7
HETATM    7  O1  UNL     1      -9.373  27.658 -24.388  1.00  0.00    -0.349 OA
BRANCH   7   8
HETATM    8  C3  UNL     1      -8.060  27.206 -24.372  1.00  0.00     0.071 A 
HETATM    9  C4  UNL     1      -7.711  25.899 -24.077  1.00  0.00     0.037 A 
HETATM   10  C5  UNL     1      -6.396  25.478 -24.070  1.00  0.00     0.005 A 
HETATM   11  C6  UNL     1      -5.368  26.349 -24.358  1.00  0.00     0.036 A 
HETATM   12  C7  UNL     1      -5.704  27.657 -24.656  1.00  0.00     0.105 A 
HETATM   13  C8  UNL     1      -7.019  28.063 -24.659  1.00  0.00     0.072 A 
BRANCH  12  14
HETATM   14  N2  UNL     1      -4.673  28.582 -24.958  1.00  0.00    -0.116 N 
HETATM   15  O2  UNL     1      -3.506  28.184 -25.188  1.00  0.00    -0.532 OA
HETATM   16  O3  UNL     1      -4.991  29.915 -24.992  1.00  0.00    -0.532 OA
ENDBRANCH  12  14
ENDBRANCH   7   8
ENDBRANCH   6   7
ENDBRANCH   1   6
BRANCH   1  17
HETATM   17  C9  UNL     1     -12.133  25.856 -25.037  1.00  0.00     0.271 C 
BRANCH  17  18
HETATM   18  N3  UNL     1     -11.011  24.920 -24.962  1.00  0.00    -0.069 N 
ATOM     19  H33 UNL     1     -10.219  25.195 -25.543  1.00  0.00     0.275 HD
ATOM     20  H32 UNL     1     -10.527  24.945 -24.063  1.00  0.00     0.275 HD
ATOM     21  H31 UNL     1     -11.377  23.997 -25.194  1.00  0.00     0.275 HD
ENDBRANCH  17  18
BRANCH  17  22
HETATM   22  C10 UNL     1     -12.512  26.030 -26.486  1.00  0.00     0.354 C 
BRANCH  22  23
HETATM   23  O4  UNL     1     -13.827  25.647 -26.661  1.00  0.00    -0.368 OA
ATOM     24  H4  UNL     1     -14.354  26.008 -25.958  1.00  0.00     0.212 HD
ENDBRANCH  22  23
BRANCH  22  25
HETATM   25  N4  UNL     1     -11.604  25.198 -27.264  1.00  0.00    -0.017 N 
ATOM     26  H42 UNL     1     -10.929  25.763 -27.780  1.00  0.00     0.283 HD
ATOM     27  H41 UNL     1     -10.956  24.689 -26.664  1.00  0.00     0.283 HD
BRANCH  25  28
HETATM   28  C11 UNL     1     -12.330  24.303 -28.143  1.00  0.00     0.380 C 
HETATM   29  S1  UNL     1     -11.513  24.111 -29.749  1.00  0.00    -0.042 SA
BRANCH  28  30
HETATM   30  N5  UNL     1     -12.406  23.015 -27.516  1.00  0.00    -0.058 NA
BRANCH  30  31
HETATM   31  O5  UNL     1     -12.074  22.003 -28.320  1.00  0.00    -0.293 OA
ATOM     32  H5  UNL     1     -11.137  21.886 -28.423  1.00  0.00     0.238 HD
ENDBRANCH  30  31
ENDBRANCH  28  30
ENDBRANCH  25  28
ENDBRANCH  22  25
ENDBRANCH  17  22
ENDBRANCH   1  17
TORSDOF 13
ENDMDL
MODEL 3
REMARK VINA RESULT: -7.164407830      1.494      2.144
REMARK  13 active torsions:
REMARK  status: ('A' for Active; 'I' for Inactive)
REMARK    1  A    between atoms: N1_1  and  C1_5 
REMARK    2  A    between atoms: C1_5  and  C2_6 
REMARK    3  A    between atoms: C1_5  and  C9_17 
REMARK    4  A    between atoms: C2_6  and  O1_7 
REMARK    5  A    between atoms: O1_7  and  C3_8 
REMARK    6  A    between atoms: C7_12  and  N2_13 
REMARK    7  A    between atoms: C9_17  and  N3_18 
REMARK    8  A    between atoms: C9_17  and  C10_22 
REMARK    9  A    between atoms: C10_22  and  O4_23 
REMARK   10  A    between atoms: C10_22  and  N4_25 
REMARK   11  A    between atoms: N4_25  and  C11_28 
REMARK   12  A    between atoms: C11_28  and  N5_30 
REMARK   13  A    between atoms: N5_30  and  O5_31 
ROOT
HETATM    1  C1  UNL     1     -11.071  28.775 -24.917  1.00  0.00     0.242 C 
ENDROOT
BRANCH   1   2
HETATM    2  N1  UNL     1     -11.129  30.222 -24.872  1.00  0.00    -0.071 N 
ATOM      3  H13 UNL     1     -11.273  30.594 -23.934  1.00  0.00     0.274 HD
ATOM      4  H12 UNL     1     -10.228  30.669 -25.046  1.00  0.00     0.274 HD
ATOM      5  H11 UNL     1     -11.853  30.498 -25.535  1.00  0.00     0.274 HD
ENDBRANCH   1   2
BRANCH   1   6
HETATM    6  C2  UNL     1      -9.902  28.368 -24.018  1.00  0.00     0.210 C 
BRANCH   6   7
HETATM    7  O1  UNL     1      -9.395  27.144 -24.535  1.00  0.00    -0.349 OA
BRANCH   7   8
HETATM    8  C3  UNL     1      -8.043  26.898 -24.333  1.00  0.00     0.071 A 
HETATM    9  C4  UNL     1      -7.558  25.717 -23.797  1.00  0.00     0.037 A 
HETATM   10  C5  UNL     1      -6.208  25.500 -23.608  1.00  0.00     0.005 A 
HETATM   11  C6  UNL     1      -5.279  26.458 -23.949  1.00  0.00     0.036 A 
HETATM   12  C7  UNL     1      -5.750  27.642 -24.487  1.00  0.00     0.105 A 
HETATM   13  C8  UNL     1      -7.099  27.845 -24.669  1.00  0.00     0.072 A 
BRANCH  12  14
HETATM   14  N2  UNL     1      -4.824  28.652 -24.849  1.00  0.00    -0.116 N 
HETATM   15  O2  UNL     1      -5.172  29.856 -24.883  1.00  0.00    -0.532 OA
HETATM   16  O3  UNL     1      -3.543  28.272 -25.159  1.00  0.00    -0.532 OA
ENDBRANCH  12  14
ENDBRANCH   7   8
ENDBRANCH   6   7
ENDBRANCH   1   6
BRANCH   1  17
HETATM   17  C9  UNL     1     -12.299  28.131 -24.348  1.00  0.00     0.271 C 
BRANCH  17  18
HETATM   18  N3  UNL     1     -11.863  27.292 -23.231  1.00  0.00    -0.069 N 
ATOM     19  H33 UNL     1     -10.849  27.237 -23.142  1.00  0.00     0.275 HD
ATOM     20  H32 UNL     1     -12.051  27.709 -22.319  1.00  0.00     0.275 HD
ATOM     21  H31 UNL     1     -12.304  26.380 -23.354  1.00  0.00     0.275 HD
ENDBRANCH  17  18
BRANCH  17  22
HETATM   22  C10 UNL     1     -13.024  27.261 -25.343  1.00  0.00     0.354 C 
BRANCH  22  23
HETATM   23  O4  UNL     1     -13.570  26.177 -24.686  1.00  0.00    -0.368 OA
ATOM     24  H4  UNL     1     -14.084  25.665 -25.299  1.00  0.00     0.212 HD
ENDBRANCH  22  23
BRANCH  22  25
HETATM   25  N4  UNL     1     -12.043  26.846 -26.337  1.00  0.00    -0.017 N 
ATOM     26  H42 UNL     1     -12.184  27.329 -27.225  1.00  0.00     0.283 HD
ATOM     27  H41 UNL     1     -11.112  27.196 -26.113  1.00  0.00     0.283 HD
BRANCH  25  28
HETATM   28  C11 UNL     1     -12.043  25.406 -26.510  1.00  0.00     0.380 C 
HETATM   29  S1  UNL     1     -12.035  24.929 -28.257  1.00  0.00    -0.042 SA
BRANCH  28  30
HETATM   30  N5  UNL     1     -10.862  24.877 -25.890  1.00  0.00    -0.058 NA
BRANCH  30  31
HETATM   31  O5  UNL     1     -11.024  24.565 -24.602  1.00  0.00    -0.293 OA
ATOM     32  H5  UNL     1     -10.232  24.651 -24.084  1.00  0.00     0.238 HD
ENDBRANCH  30  31
ENDBRANCH  28  30
ENDBRANCH  25  28
ENDBRANCH  22  25
ENDBRANCH  17  22
ENDBRANCH   1  17
TORSDOF 13
ENDMDL
MODEL 4
REMARK VINA RESULT: -7.146407633      1.874      2.085
REMARK  13 active torsions:
REMARK  status: ('A' for Active; 'I' for Inactive)
REMARK    1  A    between atoms: N1_1  and  C1_5 
REMARK    2  A    between atoms: C1_5  and  C2_6 
REMARK    3  A    between atoms: C1_5  and  C9_17 
REMARK    4  A    between atoms: C2_6  and  O1_7 
REMARK    5  A    between atoms: O1_7  and  C3_8 
REMARK    6  A    between atoms: C7_12  and  N2_13 
REMARK    7  A    between atoms: C9_17  and  N3_18 
REMARK    8  A    between atoms: C9_17  and  C10_22 
REMARK    9  A    between atoms: C10_22  and  O4_23 
REMARK   10  A    between atoms: C10_22  and  N4_25 
REMARK   11  A    between atoms: N4_25  and  C11_28 
REMARK   12  A    between atoms: C11_28  and  N5_30 
REMARK   13  A    between atoms: N5_30  and  O5_31 
ROOT
HETATM    1  C1  UNL     1     -11.568  26.805 -23.512  1.00  0.00     0.242 C 
ENDROOT
BRANCH   1   2
HETATM    2  N1  UNL     1     -12.322  26.803 -22.275  1.00  0.00    -0.071 N 
ATOM      3  H13 UNL     1     -12.089  26.024 -21.660  1.00  0.00     0.274 HD
ATOM      4  H12 UNL     1     -12.054  27.551 -21.635  1.00  0.00     0.274 HD
ATOM      5  H11 UNL     1     -13.306  26.830 -22.543  1.00  0.00     0.274 HD
ENDBRANCH   1   2
BRANCH   1   6
HETATM    6  C2  UNL     1     -10.106  26.586 -23.120  1.00  0.00     0.210 C 
BRANCH   6   7
HETATM    7  O1  UNL     1      -9.324  27.411 -23.975  1.00  0.00    -0.349 OA
BRANCH   7   8
HETATM    8  C3  UNL     1      -8.005  27.024 -24.174  1.00  0.00     0.071 A 
HETATM    9  C4  UNL     1      -7.581  25.708 -24.105  1.00  0.00     0.037 A 
HETATM   10  C5  UNL     1      -6.262  25.353 -24.308  1.00  0.00     0.005 A 
HETATM   11  C6  UNL     1      -5.305  26.303 -24.589  1.00  0.00     0.036 A 
HETATM   12  C7  UNL     1      -5.716  27.622 -24.661  1.00  0.00     0.105 A 
HETATM   13  C8  UNL     1      -7.034  27.961 -24.457  1.00  0.00     0.072 A 
BRANCH  12  14
HETATM   14  N2  UNL     1      -4.759  28.627 -24.949  1.00  0.00    -0.116 N 
HETATM   15  O2  UNL     1      -5.092  29.836 -24.977  1.00  0.00    -0.532 OA
HETATM   16  O3  UNL     1      -3.468  28.239 -25.193  1.00  0.00    -0.532 OA
ENDBRANCH  12  14
ENDBRANCH   7   8
ENDBRANCH   6   7
ENDBRANCH   1   6
BRANCH   1  17
HETATM   17  C9  UNL     1     -11.946  25.676 -24.421  1.00  0.00     0.271 C 
BRANCH  17  18
HETATM   18  N3  UNL     1     -10.959  24.614 -24.217  1.00  0.00    -0.069 N 
ATOM     19  H33 UNL     1     -11.349  23.785 -23.768  1.00  0.00     0.275 HD
ATOM     20  H32 UNL     1     -10.667  24.166 -25.086  1.00  0.00     0.275 HD
ATOM     21  H31 UNL     1     -10.184  25.024 -23.696  1.00  0.00     0.275 HD
ENDBRANCH  17  18
BRANCH  17  22
HETATM   22  C10 UNL     1     -11.936  26.061 -25.878  1.00  0.00     0.354 C 
BRANCH  22  23
HETATM   23  O4  UNL     1     -11.040  25.258 -26.555  1.00  0.00    -0.368 OA
ATOM     24  H4  UNL     1     -10.233  25.199 -26.056  1.00  0.00     0.212 HD
ENDBRANCH  22  23
BRANCH  22  25
HETATM   25  N4  UNL     1     -11.551  27.465 -25.943  1.00  0.00    -0.017 N 
ATOM     26  H42 UNL     1     -11.423  27.861 -25.012  1.00  0.00     0.283 HD
ATOM     27  H41 UNL     1     -10.600  27.576 -26.293  1.00  0.00     0.283 HD
BRANCH  25  28
HETATM   28  C11 UNL     1     -12.498  28.237 -26.723  1.00  0.00     0.380 C 
HETATM   29  S1  UNL     1     -12.387  30.010 -26.371  1.00  0.00    -0.042 SA
BRANCH  28  30
HETATM   30  N5  UNL     1     -12.212  28.032 -28.114  1.00  0.00    -0.058 NA
BRANCH  30  31
HETATM   31  O5  UNL     1     -12.730  28.966 -28.915  1.00  0.00    -0.293 OA
ATOM     32  H5  UNL     1     -13.460  28.659 -29.439  1.00  0.00     0.238 HD
ENDBRANCH  30  31
ENDBRANCH  28  30
ENDBRANCH  25  28
ENDBRANCH  22  25
ENDBRANCH  17  22
ENDBRANCH   1  17
TORSDOF 13
ENDMDL
MODEL 5
REMARK VINA RESULT: -7.041388532      1.652      2.281
REMARK  13 active torsions:
REMARK  status: ('A' for Active; 'I' for Inactive)
REMARK    1  A    between atoms: N1_1  and  C1_5 
REMARK    2  A    between atoms: C1_5  and  C2_6 
REMARK    3  A    between atoms: C1_5  and  C9_17 
REMARK    4  A    between atoms: C2_6  and  O1_7 
REMARK    5  A    between atoms: O1_7  and  C3_8 
REMARK    6  A    between atoms: C7_12  and  N2_13 
REMARK    7  A    between atoms: C9_17  and  N3_18 
REMARK    8  A    between atoms: C9_17  and  C10_22 
REMARK    9  A    between atoms: C10_22  and  O4_23 
REMARK   10  A    between atoms: C10_22  and  N4_25 
REMARK   11  A    between atoms: N4_25  and  C11_28 
REMARK   12  A    between atoms: C11_28  and  N5_30 
REMARK   13  A    between atoms: N5_30  and  O5_31 
ROOT
HETATM    1  C1  UNL     1     -12.095  25.594 -23.594  1.00  0.00     0.242 C 
ENDROOT
BRANCH   1   2
HETATM    2  N1  UNL     1     -11.362  24.344 -23.584  1.00  0.00    -0.071 N 
ATOM      3  H13 UNL     1     -11.139  23.997 -24.516  1.00  0.00     0.274 HD
ATOM      4  H12 UNL     1     -10.401  24.440 -23.254  1.00  0.00     0.274 HD
ATOM      5  H11 UNL     1     -11.918  23.693 -23.030  1.00  0.00     0.274 HD
ENDBRANCH   1   2
BRANCH   1   6
HETATM    6  C2  UNL     1     -11.122  26.662 -23.091  1.00  0.00     0.210 C 
BRANCH   6   7
HETATM    7  O1  UNL     1      -9.817  26.238 -23.466  1.00  0.00    -0.349 OA
BRANCH   7   8
HETATM    8  C3  UNL     1      -8.984  27.203 -24.017  1.00  0.00     0.071 A 
HETATM    9  C4  UNL     1      -9.426  28.460 -24.395  1.00  0.00     0.037 A 
HETATM   10  C5  UNL     1      -8.575  29.400 -24.940  1.00  0.00     0.005 A 
HETATM   11  C6  UNL     1      -7.239  29.124 -25.132  1.00  0.00     0.036 A 
HETATM   12  C7  UNL     1      -6.786  27.872 -24.758  1.00  0.00     0.105 A 
HETATM   13  C8  UNL     1      -7.645  26.944 -24.216  1.00  0.00     0.072 A 
BRANCH  12  14
HETATM   14  N2  UNL     1      -5.417  27.552 -24.941  1.00  0.00    -0.116 N 
HETATM   15  O2  UNL     1      -4.790  27.976 -25.940  1.00  0.00    -0.532 OA
HETATM   16  O3  UNL     1      -4.805  26.769 -23.996  1.00  0.00    -0.532 OA
ENDBRANCH  12  14
ENDBRANCH   7   8
ENDBRANCH   6   7
ENDBRANCH   1   6
BRANCH   1  17
HETATM   17  C9  UNL     1     -12.515  26.005 -24.972  1.00  0.00     0.271 C 
BRANCH  17  18
HETATM   18  N3  UNL     1     -13.979  26.030 -24.982  1.00  0.00    -0.069 N 
ATOM     19  H33 UNL     1     -14.391  25.793 -24.080  1.00  0.00     0.275 HD
ATOM     20  H32 UNL     1     -14.363  26.973 -25.056  1.00  0.00     0.275 HD
ATOM     21  H31 UNL     1     -14.282  25.414 -25.736  1.00  0.00     0.275 HD
ENDBRANCH  17  18
BRANCH  17  22
HETATM   22  C10 UNL     1     -12.047  25.052 -26.041  1.00  0.00     0.354 C 
BRANCH  22  23
HETATM   23  O4  UNL     1     -10.693  25.228 -26.247  1.00  0.00    -0.368 OA
ATOM     24  H4  UNL     1     -10.558  25.659 -27.083  1.00  0.00     0.212 HD
ENDBRANCH  22  23
BRANCH  22  25
HETATM   25  N4  UNL     1     -12.815  25.351 -27.242  1.00  0.00    -0.017 N 
ATOM     26  H42 UNL     1     -13.774  25.616 -27.017  1.00  0.00     0.283 HD
ATOM     27  H41 UNL     1     -12.509  26.223 -27.674  1.00  0.00     0.283 HD
BRANCH  25  28
HETATM   28  C11 UNL     1     -12.776  24.249 -28.184  1.00  0.00     0.380 C 
HETATM   29  S1  UNL     1     -11.683  24.591 -29.588  1.00  0.00    -0.042 SA
BRANCH  28  30
HETATM   30  N5  UNL     1     -12.285  23.087 -27.500  1.00  0.00    -0.058 NA
BRANCH  30  31
HETATM   31  O5  UNL     1     -12.205  22.001 -28.271  1.00  0.00    -0.293 OA
ATOM     32  H5  UNL     1     -11.936  21.219 -27.805  1.00  0.00     0.238 HD
ENDBRANCH  30  31
ENDBRANCH  28  30
ENDBRANCH  25  28
ENDBRANCH  22  25
ENDBRANCH  17  22
ENDBRANCH   1  17
TORSDOF 13
ENDMDL
