MODEL 1
REMARK VINA RESULT: -7.072148178      0.000      0.000
REMARK  8 active torsions:
REMARK  status: ('A' for Active; 'I' for Inactive)
REMARK    1  A    between atoms: C2_2  and  C3_3 
REMARK    2  A    between atoms: C3_3  and  C4_4 
REMARK    3  A    between atoms: C11_11  and  C12_12 
REMARK    4  A    between atoms: C12_12  and  O1_14 
REMARK    5  A    between atoms: C12_12  and  C14_16 
REMARK    6  A    between atoms: C14_16  and  C15_17 
REMARK    7  A    between atoms: C16_18  and  C18_20 
REMARK    8  A    between atoms: C22_24  and  C23_25 
ROOT
HETATM    1  C4  UNL     1      22.198  -0.596 -23.754  1.00  0.00     0.069 C 
HETATM    2  C5  UNL     1      22.583  -0.399 -22.273  1.00  0.00     0.039 C 
HETATM    3  C6  UNL     1      21.412  -0.195 -21.390  1.00  0.00     0.008 C 
HETATM    4  C7  UNL     1      20.347   0.500 -22.191  1.00  0.00     0.003 C 
HETATM    5  C8  UNL     1      19.432  -0.564 -22.739  1.00  0.00     0.037 C 
HETATM    6  C9  UNL     1      20.018  -1.398 -23.828  1.00  0.00     0.123 C 
HETATM    7  C10 UNL     1      19.636  -0.743 -25.148  1.00  0.00     0.040 C 
HETATM    8  C11 UNL     1      20.562   0.406 -25.425  1.00  0.00     0.030 C 
HETATM    9  C21 UNL     1      21.608   0.612 -24.377  1.00  0.00     0.042 C 
HETATM   10  C22 UNL     1      20.918   1.390 -23.241  1.00  0.00     0.098 C 
HETATM   11  O4  UNL     1      21.347  -1.691 -23.731  1.00  0.00    -0.374 OA
ENDROOT
BRANCH   8  12
HETATM   12  C12 UNL     1      20.962   0.374 -26.845  1.00  0.00     0.061 C 
HETATM   13  C13 UNL     1      20.141   1.494 -27.533  1.00  0.00     0.046 C 
BRANCH  12  14
HETATM   14  O1  UNL     1      20.560  -0.769 -27.518  1.00  0.00    -0.390 OA
ATOM     15  H1  UNL     1      19.629  -0.801 -27.701  1.00  0.00     0.210 HD
ENDBRANCH  12  14
BRANCH  12  16
HETATM   16  C14 UNL     1      22.398   0.732 -27.109  1.00  0.00     0.065 C 
BRANCH  16  17
HETATM   17  C15 UNL     1      22.703   0.654 -28.566  1.00  0.00    -0.021 C 
HETATM   18  C16 UNL     1      23.578   1.468 -29.154  1.00  0.00    -0.084 C 
HETATM   19  C17 UNL     1      24.314   2.518 -28.397  1.00  0.00     0.043 C 
BRANCH  18  20
HETATM   20  C18 UNL     1      23.842   1.348 -30.614  1.00  0.00     0.005 C 
HETATM   21  C19 UNL     1      25.250   1.731 -30.969  1.00  0.00     0.014 C 
HETATM   22  C20 UNL     1      22.893   2.215 -31.404  1.00  0.00     0.014 C 
ENDBRANCH  18  20
ENDBRANCH  16  17
ENDBRANCH  12  16
ENDBRANCH   8  12
BRANCH   1  23
HETATM   23  C3  UNL     1      23.553  -1.006 -24.336  1.00  0.00     0.065 C 
BRANCH  23  24
HETATM   24  C2  UNL     1      23.511  -2.345 -24.952  1.00  0.00    -0.034 C 
HETATM   25  C1  UNL     1      23.212  -2.551 -26.224  1.00  0.00     0.007 C 
ENDBRANCH  23  24
ENDBRANCH   1  23
BRANCH  10  26
HETATM   26  C23 UNL     1      21.744   2.441 -22.665  1.00  0.00     0.177 C 
HETATM   27  O2  UNL     1      22.892   2.672 -23.116  1.00  0.00    -0.648 OA
HETATM   28  O3  UNL     1      21.309   3.226 -21.605  1.00  0.00    -0.648 OA
ENDBRANCH  10  26
TORSDOF 8
ENDMDL
MODEL 2
REMARK VINA RESULT: -7.054110286      2.433      4.508
REMARK  8 active torsions:
REMARK  status: ('A' for Active; 'I' for Inactive)
REMARK    1  A    between atoms: C2_2  and  C3_3 
REMARK    2  A    between atoms: C3_3  and  C4_4 
REMARK    3  A    between atoms: C11_11  and  C12_12 
REMARK    4  A    between atoms: C12_12  and  O1_14 
REMARK    5  A    between atoms: C12_12  and  C14_16 
REMARK    6  A    between atoms: C14_16  and  C15_17 
REMARK    7  A    between atoms: C16_18  and  C18_20 
REMARK    8  A    between atoms: C22_24  and  C23_25 
ROOT
HETATM    1  C4  UNL     1      20.621   0.612 -23.797  1.00  0.00     0.069 C 
HETATM    2  C5  UNL     1      20.225   0.409 -22.319  1.00  0.00     0.039 C 
HETATM    3  C6  UNL     1      21.386   0.169 -21.433  1.00  0.00     0.008 C 
HETATM    4  C7  UNL     1      22.439  -0.544 -22.236  1.00  0.00     0.003 C 
HETATM    5  C8  UNL     1      23.381   0.503 -22.769  1.00  0.00     0.037 C 
HETATM    6  C9  UNL     1      22.821   1.361 -23.853  1.00  0.00     0.123 C 
HETATM    7  C10 UNL     1      23.193   0.711 -25.178  1.00  0.00     0.040 C 
HETATM    8  C11 UNL     1      22.241  -0.412 -25.470  1.00  0.00     0.030 C 
HETATM    9  C21 UNL     1      21.185  -0.604 -24.429  1.00  0.00     0.042 C 
HETATM   10  C22 UNL     1      21.850  -1.409 -23.298  1.00  0.00     0.098 C 
HETATM   11  O4  UNL     1      21.499   1.685 -23.759  1.00  0.00    -0.374 OA
ENDROOT
BRANCH   8  12
HETATM   12  C12 UNL     1      21.848  -0.357 -26.892  1.00  0.00     0.061 C 
HETATM   13  C13 UNL     1      22.749  -1.391 -27.612  1.00  0.00     0.046 C 
BRANCH  12  14
HETATM   14  O1  UNL     1      22.174   0.835 -27.520  1.00  0.00    -0.390 OA
ATOM     15  H1  UNL     1      22.086   0.809 -28.465  1.00  0.00     0.210 HD
ENDBRANCH  12  14
BRANCH  12  16
HETATM   16  C14 UNL     1      20.442  -0.803 -27.180  1.00  0.00     0.065 C 
BRANCH  16  17
HETATM   17  C15 UNL     1      20.157  -0.742 -28.642  1.00  0.00    -0.021 C 
HETATM   18  C16 UNL     1      19.221  -1.494 -29.217  1.00  0.00    -0.084 C 
HETATM   19  C17 UNL     1      18.389  -2.453 -28.439  1.00  0.00     0.043 C 
BRANCH  18  20
HETATM   20  C18 UNL     1      18.980  -1.394 -30.682  1.00  0.00     0.005 C 
HETATM   21  C19 UNL     1      17.591  -1.819 -31.060  1.00  0.00     0.014 C 
HETATM   22  C20 UNL     1      19.968  -2.241 -31.446  1.00  0.00     0.014 C 
ENDBRANCH  18  20
ENDBRANCH  16  17
ENDBRANCH  12  16
ENDBRANCH   8  12
BRANCH   1  23
HETATM   23  C3  UNL     1      19.279   1.061 -24.380  1.00  0.00     0.065 C 
BRANCH  23  24
HETATM   24  C2  UNL     1      19.369   2.382 -25.028  1.00  0.00    -0.034 C 
HETATM   25  C1  UNL     1      19.478   2.546 -26.335  1.00  0.00     0.007 C 
ENDBRANCH  23  24
ENDBRANCH   1  23
BRANCH  10  26
HETATM   26  C23 UNL     1      20.997  -2.446 -22.736  1.00  0.00     0.177 C 
HETATM   27  O2  UNL     1      19.847  -2.648 -23.198  1.00  0.00    -0.648 OA
HETATM   28  O3  UNL     1      21.406  -3.248 -21.678  1.00  0.00    -0.648 OA
ENDBRANCH  10  26
TORSDOF 8
ENDMDL
MODEL 3
REMARK VINA RESULT: -6.962805231      2.335      6.825
REMARK  8 active torsions:
REMARK  status: ('A' for Active; 'I' for Inactive)
REMARK    1  A    between atoms: C2_2  and  C3_3 
REMARK    2  A    between atoms: C3_3  and  C4_4 
REMARK    3  A    between atoms: C11_11  and  C12_12 
REMARK    4  A    between atoms: C12_12  and  O1_14 
REMARK    5  A    between atoms: C12_12  and  C14_16 
REMARK    6  A    between atoms: C14_16  and  C15_17 
REMARK    7  A    between atoms: C16_18  and  C18_20 
REMARK    8  A    between atoms: C22_24  and  C23_25 
ROOT
HETATM    1  C4  UNL     1      21.256  -1.384 -28.616  1.00  0.00     0.069 C 
HETATM    2  C5  UNL     1      20.935  -2.283 -29.830  1.00  0.00     0.039 C 
HETATM    3  C6  UNL     1      20.675  -1.516 -31.069  1.00  0.00     0.008 C 
HETATM    4  C7  UNL     1      20.060  -0.202 -30.676  1.00  0.00     0.003 C 
HETATM    5  C8  UNL     1      21.175   0.806 -30.587  1.00  0.00     0.037 C 
HETATM    6  C9  UNL     1      22.087   0.633 -29.419  1.00  0.00     0.123 C 
HETATM    7  C10 UNL     1      21.546   1.504 -28.294  1.00  0.00     0.040 C 
HETATM    8  C11 UNL     1      20.413   0.795 -27.612  1.00  0.00     0.030 C 
HETATM    9  C21 UNL     1      20.110  -0.555 -28.176  1.00  0.00     0.042 C 
HETATM   10  C22 UNL     1      19.251  -0.306 -29.429  1.00  0.00     0.098 C 
HETATM   11  O4  UNL     1      22.356  -0.648 -29.034  1.00  0.00    -0.374 OA
ENDROOT
BRANCH   8  12
HETATM   12  C12 UNL     1      20.554   0.950 -26.151  1.00  0.00     0.061 C 
HETATM   13  C13 UNL     1      19.816   2.266 -25.799  1.00  0.00     0.046 C 
BRANCH  12  14
HETATM   14  O1  UNL     1      21.853   1.197 -25.734  1.00  0.00    -0.390 OA
ATOM     15  H1  UNL     1      22.093   0.746 -24.933  1.00  0.00     0.210 HD
ENDBRANCH  12  14
BRANCH  12  16
HETATM   16  C14 UNL     1      19.870  -0.108 -25.330  1.00  0.00     0.065 C 
BRANCH  16  17
HETATM   17  C15 UNL     1      19.958   0.211 -23.877  1.00  0.00    -0.021 C 
HETATM   18  C16 UNL     1      20.601  -0.573 -23.014  1.00  0.00    -0.084 C 
HETATM   19  C17 UNL     1      21.279  -1.829 -23.440  1.00  0.00     0.043 C 
BRANCH  18  20
HETATM   20  C18 UNL     1      20.656  -0.208 -21.573  1.00  0.00     0.005 C 
HETATM   21  C19 UNL     1      21.877   0.599 -21.237  1.00  0.00     0.014 C 
HETATM   22  C20 UNL     1      20.642  -1.443 -20.706  1.00  0.00     0.014 C 
ENDBRANCH  18  20
ENDBRANCH  16  17
ENDBRANCH  12  16
ENDBRANCH   8  12
BRANCH   1  23
HETATM   23  C3  UNL     1      21.696  -2.442 -27.602  1.00  0.00     0.065 C 
BRANCH  23  24
HETATM   24  C2  UNL     1      22.816  -1.976 -26.763  1.00  0.00    -0.034 C 
HETATM   25  C1  UNL     1      23.578  -2.788 -26.050  1.00  0.00     0.007 C 
ENDBRANCH  23  24
ENDBRANCH   1  23
BRANCH  10  26
HETATM   26  C23 UNL     1      18.147  -1.242 -29.580  1.00  0.00     0.177 C 
HETATM   27  O2  UNL     1      17.296  -1.086 -30.490  1.00  0.00    -0.648 OA
HETATM   28  O3  UNL     1      17.982  -2.334 -28.738  1.00  0.00    -0.648 OA
ENDBRANCH  10  26
TORSDOF 8
ENDMDL
MODEL 4
REMARK VINA RESULT: -6.952723102      2.171      6.714
REMARK  8 active torsions:
REMARK  status: ('A' for Active; 'I' for Inactive)
REMARK    1  A    between atoms: C2_2  and  C3_3 
REMARK    2  A    between atoms: C3_3  and  C4_4 
REMARK    3  A    between atoms: C11_11  and  C12_12 
REMARK    4  A    between atoms: C12_12  and  O1_14 
REMARK    5  A    between atoms: C12_12  and  C14_16 
REMARK    6  A    between atoms: C14_16  and  C15_17 
REMARK    7  A    between atoms: C16_18  and  C18_20 
REMARK    8  A    between atoms: C22_24  and  C23_25 
ROOT
HETATM    1  C4  UNL     1      21.510   1.405 -28.552  1.00  0.00     0.069 C 
HETATM    2  C5  UNL     1      21.839   2.350 -29.728  1.00  0.00     0.039 C 
HETATM    3  C6  UNL     1      22.161   1.629 -30.980  1.00  0.00     0.008 C 
HETATM    4  C7  UNL     1      22.806   0.323 -30.607  1.00  0.00     0.003 C 
HETATM    5  C8  UNL     1      21.722  -0.721 -30.582  1.00  0.00     0.037 C 
HETATM    6  C9  UNL     1      20.769  -0.612 -29.439  1.00  0.00     0.123 C 
HETATM    7  C10 UNL     1      21.304  -1.499 -28.324  1.00  0.00     0.040 C 
HETATM    8  C11 UNL     1      22.392  -0.776 -27.585  1.00  0.00     0.030 C 
HETATM    9  C21 UNL     1      22.669   0.599 -28.100  1.00  0.00     0.042 C 
HETATM   10  C22 UNL     1      23.573   0.415 -29.332  1.00  0.00     0.098 C 
HETATM   11  O4  UNL     1      20.448   0.648 -29.025  1.00  0.00    -0.374 OA
ENDROOT
BRANCH   8  12
HETATM   12  C12 UNL     1      22.212  -0.980 -26.135  1.00  0.00     0.061 C 
HETATM   13  C13 UNL     1      22.922  -2.318 -25.811  1.00  0.00     0.046 C 
BRANCH  12  14
HETATM   14  O1  UNL     1      20.900  -1.221 -25.759  1.00  0.00    -0.390 OA
ATOM     15  H1  UNL     1      20.761  -2.078 -25.374  1.00  0.00     0.210 HD
ENDBRANCH  12  14
BRANCH  12  16
HETATM   16  C14 UNL     1      22.890   0.038 -25.261  1.00  0.00     0.065 C 
BRANCH  16  17
HETATM   17  C15 UNL     1      22.743  -0.319 -23.821  1.00  0.00    -0.021 C 
HETATM   18  C16 UNL     1      22.265   0.537 -22.921  1.00  0.00    -0.084 C 
HETATM   19  C17 UNL     1      21.843   1.918 -23.288  1.00  0.00     0.043 C 
BRANCH  18  20
HETATM   20  C18 UNL     1      22.142   0.129 -21.495  1.00  0.00     0.005 C 
HETATM   21  C19 UNL     1      20.909  -0.690 -21.243  1.00  0.00     0.014 C 
HETATM   22  C20 UNL     1      22.111   1.337 -20.592  1.00  0.00     0.014 C 
ENDBRANCH  18  20
ENDBRANCH  16  17
ENDBRANCH  12  16
ENDBRANCH   8  12
BRANCH   1  23
HETATM   23  C3  UNL     1      21.006   2.417 -27.521  1.00  0.00     0.065 C 
BRANCH  23  24
HETATM   24  C2  UNL     1      19.884   1.887 -26.725  1.00  0.00    -0.034 C 
HETATM   25  C1  UNL     1      19.524   2.384 -25.553  1.00  0.00     0.007 C 
ENDBRANCH  23  24
ENDBRANCH   1  23
BRANCH  10  26
HETATM   26  C23 UNL     1      24.651   1.390 -29.421  1.00  0.00     0.177 C 
HETATM   27  O2  UNL     1      25.534   1.287 -30.306  1.00  0.00    -0.648 OA
HETATM   28  O3  UNL     1      24.752   2.462 -28.544  1.00  0.00    -0.648 OA
ENDBRANCH  10  26
TORSDOF 8
ENDMDL
MODEL 5
REMARK VINA RESULT: -6.879038376      1.762      2.391
REMARK  8 active torsions:
REMARK  status: ('A' for Active; 'I' for Inactive)
REMARK    1  A    between atoms: C2_2  and  C3_3 
REMARK    2  A    between atoms: C3_3  and  C4_4 
REMARK    3  A    between atoms: C11_11  and  C12_12 
REMARK    4  A    between atoms: C12_12  and  O1_14 
REMARK    5  A    between atoms: C12_12  and  C14_16 
REMARK    6  A    between atoms: C14_16  and  C15_17 
REMARK    7  A    between atoms: C16_18  and  C18_20 
REMARK    8  A    between atoms: C22_24  and  C23_25 
ROOT
HETATM    1  C4  UNL     1      22.194  -0.477 -23.711  1.00  0.00     0.069 C 
HETATM    2  C5  UNL     1      22.735  -0.291 -22.278  1.00  0.00     0.039 C 
HETATM    3  C6  UNL     1      21.665  -0.114 -21.271  1.00  0.00     0.008 C 
HETATM    4  C7  UNL     1      20.510   0.575 -21.942  1.00  0.00     0.003 C 
HETATM    5  C8  UNL     1      19.555  -0.496 -22.400  1.00  0.00     0.037 C 
HETATM    6  C9  UNL     1      20.029  -1.309 -23.557  1.00  0.00     0.123 C 
HETATM    7  C10 UNL     1      19.497  -0.645 -24.819  1.00  0.00     0.040 C 
HETATM    8  C11 UNL     1      20.372   0.520 -25.180  1.00  0.00     0.030 C 
HETATM    9  C21 UNL     1      21.523   0.730 -24.250  1.00  0.00     0.042 C 
HETATM   10  C22 UNL     1      20.952   1.485 -23.036  1.00  0.00     0.098 C 
HETATM   11  O4  UNL     1      21.364  -1.584 -23.609  1.00  0.00    -0.374 OA
ENDROOT
BRANCH   8  12
HETATM   12  C12 UNL     1      20.615   0.511 -26.636  1.00  0.00     0.061 C 
HETATM   13  C13 UNL     1      22.112   0.868 -26.809  1.00  0.00     0.046 C 
BRANCH  12  14
HETATM   14  O1  UNL     1      19.968   1.526 -27.322  1.00  0.00    -0.390 OA
ATOM     15  H1  UNL     1      20.100   2.389 -26.947  1.00  0.00     0.210 HD
ENDBRANCH  12  14
BRANCH  12  16
HETATM   16  C14 UNL     1      20.460  -0.831 -27.298  1.00  0.00     0.065 C 
BRANCH  16  17
HETATM   17  C15 UNL     1      20.857  -0.761 -28.733  1.00  0.00    -0.021 C 
HETATM   18  C16 UNL     1      20.000  -1.006 -29.722  1.00  0.00    -0.084 C 
HETATM   19  C17 UNL     1      18.579  -1.368 -29.464  1.00  0.00     0.043 C 
BRANCH  18  20
HETATM   20  C18 UNL     1      20.451  -0.925 -31.137  1.00  0.00     0.005 C 
HETATM   21  C19 UNL     1      20.577  -2.280 -31.772  1.00  0.00     0.014 C 
HETATM   22  C20 UNL     1      21.782  -0.221 -31.236  1.00  0.00     0.014 C 
ENDBRANCH  18  20
ENDBRANCH  16  17
ENDBRANCH  12  16
ENDBRANCH   8  12
BRANCH   1  23
HETATM   23  C3  UNL     1      23.482  -0.861 -24.442  1.00  0.00     0.065 C 
BRANCH  23  24
HETATM   24  C2  UNL     1      23.438  -2.242 -24.958  1.00  0.00    -0.034 C 
HETATM   25  C1  UNL     1      23.271  -2.536 -26.237  1.00  0.00     0.007 C 
ENDBRANCH  23  24
ENDBRANCH   1  23
BRANCH  10  26
HETATM   26  C23 UNL     1      21.822   2.541 -22.540  1.00  0.00     0.177 C 
HETATM   27  O2  UNL     1      22.934   2.759 -23.079  1.00  0.00    -0.648 OA
HETATM   28  O3  UNL     1      21.469   3.345 -21.464  1.00  0.00    -0.648 OA
ENDBRANCH  10  26
TORSDOF 8
ENDMDL
