MODEL 1
REMARK VINA RESULT: -7.418219629      0.000      0.000
REMARK  7 active torsions:
REMARK  status: ('A' for Active; 'I' for Inactive)
REMARK    1  A    between atoms: C2_2  and  O1_3 
REMARK    2  A    between atoms: C11_13  and  C13_15 
REMARK    3  A    between atoms: C14_16  and  C15_17 
REMARK    4  A    between atoms: N1_20  and  C18_21 
REMARK    5  A    between atoms: C18_21  and  C19_22 
REMARK    6  A    between atoms: C19_22  and  C20_23 
REMARK    7  A    between atoms: C20_23  and  N2_24 
ROOT
HETATM    1  C1  UNL     1      -2.202   0.374  -8.339  1.00  0.00     0.046 C 
HETATM    2  C2  UNL     1      -0.893  -0.352  -8.348  1.00  0.00     0.058 C 
HETATM    3  C3  UNL     1       0.171   0.482  -8.982  1.00  0.00     0.038 C 
HETATM    4  C4  UNL     1       1.506   0.366  -8.288  1.00  0.00     0.003 C 
HETATM    5  C5  UNL     1       1.402   0.802  -6.822  1.00  0.00     0.006 C 
HETATM    6  C6  UNL     1       0.030   0.509  -6.278  1.00  0.00     0.004 C 
HETATM    7  C7  UNL     1      -0.420  -0.733  -6.956  1.00  0.00     0.025 C 
HETATM    8  C8  UNL     1      -1.376  -1.610  -6.239  1.00  0.00     0.008 C 
HETATM    9  C9  UNL     1      -0.860  -1.906  -4.880  1.00  0.00     0.002 C 
HETATM   10  C10 UNL     1       0.136  -0.939  -4.330  1.00  0.00     0.013 C 
HETATM   11  C11 UNL     1      -0.054   0.479  -4.758  1.00  0.00    -0.022 C 
HETATM   12  C12 UNL     1       1.076   1.288  -4.155  1.00  0.00     0.020 C 
ENDROOT
BRANCH  11  13
HETATM   13  C13 UNL     1      -1.351   1.086  -4.403  1.00  0.00    -0.016 C 
HETATM   14  C14 UNL     1      -2.073   0.827  -3.178  1.00  0.00     0.009 C 
BRANCH  14  15
HETATM   15  C15 UNL     1      -1.524   1.129  -1.854  1.00  0.00    -0.020 A 
HETATM   16  C16 UNL     1      -1.706   2.259  -1.065  1.00  0.00     0.030 A 
HETATM   17  C17 UNL     1      -1.008   2.156   0.092  1.00  0.00     0.091 A 
HETATM   18  N1  UNL     1      -0.377   0.974   0.064  1.00  0.00    -0.366 N 
HETATM   19  C21 UNL     1      -0.659   0.326  -1.087  1.00  0.00     0.101 A 
BRANCH  18  20
HETATM   20  C18 UNL     1       0.483   0.503   1.149  1.00  0.00     0.129 C 
BRANCH  20  21
HETATM   21  C19 UNL     1       1.284  -0.660   0.613  1.00  0.00     0.047 C 
BRANCH  21  22
HETATM   22  C20 UNL     1       1.171  -1.870   1.502  1.00  0.00     0.231 C 
BRANCH  22  23
HETATM   23  N2  UNL     1      -0.239  -2.094   1.767  1.00  0.00    -0.079 N 
ATOM     24  H23 UNL     1      -0.848  -1.597   1.118  1.00  0.00     0.274 HD
ATOM     25  H22 UNL     1      -0.541  -3.041   1.537  1.00  0.00     0.274 HD
ATOM     26  H21 UNL     1      -0.414  -1.848   2.742  1.00  0.00     0.274 HD
ENDBRANCH  22  23
ENDBRANCH  21  22
ENDBRANCH  20  21
ENDBRANCH  18  20
ENDBRANCH  14  15
ENDBRANCH  11  13
BRANCH   2  27
HETATM   27  O1  UNL     1      -1.098  -1.571  -9.029  1.00  0.00    -0.390 OA
ATOM     28  H1  UNL     1      -1.272  -2.234  -8.371  1.00  0.00     0.210 HD
ENDBRANCH   2  27
TORSDOF 7
ENDMDL
MODEL 2
REMARK VINA RESULT: -7.412101105      1.613      3.342
REMARK  7 active torsions:
REMARK  status: ('A' for Active; 'I' for Inactive)
REMARK    1  A    between atoms: C2_2  and  O1_3 
REMARK    2  A    between atoms: C11_13  and  C13_15 
REMARK    3  A    between atoms: C14_16  and  C15_17 
REMARK    4  A    between atoms: N1_20  and  C18_21 
REMARK    5  A    between atoms: C18_21  and  C19_22 
REMARK    6  A    between atoms: C19_22  and  C20_23 
REMARK    7  A    between atoms: C20_23  and  N2_24 
ROOT
HETATM    1  C1  UNL     1       2.101  -0.515  -8.438  1.00  0.00     0.046 C 
HETATM    2  C2  UNL     1       0.810   0.246  -8.444  1.00  0.00     0.058 C 
HETATM    3  C3  UNL     1      -0.285  -0.575  -9.040  1.00  0.00     0.038 C 
HETATM    4  C4  UNL     1      -1.605  -0.406  -8.327  1.00  0.00     0.003 C 
HETATM    5  C5  UNL     1      -1.487  -0.809  -6.852  1.00  0.00     0.006 C 
HETATM    6  C6  UNL     1      -0.098  -0.540  -6.338  1.00  0.00     0.004 C 
HETATM    7  C7  UNL     1       0.372   0.673  -7.055  1.00  0.00     0.025 C 
HETATM    8  C8  UNL     1       1.363   1.541  -6.375  1.00  0.00     0.008 C 
HETATM    9  C9  UNL     1       0.879   1.885  -5.016  1.00  0.00     0.002 C 
HETATM   10  C10 UNL     1      -0.134   0.959  -4.426  1.00  0.00     0.013 C 
HETATM   11  C11 UNL     1       0.012  -0.474  -4.822  1.00  0.00    -0.022 C 
HETATM   12  C12 UNL     1      -1.128  -1.238  -4.180  1.00  0.00     0.020 C 
ENDROOT
BRANCH  11  13
HETATM   13  C13 UNL     1       1.299  -1.107  -4.473  1.00  0.00    -0.016 C 
HETATM   14  C14 UNL     1       2.025  -0.872  -3.245  1.00  0.00     0.009 C 
BRANCH  14  15
HETATM   15  C15 UNL     1       1.471  -1.177  -1.924  1.00  0.00    -0.020 A 
HETATM   16  C16 UNL     1       1.570  -2.347  -1.180  1.00  0.00     0.030 A 
HETATM   17  C17 UNL     1       0.900  -2.231  -0.009  1.00  0.00     0.091 A 
HETATM   18  N1  UNL     1       0.367  -1.001   0.017  1.00  0.00    -0.366 N 
HETATM   19  C21 UNL     1       0.686  -0.336  -1.114  1.00  0.00     0.101 A 
BRANCH  18  20
HETATM   20  C18 UNL     1      -0.436  -0.502   1.133  1.00  0.00     0.129 C 
BRANCH  20  21
HETATM   21  C19 UNL     1      -1.230   0.676   0.621  1.00  0.00     0.047 C 
BRANCH  21  22
HETATM   22  C20 UNL     1      -1.168   1.844   1.571  1.00  0.00     0.231 C 
BRANCH  22  23
HETATM   23  N2  UNL     1       0.232   2.155   1.798  1.00  0.00    -0.079 N 
ATOM     24  H23 UNL     1       0.863   1.553   1.268  1.00  0.00     0.274 HD
ATOM     25  H22 UNL     1       0.514   3.043   1.383  1.00  0.00     0.274 HD
ATOM     26  H21 UNL     1       0.399   2.115   2.804  1.00  0.00     0.274 HD
ENDBRANCH  22  23
ENDBRANCH  21  22
ENDBRANCH  20  21
ENDBRANCH  18  20
ENDBRANCH  14  15
ENDBRANCH  11  13
BRANCH   2  27
HETATM   27  O1  UNL     1       1.036   1.442  -9.159  1.00  0.00    -0.390 OA
ATOM     28  H1  UNL     1       1.085   1.213 -10.079  1.00  0.00     0.210 HD
ENDBRANCH   2  27
TORSDOF 7
ENDMDL
MODEL 3
REMARK VINA RESULT: -7.201418208      0.990      1.378
REMARK  7 active torsions:
REMARK  status: ('A' for Active; 'I' for Inactive)
REMARK    1  A    between atoms: C2_2  and  O1_3 
REMARK    2  A    between atoms: C11_13  and  C13_15 
REMARK    3  A    between atoms: C14_16  and  C15_17 
REMARK    4  A    between atoms: N1_20  and  C18_21 
REMARK    5  A    between atoms: C18_21  and  C19_22 
REMARK    6  A    between atoms: C19_22  and  C20_23 
REMARK    7  A    between atoms: C20_23  and  N2_24 
ROOT
HETATM    1  C1  UNL     1      -2.180   0.483  -8.356  1.00  0.00     0.046 C 
HETATM    2  C2  UNL     1      -0.877  -0.255  -8.382  1.00  0.00     0.058 C 
HETATM    3  C3  UNL     1       0.197   0.587  -8.988  1.00  0.00     0.038 C 
HETATM    4  C4  UNL     1       1.528   0.438  -8.292  1.00  0.00     0.003 C 
HETATM    5  C5  UNL     1       1.422   0.832  -6.814  1.00  0.00     0.006 C 
HETATM    6  C6  UNL     1       0.045   0.537  -6.284  1.00  0.00     0.004 C 
HETATM    7  C7  UNL     1      -0.413  -0.680  -7.000  1.00  0.00     0.025 C 
HETATM    8  C8  UNL     1      -1.380  -1.569  -6.312  1.00  0.00     0.008 C 
HETATM    9  C9  UNL     1      -0.873  -1.910  -4.960  1.00  0.00     0.002 C 
HETATM   10  C10 UNL     1       0.130  -0.968  -4.379  1.00  0.00     0.013 C 
HETATM   11  C11 UNL     1      -0.045   0.464  -4.766  1.00  0.00    -0.022 C 
HETATM   12  C12 UNL     1       1.090   1.244  -4.136  1.00  0.00     0.020 C 
ENDROOT
BRANCH  11  13
HETATM   13  C13 UNL     1      -1.338   1.072  -4.399  1.00  0.00    -0.016 C 
HETATM   14  C14 UNL     1      -2.045   0.818  -3.164  1.00  0.00     0.009 C 
BRANCH  14  15
HETATM   15  C15 UNL     1      -1.481   1.126  -1.848  1.00  0.00    -0.020 A 
HETATM   16  C16 UNL     1      -1.610   2.281  -1.085  1.00  0.00     0.030 A 
HETATM   17  C17 UNL     1      -0.916   2.174   0.073  1.00  0.00     0.091 A 
HETATM   18  N1  UNL     1      -0.339   0.964   0.072  1.00  0.00    -0.366 N 
HETATM   19  C21 UNL     1      -0.652   0.303  -1.063  1.00  0.00     0.101 A 
BRANCH  18  20
HETATM   20  C18 UNL     1       0.501   0.480   1.167  1.00  0.00     0.129 C 
BRANCH  20  21
HETATM   21  C19 UNL     1      -0.349   0.477   2.415  1.00  0.00     0.047 C 
BRANCH  21  22
HETATM   22  C20 UNL     1       0.380   1.079   3.588  1.00  0.00     0.231 C 
BRANCH  22  23
HETATM   23  N2  UNL     1       0.165   2.515   3.552  1.00  0.00    -0.079 N 
ATOM     24  H23 UNL     1      -0.822   2.767   3.492  1.00  0.00     0.274 HD
ATOM     25  H22 UNL     1       0.365   2.969   4.443  1.00  0.00     0.274 HD
ATOM     26  H21 UNL     1       0.717   2.891   2.781  1.00  0.00     0.274 HD
ENDBRANCH  22  23
ENDBRANCH  21  22
ENDBRANCH  20  21
ENDBRANCH  18  20
ENDBRANCH  14  15
ENDBRANCH  11  13
BRANCH   2  27
HETATM   27  O1  UNL     1      -1.091  -1.452  -9.099  1.00  0.00    -0.390 OA
ATOM     28  H1  UNL     1      -0.335  -2.008  -8.948  1.00  0.00     0.210 HD
ENDBRANCH   2  27
TORSDOF 7
ENDMDL
MODEL 4
REMARK VINA RESULT: -7.191140302      1.755      3.132
REMARK  7 active torsions:
REMARK  status: ('A' for Active; 'I' for Inactive)
REMARK    1  A    between atoms: C2_2  and  O1_3 
REMARK    2  A    between atoms: C11_13  and  C13_15 
REMARK    3  A    between atoms: C14_16  and  C15_17 
REMARK    4  A    between atoms: N1_20  and  C18_21 
REMARK    5  A    between atoms: C18_21  and  C19_22 
REMARK    6  A    between atoms: C19_22  and  C20_23 
REMARK    7  A    between atoms: C20_23  and  N2_24 
ROOT
HETATM    1  C1  UNL     1       2.080  -0.512  -8.508  1.00  0.00     0.046 C 
HETATM    2  C2  UNL     1       0.797   0.261  -8.503  1.00  0.00     0.058 C 
HETATM    3  C3  UNL     1      -0.308  -0.543  -9.102  1.00  0.00     0.038 C 
HETATM    4  C4  UNL     1      -1.624  -0.368  -8.383  1.00  0.00     0.003 C 
HETATM    5  C5  UNL     1      -1.505  -0.785  -6.912  1.00  0.00     0.006 C 
HETATM    6  C6  UNL     1      -0.112  -0.535  -6.401  1.00  0.00     0.004 C 
HETATM    7  C7  UNL     1       0.368   0.680  -7.108  1.00  0.00     0.025 C 
HETATM    8  C8  UNL     1       1.370   1.532  -6.424  1.00  0.00     0.008 C 
HETATM    9  C9  UNL     1       0.894   1.868  -5.060  1.00  0.00     0.002 C 
HETATM   10  C10 UNL     1      -0.126   0.946  -4.474  1.00  0.00     0.013 C 
HETATM   11  C11 UNL     1       0.004  -0.485  -4.884  1.00  0.00    -0.022 C 
HETATM   12  C12 UNL     1      -1.141  -1.243  -4.245  1.00  0.00     0.020 C 
ENDROOT
BRANCH  11  13
HETATM   13  C13 UNL     1       1.287  -1.133  -4.545  1.00  0.00    -0.016 C 
HETATM   14  C14 UNL     1       2.036  -0.891  -3.334  1.00  0.00     0.009 C 
BRANCH  14  15
HETATM   15  C15 UNL     1       1.498  -1.167  -1.999  1.00  0.00    -0.020 A 
HETATM   16  C16 UNL     1       1.630  -2.310  -1.219  1.00  0.00     0.030 A 
HETATM   17  C17 UNL     1       0.965  -2.172  -0.047  1.00  0.00     0.091 A 
HETATM   18  N1  UNL     1       0.404  -0.955  -0.057  1.00  0.00    -0.366 N 
HETATM   19  C21 UNL     1       0.699  -0.319  -1.211  1.00  0.00     0.101 A 
BRANCH  18  20
HETATM   20  C18 UNL     1      -0.404  -0.440   1.049  1.00  0.00     0.129 C 
BRANCH  20  21
HETATM   21  C19 UNL     1       0.453  -0.491   2.291  1.00  0.00     0.047 C 
BRANCH  21  22
HETATM   22  C20 UNL     1      -0.298  -1.067   3.463  1.00  0.00     0.231 C 
BRANCH  22  23
HETATM   23  N2  UNL     1      -0.161  -2.511   3.407  1.00  0.00    -0.079 N 
ATOM     24  H23 UNL     1      -0.912  -2.961   2.882  1.00  0.00     0.274 HD
ATOM     25  H22 UNL     1       0.615  -2.814   2.819  1.00  0.00     0.274 HD
ATOM     26  H21 UNL     1      -0.089  -2.853   4.366  1.00  0.00     0.274 HD
ENDBRANCH  22  23
ENDBRANCH  21  22
ENDBRANCH  20  21
ENDBRANCH  18  20
ENDBRANCH  14  15
ENDBRANCH  11  13
BRANCH   2  27
HETATM   27  O1  UNL     1       1.032   1.461  -9.207  1.00  0.00    -0.390 OA
ATOM     28  H1  UNL     1       1.243   1.224 -10.102  1.00  0.00     0.210 HD
ENDBRANCH   2  27
TORSDOF 7
ENDMDL
MODEL 5
REMARK VINA RESULT: -7.165121191      3.771      7.356
REMARK  7 active torsions:
REMARK  status: ('A' for Active; 'I' for Inactive)
REMARK    1  A    between atoms: C2_2  and  O1_3 
REMARK    2  A    between atoms: C11_13  and  C13_15 
REMARK    3  A    between atoms: C14_16  and  C15_17 
REMARK    4  A    between atoms: N1_20  and  C18_21 
REMARK    5  A    between atoms: C18_21  and  C19_22 
REMARK    6  A    between atoms: C19_22  and  C20_23 
REMARK    7  A    between atoms: C20_23  and  N2_24 
ROOT
HETATM    1  C1  UNL     1      -0.594   2.524   0.111  1.00  0.00     0.046 C 
HETATM    2  C2  UNL     1      -1.676   1.505  -0.078  1.00  0.00     0.058 C 
HETATM    3  C3  UNL     1      -3.003   2.167  -0.249  1.00  0.00     0.038 C 
HETATM    4  C4  UNL     1      -3.873   1.490  -1.280  1.00  0.00     0.003 C 
HETATM    5  C5  UNL     1      -3.191   1.479  -2.653  1.00  0.00     0.006 C 
HETATM    6  C6  UNL     1      -1.695   1.424  -2.502  1.00  0.00     0.004 C 
HETATM    7  C7  UNL     1      -1.440   0.613  -1.284  1.00  0.00     0.025 C 
HETATM    8  C8  UNL     1      -0.167  -0.142  -1.206  1.00  0.00     0.008 C 
HETATM    9  C9  UNL     1       0.007  -0.960  -2.431  1.00  0.00     0.002 C 
HETATM   10  C10 UNL     1      -0.758  -0.511  -3.634  1.00  0.00     0.013 C 
HETATM   11  C11 UNL     1      -0.950   0.965  -3.748  1.00  0.00    -0.022 C 
HETATM   12  C12 UNL     1      -1.791   1.217  -4.983  1.00  0.00     0.020 C 
ENDROOT
BRANCH  11  13
HETATM   13  C13 UNL     1       0.286   1.769  -3.810  1.00  0.00    -0.016 C 
HETATM   14  C14 UNL     1       1.437   1.445  -4.622  1.00  0.00     0.009 C 
BRANCH  14  15
HETATM   15  C15 UNL     1       1.377   1.352  -6.083  1.00  0.00    -0.020 A 
HETATM   16  C16 UNL     1       1.658   2.322  -7.037  1.00  0.00     0.030 A 
HETATM   17  C17 UNL     1       1.464   1.839  -8.287  1.00  0.00     0.091 A 
HETATM   18  N1  UNL     1       1.061   0.568  -8.157  1.00  0.00    -0.366 N 
HETATM   19  C21 UNL     1       0.995   0.235  -6.850  1.00  0.00     0.101 A 
BRANCH  18  20
HETATM   20  C18 UNL     1       0.749  -0.292  -9.299  1.00  0.00     0.129 C 
BRANCH  20  21
HETATM   21  C19 UNL     1      -0.620  -0.880  -9.055  1.00  0.00     0.047 C 
BRANCH  21  22
HETATM   22  C20 UNL     1      -0.583  -2.386  -9.028  1.00  0.00     0.231 C 
BRANCH  22  23
HETATM   23  N2  UNL     1       0.525  -2.815  -9.863  1.00  0.00    -0.079 N 
ATOM     24  H23 UNL     1       0.373  -2.623 -10.853  1.00  0.00     0.274 HD
ATOM     25  H22 UNL     1       1.359  -2.240  -9.741  1.00  0.00     0.274 HD
ATOM     26  H21 UNL     1       0.692  -3.803  -9.671  1.00  0.00     0.274 HD
ENDBRANCH  22  23
ENDBRANCH  21  22
ENDBRANCH  20  21
ENDBRANCH  18  20
ENDBRANCH  14  15
ENDBRANCH  11  13
BRANCH   2  27
HETATM   27  O1  UNL     1      -1.642   0.650   1.043  1.00  0.00    -0.390 OA
ATOM     28  H1  UNL     1      -2.524   0.322   1.172  1.00  0.00     0.210 HD
ENDBRANCH   2  27
TORSDOF 7
ENDMDL
