MODEL 1
REMARK VINA RESULT: -8.277217984      0.000      0.000
REMARK  8 active torsions:
REMARK  status: ('A' for Active; 'I' for Inactive)
REMARK    1  A    between atoms: C2_2  and  N1_5 
REMARK    2  A    between atoms: N1_5  and  C5_6 
REMARK    3  A    between atoms: N1_5  and  C11_12 
REMARK    4  A    between atoms: C14_15  and  C15_16 
REMARK    5  A    between atoms: C14_15  and  C20_23 
REMARK    6  A    between atoms: C15_16  and  C16_17 
REMARK    7  A    between atoms: C17_18  and  C18_19 
REMARK    8  A    between atoms: C18_19  and  C19_20 
ROOT
HETATM    1  C11 UNL     1       0.329  -0.483   5.287  1.00  0.00    -0.015 C 
HETATM    2  C12 UNL     1      -0.802  -0.164   6.219  1.00  0.00     0.053 C 
HETATM    3  C13 UNL     1      -0.216   0.407   7.486  1.00  0.00     0.026 C 
HETATM    4  C14 UNL     1       0.612  -0.601   8.179  1.00  0.00     0.052 C 
HETATM    5  C21 UNL     1       1.683  -1.136   7.291  1.00  0.00     0.026 C 
HETATM    6  C22 UNL     1       1.242  -1.525   5.905  1.00  0.00     0.053 C 
ENDROOT
BRANCH   1   7
HETATM    7  N1  UNL     1       0.143  -0.551   3.919  1.00  0.00    -0.374 N 
BRANCH   7   8
HETATM    8  C2  UNL     1      -0.884  -1.243   3.292  1.00  0.00     0.021 C 
HETATM    9  C1  UNL     1      -0.519  -1.319   1.784  1.00  0.00     0.037 C 
HETATM   10  C3  UNL     1      -0.937  -2.757   3.581  1.00  0.00     0.037 C 
HETATM   11  C4  UNL     1      -2.281  -0.762   3.338  1.00  0.00     0.037 C 
ENDBRANCH   7   8
BRANCH   7  12
HETATM   12  C5  UNL     1       0.834   0.444   3.151  1.00  0.00     0.085 C 
HETATM   13  C6  UNL     1       0.353   1.854   3.353  1.00  0.00     0.025 C 
HETATM   14  C7  UNL     1       1.424   2.810   2.782  1.00  0.00     0.002 C 
HETATM   15  C8  UNL     1       2.021   2.243   1.520  1.00  0.00     0.000 C 
HETATM   16  C9  UNL     1       2.882   1.072   1.924  1.00  0.00     0.002 C 
HETATM   17  C10 UNL     1       2.324   0.413   3.196  1.00  0.00     0.025 C 
ENDBRANCH   7  12
ENDBRANCH   1   7
BRANCH   4  18
HETATM   18  C15 UNL     1       1.272   0.010   9.445  1.00  0.00     0.047 C 
BRANCH  18  19
HETATM   19  C16 UNL     1       0.422   0.934  10.146  1.00  0.00    -0.029 C 
HETATM   20  C17 UNL     1      -0.049   0.765  11.345  1.00  0.00    -0.020 C 
BRANCH  20  21
HETATM   21  C18 UNL     1       0.192  -0.396  12.216  1.00  0.00     0.140 C 
BRANCH  21  22
HETATM   22  C19 UNL     1       0.023  -0.054  13.659  1.00  0.00     0.176 C 
HETATM   23  O1  UNL     1      -1.104  -0.060  14.196  1.00  0.00    -0.648 OA
HETATM   24  O2  UNL     1       1.124   0.279  14.433  1.00  0.00    -0.648 OA
ENDBRANCH  21  22
ENDBRANCH  20  21
ENDBRANCH  18  19
ENDBRANCH   4  18
BRANCH   4  25
HETATM   25  C20 UNL     1      -0.212  -1.696   8.751  1.00  0.00     0.182 C 
HETATM   26  O3  UNL     1      -1.448  -1.654   8.827  1.00  0.00    -0.647 OA
HETATM   27  O4  UNL     1       0.468  -2.816   9.218  1.00  0.00    -0.647 OA
ENDBRANCH   4  25
TORSDOF 8
ENDMDL
MODEL 2
REMARK VINA RESULT: -8.262373625      1.673      3.586
REMARK  8 active torsions:
REMARK  status: ('A' for Active; 'I' for Inactive)
REMARK    1  A    between atoms: C2_2  and  N1_5 
REMARK    2  A    between atoms: N1_5  and  C5_6 
REMARK    3  A    between atoms: N1_5  and  C11_12 
REMARK    4  A    between atoms: C14_15  and  C15_16 
REMARK    5  A    between atoms: C14_15  and  C20_23 
REMARK    6  A    between atoms: C15_16  and  C16_17 
REMARK    7  A    between atoms: C17_18  and  C18_19 
REMARK    8  A    between atoms: C18_19  and  C19_20 
ROOT
HETATM    1  C11 UNL     1      -0.320   0.488   5.268  1.00  0.00    -0.015 C 
HETATM    2  C12 UNL     1       0.801   0.153   6.209  1.00  0.00     0.053 C 
HETATM    3  C13 UNL     1       0.198  -0.409   7.471  1.00  0.00     0.026 C 
HETATM    4  C14 UNL     1      -0.621   0.610   8.158  1.00  0.00     0.052 C 
HETATM    5  C21 UNL     1      -1.678   1.160   7.263  1.00  0.00     0.026 C 
HETATM    6  C22 UNL     1      -1.222   1.543   5.880  1.00  0.00     0.053 C 
ENDROOT
BRANCH   1   7
HETATM    7  N1  UNL     1      -0.122   0.554   3.902  1.00  0.00    -0.374 N 
BRANCH   7   8
HETATM    8  C2  UNL     1       0.914   1.238   3.282  1.00  0.00     0.021 C 
HETATM    9  C1  UNL     1       0.522   1.387   1.786  1.00  0.00     0.037 C 
HETATM   10  C3  UNL     1       1.021   2.737   3.630  1.00  0.00     0.037 C 
HETATM   11  C4  UNL     1       2.295   0.712   3.279  1.00  0.00     0.037 C 
ENDBRANCH   7   8
BRANCH   7  12
HETATM   12  C5  UNL     1      -0.815  -0.439   3.130  1.00  0.00     0.085 C 
HETATM   13  C6  UNL     1      -0.356  -1.853   3.350  1.00  0.00     0.025 C 
HETATM   14  C7  UNL     1      -1.430  -2.798   2.769  1.00  0.00     0.002 C 
HETATM   15  C8  UNL     1      -1.998  -2.234   1.492  1.00  0.00     0.000 C 
HETATM   16  C9  UNL     1      -2.850  -1.048   1.873  1.00  0.00     0.002 C 
HETATM   17  C10 UNL     1      -2.304  -0.387   3.150  1.00  0.00     0.025 C 
ENDBRANCH   7  12
ENDBRANCH   1   7
BRANCH   4  18
HETATM   18  C15 UNL     1      -1.299   0.009   9.420  1.00  0.00     0.047 C 
BRANCH  18  19
HETATM   19  C16 UNL     1      -0.498  -0.986  10.082  1.00  0.00    -0.029 C 
HETATM   20  C17 UNL     1       0.117  -0.828  11.214  1.00  0.00    -0.020 C 
BRANCH  20  21
HETATM   21  C18 UNL     1       0.117   0.392  12.038  1.00  0.00     0.140 C 
BRANCH  21  22
HETATM   22  C19 UNL     1       0.037   0.079  13.496  1.00  0.00     0.176 C 
HETATM   23  O1  UNL     1      -1.053  -0.195  14.038  1.00  0.00    -0.648 OA
HETATM   24  O2  UNL     1       1.182   0.090  14.277  1.00  0.00    -0.648 OA
ENDBRANCH  21  22
ENDBRANCH  20  21
ENDBRANCH  18  19
ENDBRANCH   4  18
BRANCH   4  25
HETATM   25  C20 UNL     1       0.215   1.693   8.736  1.00  0.00     0.182 C 
HETATM   26  O3  UNL     1       1.447   1.627   8.837  1.00  0.00    -0.647 OA
HETATM   27  O4  UNL     1      -0.452   2.831   9.180  1.00  0.00    -0.647 OA
ENDBRANCH   4  25
TORSDOF 8
ENDMDL
MODEL 3
REMARK VINA RESULT: -8.066210117      0.893      2.789
REMARK  8 active torsions:
REMARK  status: ('A' for Active; 'I' for Inactive)
REMARK    1  A    between atoms: C2_2  and  N1_5 
REMARK    2  A    between atoms: N1_5  and  C5_6 
REMARK    3  A    between atoms: N1_5  and  C11_12 
REMARK    4  A    between atoms: C14_15  and  C15_16 
REMARK    5  A    between atoms: C14_15  and  C20_23 
REMARK    6  A    between atoms: C15_16  and  C16_17 
REMARK    7  A    between atoms: C17_18  and  C18_19 
REMARK    8  A    between atoms: C18_19  and  C19_20 
ROOT
HETATM    1  C11 UNL     1       0.193   0.189   5.695  1.00  0.00    -0.015 C 
HETATM    2  C12 UNL     1      -0.882   0.597   6.660  1.00  0.00     0.053 C 
HETATM    3  C13 UNL     1      -0.224   0.955   7.968  1.00  0.00     0.026 C 
HETATM    4  C14 UNL     1       0.433  -0.226   8.563  1.00  0.00     0.052 C 
HETATM    5  C21 UNL     1       1.414  -0.839   7.625  1.00  0.00     0.026 C 
HETATM    6  C22 UNL     1       0.929  -1.032   6.213  1.00  0.00     0.053 C 
ENDROOT
BRANCH   1   7
HETATM    7  N1  UNL     1       0.008   0.272   4.328  1.00  0.00    -0.374 N 
BRANCH   7   8
HETATM    8  C2  UNL     1       0.900   0.857   3.440  1.00  0.00     0.021 C 
HETATM    9  C1  UNL     1       1.695   1.925   4.241  1.00  0.00     0.037 C 
HETATM   10  C3  UNL     1       2.090  -0.029   3.016  1.00  0.00     0.037 C 
HETATM   11  C4  UNL     1       0.435   1.543   2.217  1.00  0.00     0.037 C 
ENDBRANCH   7   8
BRANCH   7  12
HETATM   12  C5  UNL     1      -0.979  -0.617   3.784  1.00  0.00     0.085 C 
HETATM   13  C6  UNL     1      -2.224   0.049   3.270  1.00  0.00     0.025 C 
HETATM   14  C7  UNL     1      -2.980  -0.968   2.388  1.00  0.00     0.002 C 
HETATM   15  C8  UNL     1      -2.888  -2.352   2.977  1.00  0.00     0.000 C 
HETATM   16  C9  UNL     1      -1.468  -2.821   2.785  1.00  0.00     0.002 C 
HETATM   17  C10 UNL     1      -0.504  -1.622   2.792  1.00  0.00     0.025 C 
ENDBRANCH   7  12
ENDBRANCH   1   7
BRANCH   4  18
HETATM   18  C15 UNL     1       1.171   0.161   9.875  1.00  0.00     0.047 C 
BRANCH  18  19
HETATM   19  C16 UNL     1       0.480   1.157  10.649  1.00  0.00    -0.029 C 
HETATM   20  C17 UNL     1      -0.091   0.957  11.798  1.00  0.00    -0.020 C 
BRANCH  20  21
HETATM   21  C18 UNL     1      -0.143  -0.319  12.530  1.00  0.00     0.140 C 
BRANCH  21  22
HETATM   22  C19 UNL     1      -0.304  -0.112  13.999  1.00  0.00     0.176 C 
HETATM   23  O1  UNL     1      -1.412  -0.258  14.554  1.00  0.00    -0.648 OA
HETATM   24  O2  UNL     1       0.785   0.250  14.778  1.00  0.00    -0.648 OA
ENDBRANCH  21  22
ENDBRANCH  20  21
ENDBRANCH  18  19
ENDBRANCH   4  18
BRANCH   4  25
HETATM   25  C20 UNL     1      -0.555  -1.226   9.041  1.00  0.00     0.182 C 
HETATM   26  O3  UNL     1      -1.766  -0.991   9.157  1.00  0.00    -0.647 OA
HETATM   27  O4  UNL     1      -0.064  -2.485   9.371  1.00  0.00    -0.647 OA
ENDBRANCH   4  25
TORSDOF 8
ENDMDL
MODEL 4
REMARK VINA RESULT: -7.955664497      1.384      1.912
REMARK  8 active torsions:
REMARK  status: ('A' for Active; 'I' for Inactive)
REMARK    1  A    between atoms: C2_2  and  N1_5 
REMARK    2  A    between atoms: N1_5  and  C5_6 
REMARK    3  A    between atoms: N1_5  and  C11_12 
REMARK    4  A    between atoms: C14_15  and  C15_16 
REMARK    5  A    between atoms: C14_15  and  C20_23 
REMARK    6  A    between atoms: C15_16  and  C16_17 
REMARK    7  A    between atoms: C17_18  and  C18_19 
REMARK    8  A    between atoms: C18_19  and  C19_20 
ROOT
HETATM    1  C11 UNL     1      -0.275  -0.365   5.259  1.00  0.00    -0.015 C 
HETATM    2  C12 UNL     1       0.773  -0.879   6.203  1.00  0.00     0.053 C 
HETATM    3  C13 UNL     1       0.125  -1.095   7.547  1.00  0.00     0.026 C 
HETATM    4  C14 UNL     1      -0.342   0.186   8.114  1.00  0.00     0.052 C 
HETATM    5  C21 UNL     1      -1.269   0.891   7.184  1.00  0.00     0.026 C 
HETATM    6  C22 UNL     1      -0.819   0.963   5.750  1.00  0.00     0.053 C 
ENDROOT
BRANCH   1   7
HETATM    7  N1  UNL     1      -0.158  -0.524   3.892  1.00  0.00    -0.374 N 
BRANCH   7   8
HETATM    8  C2  UNL     1      -1.060  -1.210   3.092  1.00  0.00     0.021 C 
HETATM    9  C1  UNL     1      -0.432  -1.293   1.673  1.00  0.00     0.037 C 
HETATM   10  C3  UNL     1      -1.174  -2.723   3.368  1.00  0.00     0.037 C 
HETATM   11  C4  UNL     1      -2.440  -0.720   2.886  1.00  0.00     0.037 C 
ENDBRANCH   7   8
BRANCH   7  12
HETATM   12  C5  UNL     1       0.747   0.381   3.241  1.00  0.00     0.085 C 
HETATM   13  C6  UNL     1       0.338   1.827   3.274  1.00  0.00     0.025 C 
HETATM   14  C7  UNL     1       1.570   2.679   2.898  1.00  0.00     0.002 C 
HETATM   15  C8  UNL     1       2.370   2.004   1.813  1.00  0.00     0.000 C 
HETATM   16  C9  UNL     1       3.043   0.808   2.440  1.00  0.00     0.002 C 
HETATM   17  C10 UNL     1       2.189   0.260   3.597  1.00  0.00     0.025 C 
ENDBRANCH   7  12
ENDBRANCH   1   7
BRANCH   4  18
HETATM   18  C15 UNL     1      -1.072  -0.048   9.465  1.00  0.00     0.047 C 
BRANCH  18  19
HETATM   19  C16 UNL     1      -0.495  -1.103  10.254  1.00  0.00    -0.029 C 
HETATM   20  C17 UNL     1       0.057  -0.957  11.420  1.00  0.00    -0.020 C 
BRANCH  20  21
HETATM   21  C18 UNL     1       0.200   0.307  12.160  1.00  0.00     0.140 C 
BRANCH  21  22
HETATM   22  C19 UNL     1       0.081   0.106  13.634  1.00  0.00     0.176 C 
HETATM   23  O1  UNL     1      -1.013  -0.184  14.160  1.00  0.00    -0.648 OA
HETATM   24  O2  UNL     1       1.193   0.241  14.451  1.00  0.00    -0.648 OA
ENDBRANCH  21  22
ENDBRANCH  20  21
ENDBRANCH  18  19
ENDBRANCH   4  18
BRANCH   4  25
HETATM   25  C20 UNL     1       0.789   1.059   8.515  1.00  0.00     0.182 C 
HETATM   26  O3  UNL     1       1.976   0.709   8.463  1.00  0.00    -0.647 OA
HETATM   27  O4  UNL     1       0.468   2.334   8.970  1.00  0.00    -0.647 OA
ENDBRANCH   4  25
TORSDOF 8
ENDMDL
MODEL 5
REMARK VINA RESULT: -7.907326584      0.846      3.030
REMARK  8 active torsions:
REMARK  status: ('A' for Active; 'I' for Inactive)
REMARK    1  A    between atoms: C2_2  and  N1_5 
REMARK    2  A    between atoms: N1_5  and  C5_6 
REMARK    3  A    between atoms: N1_5  and  C11_12 
REMARK    4  A    between atoms: C14_15  and  C15_16 
REMARK    5  A    between atoms: C14_15  and  C20_23 
REMARK    6  A    between atoms: C15_16  and  C16_17 
REMARK    7  A    between atoms: C17_18  and  C18_19 
REMARK    8  A    between atoms: C18_19  and  C19_20 
ROOT
HETATM    1  C11 UNL     1       0.320   0.368   5.287  1.00  0.00    -0.015 C 
HETATM    2  C12 UNL     1      -0.741   0.865   6.225  1.00  0.00     0.053 C 
HETATM    3  C13 UNL     1      -0.099   1.111   7.567  1.00  0.00     0.026 C 
HETATM    4  C14 UNL     1       0.400  -0.152   8.147  1.00  0.00     0.052 C 
HETATM    5  C21 UNL     1       1.345  -0.843   7.225  1.00  0.00     0.026 C 
HETATM    6  C22 UNL     1       0.897  -0.941   5.791  1.00  0.00     0.053 C 
ENDROOT
BRANCH   1   7
HETATM    7  N1  UNL     1       0.199   0.509   3.918  1.00  0.00    -0.374 N 
BRANCH   7   8
HETATM    8  C2  UNL     1       1.103   1.180   3.106  1.00  0.00     0.021 C 
HETATM    9  C1  UNL     1       0.444   1.302   1.704  1.00  0.00     0.037 C 
HETATM   10  C3  UNL     1       1.268   2.685   3.400  1.00  0.00     0.037 C 
HETATM   11  C4  UNL     1       2.461   0.652   2.860  1.00  0.00     0.037 C 
ENDBRANCH   7   8
BRANCH   7  12
HETATM   12  C5  UNL     1      -0.714  -0.398   3.282  1.00  0.00     0.085 C 
HETATM   13  C6  UNL     1      -0.312  -1.846   3.330  1.00  0.00     0.025 C 
HETATM   14  C7  UNL     1      -1.550  -2.696   2.969  1.00  0.00     0.002 C 
HETATM   15  C8  UNL     1      -2.351  -2.029   1.881  1.00  0.00     0.000 C 
HETATM   16  C9  UNL     1      -3.015  -0.823   2.497  1.00  0.00     0.002 C 
HETATM   17  C10 UNL     1      -2.153  -0.266   3.643  1.00  0.00     0.025 C 
ENDBRANCH   7  12
ENDBRANCH   1   7
BRANCH   4  18
HETATM   18  C15 UNL     1       1.125   0.114   9.496  1.00  0.00     0.047 C 
BRANCH  18  19
HETATM   19  C16 UNL     1       0.500   1.137  10.290  1.00  0.00    -0.029 C 
HETATM   20  C17 UNL     1      -0.021   0.965  11.467  1.00  0.00    -0.020 C 
BRANCH  20  21
HETATM   21  C18 UNL     1      -0.075  -0.301  12.215  1.00  0.00     0.140 C 
BRANCH  21  22
HETATM   22  C19 UNL     1       0.002  -0.081  13.689  1.00  0.00     0.176 C 
HETATM   23  O1  UNL     1       1.083   0.205  14.243  1.00  0.00    -0.648 OA
HETATM   24  O2  UNL     1      -1.135  -0.192  14.474  1.00  0.00    -0.648 OA
ENDBRANCH  21  22
ENDBRANCH  20  21
ENDBRANCH  18  19
ENDBRANCH   4  18
BRANCH   4  25
HETATM   25  C20 UNL     1      -0.709  -1.049   8.557  1.00  0.00     0.182 C 
HETATM   26  O3  UNL     1      -1.898  -0.704   8.573  1.00  0.00    -0.647 OA
HETATM   27  O4  UNL     1      -0.363  -2.341   8.939  1.00  0.00    -0.647 OA
ENDBRANCH   4  25
TORSDOF 8
ENDMDL
