MODEL 1
REMARK VINA RESULT: -8.350426279      0.000      0.000
REMARK  7 active torsions:
REMARK  status: ('A' for Active; 'I' for Inactive)
REMARK    1  A    between atoms: N1_1  and  C1_4 
REMARK    2  A    between atoms: N4_14  and  O2_16 
REMARK    3  A    between atoms: O2_16  and  C6_17 
REMARK    4  A    between atoms: C7_21  and  C8_22 
REMARK    5  A    between atoms: C8_22  and  O3_23 
REMARK    6  A    between atoms: C10_28  and  O5_29 
REMARK    7  A    between atoms: C10_28  and  C11_31 
ROOT
HETATM    1  C1  UNL     1     -20.467 -22.134 -14.211  1.00  0.00     0.680 A 
HETATM    2  N2  UNL     1     -21.736 -22.446 -14.552  1.00  0.00    -0.180 N 
ATOM      3  H2  UNL     1     -22.352 -22.873 -13.860  1.00  0.00     0.185 HD
HETATM    4  C2  UNL     1     -22.202 -22.205 -15.792  1.00  0.00     0.120 A 
HETATM    5  C3  UNL     1     -21.315 -21.616 -16.699  1.00  0.00     0.098 A 
HETATM    6  C4  UNL     1     -20.026 -21.301 -16.346  1.00  0.00     0.275 A 
HETATM    7  O1  UNL     1     -19.266 -20.780 -17.188  1.00  0.00    -0.267 OA
HETATM    8  N3  UNL     1     -19.606 -21.569 -15.078  1.00  0.00    -0.155 N 
ATOM      9  H3  UNL     1     -18.653 -21.345 -14.790  1.00  0.00     0.187 HD
HETATM   10  C5  UNL     1     -22.061 -21.420 -17.963  1.00  0.00     0.074 C 
HETATM   11  N4  UNL     1     -21.623 -21.398 -19.137  1.00  0.00    -0.263 N 
ATOM     12  H4  UNL     1     -20.619 -21.533 -19.266  1.00  0.00     0.194 HD
HETATM   13  C9  UNL     1     -23.465 -21.247 -17.503  1.00  0.00     0.180 A 
HETATM   14  N6  UNL     1     -23.424 -22.427 -16.503  1.00  0.00    -0.211 NA
HETATM   15  C10 UNL     1     -24.479 -22.239 -17.465  1.00  0.00     0.223 A 
ENDROOT
BRANCH  11  16
HETATM   16  O2  UNL     1     -22.383 -21.209 -20.265  1.00  0.00    -0.218 OA
BRANCH  16  17
HETATM   17  C6  UNL     1     -22.092 -20.095 -21.070  1.00  0.00     0.497 C 
HETATM   18  N5  UNL     1     -23.052 -18.997 -20.961  1.00  0.00     0.005 N 
HETATM   19  C7  UNL     1     -21.865 -18.184 -21.157  1.00  0.00     0.354 C 
ATOM     20  H52 UNL     1     -23.884 -18.922 -21.546  1.00  0.00     0.286 HD
ATOM     21  H51 UNL     1     -23.683 -18.883 -20.167  1.00  0.00     0.286 HD
HETATM   22  O4  UNL     1     -21.143 -19.213 -20.527  1.00  0.00    -0.302 OA
BRANCH  19  23
HETATM   23  C8  UNL     1     -21.871 -16.876 -20.410  1.00  0.00     0.225 C 
BRANCH  23  24
HETATM   24  O3  UNL     1     -22.770 -16.027 -21.056  1.00  0.00    -0.397 OA
ATOM     25  H3  UNL     1     -22.292 -15.573 -21.740  1.00  0.00     0.209 HD
ENDBRANCH  23  24
ENDBRANCH  19  23
ENDBRANCH  16  17
ENDBRANCH  11  16
BRANCH  15  26
HETATM   26  O5  UNL     1     -24.608 -23.209 -18.483  1.00  0.00    -0.365 OA
ATOM     27  H5  UNL     1     -24.567 -24.139 -18.294  1.00  0.00     0.212 HD
ENDBRANCH  15  26
BRANCH  15  28
HETATM   28  C11 UNL     1     -25.774 -21.887 -16.830  1.00  0.00     0.283 C 
HETATM   29  N7  UNL     1     -26.792 -21.297 -17.610  1.00  0.00    -0.058 NA
HETATM   30  O6  UNL     1     -25.915 -22.131 -15.606  1.00  0.00    -0.272 OA
ENDBRANCH  15  28
BRANCH   1  31
HETATM   31  N1  UNL     1     -20.093 -22.395 -13.005  1.00  0.00    -0.234 N 
ATOM     32  H12 UNL     1     -19.646 -21.674 -12.439  1.00  0.00     0.174 HD
ATOM     33  H11 UNL     1     -20.264 -23.336 -12.652  1.00  0.00     0.174 HD
ENDBRANCH   1  31
TORSDOF 7
ENDMDL
MODEL 2
REMARK VINA RESULT: -8.042632902      1.103      1.129
REMARK  7 active torsions:
REMARK  status: ('A' for Active; 'I' for Inactive)
REMARK    1  A    between atoms: N1_1  and  C1_4 
REMARK    2  A    between atoms: N4_14  and  O2_16 
REMARK    3  A    between atoms: O2_16  and  C6_17 
REMARK    4  A    between atoms: C7_21  and  C8_22 
REMARK    5  A    between atoms: C8_22  and  O3_23 
REMARK    6  A    between atoms: C10_28  and  O5_29 
REMARK    7  A    between atoms: C10_28  and  C11_31 
ROOT
HETATM    1  C1  UNL     1     -20.458 -22.178 -14.565  1.00  0.00     0.680 A 
HETATM    2  N2  UNL     1     -21.706 -22.476 -14.991  1.00  0.00    -0.180 N 
ATOM      3  H2  UNL     1     -22.308 -23.059 -14.412  1.00  0.00     0.185 HD
HETATM    4  C2  UNL     1     -22.166 -22.015 -16.169  1.00  0.00     0.120 A 
HETATM    5  C3  UNL     1     -21.298 -21.217 -16.921  1.00  0.00     0.098 A 
HETATM    6  C4  UNL     1     -20.031 -20.919 -16.483  1.00  0.00     0.275 A 
HETATM    7  O1  UNL     1     -19.288 -20.205 -17.188  1.00  0.00    -0.267 OA
HETATM    8  N3  UNL     1     -19.615 -21.413 -15.283  1.00  0.00    -0.155 N 
ATOM      9  H3  UNL     1     -18.679 -21.205 -14.935  1.00  0.00     0.187 HD
HETATM   10  C5  UNL     1     -22.035 -20.809 -18.138  1.00  0.00     0.074 C 
HETATM   11  N4  UNL     1     -21.582 -20.535 -19.275  1.00  0.00    -0.263 N 
ATOM     12  H4  UNL     1     -20.572 -20.593 -19.404  1.00  0.00     0.194 HD
HETATM   13  C9  UNL     1     -23.452 -20.797 -17.687  1.00  0.00     0.180 A 
HETATM   14  N6  UNL     1     -23.365 -22.149 -16.939  1.00  0.00    -0.211 NA
HETATM   15  C10 UNL     1     -24.415 -21.824 -17.869  1.00  0.00     0.223 A 
ENDROOT
BRANCH  11  16
HETATM   16  O2  UNL     1     -22.336 -20.161 -20.360  1.00  0.00    -0.218 OA
BRANCH  16  17
HETATM   17  C6  UNL     1     -21.969 -18.986 -21.038  1.00  0.00     0.497 C 
HETATM   18  N5  UNL     1     -22.629 -17.774 -20.556  1.00  0.00     0.005 N 
HETATM   19  C7  UNL     1     -21.354 -17.167 -20.892  1.00  0.00     0.354 C 
ATOM     20  H52 UNL     1     -23.521 -17.440 -20.921  1.00  0.00     0.286 HD
ATOM     21  H51 UNL     1     -23.057 -17.700 -19.633  1.00  0.00     0.286 HD
HETATM   22  O4  UNL     1     -20.766 -18.409 -20.599  1.00  0.00    -0.302 OA
BRANCH  19  23
HETATM   23  C8  UNL     1     -20.933 -16.045 -19.979  1.00  0.00     0.225 C 
BRANCH  23  24
HETATM   24  O3  UNL     1     -21.556 -16.251 -18.747  1.00  0.00    -0.397 OA
ATOM     25  H3  UNL     1     -22.482 -16.377 -18.914  1.00  0.00     0.209 HD
ENDBRANCH  23  24
ENDBRANCH  19  23
ENDBRANCH  16  17
ENDBRANCH  11  16
BRANCH  15  26
HETATM   26  O5  UNL     1     -24.481 -22.577 -19.061  1.00  0.00    -0.365 OA
ATOM     27  H5  UNL     1     -23.777 -23.159 -19.323  1.00  0.00     0.212 HD
ENDBRANCH  15  26
BRANCH  15  28
HETATM   28  C11 UNL     1     -25.735 -21.666 -17.207  1.00  0.00     0.283 C 
HETATM   29  N7  UNL     1     -25.883 -22.044 -15.855  1.00  0.00    -0.058 NA
HETATM   30  O6  UNL     1     -26.681 -21.196 -17.886  1.00  0.00    -0.272 OA
ENDBRANCH  15  28
BRANCH   1  31
HETATM   31  N1  UNL     1     -20.089 -22.655 -13.426  1.00  0.00    -0.234 N 
ATOM     32  H12 UNL     1     -20.782 -23.028 -12.777  1.00  0.00     0.174 HD
ATOM     33  H11 UNL     1     -19.092 -22.643 -13.211  1.00  0.00     0.174 HD
ENDBRANCH   1  31
TORSDOF 7
ENDMDL
MODEL 3
REMARK VINA RESULT: -7.923500321      2.153      5.439
REMARK  7 active torsions:
REMARK  status: ('A' for Active; 'I' for Inactive)
REMARK    1  A    between atoms: N1_1  and  C1_4 
REMARK    2  A    between atoms: N4_14  and  O2_16 
REMARK    3  A    between atoms: O2_16  and  C6_17 
REMARK    4  A    between atoms: C7_21  and  C8_22 
REMARK    5  A    between atoms: C8_22  and  O3_23 
REMARK    6  A    between atoms: C10_28  and  O5_29 
REMARK    7  A    between atoms: C10_28  and  C11_31 
ROOT
HETATM    1  C1  UNL     1     -18.529 -20.247 -17.253  1.00  0.00     0.680 A 
HETATM    2  N2  UNL     1     -19.080 -19.867 -18.428  1.00  0.00    -0.180 N 
ATOM      3  H2  UNL     1     -18.491 -19.441 -19.144  1.00  0.00     0.185 HD
HETATM    4  C2  UNL     1     -20.393 -20.039 -18.668  1.00  0.00     0.120 A 
HETATM    5  C3  UNL     1     -21.151 -20.630 -17.653  1.00  0.00     0.098 A 
HETATM    6  C4  UNL     1     -20.586 -21.014 -16.461  1.00  0.00     0.275 A 
HETATM    7  O1  UNL     1     -21.301 -21.535 -15.580  1.00  0.00    -0.267 OA
HETATM    8  N3  UNL     1     -19.252 -20.814 -16.270  1.00  0.00    -0.155 N 
ATOM      9  H3  UNL     1     -18.808 -21.090 -15.394  1.00  0.00     0.187 HD
HETATM   10  C5  UNL     1     -22.536 -20.745 -18.163  1.00  0.00     0.074 C 
HETATM   11  N4  UNL     1     -23.612 -20.739 -17.519  1.00  0.00    -0.263 N 
ATOM     12  H4  UNL     1     -23.551 -20.644 -16.505  1.00  0.00     0.194 HD
HETATM   13  C9  UNL     1     -22.346 -20.874 -19.632  1.00  0.00     0.180 A 
HETATM   14  N6  UNL     1     -21.302 -19.737 -19.731  1.00  0.00    -0.211 NA
HETATM   15  C10 UNL     1     -22.445 -19.841 -20.600  1.00  0.00     0.223 A 
ENDROOT
BRANCH  11  16
HETATM   16  O2  UNL     1     -24.866 -20.851 -18.067  1.00  0.00    -0.218 OA
BRANCH  16  17
HETATM   17  C6  UNL     1     -25.718 -21.845 -17.554  1.00  0.00     0.497 C 
HETATM   18  N5  UNL     1     -25.796 -21.886 -16.095  1.00  0.00     0.005 N 
HETATM   19  C7  UNL     1     -27.173 -22.262 -16.363  1.00  0.00     0.354 C 
ATOM     20  H52 UNL     1     -25.167 -22.443 -15.517  1.00  0.00     0.286 HD
ATOM     21  H51 UNL     1     -25.538 -21.099 -15.499  1.00  0.00     0.286 HD
HETATM   22  O4  UNL     1     -27.079 -21.495 -17.537  1.00  0.00    -0.302 OA
BRANCH  19  23
HETATM   23  C8  UNL     1     -28.170 -21.747 -15.359  1.00  0.00     0.225 C 
BRANCH  23  24
HETATM   24  O3  UNL     1     -27.998 -20.365 -15.266  1.00  0.00    -0.397 OA
ATOM     25  H3  UNL     1     -28.859 -19.967 -15.308  1.00  0.00     0.209 HD
ENDBRANCH  23  24
ENDBRANCH  19  23
ENDBRANCH  16  17
ENDBRANCH  11  16
BRANCH  15  26
HETATM   26  O5  UNL     1     -23.424 -18.828 -20.507  1.00  0.00    -0.365 OA
ATOM     27  H5  UNL     1     -23.211 -17.913 -20.650  1.00  0.00     0.212 HD
ENDBRANCH  15  26
BRANCH  15  28
HETATM   28  C11 UNL     1     -22.071 -20.161 -22.001  1.00  0.00     0.283 C 
HETATM   29  N7  UNL     1     -23.052 -20.665 -22.883  1.00  0.00    -0.058 NA
HETATM   30  O6  UNL     1     -20.880 -19.970 -22.350  1.00  0.00    -0.272 OA
ENDBRANCH  15  28
BRANCH   1  31
HETATM   31  N1  UNL     1     -17.265 -20.049 -17.097  1.00  0.00    -0.234 N 
ATOM     32  H12 UNL     1     -16.590 -20.621 -17.605  1.00  0.00     0.174 HD
ATOM     33  H11 UNL     1     -16.980 -19.310 -16.456  1.00  0.00     0.174 HD
ENDBRANCH   1  31
TORSDOF 7
ENDMDL
MODEL 4
REMARK VINA RESULT: -7.914428610      1.696      2.141
REMARK  7 active torsions:
REMARK  status: ('A' for Active; 'I' for Inactive)
REMARK    1  A    between atoms: N1_1  and  C1_4 
REMARK    2  A    between atoms: N4_14  and  O2_16 
REMARK    3  A    between atoms: O2_16  and  C6_17 
REMARK    4  A    between atoms: C7_21  and  C8_22 
REMARK    5  A    between atoms: C8_22  and  O3_23 
REMARK    6  A    between atoms: C10_28  and  O5_29 
REMARK    7  A    between atoms: C10_28  and  C11_31 
ROOT
HETATM    1  C1  UNL     1     -21.198 -23.456 -14.319  1.00  0.00     0.680 A 
HETATM    2  N2  UNL     1     -22.310 -23.590 -15.076  1.00  0.00    -0.180 N 
ATOM      3  H2  UNL     1     -22.935 -24.379 -14.914  1.00  0.00     0.185 HD
HETATM    4  C2  UNL     1     -22.606 -22.699 -16.041  1.00  0.00     0.120 A 
HETATM    5  C3  UNL     1     -21.715 -21.635 -16.216  1.00  0.00     0.098 A 
HETATM    6  C4  UNL     1     -20.587 -21.505 -15.445  1.00  0.00     0.275 A 
HETATM    7  O1  UNL     1     -19.816 -20.541 -15.637  1.00  0.00    -0.267 OA
HETATM    8  N3  UNL     1     -20.334 -22.436 -14.483  1.00  0.00    -0.155 N 
ATOM      9  H3  UNL     1     -19.503 -22.362 -13.896  1.00  0.00     0.187 HD
HETATM   10  C5  UNL     1     -22.269 -20.784 -17.294  1.00  0.00     0.074 C 
HETATM   11  N4  UNL     1     -21.658 -20.051 -18.107  1.00  0.00    -0.263 N 
ATOM     12  H4  UNL     1     -20.640 -20.020 -18.038  1.00  0.00     0.194 HD
HETATM   13  C9  UNL     1     -23.735 -21.004 -17.177  1.00  0.00     0.180 A 
HETATM   14  N6  UNL     1     -23.628 -22.540 -17.029  1.00  0.00    -0.211 NA
HETATM   15  C10 UNL     1     -24.530 -21.893 -17.947  1.00  0.00     0.223 A 
ENDROOT
BRANCH  11  16
HETATM   16  O2  UNL     1     -22.247 -19.287 -19.084  1.00  0.00    -0.218 OA
BRANCH  16  17
HETATM   17  C6  UNL     1     -21.807 -19.465 -20.407  1.00  0.00     0.497 C 
HETATM   18  N5  UNL     1     -21.824 -20.849 -20.874  1.00  0.00     0.005 N 
HETATM   19  C7  UNL     1     -22.172 -20.226 -22.138  1.00  0.00     0.354 C 
ATOM     20  H52 UNL     1     -21.035 -21.486 -20.763  1.00  0.00     0.286 HD
ATOM     21  H51 UNL     1     -22.387 -21.580 -20.438  1.00  0.00     0.286 HD
HETATM   22  O4  UNL     1     -22.781 -19.207 -21.386  1.00  0.00    -0.302 OA
BRANCH  19  23
HETATM   23  C8  UNL     1     -23.121 -21.026 -22.992  1.00  0.00     0.225 C 
BRANCH  23  24
HETATM   24  O3  UNL     1     -23.030 -20.534 -24.295  1.00  0.00    -0.397 OA
ATOM     25  H3  UNL     1     -22.870 -21.274 -24.868  1.00  0.00     0.209 HD
ENDBRANCH  23  24
ENDBRANCH  19  23
ENDBRANCH  16  17
ENDBRANCH  11  16
BRANCH  15  26
HETATM   26  O5  UNL     1     -24.300 -22.089 -19.326  1.00  0.00    -0.365 OA
ATOM     27  H5  UNL     1     -23.542 -22.566 -19.643  1.00  0.00     0.212 HD
ENDBRANCH  15  26
BRANCH  15  28
HETATM   28  C11 UNL     1     -25.954 -22.063 -17.565  1.00  0.00     0.283 C 
HETATM   29  N7  UNL     1     -26.350 -23.223 -16.863  1.00  0.00    -0.058 NA
HETATM   30  O6  UNL     1     -26.762 -21.157 -17.885  1.00  0.00    -0.272 OA
ENDBRANCH  15  28
BRANCH   1  31
HETATM   31  N1  UNL     1     -20.983 -24.349 -13.415  1.00  0.00    -0.234 N 
ATOM     32  H12 UNL     1     -21.743 -24.662 -12.812  1.00  0.00     0.174 HD
ATOM     33  H11 UNL     1     -20.036 -24.719 -13.335  1.00  0.00     0.174 HD
ENDBRANCH   1  31
TORSDOF 7
ENDMDL
MODEL 5
REMARK VINA RESULT: -7.826299201      1.726      2.289
REMARK  7 active torsions:
REMARK  status: ('A' for Active; 'I' for Inactive)
REMARK    1  A    between atoms: N1_1  and  C1_4 
REMARK    2  A    between atoms: N4_14  and  O2_16 
REMARK    3  A    between atoms: O2_16  and  C6_17 
REMARK    4  A    between atoms: C7_21  and  C8_22 
REMARK    5  A    between atoms: C8_22  and  O3_23 
REMARK    6  A    between atoms: C10_28  and  O5_29 
REMARK    7  A    between atoms: C10_28  and  C11_31 
ROOT
HETATM    1  C1  UNL     1     -20.538 -22.173 -14.331  1.00  0.00     0.680 A 
HETATM    2  N2  UNL     1     -21.832 -22.497 -14.547  1.00  0.00    -0.180 N 
ATOM      3  H2  UNL     1     -22.374 -22.926 -13.796  1.00  0.00     0.185 HD
HETATM    4  C2  UNL     1     -22.418 -22.264 -15.736  1.00  0.00     0.120 A 
HETATM    5  C3  UNL     1     -21.629 -21.672 -16.726  1.00  0.00     0.098 A 
HETATM    6  C4  UNL     1     -20.315 -21.345 -16.502  1.00  0.00     0.275 A 
HETATM    7  O1  UNL     1     -19.645 -20.820 -17.416  1.00  0.00    -0.267 OA
HETATM    8  N3  UNL     1     -19.770 -21.605 -15.280  1.00  0.00    -0.155 N 
ATOM      9  H3  UNL     1     -18.796 -21.372 -15.088  1.00  0.00     0.187 HD
HETATM   10  C5  UNL     1     -22.496 -21.486 -17.912  1.00  0.00     0.074 C 
HETATM   11  N4  UNL     1     -22.175 -21.465 -19.124  1.00  0.00    -0.263 N 
ATOM     12  H4  UNL     1     -21.188 -21.592 -19.349  1.00  0.00     0.194 HD
HETATM   13  C9  UNL     1     -23.850 -21.323 -17.318  1.00  0.00     0.180 A 
HETATM   14  N6  UNL     1     -23.702 -22.499 -16.324  1.00  0.00    -0.211 NA
HETATM   15  C10 UNL     1     -24.847 -22.323 -17.178  1.00  0.00     0.223 A 
ENDROOT
BRANCH  11  16
HETATM   16  O2  UNL     1     -23.043 -21.286 -20.172  1.00  0.00    -0.218 OA
BRANCH  16  17
HETATM   17  C6  UNL     1     -22.540 -20.696 -21.345  1.00  0.00     0.497 C 
HETATM   18  N5  UNL     1     -21.394 -21.387 -21.932  1.00  0.00     0.005 N 
HETATM   19  C7  UNL     1     -22.003 -20.953 -23.176  1.00  0.00     0.354 C 
ATOM     20  H52 UNL     1     -20.428 -21.180 -21.680  1.00  0.00     0.286 HD
ATOM     21  H51 UNL     1     -21.166 -22.361 -21.731  1.00  0.00     0.286 HD
HETATM   22  O4  UNL     1     -23.241 -21.032 -22.515  1.00  0.00    -0.302 OA
BRANCH  19  23
HETATM   23  C8  UNL     1     -21.844 -21.917 -24.322  1.00  0.00     0.225 C 
BRANCH  23  24
HETATM   24  O3  UNL     1     -22.681 -21.487 -25.352  1.00  0.00    -0.397 OA
ATOM     25  H3  UNL     1     -22.397 -20.617 -25.607  1.00  0.00     0.209 HD
ENDBRANCH  23  24
ENDBRANCH  19  23
ENDBRANCH  16  17
ENDBRANCH  11  16
BRANCH  15  26
HETATM   26  O5  UNL     1     -25.066 -23.298 -18.176  1.00  0.00    -0.365 OA
ATOM     27  H5  UNL     1     -25.868 -23.807 -18.210  1.00  0.00     0.212 HD
ENDBRANCH  15  26
BRANCH  15  28
HETATM   28  C11 UNL     1     -26.077 -21.979 -16.421  1.00  0.00     0.283 C 
HETATM   29  N7  UNL     1     -27.193 -21.457 -17.110  1.00  0.00    -0.058 NA
HETATM   30  O6  UNL     1     -26.076 -22.168 -15.179  1.00  0.00    -0.272 OA
ENDBRANCH  15  28
BRANCH   1  31
HETATM   31  N1  UNL     1     -20.046 -22.427 -13.167  1.00  0.00    -0.234 N 
ATOM     32  H12 UNL     1     -19.599 -21.687 -12.627  1.00  0.00     0.174 HD
ATOM     33  H11 UNL     1     -20.126 -23.382 -12.820  1.00  0.00     0.174 HD
ENDBRANCH   1  31
TORSDOF 7
ENDMDL
