MODEL 1
REMARK VINA RESULT: -6.526356645      0.000      0.000
REMARK  10 active torsions:
REMARK  status: ('A' for Active; 'I' for Inactive)
REMARK    1  A    between atoms: C1_4  and  O1_5 
REMARK    2  A    between atoms: C1_4  and  C2_7 
REMARK    3  A    between atoms: C2_7  and  O2_8 
REMARK    4  A    between atoms: C3_10  and  O3_11 
REMARK    5  A    between atoms: C4_13  and  N2_14 
REMARK    6  A    between atoms: C5_15  and  C6_16 
REMARK    7  A    between atoms: C6_16  and  O4_18 
REMARK    8  A    between atoms: C10_28  and  O8_29 
REMARK    9  A    between atoms: C10_28  and  C11_31 
REMARK   10  A    between atoms: C11_31  and  O9_32 
ROOT
HETATM    1  C2  UNL     1     -21.925 -19.309 -20.604  1.00  0.00     0.210 C 
HETATM    2  C3  UNL     1     -22.292 -19.567 -19.115  1.00  0.00     0.215 C 
HETATM    3  C4  UNL     1     -21.820 -20.993 -19.070  1.00  0.00     0.269 C 
HETATM    4  O7  UNL     1     -22.482 -21.547 -20.127  1.00  0.00    -0.322 OA
HETATM    5  C10 UNL     1     -22.166 -20.639 -21.176  1.00  0.00     0.228 C 
ENDROOT
BRANCH   3   6
HETATM    6  N2  UNL     1     -21.766 -21.646 -17.829  1.00  0.00    -0.266 N 
HETATM    7  C5  UNL     1     -22.815 -22.119 -17.168  1.00  0.00     0.094 A 
HETATM    8  C7  UNL     1     -22.574 -22.809 -15.934  1.00  0.00     0.108 A 
HETATM    9  C8  UNL     1     -21.316 -22.975 -15.451  1.00  0.00     0.251 A 
HETATM   10  O5  UNL     1     -21.064 -23.570 -14.379  1.00  0.00    -0.268 OA
HETATM   11  N4  UNL     1     -20.302 -22.473 -16.164  1.00  0.00    -0.275 N 
HETATM   12  C9  UNL     1     -20.489 -21.829 -17.313  1.00  0.00     0.332 A 
ATOM     13  H4  UNL     1     -19.350 -22.588 -15.813  1.00  0.00     0.173 HD
HETATM   14  O6  UNL     1     -19.503 -21.364 -17.973  1.00  0.00    -0.246 OA
BRANCH   7  15
HETATM   15  C6  UNL     1     -24.180 -21.945 -17.557  1.00  0.00     0.177 C 
HETATM   16  N3  UNL     1     -25.176 -21.031 -17.221  1.00  0.00    -0.073 NA
BRANCH  15  17
HETATM   17  O4  UNL     1     -24.590 -22.855 -18.421  1.00  0.00    -0.347 OA
ATOM     18  H4  UNL     1     -24.112 -22.828 -19.242  1.00  0.00     0.219 HD
ENDBRANCH  15  17
ENDBRANCH   7  15
ENDBRANCH   3   6
BRANCH   2  19
HETATM   19  O3  UNL     1     -21.513 -18.758 -18.297  1.00  0.00    -0.387 OA
ATOM     20  H3  UNL     1     -21.924 -18.679 -17.444  1.00  0.00     0.210 HD
ENDBRANCH   2  19
BRANCH   1  21
HETATM   21  C1  UNL     1     -20.619 -18.699 -20.699  1.00  0.00     0.153 C 
HETATM   22  N1  UNL     1     -20.389 -17.597 -21.281  1.00  0.00    -0.381 N 
ATOM     23  H12 UNL     1     -19.467 -17.166 -21.349  1.00  0.00     0.158 HD
ATOM     24  H11 UNL     1     -21.206 -17.147 -21.694  1.00  0.00     0.158 HD
BRANCH  21  25
HETATM   25  O1  UNL     1     -19.489 -19.322 -20.128  1.00  0.00    -0.347 OA
ATOM     26  H1  UNL     1     -19.422 -20.256 -20.285  1.00  0.00     0.219 HD
ENDBRANCH  21  25
ENDBRANCH   1  21
BRANCH   1  27
HETATM   27  O2  UNL     1     -22.936 -18.403 -21.026  1.00  0.00    -0.374 OA
ATOM     28  H2  UNL     1     -23.798 -18.723 -20.785  1.00  0.00     0.211 HD
ENDBRANCH   1  27
BRANCH   5  29
HETATM   29  O8  UNL     1     -23.293 -20.566 -22.028  1.00  0.00    -0.361 OA
ATOM     30  H8  UNL     1     -23.731 -21.410 -22.024  1.00  0.00     0.213 HD
ENDBRANCH   5  29
BRANCH   5  31
HETATM   31  C11 UNL     1     -21.094 -21.300 -21.964  1.00  0.00     0.236 C 
BRANCH  31  32
HETATM   32  O9  UNL     1     -21.219 -20.791 -23.294  1.00  0.00    -0.395 OA
ATOM     33  H9  UNL     1     -20.334 -20.735 -23.634  1.00  0.00     0.209 HD
ENDBRANCH  31  32
ENDBRANCH   5  31
TORSDOF 10
ENDMDL
MODEL 2
REMARK VINA RESULT: -6.298390984      1.960      4.198
REMARK  10 active torsions:
REMARK  status: ('A' for Active; 'I' for Inactive)
REMARK    1  A    between atoms: C1_4  and  O1_5 
REMARK    2  A    between atoms: C1_4  and  C2_7 
REMARK    3  A    between atoms: C2_7  and  O2_8 
REMARK    4  A    between atoms: C3_10  and  O3_11 
REMARK    5  A    between atoms: C4_13  and  N2_14 
REMARK    6  A    between atoms: C5_15  and  C6_16 
REMARK    7  A    between atoms: C6_16  and  O4_18 
REMARK    8  A    between atoms: C10_28  and  O8_29 
REMARK    9  A    between atoms: C10_28  and  C11_31 
REMARK   10  A    between atoms: C11_31  and  O9_32 
ROOT
HETATM    1  C2  UNL     1     -19.781 -18.667 -18.643  1.00  0.00     0.210 C 
HETATM    2  C3  UNL     1     -20.158 -20.158 -18.411  1.00  0.00     0.215 C 
HETATM    3  C4  UNL     1     -21.461 -19.894 -17.710  1.00  0.00     0.269 C 
HETATM    4  O7  UNL     1     -21.083 -19.038 -16.716  1.00  0.00    -0.322 OA
HETATM    5  C10 UNL     1     -20.360 -18.052 -17.443  1.00  0.00     0.228 C 
ENDROOT
BRANCH   3   6
HETATM    6  N2  UNL     1     -22.315 -20.976 -17.445  1.00  0.00    -0.266 N 
HETATM    7  C5  UNL     1     -22.189 -21.818 -16.427  1.00  0.00     0.094 A 
HETATM    8  C7  UNL     1     -23.184 -22.838 -16.273  1.00  0.00     0.108 A 
HETATM    9  C8  UNL     1     -24.223 -22.948 -17.141  1.00  0.00     0.251 A 
HETATM   10  O5  UNL     1     -25.111 -23.825 -17.043  1.00  0.00    -0.268 OA
HETATM   11  N4  UNL     1     -24.292 -22.071 -18.148  1.00  0.00    -0.275 N 
HETATM   12  C9  UNL     1     -23.387 -21.110 -18.318  1.00  0.00     0.332 A 
ATOM     13  H4  UNL     1     -25.066 -22.140 -18.809  1.00  0.00     0.173 HD
HETATM   14  O6  UNL     1     -23.480 -20.285 -19.285  1.00  0.00    -0.246 OA
BRANCH   7  15
HETATM   15  C6  UNL     1     -21.103 -21.827 -15.496  1.00  0.00     0.177 C 
HETATM   16  N3  UNL     1     -19.716 -21.772 -15.622  1.00  0.00    -0.073 NA
BRANCH  15  17
HETATM   17  O4  UNL     1     -21.500 -21.913 -14.240  1.00  0.00    -0.347 OA
ATOM     18  H4  UNL     1     -21.473 -21.080 -13.785  1.00  0.00     0.219 HD
ENDBRANCH  15  17
ENDBRANCH   7  15
ENDBRANCH   3   6
BRANCH   2  19
HETATM   19  O3  UNL     1     -20.368 -20.780 -19.635  1.00  0.00    -0.387 OA
ATOM     20  H3  UNL     1     -19.601 -21.292 -19.867  1.00  0.00     0.210 HD
ENDBRANCH   2  19
BRANCH   1  21
HETATM   21  C1  UNL     1     -20.204 -18.243 -19.958  1.00  0.00     0.153 C 
HETATM   22  N1  UNL     1     -19.428 -17.755 -20.832  1.00  0.00    -0.381 N 
ATOM     23  H12 UNL     1     -19.727 -17.455 -21.760  1.00  0.00     0.158 HD
ATOM     24  H11 UNL     1     -18.451 -17.676 -20.549  1.00  0.00     0.158 HD
BRANCH  21  25
HETATM   25  O1  UNL     1     -21.555 -18.352 -20.350  1.00  0.00    -0.347 OA
ATOM     26  H1  UNL     1     -22.183 -18.358 -19.637  1.00  0.00     0.219 HD
ENDBRANCH  21  25
ENDBRANCH   1  21
BRANCH   1  27
HETATM   27  O2  UNL     1     -18.362 -18.683 -18.552  1.00  0.00    -0.374 OA
ATOM     28  H2  UNL     1     -18.039 -19.573 -18.474  1.00  0.00     0.211 HD
ENDBRANCH   1  27
BRANCH   5  29
HETATM   29  O8  UNL     1     -19.305 -17.603 -16.613  1.00  0.00    -0.361 OA
ATOM     30  H8  UNL     1     -18.860 -16.885 -17.049  1.00  0.00     0.213 HD
ENDBRANCH   5  29
BRANCH   5  31
HETATM   31  C11 UNL     1     -21.289 -16.902 -17.587  1.00  0.00     0.236 C 
BRANCH  31  32
HETATM   32  O9  UNL     1     -20.745 -15.858 -16.777  1.00  0.00    -0.395 OA
ATOM     33  H9  UNL     1     -20.347 -16.290 -16.031  1.00  0.00     0.209 HD
ENDBRANCH  31  32
ENDBRANCH   5  31
TORSDOF 10
ENDMDL
MODEL 3
REMARK VINA RESULT: -6.231737606      1.747      3.592
REMARK  10 active torsions:
REMARK  status: ('A' for Active; 'I' for Inactive)
REMARK    1  A    between atoms: C1_4  and  O1_5 
REMARK    2  A    between atoms: C1_4  and  C2_7 
REMARK    3  A    between atoms: C2_7  and  O2_8 
REMARK    4  A    between atoms: C3_10  and  O3_11 
REMARK    5  A    between atoms: C4_13  and  N2_14 
REMARK    6  A    between atoms: C5_15  and  C6_16 
REMARK    7  A    between atoms: C6_16  and  O4_18 
REMARK    8  A    between atoms: C10_28  and  O8_29 
REMARK    9  A    between atoms: C10_28  and  C11_31 
REMARK   10  A    between atoms: C11_31  and  O9_32 
ROOT
HETATM    1  C2  UNL     1     -21.348 -20.022 -21.637  1.00  0.00     0.210 C 
HETATM    2  C3  UNL     1     -20.987 -21.013 -20.495  1.00  0.00     0.215 C 
HETATM    3  C4  UNL     1     -21.948 -20.459 -19.481  1.00  0.00     0.269 C 
HETATM    4  O7  UNL     1     -21.622 -19.133 -19.474  1.00  0.00    -0.322 OA
HETATM    5  C10 UNL     1     -21.662 -18.817 -20.860  1.00  0.00     0.228 C 
ENDROOT
BRANCH   3   6
HETATM    6  N2  UNL     1     -22.142 -21.161 -18.282  1.00  0.00    -0.266 N 
HETATM    7  C5  UNL     1     -21.347 -21.098 -17.221  1.00  0.00     0.094 A 
HETATM    8  C7  UNL     1     -21.724 -21.842 -16.055  1.00  0.00     0.108 A 
HETATM    9  C8  UNL     1     -22.856 -22.593 -16.031  1.00  0.00     0.251 A 
HETATM   10  O5  UNL     1     -23.219 -23.257 -15.034  1.00  0.00    -0.268 OA
HETATM   11  N4  UNL     1     -23.613 -22.616 -17.133  1.00  0.00    -0.275 N 
HETATM   12  C9  UNL     1     -23.294 -21.936 -18.231  1.00  0.00     0.332 A 
ATOM     13  H4  UNL     1     -24.466 -23.176 -17.131  1.00  0.00     0.173 HD
HETATM   14  O6  UNL     1     -24.037 -21.975 -19.266  1.00  0.00    -0.246 OA
BRANCH   7  15
HETATM   15  C6  UNL     1     -20.105 -20.390 -17.165  1.00  0.00     0.177 C 
HETATM   16  N3  UNL     1     -18.793 -20.702 -17.517  1.00  0.00    -0.073 NA
BRANCH  15  17
HETATM   17  O4  UNL     1     -20.227 -19.176 -16.662  1.00  0.00    -0.347 OA
ATOM     18  H4  UNL     1     -21.123 -18.861 -16.666  1.00  0.00     0.219 HD
ENDBRANCH  15  17
ENDBRANCH   7  15
ENDBRANCH   3   6
BRANCH   2  19
HETATM   19  O3  UNL     1     -21.345 -22.303 -20.868  1.00  0.00    -0.387 OA
ATOM     20  H3  UNL     1     -22.159 -22.278 -21.358  1.00  0.00     0.210 HD
ENDBRANCH   2  19
BRANCH   1  21
HETATM   21  C1  UNL     1     -22.339 -20.605 -22.512  1.00  0.00     0.153 C 
HETATM   22  N1  UNL     1     -22.187 -20.752 -23.761  1.00  0.00    -0.381 N 
ATOM     23  H12 UNL     1     -22.887 -21.163 -24.378  1.00  0.00     0.158 HD
ATOM     24  H11 UNL     1     -21.295 -20.424 -24.131  1.00  0.00     0.158 HD
BRANCH  21  25
HETATM   25  O1  UNL     1     -23.574 -21.058 -22.000  1.00  0.00    -0.347 OA
ATOM     26  H1  UNL     1     -24.287 -20.434 -22.056  1.00  0.00     0.219 HD
ENDBRANCH  21  25
ENDBRANCH   1  21
BRANCH   1  27
HETATM   27  O2  UNL     1     -20.110 -19.859 -22.317  1.00  0.00    -0.374 OA
ATOM     28  H2  UNL     1     -20.048 -20.458 -23.052  1.00  0.00     0.211 HD
ENDBRANCH   1  27
BRANCH   5  29
HETATM   29  O8  UNL     1     -20.658 -17.849 -21.103  1.00  0.00    -0.361 OA
ATOM     30  H8  UNL     1     -19.954 -17.979 -20.477  1.00  0.00     0.213 HD
ENDBRANCH   5  29
BRANCH   5  31
HETATM   31  C11 UNL     1     -22.960 -18.127 -21.074  1.00  0.00     0.236 C 
BRANCH  31  32
HETATM   32  O9  UNL     1     -22.759 -16.778 -20.649  1.00  0.00    -0.395 OA
ATOM     33  H9  UNL     1     -23.446 -16.600 -20.018  1.00  0.00     0.209 HD
ENDBRANCH  31  32
ENDBRANCH   5  31
TORSDOF 10
ENDMDL
MODEL 4
REMARK VINA RESULT: -6.070366814      1.299      2.716
REMARK  10 active torsions:
REMARK  status: ('A' for Active; 'I' for Inactive)
REMARK    1  A    between atoms: C1_4  and  O1_5 
REMARK    2  A    between atoms: C1_4  and  C2_7 
REMARK    3  A    between atoms: C2_7  and  O2_8 
REMARK    4  A    between atoms: C3_10  and  O3_11 
REMARK    5  A    between atoms: C4_13  and  N2_14 
REMARK    6  A    between atoms: C5_15  and  C6_16 
REMARK    7  A    between atoms: C6_16  and  O4_18 
REMARK    8  A    between atoms: C10_28  and  O8_29 
REMARK    9  A    between atoms: C10_28  and  C11_31 
REMARK   10  A    between atoms: C11_31  and  O9_32 
ROOT
HETATM    1  C2  UNL     1     -21.677 -18.240 -20.219  1.00  0.00     0.210 C 
HETATM    2  C3  UNL     1     -21.952 -18.706 -18.761  1.00  0.00     0.215 C 
HETATM    3  C4  UNL     1     -22.050 -20.174 -19.070  1.00  0.00     0.269 C 
HETATM    4  O7  UNL     1     -22.981 -20.195 -20.067  1.00  0.00    -0.322 OA
HETATM    5  C10 UNL     1     -22.460 -19.227 -20.971  1.00  0.00     0.228 C 
ENDROOT
BRANCH   3   6
HETATM    6  N2  UNL     1     -22.114 -21.084 -18.003  1.00  0.00    -0.266 N 
HETATM    7  C5  UNL     1     -21.065 -21.624 -17.395  1.00  0.00     0.094 A 
HETATM    8  C7  UNL     1     -21.310 -22.496 -16.284  1.00  0.00     0.108 A 
HETATM    9  C8  UNL     1     -22.573 -22.768 -15.864  1.00  0.00     0.251 A 
HETATM   10  O5  UNL     1     -22.829 -23.524 -14.900  1.00  0.00    -0.268 OA
HETATM   11  N4  UNL     1     -23.587 -22.194 -16.520  1.00  0.00    -0.275 N 
HETATM   12  C9  UNL     1     -23.395 -21.377 -17.554  1.00  0.00     0.332 A 
ATOM     13  H4  UNL     1     -24.542 -22.388 -16.218  1.00  0.00     0.173 HD
HETATM   14  O6  UNL     1     -24.381 -20.842 -18.159  1.00  0.00    -0.246 OA
BRANCH   7  15
HETATM   15  C6  UNL     1     -19.703 -21.453 -17.797  1.00  0.00     0.177 C 
HETATM   16  N3  UNL     1     -18.945 -21.903 -18.876  1.00  0.00    -0.073 NA
BRANCH  15  17
HETATM   17  O4  UNL     1     -19.007 -20.711 -16.955  1.00  0.00    -0.347 OA
ATOM     18  H4  UNL     1     -18.457 -21.225 -16.376  1.00  0.00     0.219 HD
ENDBRANCH  15  17
ENDBRANCH   7  15
ENDBRANCH   3   6
BRANCH   2  19
HETATM   19  O3  UNL     1     -20.843 -18.436 -17.970  1.00  0.00    -0.387 OA
ATOM     20  H3  UNL     1     -20.054 -18.710 -18.423  1.00  0.00     0.210 HD
ENDBRANCH   2  19
BRANCH   1  21
HETATM   21  C1  UNL     1     -20.255 -18.112 -20.444  1.00  0.00     0.153 C 
HETATM   22  N1  UNL     1     -19.693 -17.056 -20.861  1.00  0.00    -0.381 N 
ATOM     23  H12 UNL     1     -18.690 -16.966 -21.020  1.00  0.00     0.158 HD
ATOM     24  H11 UNL     1     -20.321 -16.271 -21.037  1.00  0.00     0.158 HD
BRANCH  21  25
HETATM   25  O1  UNL     1     -19.387 -19.197 -20.202  1.00  0.00    -0.347 OA
ATOM     26  H1  UNL     1     -18.509 -19.098 -20.550  1.00  0.00     0.219 HD
ENDBRANCH  21  25
ENDBRANCH   1  21
BRANCH   1  27
HETATM   27  O2  UNL     1     -22.311 -16.968 -20.269  1.00  0.00    -0.374 OA
ATOM     28  H2  UNL     1     -23.212 -17.029 -19.973  1.00  0.00     0.211 HD
ENDBRANCH   1  27
BRANCH   5  29
HETATM   29  O8  UNL     1     -23.562 -18.568 -21.568  1.00  0.00    -0.361 OA
ATOM     30  H8  UNL     1     -24.024 -18.081 -20.896  1.00  0.00     0.213 HD
ENDBRANCH   5  29
BRANCH   5  31
HETATM   31  C11 UNL     1     -21.808 -20.005 -22.055  1.00  0.00     0.236 C 
BRANCH  31  32
HETATM   32  O9  UNL     1     -22.796 -20.152 -23.078  1.00  0.00    -0.395 OA
ATOM     33  H9  UNL     1     -22.905 -21.088 -23.200  1.00  0.00     0.209 HD
ENDBRANCH  31  32
ENDBRANCH   5  31
TORSDOF 10
ENDMDL
MODEL 5
REMARK VINA RESULT: -6.050447740      1.355      1.501
REMARK  10 active torsions:
REMARK  status: ('A' for Active; 'I' for Inactive)
REMARK    1  A    between atoms: C1_4  and  O1_5 
REMARK    2  A    between atoms: C1_4  and  C2_7 
REMARK    3  A    between atoms: C2_7  and  O2_8 
REMARK    4  A    between atoms: C3_10  and  O3_11 
REMARK    5  A    between atoms: C4_13  and  N2_14 
REMARK    6  A    between atoms: C5_15  and  C6_16 
REMARK    7  A    between atoms: C6_16  and  O4_18 
REMARK    8  A    between atoms: C10_28  and  O8_29 
REMARK    9  A    between atoms: C10_28  and  C11_31 
REMARK   10  A    between atoms: C11_31  and  O9_32 
ROOT
HETATM    1  C2  UNL     1     -21.137 -18.099 -19.431  1.00  0.00     0.210 C 
HETATM    2  C3  UNL     1     -21.769 -18.770 -18.179  1.00  0.00     0.215 C 
HETATM    3  C4  UNL     1     -21.276 -20.160 -18.465  1.00  0.00     0.269 C 
HETATM    4  O7  UNL     1     -21.714 -20.361 -19.743  1.00  0.00    -0.322 OA
HETATM    5  C10 UNL     1     -21.230 -19.196 -20.401  1.00  0.00     0.228 C 
ENDROOT
BRANCH   3   6
HETATM    6  N2  UNL     1     -21.439 -21.149 -17.483  1.00  0.00    -0.266 N 
HETATM    7  C5  UNL     1     -22.555 -21.832 -17.263  1.00  0.00     0.094 A 
HETATM    8  C7  UNL     1     -22.532 -22.848 -16.251  1.00  0.00     0.108 A 
HETATM    9  C8  UNL     1     -21.407 -23.105 -15.535  1.00  0.00     0.251 A 
HETATM   10  O5  UNL     1     -21.346 -23.982 -14.643  1.00  0.00    -0.268 OA
HETATM   11  N4  UNL     1     -20.315 -22.381 -15.803  1.00  0.00    -0.275 N 
HETATM   12  C9  UNL     1     -20.302 -21.432 -16.736  1.00  0.00     0.332 A 
ATOM     13  H4  UNL     1     -19.463 -22.561 -15.272  1.00  0.00     0.173 HD
HETATM   14  O6  UNL     1     -19.246 -20.759 -16.973  1.00  0.00    -0.246 OA
BRANCH   7  15
HETATM   15  C6  UNL     1     -23.806 -21.597 -17.917  1.00  0.00     0.177 C 
HETATM   16  N3  UNL     1     -24.964 -20.902 -17.576  1.00  0.00    -0.073 NA
BRANCH  15  17
HETATM   17  O4  UNL     1     -23.884 -22.174 -19.102  1.00  0.00    -0.347 OA
ATOM     18  H4  UNL     1     -24.077 -21.560 -19.800  1.00  0.00     0.219 HD
ENDBRANCH  15  17
ENDBRANCH   7  15
ENDBRANCH   3   6
BRANCH   2  19
HETATM   19  O3  UNL     1     -21.179 -18.259 -17.029  1.00  0.00    -0.387 OA
ATOM     20  H3  UNL     1     -20.366 -18.720 -16.857  1.00  0.00     0.210 HD
ENDBRANCH   2  19
BRANCH   1  21
HETATM   21  C1  UNL     1     -19.852 -17.527 -19.097  1.00  0.00     0.153 C 
HETATM   22  N1  UNL     1     -19.550 -16.309 -19.269  1.00  0.00    -0.381 N 
ATOM     23  H12 UNL     1     -18.643 -15.906 -19.034  1.00  0.00     0.158 HD
ATOM     24  H11 UNL     1     -20.288 -15.732 -19.670  1.00  0.00     0.158 HD
BRANCH  21  25
HETATM   25  O1  UNL     1     -18.830 -18.327 -18.543  1.00  0.00    -0.347 OA
ATOM     26  H1  UNL     1     -18.365 -18.874 -19.164  1.00  0.00     0.219 HD
ENDBRANCH  21  25
ENDBRANCH   1  21
BRANCH   1  27
HETATM   27  O2  UNL     1     -22.074 -17.079 -19.750  1.00  0.00    -0.374 OA
ATOM     28  H2  UNL     1     -22.464 -16.721 -18.962  1.00  0.00     0.211 HD
ENDBRANCH   1  27
BRANCH   5  29
HETATM   29  O8  UNL     1     -22.180 -18.844 -21.390  1.00  0.00    -0.361 OA
ATOM     30  H8  UNL     1     -22.630 -19.631 -21.672  1.00  0.00     0.213 HD
ENDBRANCH   5  29
BRANCH   5  31
HETATM   31  C11 UNL     1     -20.013 -19.630 -21.134  1.00  0.00     0.236 C 
BRANCH  31  32
HETATM   32  O9  UNL     1     -19.970 -18.836 -22.322  1.00  0.00    -0.395 OA
ATOM     33  H9  UNL     1     -20.660 -19.170 -22.882  1.00  0.00     0.209 HD
ENDBRANCH  31  32
ENDBRANCH   5  31
TORSDOF 10
ENDMDL
