MODEL 1
REMARK VINA RESULT: -7.826803215      0.000      0.000
REMARK  16 active torsions:
REMARK  status: ('A' for Active; 'I' for Inactive)
REMARK    1  A    between atoms: C3_3  and  C4_4 
REMARK    2  A    between atoms: C4_4  and  C5_5 
REMARK    3  A    between atoms: C5_5  and  C6_6 
REMARK    4  A    between atoms: C6_6  and  C7_7 
REMARK    5  A    between atoms: C7_7  and  C8_8 
REMARK    6  A    between atoms: C8_8  and  C9_9 
REMARK    7  A    between atoms: C9_9  and  C10_10 
REMARK    8  A    between atoms: C10_10  and  C11_11 
REMARK    9  A    between atoms: C11_11  and  C12_12 
REMARK   10  A    between atoms: C12_12  and  C13_13 
REMARK   11  A    between atoms: C13_13  and  C14_14 
REMARK   12  A    between atoms: C14_14  and  C15_15 
REMARK   13  A    between atoms: C15_15  and  C16_16 
REMARK   14  A    between atoms: C16_16  and  C17_17 
REMARK   15  A    between atoms: C17_17  and  C18_18 
REMARK   16  A    between atoms: C18_18  and  C19_19 
ROOT
HETATM    1  C1  UNL     1      -9.814  -2.232  12.154  1.00  0.00     0.012 C 
HETATM    2  C2  UNL     1      -9.654  -1.070  11.875  1.00  0.00    -0.117 C 
HETATM    3  C3  UNL     1      -9.479   0.367  11.539  1.00  0.00     0.093 C 
ENDROOT
BRANCH   3   4
HETATM    4  C4  UNL     1     -10.253   1.130  12.584  1.00  0.00     0.012 C 
BRANCH   4   5
HETATM    5  C5  UNL     1      -9.849   0.759  13.991  1.00  0.00     0.001 C 
BRANCH   5   6
HETATM    6  C6  UNL     1     -10.625   1.587  14.958  1.00  0.00     0.000 C 
BRANCH   6   7
HETATM    7  C7  UNL     1      -9.872   1.900  16.238  1.00  0.00     0.000 C 
BRANCH   7   8
HETATM    8  C8  UNL     1      -8.400   1.894  16.009  1.00  0.00     0.000 C 
BRANCH   8   9
HETATM    9  C9  UNL     1      -7.643   1.168  17.096  1.00  0.00     0.000 C 
BRANCH   9  10
HETATM   10  C10 UNL     1      -8.207   1.535  18.438  1.00  0.00     0.000 C 
BRANCH  10  11
HETATM   11  C11 UNL     1      -7.192   1.212  19.525  1.00  0.00     0.000 C 
BRANCH  11  12
HETATM   12  C12 UNL     1      -5.995   0.477  19.030  1.00  0.00     0.000 C 
BRANCH  12  13
HETATM   13  C13 UNL     1      -5.399  -0.368  20.150  1.00  0.00     0.000 C 
BRANCH  13  14
HETATM   14  C14 UNL     1      -4.233   0.315  20.779  1.00  0.00     0.000 C 
BRANCH  14  15
HETATM   15  C15 UNL     1      -3.023  -0.595  20.893  1.00  0.00     0.000 C 
BRANCH  15  16
HETATM   16  C16 UNL     1      -3.459  -2.032  20.883  1.00  0.00     0.000 C 
BRANCH  16  17
HETATM   17  C17 UNL     1      -2.965  -2.748  22.106  1.00  0.00     0.006 C 
BRANCH  17  18
HETATM   18  C18 UNL     1      -4.107  -3.287  22.934  1.00  0.00     0.061 C 
BRANCH  18  19
HETATM   19  C19 UNL     1      -4.776  -2.104  23.603  1.00  0.00     0.051 A 
HETATM   20  N1  UNL     1      -4.207  -1.162  24.365  1.00  0.00    -0.353 N 
HETATM   21  C20 UNL     1      -5.176  -0.307  24.751  1.00  0.00     0.182 A 
ATOM     22  H1  UNL     1      -3.218  -1.102  24.610  1.00  0.00     0.166 HD
HETATM   23  N2  UNL     1      -6.359  -0.672  24.257  1.00  0.00    -0.339 N 
HETATM   24  C21 UNL     1      -6.133  -1.789  23.540  1.00  0.00     0.140 A 
ATOM     25  H2  UNL     1      -7.254  -0.200  24.395  1.00  0.00     0.167 HD
HETATM   26  N3  UNL     1      -7.115  -2.538  22.823  1.00  0.00    -0.081 NA
ENDBRANCH  18  19
ENDBRANCH  17  18
ENDBRANCH  16  17
ENDBRANCH  15  16
ENDBRANCH  14  15
ENDBRANCH  13  14
ENDBRANCH  12  13
ENDBRANCH  11  12
ENDBRANCH  10  11
ENDBRANCH   9  10
ENDBRANCH   8   9
ENDBRANCH   7   8
ENDBRANCH   6   7
ENDBRANCH   5   6
ENDBRANCH   4   5
ENDBRANCH   3   4
TORSDOF 16
ENDMDL
MODEL 2
REMARK VINA RESULT: -7.637414544      1.898      3.040
REMARK  16 active torsions:
REMARK  status: ('A' for Active; 'I' for Inactive)
REMARK    1  A    between atoms: C3_3  and  C4_4 
REMARK    2  A    between atoms: C4_4  and  C5_5 
REMARK    3  A    between atoms: C5_5  and  C6_6 
REMARK    4  A    between atoms: C6_6  and  C7_7 
REMARK    5  A    between atoms: C7_7  and  C8_8 
REMARK    6  A    between atoms: C8_8  and  C9_9 
REMARK    7  A    between atoms: C9_9  and  C10_10 
REMARK    8  A    between atoms: C10_10  and  C11_11 
REMARK    9  A    between atoms: C11_11  and  C12_12 
REMARK   10  A    between atoms: C12_12  and  C13_13 
REMARK   11  A    between atoms: C13_13  and  C14_14 
REMARK   12  A    between atoms: C14_14  and  C15_15 
REMARK   13  A    between atoms: C15_15  and  C16_16 
REMARK   14  A    between atoms: C16_16  and  C17_17 
REMARK   15  A    between atoms: C17_17  and  C18_18 
REMARK   16  A    between atoms: C18_18  and  C19_19 
ROOT
HETATM    1  C1  UNL     1      -9.087  -3.400  12.714  1.00  0.00     0.012 C 
HETATM    2  C2  UNL     1      -9.405  -2.327  12.269  1.00  0.00    -0.117 C 
HETATM    3  C3  UNL     1      -9.803  -0.995  11.740  1.00  0.00     0.093 C 
ENDROOT
BRANCH   3   4
HETATM    4  C4  UNL     1      -9.517  -0.012  12.848  1.00  0.00     0.012 C 
BRANCH   4   5
HETATM    5  C5  UNL     1     -10.697   0.881  13.150  1.00  0.00     0.001 C 
BRANCH   5   6
HETATM    6  C6  UNL     1     -10.333   2.293  12.842  1.00  0.00     0.000 C 
BRANCH   6   7
HETATM    7  C7  UNL     1      -9.793   3.060  14.035  1.00  0.00     0.000 C 
BRANCH   7   8
HETATM    8  C8  UNL     1      -9.540   2.150  15.187  1.00  0.00     0.000 C 
BRANCH   8   9
HETATM    9  C9  UNL     1      -9.913   2.770  16.514  1.00  0.00     0.000 C 
BRANCH   9  10
HETATM   10  C10 UNL     1      -9.874   1.725  17.590  1.00  0.00     0.000 C 
BRANCH  10  11
HETATM   11  C11 UNL     1      -8.539   1.790  18.319  1.00  0.00     0.000 C 
BRANCH  11  12
HETATM   12  C12 UNL     1      -7.447   1.042  17.636  1.00  0.00     0.000 C 
BRANCH  12  13
HETATM   13  C13 UNL     1      -6.327   0.733  18.624  1.00  0.00     0.000 C 
BRANCH  13  14
HETATM   14  C14 UNL     1      -6.774   0.943  20.030  1.00  0.00     0.000 C 
BRANCH  14  15
HETATM   15  C15 UNL     1      -5.958   0.135  21.023  1.00  0.00     0.000 C 
BRANCH  15  16
HETATM   16  C16 UNL     1      -4.492   0.330  20.762  1.00  0.00     0.000 C 
BRANCH  16  17
HETATM   17  C17 UNL     1      -3.758  -0.977  20.836  1.00  0.00     0.006 C 
BRANCH  17  18
HETATM   18  C18 UNL     1      -4.644  -2.135  20.441  1.00  0.00     0.061 C 
BRANCH  18  19
HETATM   19  C19 UNL     1      -3.910  -3.409  20.805  1.00  0.00     0.051 A 
HETATM   20  N1  UNL     1      -3.033  -4.093  20.060  1.00  0.00    -0.353 N 
HETATM   21  C20 UNL     1      -2.633  -5.162  20.778  1.00  0.00     0.182 A 
ATOM     22  H1  UNL     1      -2.724  -3.850  19.119  1.00  0.00     0.166 HD
HETATM   23  N2  UNL     1      -3.228  -5.188  21.970  1.00  0.00    -0.339 N 
HETATM   24  C21 UNL     1      -4.029  -4.105  22.007  1.00  0.00     0.140 A 
ATOM     25  H2  UNL     1      -3.103  -5.885  22.704  1.00  0.00     0.167 HD
HETATM   26  N3  UNL     1      -4.867  -3.719  23.098  1.00  0.00    -0.081 NA
ENDBRANCH  18  19
ENDBRANCH  17  18
ENDBRANCH  16  17
ENDBRANCH  15  16
ENDBRANCH  14  15
ENDBRANCH  13  14
ENDBRANCH  12  13
ENDBRANCH  11  12
ENDBRANCH  10  11
ENDBRANCH   9  10
ENDBRANCH   8   9
ENDBRANCH   7   8
ENDBRANCH   6   7
ENDBRANCH   5   6
ENDBRANCH   4   5
ENDBRANCH   3   4
TORSDOF 16
ENDMDL
MODEL 3
REMARK VINA RESULT: -7.623228901      2.531      3.477
REMARK  16 active torsions:
REMARK  status: ('A' for Active; 'I' for Inactive)
REMARK    1  A    between atoms: C3_3  and  C4_4 
REMARK    2  A    between atoms: C4_4  and  C5_5 
REMARK    3  A    between atoms: C5_5  and  C6_6 
REMARK    4  A    between atoms: C6_6  and  C7_7 
REMARK    5  A    between atoms: C7_7  and  C8_8 
REMARK    6  A    between atoms: C8_8  and  C9_9 
REMARK    7  A    between atoms: C9_9  and  C10_10 
REMARK    8  A    between atoms: C10_10  and  C11_11 
REMARK    9  A    between atoms: C11_11  and  C12_12 
REMARK   10  A    between atoms: C12_12  and  C13_13 
REMARK   11  A    between atoms: C13_13  and  C14_14 
REMARK   12  A    between atoms: C14_14  and  C15_15 
REMARK   13  A    between atoms: C15_15  and  C16_16 
REMARK   14  A    between atoms: C16_16  and  C17_17 
REMARK   15  A    between atoms: C17_17  and  C18_18 
REMARK   16  A    between atoms: C18_18  and  C19_19 
ROOT
HETATM    1  C1  UNL     1      -8.629  -3.333  12.978  1.00  0.00     0.012 C 
HETATM    2  C2  UNL     1      -9.484  -2.574  12.597  1.00  0.00    -0.117 C 
HETATM    3  C3  UNL     1     -10.523  -1.619  12.130  1.00  0.00     0.093 C 
ENDROOT
BRANCH   3   4
HETATM    4  C4  UNL     1      -9.775  -0.493  11.460  1.00  0.00     0.012 C 
BRANCH   4   5
HETATM    5  C5  UNL     1      -9.894   0.810  12.213  1.00  0.00     0.001 C 
BRANCH   5   6
HETATM    6  C6  UNL     1     -10.865   0.643  13.332  1.00  0.00     0.000 C 
BRANCH   6   7
HETATM    7  C7  UNL     1     -11.023   1.881  14.196  1.00  0.00     0.000 C 
BRANCH   7   8
HETATM    8  C8  UNL     1     -10.678   1.590  15.616  1.00  0.00     0.000 C 
BRANCH   8   9
HETATM    9  C9  UNL     1      -9.342   2.165  16.022  1.00  0.00     0.000 C 
BRANCH   9  10
HETATM   10  C10 UNL     1      -8.275   1.120  15.874  1.00  0.00     0.000 C 
BRANCH  10  11
HETATM   11  C11 UNL     1      -7.356   1.151  17.088  1.00  0.00     0.000 C 
BRANCH  11  12
HETATM   12  C12 UNL     1      -8.069   1.390  18.373  1.00  0.00     0.000 C 
BRANCH  12  13
HETATM   13  C13 UNL     1      -7.119   1.175  19.546  1.00  0.00     0.000 C 
BRANCH  13  14
HETATM   14  C14 UNL     1      -5.885   0.456  19.118  1.00  0.00     0.000 C 
BRANCH  14  15
HETATM   15  C15 UNL     1      -5.307  -0.408  20.224  1.00  0.00     0.000 C 
BRANCH  15  16
HETATM   16  C16 UNL     1      -4.578   0.451  21.218  1.00  0.00     0.000 C 
BRANCH  16  17
HETATM   17  C17 UNL     1      -3.095   0.239  21.120  1.00  0.00     0.006 C 
BRANCH  17  18
HETATM   18  C18 UNL     1      -2.334   1.522  21.351  1.00  0.00     0.061 C 
BRANCH  18  19
HETATM   19  C19 UNL     1      -2.230   1.722  22.849  1.00  0.00     0.051 A 
HETATM   20  N1  UNL     1      -3.060   2.406  23.646  1.00  0.00    -0.353 N 
HETATM   21  C20 UNL     1      -2.582   2.320  24.904  1.00  0.00     0.182 A 
ATOM     22  H1  UNL     1      -3.902   2.903  23.354  1.00  0.00     0.166 HD
HETATM   23  N2  UNL     1      -1.463   1.598  24.943  1.00  0.00    -0.339 N 
HETATM   24  C21 UNL     1      -1.225   1.216  23.673  1.00  0.00     0.140 A 
ATOM     25  H2  UNL     1      -0.901   1.379  25.766  1.00  0.00     0.167 HD
HETATM   26  N3  UNL     1      -0.126   0.418  23.229  1.00  0.00    -0.081 NA
ENDBRANCH  18  19
ENDBRANCH  17  18
ENDBRANCH  16  17
ENDBRANCH  15  16
ENDBRANCH  14  15
ENDBRANCH  13  14
ENDBRANCH  12  13
ENDBRANCH  11  12
ENDBRANCH  10  11
ENDBRANCH   9  10
ENDBRANCH   8   9
ENDBRANCH   7   8
ENDBRANCH   6   7
ENDBRANCH   5   6
ENDBRANCH   4   5
ENDBRANCH   3   4
TORSDOF 16
ENDMDL
MODEL 4
REMARK VINA RESULT: -7.622172374      1.211      2.856
REMARK  16 active torsions:
REMARK  status: ('A' for Active; 'I' for Inactive)
REMARK    1  A    between atoms: C3_3  and  C4_4 
REMARK    2  A    between atoms: C4_4  and  C5_5 
REMARK    3  A    between atoms: C5_5  and  C6_6 
REMARK    4  A    between atoms: C6_6  and  C7_7 
REMARK    5  A    between atoms: C7_7  and  C8_8 
REMARK    6  A    between atoms: C8_8  and  C9_9 
REMARK    7  A    between atoms: C9_9  and  C10_10 
REMARK    8  A    between atoms: C10_10  and  C11_11 
REMARK    9  A    between atoms: C11_11  and  C12_12 
REMARK   10  A    between atoms: C12_12  and  C13_13 
REMARK   11  A    between atoms: C13_13  and  C14_14 
REMARK   12  A    between atoms: C14_14  and  C15_15 
REMARK   13  A    between atoms: C15_15  and  C16_16 
REMARK   14  A    between atoms: C16_16  and  C17_17 
REMARK   15  A    between atoms: C17_17  and  C18_18 
REMARK   16  A    between atoms: C18_18  and  C19_19 
ROOT
HETATM    1  C1  UNL     1      -8.758  -3.624  12.951  1.00  0.00     0.012 C 
HETATM    2  C2  UNL     1      -9.491  -2.693  12.727  1.00  0.00    -0.117 C 
HETATM    3  C3  UNL     1     -10.385  -1.533  12.469  1.00  0.00     0.093 C 
ENDROOT
BRANCH   3   4
HETATM    4  C4  UNL     1      -9.567  -0.306  12.787  1.00  0.00     0.012 C 
BRANCH   4   5
HETATM    5  C5  UNL     1      -9.205   0.484  11.553  1.00  0.00     0.001 C 
BRANCH   5   6
HETATM    6  C6  UNL     1      -9.878   1.813  11.607  1.00  0.00     0.000 C 
BRANCH   6   7
HETATM    7  C7  UNL     1     -10.562   2.100  12.932  1.00  0.00     0.000 C 
BRANCH   7   8
HETATM    8  C8  UNL     1     -10.039   3.353  13.543  1.00  0.00     0.000 C 
BRANCH   8   9
HETATM    9  C9  UNL     1      -9.384   3.120  14.884  1.00  0.00     0.000 C 
BRANCH   9  10
HETATM   10  C10 UNL     1     -10.192   2.134  15.678  1.00  0.00     0.000 C 
BRANCH  10  11
HETATM   11  C11 UNL     1      -9.314   1.494  16.744  1.00  0.00     0.000 C 
BRANCH  11  12
HETATM   12  C12 UNL     1      -7.987   1.045  16.238  1.00  0.00     0.000 C 
BRANCH  12  13
HETATM   13  C13 UNL     1      -6.968   1.043  17.372  1.00  0.00     0.000 C 
BRANCH  13  14
HETATM   14  C14 UNL     1      -7.615   1.340  18.681  1.00  0.00     0.000 C 
BRANCH  14  15
HETATM   15  C15 UNL     1      -6.725   0.988  19.859  1.00  0.00     0.000 C 
BRANCH  15  16
HETATM   16  C16 UNL     1      -5.680  -0.004  19.434  1.00  0.00     0.000 C 
BRANCH  16  17
HETATM   17  C17 UNL     1      -4.725  -0.287  20.557  1.00  0.00     0.006 C 
BRANCH  17  18
HETATM   18  C18 UNL     1      -4.552  -1.770  20.779  1.00  0.00     0.061 C 
BRANCH  18  19
HETATM   19  C19 UNL     1      -4.490  -1.999  22.274  1.00  0.00     0.051 A 
HETATM   20  N1  UNL     1      -3.407  -2.005  23.060  1.00  0.00    -0.353 N 
HETATM   21  C20 UNL     1      -3.817  -2.249  24.321  1.00  0.00     0.182 A 
ATOM     22  H1  UNL     1      -2.444  -1.851  22.760  1.00  0.00     0.166 HD
HETATM   23  N2  UNL     1      -5.140  -2.402  24.373  1.00  0.00    -0.339 N 
HETATM   24  C21 UNL     1      -5.579  -2.251  23.108  1.00  0.00     0.140 A 
ATOM     25  H2  UNL     1      -5.704  -2.595  25.201  1.00  0.00     0.167 HD
HETATM   26  N3  UNL     1      -6.939  -2.331  22.678  1.00  0.00    -0.081 NA
ENDBRANCH  18  19
ENDBRANCH  17  18
ENDBRANCH  16  17
ENDBRANCH  15  16
ENDBRANCH  14  15
ENDBRANCH  13  14
ENDBRANCH  12  13
ENDBRANCH  11  12
ENDBRANCH  10  11
ENDBRANCH   9  10
ENDBRANCH   8   9
ENDBRANCH   7   8
ENDBRANCH   6   7
ENDBRANCH   5   6
ENDBRANCH   4   5
ENDBRANCH   3   4
TORSDOF 16
ENDMDL
MODEL 5
REMARK VINA RESULT: -7.578709059      2.276      4.133
REMARK  16 active torsions:
REMARK  status: ('A' for Active; 'I' for Inactive)
REMARK    1  A    between atoms: C3_3  and  C4_4 
REMARK    2  A    between atoms: C4_4  and  C5_5 
REMARK    3  A    between atoms: C5_5  and  C6_6 
REMARK    4  A    between atoms: C6_6  and  C7_7 
REMARK    5  A    between atoms: C7_7  and  C8_8 
REMARK    6  A    between atoms: C8_8  and  C9_9 
REMARK    7  A    between atoms: C9_9  and  C10_10 
REMARK    8  A    between atoms: C10_10  and  C11_11 
REMARK    9  A    between atoms: C11_11  and  C12_12 
REMARK   10  A    between atoms: C12_12  and  C13_13 
REMARK   11  A    between atoms: C13_13  and  C14_14 
REMARK   12  A    between atoms: C14_14  and  C15_15 
REMARK   13  A    between atoms: C15_15  and  C16_16 
REMARK   14  A    between atoms: C16_16  and  C17_17 
REMARK   15  A    between atoms: C17_17  and  C18_18 
REMARK   16  A    between atoms: C18_18  and  C19_19 
ROOT
HETATM    1  C1  UNL     1      -8.703  -3.681  12.989  1.00  0.00     0.012 C 
HETATM    2  C2  UNL     1      -9.440  -2.784  12.664  1.00  0.00    -0.117 C 
HETATM    3  C3  UNL     1     -10.340  -1.664  12.281  1.00  0.00     0.093 C 
ENDROOT
BRANCH   3   4
HETATM    4  C4  UNL     1      -9.556  -0.402  12.537  1.00  0.00     0.012 C 
BRANCH   4   5
HETATM    5  C5  UNL     1      -9.455   0.477  11.314  1.00  0.00     0.001 C 
BRANCH   5   6
HETATM    6  C6  UNL     1      -9.433   1.906  11.738  1.00  0.00     0.000 C 
BRANCH   6   7
HETATM    7  C7  UNL     1     -10.797   2.456  12.110  1.00  0.00     0.000 C 
BRANCH   7   8
HETATM    8  C8  UNL     1     -10.868   2.774  13.564  1.00  0.00     0.000 C 
BRANCH   8   9
HETATM    9  C9  UNL     1      -9.607   3.426  14.081  1.00  0.00     0.000 C 
BRANCH   9  10
HETATM   10  C10 UNL     1      -9.079   2.651  15.252  1.00  0.00     0.000 C 
BRANCH  10  11
HETATM   11  C11 UNL     1     -10.096   1.599  15.671  1.00  0.00     0.000 C 
BRANCH  11  12
HETATM   12  C12 UNL     1     -10.494   1.686  17.104  1.00  0.00     0.000 C 
BRANCH  12  13
HETATM   13  C13 UNL     1      -9.347   2.254  17.932  1.00  0.00     0.000 C 
BRANCH  13  14
HETATM   14  C14 UNL     1      -8.239   1.266  18.070  1.00  0.00     0.000 C 
BRANCH  14  15
HETATM   15  C15 UNL     1      -7.396   1.512  19.308  1.00  0.00     0.000 C 
BRANCH  15  16
HETATM   16  C16 UNL     1      -6.117   0.729  19.221  1.00  0.00     0.000 C 
BRANCH  16  17
HETATM   17  C17 UNL     1      -5.659   0.304  20.585  1.00  0.00     0.006 C 
BRANCH  17  18
HETATM   18  C18 UNL     1      -4.194  -0.064  20.590  1.00  0.00     0.061 C 
BRANCH  18  19
HETATM   19  C19 UNL     1      -3.536   0.715  21.709  1.00  0.00     0.051 A 
HETATM   20  N1  UNL     1      -4.109   1.213  22.811  1.00  0.00    -0.353 N 
HETATM   21  C20 UNL     1      -3.150   1.833  23.527  1.00  0.00     0.182 A 
ATOM     22  H1  UNL     1      -5.095   1.138  23.064  1.00  0.00     0.166 HD
HETATM   23  N2  UNL     1      -1.968   1.749  22.917  1.00  0.00    -0.339 N 
HETATM   24  C21 UNL     1      -2.186   1.057  21.782  1.00  0.00     0.140 A 
ATOM     25  H2  UNL     1      -1.080   2.131  23.243  1.00  0.00     0.167 HD
HETATM   26  N3  UNL     1      -1.201   0.720  20.804  1.00  0.00    -0.081 NA
ENDBRANCH  18  19
ENDBRANCH  17  18
ENDBRANCH  16  17
ENDBRANCH  15  16
ENDBRANCH  14  15
ENDBRANCH  13  14
ENDBRANCH  12  13
ENDBRANCH  11  12
ENDBRANCH  10  11
ENDBRANCH   9  10
ENDBRANCH   8   9
ENDBRANCH   7   8
ENDBRANCH   6   7
ENDBRANCH   5   6
ENDBRANCH   4   5
ENDBRANCH   3   4
TORSDOF 16
ENDMDL
