MODEL 1
REMARK VINA RESULT: -9.425345982      0.000      0.000
REMARK  12 active torsions:
REMARK  status: ('A' for Active; 'I' for Inactive)
REMARK    1  A    between atoms: C2_2  and  C3_3 
REMARK    2  A    between atoms: C3_3  and  C4_4 
REMARK    3  A    between atoms: C4_4  and  C5_5 
REMARK    4  A    between atoms: C5_5  and  N1_6 
REMARK    5  A    between atoms: N1_6  and  C6_9 
REMARK    6  A    between atoms: C6_9  and  C7_10 
REMARK    7  A    between atoms: C7_10  and  C8_11 
REMARK    8  A    between atoms: C11_14  and  O1_15 
REMARK    9  A    between atoms: O1_15  and  C12_16 
REMARK   10  A    between atoms: C12_16  and  C13_17 
REMARK   11  A    between atoms: C13_17  and  C14_18 
REMARK   12  A    between atoms: C14_18  and  C15_19 
ROOT
HETATM    1  C8  UNL     1     -10.195   1.446  15.435  1.00  0.00    -0.056 A 
HETATM    2  C9  UNL     1      -8.893   1.009  15.351  1.00  0.00     0.010 A 
HETATM    3  C10 UNL     1      -8.043   0.930  16.452  1.00  0.00     0.037 A 
HETATM    4  C11 UNL     1      -8.484   1.297  17.701  1.00  0.00     0.068 A 
HETATM    5  C21 UNL     1      -9.820   1.748  17.794  1.00  0.00     0.037 A 
HETATM    6  C22 UNL     1     -10.625   1.812  16.693  1.00  0.00     0.010 A 
ENDROOT
BRANCH   1   7
HETATM    7  C7  UNL     1     -11.091   1.526  14.252  1.00  0.00     0.066 C 
BRANCH   7   8
HETATM    8  C6  UNL     1     -10.488   2.535  13.280  1.00  0.00     0.237 C 
BRANCH   8   9
HETATM    9  N1  UNL     1     -10.451   2.002  11.923  1.00  0.00    -0.075 N 
ATOM     10  H12 UNL     1     -10.515   2.753  11.235  1.00  0.00     0.277 HD
ATOM     11  H11 UNL     1     -11.313   1.501  11.705  1.00  0.00     0.277 HD
BRANCH   9  12
HETATM   12  C5  UNL     1      -9.324   1.191  11.677  1.00  0.00     0.236 C 
BRANCH  12  13
HETATM   13  C4  UNL     1      -9.632  -0.226  11.328  1.00  0.00     0.054 C 
BRANCH  13  14
HETATM   14  C3  UNL     1      -9.750  -1.199  12.425  1.00  0.00    -0.026 C 
BRANCH  14  15
HETATM   15  C2  UNL     1      -9.761  -2.621  12.201  1.00  0.00    -0.014 C 
HETATM   16  C1  UNL     1      -9.043  -3.584  12.721  1.00  0.00     0.011 C 
ENDBRANCH  14  15
ENDBRANCH  13  14
ENDBRANCH  12  13
ENDBRANCH   9  12
ENDBRANCH   8   9
ENDBRANCH   7   8
ENDBRANCH   1   7
BRANCH   4  17
HETATM   17  O1  UNL     1      -7.730   1.251  18.850  1.00  0.00    -0.351 OA
BRANCH  17  18
HETATM   18  C12 UNL     1      -6.534   0.585  18.981  1.00  0.00     0.176 C 
BRANCH  18  19
HETATM   19  C13 UNL     1      -6.048   0.561  20.384  1.00  0.00     0.031 C 
BRANCH  19  20
HETATM   20  C14 UNL     1      -4.995  -0.479  20.671  1.00  0.00     0.041 C 
BRANCH  20  21
HETATM   21  C15 UNL     1      -3.692   0.184  20.888  1.00  0.00    -0.058 A 
HETATM   22  C16 UNL     1      -3.515   1.549  20.801  1.00  0.00     0.007 A 
HETATM   23  C17 UNL     1      -2.310   2.182  20.997  1.00  0.00     0.001 A 
HETATM   24  C18 UNL     1      -1.191   1.438  21.301  1.00  0.00     0.000 A 
HETATM   25  C19 UNL     1      -1.333   0.070  21.395  1.00  0.00     0.001 A 
HETATM   26  C20 UNL     1      -2.544  -0.556  21.197  1.00  0.00     0.007 A 
ENDBRANCH  20  21
ENDBRANCH  19  20
ENDBRANCH  18  19
ENDBRANCH  17  18
ENDBRANCH   4  17
TORSDOF 12
ENDMDL
MODEL 2
REMARK VINA RESULT: -9.320423813      0.194      1.370
REMARK  12 active torsions:
REMARK  status: ('A' for Active; 'I' for Inactive)
REMARK    1  A    between atoms: C2_2  and  C3_3 
REMARK    2  A    between atoms: C3_3  and  C4_4 
REMARK    3  A    between atoms: C4_4  and  C5_5 
REMARK    4  A    between atoms: C5_5  and  N1_6 
REMARK    5  A    between atoms: N1_6  and  C6_9 
REMARK    6  A    between atoms: C6_9  and  C7_10 
REMARK    7  A    between atoms: C7_10  and  C8_11 
REMARK    8  A    between atoms: C11_14  and  O1_15 
REMARK    9  A    between atoms: O1_15  and  C12_16 
REMARK   10  A    between atoms: C12_16  and  C13_17 
REMARK   11  A    between atoms: C13_17  and  C14_18 
REMARK   12  A    between atoms: C14_18  and  C15_19 
ROOT
HETATM    1  C8  UNL     1     -10.296   1.395  15.404  1.00  0.00    -0.056 A 
HETATM    2  C9  UNL     1     -10.763   1.769  16.643  1.00  0.00     0.010 A 
HETATM    3  C10 UNL     1      -9.976   1.752  17.792  1.00  0.00     0.037 A 
HETATM    4  C11 UNL     1      -8.663   1.348  17.732  1.00  0.00     0.068 A 
HETATM    5  C21 UNL     1      -8.177   0.962  16.463  1.00  0.00     0.037 A 
HETATM    6  C22 UNL     1      -8.978   0.991  15.357  1.00  0.00     0.010 A 
ENDROOT
BRANCH   1   7
HETATM    7  C7  UNL     1     -11.147   1.418  14.186  1.00  0.00     0.066 C 
BRANCH   7   8
HETATM    8  C6  UNL     1     -10.579   2.475  13.243  1.00  0.00     0.237 C 
BRANCH   8   9
HETATM    9  N1  UNL     1     -10.448   1.956  11.887  1.00  0.00    -0.075 N 
ATOM     10  H12 UNL     1     -10.487   2.711  11.203  1.00  0.00     0.277 HD
ATOM     11  H11 UNL     1     -11.285   1.439  11.613  1.00  0.00     0.277 HD
BRANCH   9  12
HETATM   12  C5  UNL     1      -9.292   1.171  11.703  1.00  0.00     0.236 C 
BRANCH  12  13
HETATM   13  C4  UNL     1      -9.548  -0.249  11.324  1.00  0.00     0.054 C 
BRANCH  13  14
HETATM   14  C3  UNL     1      -9.793  -1.220  12.402  1.00  0.00    -0.026 C 
BRANCH  14  15
HETATM   15  C2  UNL     1      -9.764  -2.642  12.185  1.00  0.00    -0.014 C 
HETATM   16  C1  UNL     1      -9.040  -3.586  12.731  1.00  0.00     0.011 C 
ENDBRANCH  14  15
ENDBRANCH  13  14
ENDBRANCH  12  13
ENDBRANCH   9  12
ENDBRANCH   8   9
ENDBRANCH   7   8
ENDBRANCH   1   7
BRANCH   4  17
HETATM   17  O1  UNL     1      -7.802   1.301  18.802  1.00  0.00    -0.351 OA
BRANCH  17  18
HETATM   18  C12 UNL     1      -6.630   0.583  18.840  1.00  0.00     0.176 C 
BRANCH  18  19
HETATM   19  C13 UNL     1      -5.998   0.595  20.184  1.00  0.00     0.031 C 
BRANCH  19  20
HETATM   20  C14 UNL     1      -4.996  -0.505  20.424  1.00  0.00     0.041 C 
BRANCH  20  21
HETATM   21  C15 UNL     1      -3.710   0.083  20.855  1.00  0.00    -0.058 A 
HETATM   22  C16 UNL     1      -2.685  -0.660  21.400  1.00  0.00     0.007 A 
HETATM   23  C17 UNL     1      -1.484  -0.128  21.808  1.00  0.00     0.001 A 
HETATM   24  C18 UNL     1      -1.258   1.224  21.679  1.00  0.00     0.000 A 
HETATM   25  C19 UNL     1      -2.263   1.996  21.138  1.00  0.00     0.001 A 
HETATM   26  C20 UNL     1      -3.464   1.456  20.731  1.00  0.00     0.007 A 
ENDBRANCH  20  21
ENDBRANCH  19  20
ENDBRANCH  18  19
ENDBRANCH  17  18
ENDBRANCH   4  17
TORSDOF 12
ENDMDL
MODEL 3
REMARK VINA RESULT: -9.151496881      1.885      2.683
REMARK  12 active torsions:
REMARK  status: ('A' for Active; 'I' for Inactive)
REMARK    1  A    between atoms: C2_2  and  C3_3 
REMARK    2  A    between atoms: C3_3  and  C4_4 
REMARK    3  A    between atoms: C4_4  and  C5_5 
REMARK    4  A    between atoms: C5_5  and  N1_6 
REMARK    5  A    between atoms: N1_6  and  C6_9 
REMARK    6  A    between atoms: C6_9  and  C7_10 
REMARK    7  A    between atoms: C7_10  and  C8_11 
REMARK    8  A    between atoms: C11_14  and  O1_15 
REMARK    9  A    between atoms: O1_15  and  C12_16 
REMARK   10  A    between atoms: C12_16  and  C13_17 
REMARK   11  A    between atoms: C13_17  and  C14_18 
REMARK   12  A    between atoms: C14_18  and  C15_19 
ROOT
HETATM    1  C8  UNL     1      -9.694   1.751  15.822  1.00  0.00    -0.056 A 
HETATM    2  C9  UNL     1      -8.484   1.103  15.736  1.00  0.00     0.010 A 
HETATM    3  C10 UNL     1      -7.719   0.763  16.850  1.00  0.00     0.037 A 
HETATM    4  C11 UNL     1      -8.157   1.072  18.116  1.00  0.00     0.068 A 
HETATM    5  C21 UNL     1      -9.398   1.738  18.212  1.00  0.00     0.037 A 
HETATM    6  C22 UNL     1     -10.121   2.056  17.098  1.00  0.00     0.010 A 
ENDROOT
BRANCH   1   7
HETATM    7  C7  UNL     1     -10.500   2.108  14.625  1.00  0.00     0.066 C 
BRANCH   7   8
HETATM    8  C6  UNL     1      -9.693   3.111  13.805  1.00  0.00     0.237 C 
BRANCH   8   9
HETATM    9  N1  UNL     1      -9.750   2.794  12.383  1.00  0.00    -0.075 N 
ATOM     10  H12 UNL     1      -8.819   2.826  11.966  1.00  0.00     0.277 HD
ATOM     11  H11 UNL     1     -10.193   3.550  11.859  1.00  0.00     0.277 HD
BRANCH   9  12
HETATM   12  C5  UNL     1     -10.379   1.562  12.114  1.00  0.00     0.236 C 
BRANCH  12  13
HETATM   13  C4  UNL     1      -9.462   0.468  11.682  1.00  0.00     0.054 C 
BRANCH  13  14
HETATM   14  C3  UNL     1      -9.342  -0.717  12.546  1.00  0.00    -0.026 C 
BRANCH  14  15
HETATM   15  C2  UNL     1      -9.844  -2.010  12.162  1.00  0.00    -0.014 C 
HETATM   16  C1  UNL     1      -9.385  -3.216  12.382  1.00  0.00     0.011 C 
ENDBRANCH  14  15
ENDBRANCH  13  14
ENDBRANCH  12  13
ENDBRANCH   9  12
ENDBRANCH   8   9
ENDBRANCH   7   8
ENDBRANCH   1   7
BRANCH   4  17
HETATM   17  O1  UNL     1      -7.483   0.776  19.277  1.00  0.00    -0.351 OA
BRANCH  17  18
HETATM   18  C12 UNL     1      -6.160   1.061  19.516  1.00  0.00     0.176 C 
BRANCH  18  19
HETATM   19  C13 UNL     1      -5.488   0.011  20.323  1.00  0.00     0.031 C 
BRANCH  19  20
HETATM   20  C14 UNL     1      -5.422  -1.345  19.669  1.00  0.00     0.041 C 
BRANCH  20  21
HETATM   21  C15 UNL     1      -5.148  -2.375  20.694  1.00  0.00    -0.058 A 
HETATM   22  C16 UNL     1      -5.845  -2.463  21.880  1.00  0.00     0.007 A 
HETATM   23  C17 UNL     1      -5.601  -3.413  22.846  1.00  0.00     0.001 A 
HETATM   24  C18 UNL     1      -4.608  -4.347  22.647  1.00  0.00     0.000 A 
HETATM   25  C19 UNL     1      -3.892  -4.286  21.471  1.00  0.00     0.001 A 
HETATM   26  C20 UNL     1      -4.143  -3.332  20.510  1.00  0.00     0.007 A 
ENDBRANCH  20  21
ENDBRANCH  19  20
ENDBRANCH  18  19
ENDBRANCH  17  18
ENDBRANCH   4  17
TORSDOF 12
ENDMDL
MODEL 4
REMARK VINA RESULT: -9.011543833      1.523      2.269
REMARK  12 active torsions:
REMARK  status: ('A' for Active; 'I' for Inactive)
REMARK    1  A    between atoms: C2_2  and  C3_3 
REMARK    2  A    between atoms: C3_3  and  C4_4 
REMARK    3  A    between atoms: C4_4  and  C5_5 
REMARK    4  A    between atoms: C5_5  and  N1_6 
REMARK    5  A    between atoms: N1_6  and  C6_9 
REMARK    6  A    between atoms: C6_9  and  C7_10 
REMARK    7  A    between atoms: C7_10  and  C8_11 
REMARK    8  A    between atoms: C11_14  and  O1_15 
REMARK    9  A    between atoms: O1_15  and  C12_16 
REMARK   10  A    between atoms: C12_16  and  C13_17 
REMARK   11  A    between atoms: C13_17  and  C14_18 
REMARK   12  A    between atoms: C14_18  and  C15_19 
ROOT
HETATM    1  C8  UNL     1      -9.787   1.753  15.679  1.00  0.00    -0.056 A 
HETATM    2  C9  UNL     1      -8.570   1.116  15.596  1.00  0.00     0.010 A 
HETATM    3  C10 UNL     1      -7.799   0.796  16.711  1.00  0.00     0.037 A 
HETATM    4  C11 UNL     1      -8.237   1.111  17.975  1.00  0.00     0.068 A 
HETATM    5  C21 UNL     1      -9.485   1.765  18.068  1.00  0.00     0.037 A 
HETATM    6  C22 UNL     1     -10.214   2.065  16.954  1.00  0.00     0.010 A 
ENDROOT
BRANCH   1   7
HETATM    7  C7  UNL     1     -10.600   2.089  14.482  1.00  0.00     0.066 C 
BRANCH   7   8
HETATM    8  C6  UNL     1      -9.814   3.106  13.659  1.00  0.00     0.237 C 
BRANCH   8   9
HETATM    9  N1  UNL     1      -9.745   2.709  12.257  1.00  0.00    -0.075 N 
ATOM     10  H12 UNL     1      -8.778   2.680  11.935  1.00  0.00     0.277 HD
ATOM     11  H11 UNL     1     -10.101   3.449  11.651  1.00  0.00     0.277 HD
BRANCH   9  12
HETATM   12  C5  UNL     1     -10.399   1.488  11.994  1.00  0.00     0.236 C 
BRANCH  12  13
HETATM   13  C4  UNL     1      -9.498   0.359  11.622  1.00  0.00     0.054 C 
BRANCH  13  14
HETATM   14  C3  UNL     1      -9.361  -0.758  12.569  1.00  0.00    -0.026 C 
BRANCH  14  15
HETATM   15  C2  UNL     1      -9.930  -2.058  12.322  1.00  0.00    -0.014 C 
HETATM   16  C1  UNL     1      -9.375  -3.238  12.211  1.00  0.00     0.011 C 
ENDBRANCH  14  15
ENDBRANCH  13  14
ENDBRANCH  12  13
ENDBRANCH   9  12
ENDBRANCH   8   9
ENDBRANCH   7   8
ENDBRANCH   1   7
BRANCH   4  17
HETATM   17  O1  UNL     1      -7.557   0.834  19.137  1.00  0.00    -0.351 OA
BRANCH  17  18
HETATM   18  C12 UNL     1      -6.190   0.870  19.279  1.00  0.00     0.176 C 
BRANCH  18  19
HETATM   19  C13 UNL     1      -5.639  -0.401  19.812  1.00  0.00     0.031 C 
BRANCH  19  20
HETATM   20  C14 UNL     1      -4.393  -0.251  20.647  1.00  0.00     0.041 C 
BRANCH  20  21
HETATM   21  C15 UNL     1      -3.956  -1.580  21.125  1.00  0.00    -0.058 A 
HETATM   22  C16 UNL     1      -4.294  -2.758  20.494  1.00  0.00     0.007 A 
HETATM   23  C17 UNL     1      -3.898  -4.003  20.927  1.00  0.00     0.001 A 
HETATM   24  C18 UNL     1      -3.116  -4.115  22.055  1.00  0.00     0.000 A 
HETATM   25  C19 UNL     1      -2.760  -2.956  22.710  1.00  0.00     0.001 A 
HETATM   26  C20 UNL     1      -3.161  -1.713  22.270  1.00  0.00     0.007 A 
ENDBRANCH  20  21
ENDBRANCH  19  20
ENDBRANCH  18  19
ENDBRANCH  17  18
ENDBRANCH   4  17
TORSDOF 12
ENDMDL
MODEL 5
REMARK VINA RESULT: -8.906339292      1.065      1.148
REMARK  12 active torsions:
REMARK  status: ('A' for Active; 'I' for Inactive)
REMARK    1  A    between atoms: C2_2  and  C3_3 
REMARK    2  A    between atoms: C3_3  and  C4_4 
REMARK    3  A    between atoms: C4_4  and  C5_5 
REMARK    4  A    between atoms: C5_5  and  N1_6 
REMARK    5  A    between atoms: N1_6  and  C6_9 
REMARK    6  A    between atoms: C6_9  and  C7_10 
REMARK    7  A    between atoms: C7_10  and  C8_11 
REMARK    8  A    between atoms: C11_14  and  O1_15 
REMARK    9  A    between atoms: O1_15  and  C12_16 
REMARK   10  A    between atoms: C12_16  and  C13_17 
REMARK   11  A    between atoms: C13_17  and  C14_18 
REMARK   12  A    between atoms: C14_18  and  C15_19 
ROOT
HETATM    1  C8  UNL     1      -9.810   1.714  15.630  1.00  0.00    -0.056 A 
HETATM    2  C9  UNL     1      -8.567   1.130  15.554  1.00  0.00     0.010 A 
HETATM    3  C10 UNL     1      -7.799   0.823  16.675  1.00  0.00     0.037 A 
HETATM    4  C11 UNL     1      -8.267   1.099  17.938  1.00  0.00     0.068 A 
HETATM    5  C21 UNL     1      -9.542   1.699  18.023  1.00  0.00     0.037 A 
HETATM    6  C22 UNL     1     -10.267   1.987  16.903  1.00  0.00     0.010 A 
ENDROOT
BRANCH   1   7
HETATM    7  C7  UNL     1     -10.619   2.037  14.426  1.00  0.00     0.066 C 
BRANCH   7   8
HETATM    8  C6  UNL     1      -9.840   3.060  13.605  1.00  0.00     0.237 C 
BRANCH   8   9
HETATM    9  N1  UNL     1      -9.830   2.703  12.191  1.00  0.00    -0.075 N 
ATOM     10  H12 UNL     1      -8.887   2.760  11.808  1.00  0.00     0.277 HD
ATOM     11  H11 UNL     1     -10.282   3.425  11.630  1.00  0.00     0.277 HD
BRANCH   9  12
HETATM   12  C5  UNL     1     -10.400   1.439  11.935  1.00  0.00     0.236 C 
BRANCH  12  13
HETATM   13  C4  UNL     1      -9.420   0.355  11.639  1.00  0.00     0.054 C 
BRANCH  13  14
HETATM   14  C3  UNL     1      -9.313  -0.761  12.593  1.00  0.00    -0.026 C 
BRANCH  14  15
HETATM   15  C2  UNL     1      -9.976  -2.022  12.387  1.00  0.00    -0.014 C 
HETATM   16  C1  UNL     1      -9.518  -3.188  12.009  1.00  0.00     0.011 C 
ENDBRANCH  14  15
ENDBRANCH  13  14
ENDBRANCH  12  13
ENDBRANCH   9  12
ENDBRANCH   8   9
ENDBRANCH   7   8
ENDBRANCH   1   7
BRANCH   4  17
HETATM   17  O1  UNL     1      -7.593   0.830  19.105  1.00  0.00    -0.351 OA
BRANCH  17  18
HETATM   18  C12 UNL     1      -6.264   0.484  19.187  1.00  0.00     0.176 C 
BRANCH  18  19
HETATM   19  C13 UNL     1      -5.987  -0.447  20.309  1.00  0.00     0.031 C 
BRANCH  19  20
HETATM   20  C14 UNL     1      -4.536  -0.818  20.481  1.00  0.00     0.041 C 
BRANCH  20  21
HETATM   21  C15 UNL     1      -3.897   0.116  21.432  1.00  0.00    -0.058 A 
HETATM   22  C16 UNL     1      -3.147   1.202  21.035  1.00  0.00     0.007 A 
HETATM   23  C17 UNL     1      -2.543   2.079  21.907  1.00  0.00     0.001 A 
HETATM   24  C18 UNL     1      -2.676   1.890  23.265  1.00  0.00     0.000 A 
HETATM   25  C19 UNL     1      -3.418   0.812  23.695  1.00  0.00     0.001 A 
HETATM   26  C20 UNL     1      -4.020  -0.062  22.816  1.00  0.00     0.007 A 
ENDBRANCH  20  21
ENDBRANCH  19  20
ENDBRANCH  18  19
ENDBRANCH  17  18
ENDBRANCH   4  17
TORSDOF 12
ENDMDL
