MODEL 1
REMARK VINA RESULT: -8.532277942      0.000      0.000
REMARK  12 active torsions:
REMARK  status: ('A' for Active; 'I' for Inactive)
REMARK    1  A    between atoms: C2_2  and  C3_3 
REMARK    2  A    between atoms: C2_2  and  C16_20 
REMARK    3  A    between atoms: C3_3  and  O1_4 
REMARK    4  A    between atoms: O1_4  and  C4_5 
REMARK    5  A    between atoms: C4_5  and  C5_6 
REMARK    6  A    between atoms: C5_6  and  C6_7 
REMARK    7  A    between atoms: C6_7  and  C7_8 
REMARK    8  A    between atoms: C7_8  and  C8_9 
REMARK    9  A    between atoms: C8_9  and  N1_10 
REMARK   10  A    between atoms: N1_10  and  C9_13 
REMARK   11  A    between atoms: C9_13  and  C10_14 
REMARK   12  A    between atoms: C16_20  and  C17_21 
ROOT
HETATM    1  C5  UNL     1      -6.257   0.059  20.221  1.00  0.00     0.026 C 
ENDROOT
BRANCH   1   2
HETATM    2  C4  UNL     1      -6.063   1.037  19.054  1.00  0.00     0.167 C 
BRANCH   2   3
HETATM    3  O1  UNL     1      -7.033   0.885  18.109  1.00  0.00    -0.391 OA
BRANCH   3   4
HETATM    4  C3  UNL     1      -8.271   1.232  18.572  1.00  0.00     0.172 C 
BRANCH   4   5
HETATM    5  C2  UNL     1      -9.240   1.417  17.437  1.00  0.00     0.010 C 
HETATM    6  C1  UNL     1     -10.209   2.542  17.778  1.00  0.00     0.012 C 
BRANCH   5   7
HETATM    7  C16 UNL     1      -8.495   1.689  16.175  1.00  0.00     0.045 C 
BRANCH   7   8
HETATM    8  C17 UNL     1      -9.397   1.829  14.999  1.00  0.00    -0.058 A 
HETATM    9  C18 UNL     1     -10.194   0.776  14.605  1.00  0.00     0.007 A 
HETATM   10  C19 UNL     1     -11.026   0.919  13.507  1.00  0.00     0.001 A 
HETATM   11  C20 UNL     1     -11.037   2.120  12.825  1.00  0.00     0.000 A 
HETATM   12  C21 UNL     1     -10.237   3.177  13.221  1.00  0.00     0.001 A 
HETATM   13  C22 UNL     1      -9.403   3.039  14.320  1.00  0.00     0.007 A 
ENDBRANCH   7   8
ENDBRANCH   5   7
ENDBRANCH   4   5
ENDBRANCH   3   4
ENDBRANCH   2   3
ENDBRANCH   1   2
BRANCH   1  14
HETATM   14  C6  UNL     1      -5.289  -1.074  20.005  1.00  0.00     0.004 C 
BRANCH  14  15
HETATM   15  C7  UNL     1      -5.301  -2.032  21.148  1.00  0.00     0.027 C 
BRANCH  15  16
HETATM   16  C8  UNL     1      -5.822  -1.366  22.391  1.00  0.00     0.232 C 
BRANCH  16  17
HETATM   17  N1  UNL     1      -4.772  -1.162  23.377  1.00  0.00    -0.071 N 
ATOM     18  H12 UNL     1      -5.038  -1.524  24.292  1.00  0.00     0.277 HD
ATOM     19  H11 UNL     1      -3.968  -1.764  23.200  1.00  0.00     0.277 HD
BRANCH  17  20
HETATM   20  C9  UNL     1      -4.397   0.211  23.444  1.00  0.00     0.270 C 
BRANCH  20  21
HETATM   21  C10 UNL     1      -3.243   0.571  22.616  1.00  0.00    -0.033 A 
HETATM   22  C11 UNL     1      -2.047  -0.118  22.635  1.00  0.00     0.009 A 
HETATM   23  C12 UNL     1      -0.981   0.257  21.844  1.00  0.00     0.001 A 
HETATM   24  C13 UNL     1      -1.139   1.350  21.023  1.00  0.00     0.000 A 
HETATM   25  C14 UNL     1      -2.301   2.052  20.979  1.00  0.00     0.001 A 
HETATM   26  C15 UNL     1      -3.349   1.661  21.776  1.00  0.00     0.009 A 
ENDBRANCH  20  21
ENDBRANCH  17  20
ENDBRANCH  16  17
ENDBRANCH  15  16
ENDBRANCH  14  15
ENDBRANCH   1  14
TORSDOF 12
ENDMDL
MODEL 2
REMARK VINA RESULT: -8.522183499      1.185      1.860
REMARK  12 active torsions:
REMARK  status: ('A' for Active; 'I' for Inactive)
REMARK    1  A    between atoms: C2_2  and  C3_3 
REMARK    2  A    between atoms: C2_2  and  C16_20 
REMARK    3  A    between atoms: C3_3  and  O1_4 
REMARK    4  A    between atoms: O1_4  and  C4_5 
REMARK    5  A    between atoms: C4_5  and  C5_6 
REMARK    6  A    between atoms: C5_6  and  C6_7 
REMARK    7  A    between atoms: C6_7  and  C7_8 
REMARK    8  A    between atoms: C7_8  and  C8_9 
REMARK    9  A    between atoms: C8_9  and  N1_10 
REMARK   10  A    between atoms: N1_10  and  C9_13 
REMARK   11  A    between atoms: C9_13  and  C10_14 
REMARK   12  A    between atoms: C16_20  and  C17_21 
ROOT
HETATM    1  C5  UNL     1      -6.006  -0.117  19.167  1.00  0.00     0.026 C 
ENDROOT
BRANCH   1   2
HETATM    2  C4  UNL     1      -7.000   1.047  19.278  1.00  0.00     0.167 C 
BRANCH   2   3
HETATM    3  O1  UNL     1      -7.659   1.256  18.105  1.00  0.00    -0.391 OA
BRANCH   3   4
HETATM    4  C3  UNL     1      -9.004   1.425  18.284  1.00  0.00     0.172 C 
BRANCH   4   5
HETATM    5  C2  UNL     1      -9.729   1.418  16.966  1.00  0.00     0.010 C 
HETATM    6  C1  UNL     1     -11.117   2.018  17.151  1.00  0.00     0.012 C 
BRANCH   5   7
HETATM    7  C16 UNL     1      -8.933   2.159  15.946  1.00  0.00     0.045 C 
BRANCH   7   8
HETATM    8  C17 UNL     1      -9.463   1.977  14.567  1.00  0.00    -0.058 A 
HETATM    9  C18 UNL     1      -9.721   3.072  13.771  1.00  0.00     0.007 A 
HETATM   10  C19 UNL     1     -10.217   2.888  12.492  1.00  0.00     0.001 A 
HETATM   11  C20 UNL     1     -10.446   1.603  12.038  1.00  0.00     0.000 A 
HETATM   12  C21 UNL     1     -10.186   0.504  12.837  1.00  0.00     0.001 A 
HETATM   13  C22 UNL     1      -9.689   0.683  14.119  1.00  0.00     0.007 A 
ENDBRANCH   7   8
ENDBRANCH   5   7
ENDBRANCH   4   5
ENDBRANCH   3   4
ENDBRANCH   2   3
ENDBRANCH   1   2
BRANCH   1  14
HETATM   14  C6  UNL     1      -5.321  -0.234  20.502  1.00  0.00     0.004 C 
BRANCH  14  15
HETATM   15  C7  UNL     1      -6.230   0.145  21.622  1.00  0.00     0.027 C 
BRANCH  15  16
HETATM   16  C8  UNL     1      -5.457   0.287  22.904  1.00  0.00     0.232 C 
BRANCH  16  17
HETATM   17  N1  UNL     1      -4.527   1.405  22.854  1.00  0.00    -0.071 N 
ATOM     18  H12 UNL     1      -4.243   1.616  21.898  1.00  0.00     0.277 HD
ATOM     19  H11 UNL     1      -4.987   2.287  23.079  1.00  0.00     0.277 HD
BRANCH  17  20
HETATM   20  C9  UNL     1      -3.402   1.169  23.696  1.00  0.00     0.270 C 
BRANCH  20  21
HETATM   21  C10 UNL     1      -2.134   0.989  22.986  1.00  0.00    -0.033 A 
HETATM   22  C11 UNL     1      -1.989   1.176  21.626  1.00  0.00     0.009 A 
HETATM   23  C12 UNL     1      -0.778   0.991  20.993  1.00  0.00     0.001 A 
HETATM   24  C13 UNL     1       0.299   0.609  21.758  1.00  0.00     0.000 A 
HETATM   25  C14 UNL     1       0.194   0.415  23.099  1.00  0.00     0.001 A 
HETATM   26  C15 UNL     1      -1.022   0.605  23.708  1.00  0.00     0.009 A 
ENDBRANCH  20  21
ENDBRANCH  17  20
ENDBRANCH  16  17
ENDBRANCH  15  16
ENDBRANCH  14  15
ENDBRANCH   1  14
TORSDOF 12
ENDMDL
MODEL 3
REMARK VINA RESULT: -8.462737283      1.259      1.446
REMARK  12 active torsions:
REMARK  status: ('A' for Active; 'I' for Inactive)
REMARK    1  A    between atoms: C2_2  and  C3_3 
REMARK    2  A    between atoms: C2_2  and  C16_20 
REMARK    3  A    between atoms: C3_3  and  O1_4 
REMARK    4  A    between atoms: O1_4  and  C4_5 
REMARK    5  A    between atoms: C4_5  and  C5_6 
REMARK    6  A    between atoms: C5_6  and  C6_7 
REMARK    7  A    between atoms: C6_7  and  C7_8 
REMARK    8  A    between atoms: C7_8  and  C8_9 
REMARK    9  A    between atoms: C8_9  and  N1_10 
REMARK   10  A    between atoms: N1_10  and  C9_13 
REMARK   11  A    between atoms: C9_13  and  C10_14 
REMARK   12  A    between atoms: C16_20  and  C17_21 
ROOT
HETATM    1  C5  UNL     1      -5.989   0.150  19.196  1.00  0.00     0.026 C 
ENDROOT
BRANCH   1   2
HETATM    2  C4  UNL     1      -7.182   1.114  19.253  1.00  0.00     0.167 C 
BRANCH   2   3
HETATM    3  O1  UNL     1      -7.829   1.179  18.057  1.00  0.00    -0.391 OA
BRANCH   3   4
HETATM    4  C3  UNL     1      -9.152   1.495  18.195  1.00  0.00     0.172 C 
BRANCH   4   5
HETATM    5  C2  UNL     1      -9.861   1.439  16.870  1.00  0.00     0.010 C 
HETATM    6  C1  UNL     1     -11.281   1.969  17.035  1.00  0.00     0.012 C 
BRANCH   5   7
HETATM    7  C16 UNL     1      -9.095   2.212  15.852  1.00  0.00     0.045 C 
BRANCH   7   8
HETATM    8  C17 UNL     1      -9.546   1.928  14.462  1.00  0.00    -0.058 A 
HETATM    9  C18 UNL     1      -9.672   0.628  14.023  1.00  0.00     0.007 A 
HETATM   10  C19 UNL     1     -10.089   0.378  12.727  1.00  0.00     0.001 A 
HETATM   11  C20 UNL     1     -10.369   1.445  11.894  1.00  0.00     0.000 A 
HETATM   12  C21 UNL     1     -10.242   2.750  12.335  1.00  0.00     0.001 A 
HETATM   13  C22 UNL     1      -9.826   3.005  13.633  1.00  0.00     0.007 A 
ENDBRANCH   7   8
ENDBRANCH   5   7
ENDBRANCH   4   5
ENDBRANCH   3   4
ENDBRANCH   2   3
ENDBRANCH   1   2
BRANCH   1  14
HETATM   14  C6  UNL     1      -5.087   0.505  20.348  1.00  0.00     0.004 C 
BRANCH  14  15
HETATM   15  C7  UNL     1      -5.277  -0.421  21.502  1.00  0.00     0.027 C 
BRANCH  15  16
HETATM   16  C8  UNL     1      -5.354   0.349  22.791  1.00  0.00     0.232 C 
BRANCH  16  17
HETATM   17  N1  UNL     1      -4.358   1.407  22.849  1.00  0.00    -0.071 N 
ATOM     18  H12 UNL     1      -4.000   1.640  21.923  1.00  0.00     0.277 HD
ATOM     19  H11 UNL     1      -4.779   2.307  23.083  1.00  0.00     0.277 HD
BRANCH  17  20
HETATM   20  C9  UNL     1      -3.307   1.068  23.749  1.00  0.00     0.270 C 
BRANCH  20  21
HETATM   21  C10 UNL     1      -1.994   0.900  23.120  1.00  0.00    -0.033 A 
HETATM   22  C11 UNL     1      -0.855   0.550  23.816  1.00  0.00     0.009 A 
HETATM   23  C12 UNL     1       0.364   0.407  23.188  1.00  0.00     0.001 A 
HETATM   24  C13 UNL     1       0.421   0.626  21.831  1.00  0.00     0.000 A 
HETATM   25  C14 UNL     1      -0.680   0.973  21.114  1.00  0.00     0.001 A 
HETATM   26  C15 UNL     1      -1.884   1.110  21.761  1.00  0.00     0.009 A 
ENDBRANCH  20  21
ENDBRANCH  17  20
ENDBRANCH  16  17
ENDBRANCH  15  16
ENDBRANCH  14  15
ENDBRANCH   1  14
TORSDOF 12
ENDMDL
MODEL 4
REMARK VINA RESULT: -8.356772529      1.045      1.732
REMARK  12 active torsions:
REMARK  status: ('A' for Active; 'I' for Inactive)
REMARK    1  A    between atoms: C2_2  and  C3_3 
REMARK    2  A    between atoms: C2_2  and  C16_20 
REMARK    3  A    between atoms: C3_3  and  O1_4 
REMARK    4  A    between atoms: O1_4  and  C4_5 
REMARK    5  A    between atoms: C4_5  and  C5_6 
REMARK    6  A    between atoms: C5_6  and  C6_7 
REMARK    7  A    between atoms: C6_7  and  C7_8 
REMARK    8  A    between atoms: C7_8  and  C8_9 
REMARK    9  A    between atoms: C8_9  and  N1_10 
REMARK   10  A    between atoms: N1_10  and  C9_13 
REMARK   11  A    between atoms: C9_13  and  C10_14 
REMARK   12  A    between atoms: C16_20  and  C17_21 
ROOT
HETATM    1  C5  UNL     1      -5.623  -0.039  19.436  1.00  0.00     0.026 C 
ENDROOT
BRANCH   1   2
HETATM    2  C4  UNL     1      -6.761   0.987  19.514  1.00  0.00     0.167 C 
BRANCH   2   3
HETATM    3  O1  UNL     1      -7.455   1.053  18.343  1.00  0.00    -0.391 OA
BRANCH   3   4
HETATM    4  C3  UNL     1      -8.764   1.399  18.531  1.00  0.00     0.172 C 
BRANCH   4   5
HETATM    5  C2  UNL     1      -9.516   1.392  17.229  1.00  0.00     0.010 C 
HETATM    6  C1  UNL     1     -10.745   2.286  17.351  1.00  0.00     0.012 C 
BRANCH   5   7
HETATM    7  C16 UNL     1      -8.618   1.831  16.123  1.00  0.00     0.045 C 
BRANCH   7   8
HETATM    8  C17 UNL     1      -9.307   1.851  14.803  1.00  0.00    -0.058 A 
HETATM    9  C18 UNL     1      -9.557   3.048  14.168  1.00  0.00     0.007 A 
HETATM   10  C19 UNL     1     -10.202   3.053  12.943  1.00  0.00     0.001 A 
HETATM   11  C20 UNL     1     -10.585   1.850  12.381  1.00  0.00     0.000 A 
HETATM   12  C21 UNL     1     -10.333   0.648  13.019  1.00  0.00     0.001 A 
HETATM   13  C22 UNL     1      -9.687   0.638  14.246  1.00  0.00     0.007 A 
ENDBRANCH   7   8
ENDBRANCH   5   7
ENDBRANCH   4   5
ENDBRANCH   3   4
ENDBRANCH   2   3
ENDBRANCH   1   2
BRANCH   1  14
HETATM   14  C6  UNL     1      -5.729  -0.902  20.665  1.00  0.00     0.004 C 
BRANCH  14  15
HETATM   15  C7  UNL     1      -5.264  -2.295  20.402  1.00  0.00     0.027 C 
BRANCH  15  16
HETATM   16  C8  UNL     1      -4.704  -2.910  21.654  1.00  0.00     0.232 C 
BRANCH  16  17
HETATM   17  N1  UNL     1      -3.250  -2.927  21.646  1.00  0.00    -0.071 N 
ATOM     18  H12 UNL     1      -2.883  -3.878  21.673  1.00  0.00     0.277 HD
ATOM     19  H11 UNL     1      -2.876  -2.642  20.741  1.00  0.00     0.277 HD
BRANCH  17  20
HETATM   20  C9  UNL     1      -2.725  -2.132  22.706  1.00  0.00     0.270 C 
BRANCH  20  21
HETATM   21  C10 UNL     1      -2.719  -0.691  22.444  1.00  0.00    -0.033 A 
HETATM   22  C11 UNL     1      -3.320   0.236  23.272  1.00  0.00     0.009 A 
HETATM   23  C12 UNL     1      -3.297   1.586  22.987  1.00  0.00     0.001 A 
HETATM   24  C13 UNL     1      -2.653   1.993  21.842  1.00  0.00     0.000 A 
HETATM   25  C14 UNL     1      -2.051   1.109  21.004  1.00  0.00     0.001 A 
HETATM   26  C15 UNL     1      -2.087  -0.230  21.308  1.00  0.00     0.009 A 
ENDBRANCH  20  21
ENDBRANCH  17  20
ENDBRANCH  16  17
ENDBRANCH  15  16
ENDBRANCH  14  15
ENDBRANCH   1  14
TORSDOF 12
ENDMDL
MODEL 5
REMARK VINA RESULT: -8.346466173      1.212      1.609
REMARK  12 active torsions:
REMARK  status: ('A' for Active; 'I' for Inactive)
REMARK    1  A    between atoms: C2_2  and  C3_3 
REMARK    2  A    between atoms: C2_2  and  C16_20 
REMARK    3  A    between atoms: C3_3  and  O1_4 
REMARK    4  A    between atoms: O1_4  and  C4_5 
REMARK    5  A    between atoms: C4_5  and  C5_6 
REMARK    6  A    between atoms: C5_6  and  C6_7 
REMARK    7  A    between atoms: C6_7  and  C7_8 
REMARK    8  A    between atoms: C7_8  and  C8_9 
REMARK    9  A    between atoms: C8_9  and  N1_10 
REMARK   10  A    between atoms: N1_10  and  C9_13 
REMARK   11  A    between atoms: C9_13  and  C10_14 
REMARK   12  A    between atoms: C16_20  and  C17_21 
ROOT
HETATM    1  C5  UNL     1      -6.862   0.982  19.579  1.00  0.00     0.026 C 
ENDROOT
BRANCH   1   2
HETATM    2  C4  UNL     1      -6.840   0.584  18.097  1.00  0.00     0.167 C 
BRANCH   2   3
HETATM    3  O1  UNL     1      -7.716   1.328  17.367  1.00  0.00    -0.391 OA
BRANCH   3   4
HETATM    4  C3  UNL     1      -8.974   1.328  17.903  1.00  0.00     0.172 C 
BRANCH   4   5
HETATM    5  C2  UNL     1     -10.002   1.691  16.867  1.00  0.00     0.010 C 
HETATM    6  C1  UNL     1     -11.168   2.404  17.542  1.00  0.00     0.012 C 
BRANCH   5   7
HETATM    7  C16 UNL     1      -9.377   2.530  15.805  1.00  0.00     0.045 C 
BRANCH   7   8
HETATM    8  C17 UNL     1      -9.651   2.015  14.436  1.00  0.00    -0.058 A 
HETATM    9  C18 UNL     1      -9.647   0.659  14.190  1.00  0.00     0.007 A 
HETATM   10  C19 UNL     1      -9.899   0.193  12.910  1.00  0.00     0.001 A 
HETATM   11  C20 UNL     1     -10.149   1.104  11.902  1.00  0.00     0.000 A 
HETATM   12  C21 UNL     1     -10.154   2.465  12.149  1.00  0.00     0.001 A 
HETATM   13  C22 UNL     1      -9.902   2.936  13.429  1.00  0.00     0.007 A 
ENDBRANCH   7   8
ENDBRANCH   5   7
ENDBRANCH   4   5
ENDBRANCH   3   4
ENDBRANCH   2   3
ENDBRANCH   1   2
BRANCH   1  14
HETATM   14  C6  UNL     1      -5.676   0.318  20.226  1.00  0.00     0.004 C 
BRANCH  14  15
HETATM   15  C7  UNL     1      -5.507  -1.087  19.755  1.00  0.00     0.027 C 
BRANCH  15  16
HETATM   16  C8  UNL     1      -5.211  -2.000  20.912  1.00  0.00     0.232 C 
BRANCH  16  17
HETATM   17  N1  UNL     1      -3.832  -2.464  20.898  1.00  0.00    -0.071 N 
ATOM     18  H12 UNL     1      -3.777  -3.478  20.812  1.00  0.00     0.277 HD
ATOM     19  H11 UNL     1      -3.359  -2.208  20.032  1.00  0.00     0.277 HD
BRANCH  17  20
HETATM   20  C9  UNL     1      -3.126  -1.994  22.043  1.00  0.00     0.270 C 
BRANCH  20  21
HETATM   21  C10 UNL     1      -2.846  -0.556  22.041  1.00  0.00    -0.033 A 
HETATM   22  C11 UNL     1      -2.070   0.069  21.086  1.00  0.00     0.009 A 
HETATM   23  C12 UNL     1      -1.826   1.425  21.123  1.00  0.00     0.001 A 
HETATM   24  C13 UNL     1      -2.381   2.154  22.150  1.00  0.00     0.000 A 
HETATM   25  C14 UNL     1      -3.150   1.572  23.107  1.00  0.00     0.001 A 
HETATM   26  C15 UNL     1      -3.379   0.219  23.050  1.00  0.00     0.009 A 
ENDBRANCH  20  21
ENDBRANCH  17  20
ENDBRANCH  16  17
ENDBRANCH  15  16
ENDBRANCH  14  15
ENDBRANCH   1  14
TORSDOF 12
ENDMDL
