MODEL 1
REMARK VINA RESULT: -8.554511003      0.000      0.000
REMARK  5 active torsions:
REMARK  status: ('A' for Active; 'I' for Inactive)
REMARK    1  A    between atoms: C3_4  and  O2_5 
REMARK    2  A    between atoms: O2_5  and  C4_6 
REMARK    3  A    between atoms: C8_12  and  O4_13 
REMARK    4  A    between atoms: N1_17  and  O6_19 
REMARK    5  A    between atoms: C10_21  and  O7_22 
ROOT
HETATM    1  C1  UNL     1      26.386  24.987 110.413  1.00  0.00     0.043 C 
HETATM    2  C2  UNL     1      25.566  25.697 109.334  1.00  0.00     0.159 C 
HETATM    3  O1  UNL     1      25.525  24.865 108.244  1.00  0.00    -0.331 OA
HETATM    4  C3  UNL     1      24.581  25.202 107.296  1.00  0.00     0.422 C 
HETATM    5  O5  UNL     1      23.300  24.952 107.894  1.00  0.00    -0.280 OA
HETATM    6  C9  UNL     1      23.139  25.281 109.246  1.00  0.00     0.174 C 
HETATM    7  N1  UNL     1      22.091  24.871 109.837  1.00  0.00    -0.249 N 
ATOM      8  H1  UNL     1      21.430  24.325 109.283  1.00  0.00     0.196 HD
HETATM    9  C10 UNL     1      24.213  26.083 109.867  1.00  0.00     0.223 C 
ENDROOT
BRANCH   4  10
HETATM   10  O2  UNL     1      24.688  24.308 106.235  1.00  0.00    -0.305 OA
BRANCH  10  11
HETATM   11  C4  UNL     1      25.702  24.650 105.359  1.00  0.00     0.297 C 
HETATM   12  O3  UNL     1      26.301  25.847 105.633  1.00  0.00    -0.351 OA
HETATM   13  C5  UNL     1      27.650  25.746 105.450  1.00  0.00     0.157 C 
HETATM   14  C6  UNL     1      28.255  26.848 104.626  1.00  0.00     0.042 C 
HETATM   15  C7  UNL     1      27.942  24.437 104.763  1.00  0.00     0.232 C 
HETATM   16  F1  UNL     1      27.829  24.557 103.375  1.00  0.00    -0.244 F 
HETATM   17  C8  UNL     1      26.767  23.592 105.257  1.00  0.00     0.209 C 
BRANCH  17  18
HETATM   18  O4  UNL     1      27.037  23.067 106.502  1.00  0.00    -0.388 OA
ATOM     19  H4  UNL     1      26.357  23.315 107.117  1.00  0.00     0.210 HD
ENDBRANCH  17  18
ENDBRANCH  10  11
ENDBRANCH   4  10
BRANCH   9  20
HETATM   20  O7  UNL     1      24.155  26.076 111.252  1.00  0.00    -0.385 OA
ATOM     21  H7  UNL     1      24.372  26.917 111.638  1.00  0.00     0.210 HD
ENDBRANCH   9  20
BRANCH   7  22
HETATM   22  O6  UNL     1      21.770  25.091 111.133  1.00  0.00    -0.288 OA
ATOM     23  H6  UNL     1      21.099  24.636 111.628  1.00  0.00     0.244 HD
ENDBRANCH   7  22
TORSDOF 5
ENDMDL
MODEL 2
REMARK VINA RESULT: -8.488942959      3.072      6.284
REMARK  5 active torsions:
REMARK  status: ('A' for Active; 'I' for Inactive)
REMARK    1  A    between atoms: C3_4  and  O2_5 
REMARK    2  A    between atoms: O2_5  and  C4_6 
REMARK    3  A    between atoms: C8_12  and  O4_13 
REMARK    4  A    between atoms: N1_17  and  O6_19 
REMARK    5  A    between atoms: C10_21  and  O7_22 
ROOT
HETATM    1  C1  UNL     1      26.044  25.690 102.611  1.00  0.00     0.043 C 
HETATM    2  C2  UNL     1      26.420  25.682 104.094  1.00  0.00     0.159 C 
HETATM    3  O1  UNL     1      25.370  25.119 104.774  1.00  0.00    -0.331 OA
HETATM    4  C3  UNL     1      25.655  24.752 106.073  1.00  0.00     0.422 C 
HETATM    5  O5  UNL     1      26.567  23.645 105.989  1.00  0.00    -0.280 OA
HETATM    6  C9  UNL     1      27.558  23.693 105.000  1.00  0.00     0.174 C 
HETATM    7  N1  UNL     1      28.228  22.636 104.778  1.00  0.00    -0.249 N 
ATOM      8  H1  UNL     1      27.998  21.815 105.339  1.00  0.00     0.196 HD
HETATM    9  C10 UNL     1      27.735  24.982 104.301  1.00  0.00     0.223 C 
ENDROOT
BRANCH   4  10
HETATM   10  O2  UNL     1      24.493  24.247 106.649  1.00  0.00    -0.305 OA
BRANCH  10  11
HETATM   11  C4  UNL     1      24.062  25.009 107.719  1.00  0.00     0.297 C 
HETATM   12  O3  UNL     1      22.988  24.486 108.383  1.00  0.00    -0.351 OA
HETATM   13  C5  UNL     1      23.148  24.647 109.728  1.00  0.00     0.157 C 
HETATM   14  C6  UNL     1      21.953  25.219 110.439  1.00  0.00     0.042 C 
HETATM   15  C7  UNL     1      24.315  25.572 109.964  1.00  0.00     0.232 C 
HETATM   16  F1  UNL     1      23.918  26.911 109.917  1.00  0.00    -0.244 F 
HETATM   17  C8  UNL     1      25.153  25.288 108.716  1.00  0.00     0.209 C 
BRANCH  17  18
HETATM   18  O4  UNL     1      25.930  24.164 108.899  1.00  0.00    -0.388 OA
ATOM     19  H4  UNL     1      25.507  23.568 109.506  1.00  0.00     0.210 HD
ENDBRANCH  17  18
ENDBRANCH  10  11
ENDBRANCH   4  10
BRANCH   9  20
HETATM   20  O7  UNL     1      28.475  24.862 103.134  1.00  0.00    -0.385 OA
ATOM     21  H7  UNL     1      28.227  24.107 102.612  1.00  0.00     0.210 HD
ENDBRANCH   9  20
BRANCH   7  22
HETATM   22  O6  UNL     1      29.218  22.498 103.866  1.00  0.00    -0.288 OA
ATOM     23  H6  UNL     1      29.789  21.745 103.770  1.00  0.00     0.244 HD
ENDBRANCH   7  22
TORSDOF 5
ENDMDL
MODEL 3
REMARK VINA RESULT: -8.388260854      3.282      6.498
REMARK  5 active torsions:
REMARK  status: ('A' for Active; 'I' for Inactive)
REMARK    1  A    between atoms: C3_4  and  O2_5 
REMARK    2  A    between atoms: O2_5  and  C4_6 
REMARK    3  A    between atoms: C8_12  and  O4_13 
REMARK    4  A    between atoms: N1_17  and  O6_19 
REMARK    5  A    between atoms: C10_21  and  O7_22 
ROOT
HETATM    1  C1  UNL     1      26.477  24.520 101.391  1.00  0.00     0.043 C 
HETATM    2  C2  UNL     1      26.767  24.999 102.815  1.00  0.00     0.159 C 
HETATM    3  O1  UNL     1      25.753  24.534 103.613  1.00  0.00    -0.331 OA
HETATM    4  C3  UNL     1      26.005  24.607 104.967  1.00  0.00     0.422 C 
HETATM    5  O5  UNL     1      27.042  23.651 105.237  1.00  0.00    -0.280 OA
HETATM    6  C9  UNL     1      28.075  23.531 104.299  1.00  0.00     0.174 C 
HETATM    7  N1  UNL     1      28.875  22.550 104.418  1.00  0.00    -0.249 N 
ATOM      8  H1  UNL     1      28.711  21.909 105.196  1.00  0.00     0.196 HD
HETATM    9  C10 UNL     1      28.141  24.567 103.248  1.00  0.00     0.223 C 
ENDROOT
BRANCH   4  10
HETATM   10  O2  UNL     1      24.879  24.151 105.646  1.00  0.00    -0.305 OA
BRANCH  10  11
HETATM   11  C4  UNL     1      24.643  24.859 106.810  1.00  0.00     0.297 C 
HETATM   12  O3  UNL     1      23.437  24.591 107.395  1.00  0.00    -0.351 OA
HETATM   13  C5  UNL     1      23.582  24.520 108.750  1.00  0.00     0.157 C 
HETATM   14  C6  UNL     1      22.576  25.318 109.532  1.00  0.00     0.042 C 
HETATM   15  C7  UNL     1      24.957  25.025 109.111  1.00  0.00     0.232 C 
HETATM   16  F1  UNL     1      24.966  26.415 109.248  1.00  0.00    -0.244 F 
HETATM   17  C8  UNL     1      25.727  24.674 107.837  1.00  0.00     0.209 C 
BRANCH  17  18
HETATM   18  O4  UNL     1      26.137  23.359 107.864  1.00  0.00    -0.388 OA
ATOM     19  H4  UNL     1      25.945  22.938 107.035  1.00  0.00     0.210 HD
ENDBRANCH  17  18
ENDBRANCH  10  11
ENDBRANCH   4  10
BRANCH   9  20
HETATM   20  O7  UNL     1      28.955  24.201 102.186  1.00  0.00    -0.385 OA
ATOM     21  H7  UNL     1      29.793  23.852 102.463  1.00  0.00     0.210 HD
ENDBRANCH   9  20
BRANCH   7  22
HETATM   22  O6  UNL     1      29.925  22.276 103.609  1.00  0.00    -0.288 OA
ATOM     23  H6  UNL     1      30.234  21.411 103.368  1.00  0.00     0.244 HD
ENDBRANCH   7  22
TORSDOF 5
ENDMDL
MODEL 4
REMARK VINA RESULT: -8.364659769      1.157      1.767
REMARK  5 active torsions:
REMARK  status: ('A' for Active; 'I' for Inactive)
REMARK    1  A    between atoms: C3_4  and  O2_5 
REMARK    2  A    between atoms: O2_5  and  C4_6 
REMARK    3  A    between atoms: C8_12  and  O4_13 
REMARK    4  A    between atoms: N1_17  and  O6_19 
REMARK    5  A    between atoms: C10_21  and  O7_22 
ROOT
HETATM    1  C1  UNL     1      26.581  24.979 110.110  1.00  0.00     0.043 C 
HETATM    2  C2  UNL     1      25.678  25.681 109.094  1.00  0.00     0.159 C 
HETATM    3  O1  UNL     1      25.632  24.886 107.977  1.00  0.00    -0.331 OA
HETATM    4  C3  UNL     1      24.632  25.206 107.082  1.00  0.00     0.422 C 
HETATM    5  O5  UNL     1      23.393  24.867 107.725  1.00  0.00    -0.280 OA
HETATM    6  C9  UNL     1      23.275  25.139 109.094  1.00  0.00     0.174 C 
HETATM    7  N1  UNL     1      22.276  24.653 109.713  1.00  0.00    -0.249 N 
ATOM      8  H1  UNL     1      21.621  24.092 109.167  1.00  0.00     0.196 HD
HETATM    9  C10 UNL     1      24.332  25.975 109.698  1.00  0.00     0.223 C 
ENDROOT
BRANCH   4  10
HETATM   10  O2  UNL     1      24.738  24.357 105.985  1.00  0.00    -0.305 OA
BRANCH  10  11
HETATM   11  C4  UNL     1      25.941  24.503 105.321  1.00  0.00     0.297 C 
HETATM   12  O3  UNL     1      26.651  23.343 105.182  1.00  0.00    -0.351 OA
HETATM   13  C5  UNL     1      27.211  23.284 103.940  1.00  0.00     0.157 C 
HETATM   14  C6  UNL     1      28.670  22.923 103.926  1.00  0.00     0.042 C 
HETATM   15  C7  UNL     1      27.060  24.633 103.283  1.00  0.00     0.232 C 
HETATM   16  F1  UNL     1      28.103  25.491 103.642  1.00  0.00    -0.244 F 
HETATM   17  C8  UNL     1      25.786  25.135 103.964  1.00  0.00     0.209 C 
BRANCH  17  18
HETATM   18  O4  UNL     1      24.669  24.635 103.331  1.00  0.00    -0.388 OA
ATOM     19  H4  UNL     1      24.248  25.317 102.821  1.00  0.00     0.210 HD
ENDBRANCH  17  18
ENDBRANCH  10  11
ENDBRANCH   4  10
BRANCH   9  20
HETATM   20  O7  UNL     1      24.335  25.917 111.083  1.00  0.00    -0.385 OA
ATOM     21  H7  UNL     1      24.911  25.244 111.427  1.00  0.00     0.210 HD
ENDBRANCH   9  20
BRANCH   7  22
HETATM   22  O6  UNL     1      22.002  24.810 111.029  1.00  0.00    -0.288 OA
ATOM     23  H6  UNL     1      21.173  25.095 111.396  1.00  0.00     0.244 HD
ENDBRANCH   7  22
TORSDOF 5
ENDMDL
MODEL 5
REMARK VINA RESULT: -8.362965188      3.149      6.334
REMARK  5 active torsions:
REMARK  status: ('A' for Active; 'I' for Inactive)
REMARK    1  A    between atoms: C3_4  and  O2_5 
REMARK    2  A    between atoms: O2_5  and  C4_6 
REMARK    3  A    between atoms: C8_12  and  O4_13 
REMARK    4  A    between atoms: N1_17  and  O6_19 
REMARK    5  A    between atoms: C10_21  and  O7_22 
ROOT
HETATM    1  C1  UNL     1      26.331  24.373 101.976  1.00  0.00     0.043 C 
HETATM    2  C2  UNL     1      25.861  25.348 103.059  1.00  0.00     0.159 C 
HETATM    3  O1  UNL     1      25.489  24.596 104.145  1.00  0.00    -0.331 OA
HETATM    4  C3  UNL     1      25.330  25.312 105.313  1.00  0.00     0.422 C 
HETATM    5  O5  UNL     1      26.642  25.747 105.703  1.00  0.00    -0.280 OA
HETATM    6  C9  UNL     1      27.514  26.169 104.690  1.00  0.00     0.174 C 
HETATM    7  N1  UNL     1      28.735  26.350 104.995  1.00  0.00    -0.249 N 
ATOM      8  H1  UNL     1      29.002  26.175 105.964  1.00  0.00     0.196 HD
HETATM    9  C10 UNL     1      26.927  26.368 103.350  1.00  0.00     0.223 C 
ENDROOT
BRANCH   4  10
HETATM   10  O2  UNL     1      24.907  24.436 106.308  1.00  0.00    -0.305 OA
BRANCH  10  11
HETATM   11  C4  UNL     1      24.406  25.096 107.414  1.00  0.00     0.297 C 
HETATM   12  O3  UNL     1      23.311  24.501 107.975  1.00  0.00    -0.351 OA
HETATM   13  C5  UNL     1      23.400  24.549 109.336  1.00  0.00     0.157 C 
HETATM   14  C6  UNL     1      22.159  25.038 110.029  1.00  0.00     0.042 C 
HETATM   15  C7  UNL     1      24.535  25.470 109.709  1.00  0.00     0.232 C 
HETATM   16  F1  UNL     1      24.112  26.801 109.755  1.00  0.00    -0.244 F 
HETATM   17  C8  UNL     1      25.440  25.307 108.487  1.00  0.00     0.209 C 
BRANCH  17  18
HETATM   18  O4  UNL     1      26.230  24.186 108.614  1.00  0.00    -0.388 OA
ATOM     19  H4  UNL     1      27.138  24.402 108.438  1.00  0.00     0.210 HD
ENDBRANCH  17  18
ENDBRANCH  10  11
ENDBRANCH   4  10
BRANCH   9  20
HETATM   20  O7  UNL     1      27.886  26.450 102.351  1.00  0.00    -0.385 OA
ATOM     21  H7  UNL     1      28.651  26.950 102.611  1.00  0.00     0.210 HD
ENDBRANCH   9  20
BRANCH   7  22
HETATM   22  O6  UNL     1      29.713  26.754 104.152  1.00  0.00    -0.288 OA
ATOM     23  H6  UNL     1      30.598  26.998 104.398  1.00  0.00     0.244 HD
ENDBRANCH   7  22
TORSDOF 5
ENDMDL
