MODEL 1
REMARK VINA RESULT: -5.949009713      0.000      0.000
REMARK  4 active torsions:
REMARK  status: ('A' for Active; 'I' for Inactive)
REMARK    1  A    between atoms: C2_2  and  O1_3 
REMARK    2  A    between atoms: C2_2  and  C3_5 
REMARK    3  A    between atoms: C4_7  and  N1_8 
REMARK    4  A    between atoms: C7_14  and  C8_15 
ROOT
HETATM    1  N1  UNL     1      47.514  50.587  32.285  1.00  0.00    -0.314 N 
HETATM    2  C5  UNL     1      48.282  49.471  32.325  1.00  0.00     0.186 A 
HETATM    3  N2  UNL     1      48.368  48.930  31.105  1.00  0.00    -0.345 N 
ATOM      4  H2  UNL     1      48.885  48.087  30.855  1.00  0.00     0.167 HD
HETATM    5  C6  UNL     1      47.660  49.689  30.280  1.00  0.00     0.104 A 
HETATM    6 BR1  UNL     1      47.450  49.361  28.401  1.00  0.00    -0.029 Br
HETATM    7  C7  UNL     1      47.119  50.737  31.030  1.00  0.00     0.058 A 
ENDROOT
BRANCH   1   8
HETATM    8  C4  UNL     1      47.282  51.433  33.423  1.00  0.00     0.251 C 
HETATM    9  O2  UNL     1      48.394  51.363  34.305  1.00  0.00    -0.349 OA
HETATM   10  C3  UNL     1      48.070  50.602  35.379  1.00  0.00     0.223 C 
HETATM   11  C14 UNL     1      46.624  50.798  35.564  1.00  0.00     0.176 C 
HETATM   12  C13 UNL     1      46.078  51.143  34.227  1.00  0.00     0.179 C 
HETATM   13  O3  UNL     1      46.010  50.696  36.608  1.00  0.00    -0.294 OA
HETATM   14 BR2  UNL     1      44.992  49.686  33.631  1.00  0.00    -0.078 Br
BRANCH  10  15
HETATM   15  C2  UNL     1      48.853  51.099  36.603  1.00  0.00     0.150 C 
HETATM   16  C1  UNL     1      50.315  51.135  36.244  1.00  0.00     0.042 C 
BRANCH  15  17
HETATM   17  O1  UNL     1      48.433  52.407  36.833  1.00  0.00    -0.393 OA
ATOM     18  H1  UNL     1      47.617  52.373  37.319  1.00  0.00     0.210 HD
ENDBRANCH  15  17
ENDBRANCH  10  15
ENDBRANCH   1   8
BRANCH   7  19
HETATM   19  C8  UNL     1      46.331  51.792  30.357  1.00  0.00     0.005 A 
HETATM   20  C9  UNL     1      44.792  51.599  30.412  1.00  0.00     0.022 C 
HETATM   21  C10 UNL     1      46.586  53.223  30.996  1.00  0.00     0.021 A 
HETATM   22  C11 UNL     1      46.959  52.846  29.567  1.00  0.00    -0.003 A 
HETATM   23  C12 UNL     1      48.426  53.011  29.348  1.00  0.00     0.011 C 
ENDBRANCH   7  19
TORSDOF 4
ENDMDL
MODEL 2
REMARK VINA RESULT: -5.614147415      2.321      3.512
REMARK  4 active torsions:
REMARK  status: ('A' for Active; 'I' for Inactive)
REMARK    1  A    between atoms: C2_2  and  O1_3 
REMARK    2  A    between atoms: C2_2  and  C3_5 
REMARK    3  A    between atoms: C4_7  and  N1_8 
REMARK    4  A    between atoms: C7_14  and  C8_15 
ROOT
HETATM    1  N1  UNL     1      47.035  50.699  33.309  1.00  0.00    -0.314 N 
HETATM    2  C5  UNL     1      46.746  51.964  33.701  1.00  0.00     0.186 A 
HETATM    3  N2  UNL     1      46.349  52.690  32.650  1.00  0.00    -0.345 N 
ATOM      4  H2  UNL     1      46.072  53.672  32.666  1.00  0.00     0.167 HD
HETATM    5  C6  UNL     1      46.382  51.902  31.585  1.00  0.00     0.104 A 
HETATM    6 BR1  UNL     1      45.905  52.446  29.806  1.00  0.00    -0.029 Br
HETATM    7  C7  UNL     1      46.818  50.642  32.004  1.00  0.00     0.058 A 
ENDROOT
BRANCH   1   8
HETATM    8  C4  UNL     1      47.426  49.656  34.218  1.00  0.00     0.251 C 
HETATM    9  O2  UNL     1      46.866  49.904  35.500  1.00  0.00    -0.349 OA
HETATM   10  C3  UNL     1      47.831  50.365  36.332  1.00  0.00     0.223 C 
HETATM   11  C14 UNL     1      49.075  49.737  35.859  1.00  0.00     0.176 C 
HETATM   12  C13 UNL     1      48.876  49.462  34.413  1.00  0.00     0.179 C 
HETATM   13  O3  UNL     1      50.060  49.497  36.527  1.00  0.00    -0.294 OA
HETATM   14 BR2  UNL     1      50.029  50.621  33.420  1.00  0.00    -0.078 Br
BRANCH  10  15
HETATM   15  C2  UNL     1      47.508  49.929  37.768  1.00  0.00     0.150 C 
HETATM   16  C1  UNL     1      47.538  48.423  37.821  1.00  0.00     0.042 C 
BRANCH  15  17
HETATM   17  O1  UNL     1      48.544  50.408  38.567  1.00  0.00    -0.393 OA
ATOM     18  H1  UNL     1      49.366  50.191  38.143  1.00  0.00     0.210 HD
ENDBRANCH  15  17
ENDBRANCH  10  15
ENDBRANCH   1   8
BRANCH   7  19
HETATM   19  C8  UNL     1      46.887  49.527  31.035  1.00  0.00     0.005 A 
HETATM   20  C9  UNL     1      48.312  49.192  30.519  1.00  0.00     0.022 C 
HETATM   21  C10 UNL     1      46.346  48.168  31.653  1.00  0.00     0.021 A 
HETATM   22  C11 UNL     1      45.689  48.899  30.488  1.00  0.00    -0.003 A 
HETATM   23  C12 UNL     1      44.283  49.266  30.826  1.00  0.00     0.011 C 
ENDBRANCH   7  19
TORSDOF 4
ENDMDL
MODEL 3
REMARK VINA RESULT: -5.595592963      9.298     11.610
REMARK  4 active torsions:
REMARK  status: ('A' for Active; 'I' for Inactive)
REMARK    1  A    between atoms: C2_2  and  O1_3 
REMARK    2  A    between atoms: C2_2  and  C3_5 
REMARK    3  A    between atoms: C4_7  and  N1_8 
REMARK    4  A    between atoms: C7_14  and  C8_15 
ROOT
HETATM    1  N1  UNL     1      56.401  45.990  32.844  1.00  0.00    -0.314 N 
HETATM    2  C5  UNL     1      57.092  46.577  31.837  1.00  0.00     0.186 A 
HETATM    3  N2  UNL     1      57.934  47.492  32.331  1.00  0.00    -0.345 N 
ATOM      4  H2  UNL     1      58.572  48.078  31.792  1.00  0.00     0.167 HD
HETATM    5  C6  UNL     1      57.789  47.498  33.649  1.00  0.00     0.104 A 
HETATM    6 BR1  UNL     1      58.765  48.632  34.851  1.00  0.00    -0.029 Br
HETATM    7  C7  UNL     1      56.817  46.547  33.971  1.00  0.00     0.058 A 
ENDROOT
BRANCH   1   8
HETATM    8  C4  UNL     1      55.465  44.918  32.645  1.00  0.00     0.251 C 
HETATM    9  O2  UNL     1      55.832  44.170  31.494  1.00  0.00    -0.349 OA
HETATM   10  C3  UNL     1      54.998  44.479  30.472  1.00  0.00     0.223 C 
HETATM   11  C14 UNL     1      53.717  44.816  31.111  1.00  0.00     0.176 C 
HETATM   12  C13 UNL     1      54.050  45.302  32.474  1.00  0.00     0.179 C 
HETATM   13  O3  UNL     1      52.613  44.712  30.614  1.00  0.00    -0.294 OA
HETATM   14 BR2  UNL     1      53.663  47.173  32.553  1.00  0.00    -0.078 Br
BRANCH  10  15
HETATM   15  C2  UNL     1      54.849  43.255  29.556  1.00  0.00     0.150 C 
HETATM   16  C1  UNL     1      56.179  42.551  29.493  1.00  0.00     0.042 C 
BRANCH  15  17
HETATM   17  O1  UNL     1      53.941  42.405  30.181  1.00  0.00    -0.393 OA
ATOM     18  H1  UNL     1      53.350  42.068  29.518  1.00  0.00     0.210 HD
ENDBRANCH  15  17
ENDBRANCH  10  15
ENDBRANCH   1   8
BRANCH   7  19
HETATM   19  C8  UNL     1      56.490  46.281  35.389  1.00  0.00     0.005 A 
HETATM   20  C9  UNL     1      55.255  47.047  35.935  1.00  0.00     0.022 C 
HETATM   21  C10 UNL     1      56.166  44.748  35.647  1.00  0.00     0.021 A 
HETATM   22  C11 UNL     1      57.358  45.483  36.249  1.00  0.00    -0.003 A 
HETATM   23  C12 UNL     1      58.636  44.836  35.832  1.00  0.00     0.011 C 
ENDBRANCH   7  19
TORSDOF 4
ENDMDL
MODEL 4
REMARK VINA RESULT: -5.586496174      7.596      9.460
REMARK  4 active torsions:
REMARK  status: ('A' for Active; 'I' for Inactive)
REMARK    1  A    between atoms: C2_2  and  O1_3 
REMARK    2  A    between atoms: C2_2  and  C3_5 
REMARK    3  A    between atoms: C4_7  and  N1_8 
REMARK    4  A    between atoms: C7_14  and  C8_15 
ROOT
HETATM    1  N1  UNL     1      55.226  48.807  34.673  1.00  0.00    -0.314 N 
HETATM    2  C5  UNL     1      56.275  49.331  35.355  1.00  0.00     0.186 A 
HETATM    3  N2  UNL     1      56.195  50.666  35.364  1.00  0.00    -0.345 N 
ATOM      4  H2  UNL     1      56.854  51.306  35.808  1.00  0.00     0.167 HD
HETATM    5  C6  UNL     1      55.103  51.006  34.693  1.00  0.00     0.104 A 
HETATM    6 BR1  UNL     1      54.514  52.810  34.404  1.00  0.00    -0.029 Br
HETATM    7  C7  UNL     1      54.493  49.827  34.255  1.00  0.00     0.058 A 
ENDROOT
BRANCH   1   8
HETATM    8  C4  UNL     1      54.991  47.396  34.539  1.00  0.00     0.251 C 
HETATM    9  O2  UNL     1      55.524  46.714  35.666  1.00  0.00    -0.349 OA
HETATM   10  C3  UNL     1      56.676  46.092  35.313  1.00  0.00     0.223 C 
HETATM   11  C14 UNL     1      56.505  45.751  33.892  1.00  0.00     0.176 C 
HETATM   12  C13 UNL     1      55.551  46.745  33.339  1.00  0.00     0.179 C 
HETATM   13  O3  UNL     1      57.043  44.836  33.301  1.00  0.00    -0.294 OA
HETATM   14 BR2  UNL     1      56.502  47.876  32.125  1.00  0.00    -0.078 Br
BRANCH  10  15
HETATM   15  C2  UNL     1      56.846  44.826  36.165  1.00  0.00     0.150 C 
HETATM   16  C1  UNL     1      58.224  44.851  36.773  1.00  0.00     0.042 C 
BRANCH  15  17
HETATM   17  O1  UNL     1      55.917  44.920  37.198  1.00  0.00    -0.393 OA
ATOM     18  H1  UNL     1      55.981  44.130  37.723  1.00  0.00     0.210 HD
ENDBRANCH  15  17
ENDBRANCH  10  15
ENDBRANCH   1   8
BRANCH   7  19
HETATM   19  C8  UNL     1      53.205  49.891  33.530  1.00  0.00     0.005 A 
HETATM   20  C9  UNL     1      53.312  49.769  31.986  1.00  0.00     0.022 C 
HETATM   21  C10 UNL     1      52.219  48.725  33.965  1.00  0.00     0.021 A 
HETATM   22  C11 UNL     1      51.950  50.206  34.204  1.00  0.00    -0.003 A 
HETATM   23  C12 UNL     1      51.791  50.480  35.662  1.00  0.00     0.011 C 
ENDBRANCH   7  19
TORSDOF 4
ENDMDL
MODEL 5
REMARK VINA RESULT: -5.573501444     10.408     12.384
REMARK  4 active torsions:
REMARK  status: ('A' for Active; 'I' for Inactive)
REMARK    1  A    between atoms: C2_2  and  O1_3 
REMARK    2  A    between atoms: C2_2  and  C3_5 
REMARK    3  A    between atoms: C4_7  and  N1_8 
REMARK    4  A    between atoms: C7_14  and  C8_15 
ROOT
HETATM    1  N1  UNL     1      57.715  46.568  32.928  1.00  0.00    -0.314 N 
HETATM    2  C5  UNL     1      57.780  45.960  31.718  1.00  0.00     0.186 A 
HETATM    3  N2  UNL     1      56.634  45.317  31.466  1.00  0.00    -0.345 N 
ATOM      4  H2  UNL     1      56.416  44.780  30.627  1.00  0.00     0.167 HD
HETATM    5  C6  UNL     1      55.833  45.507  32.506  1.00  0.00     0.104 A 
HETATM    6 BR1  UNL     1      54.056  44.797  32.660  1.00  0.00    -0.029 Br
HETATM    7  C7  UNL     1      56.521  46.297  33.431  1.00  0.00     0.058 A 
ENDROOT
BRANCH   1   8
HETATM    8  C4  UNL     1      58.765  47.394  33.458  1.00  0.00     0.251 C 
HETATM    9  O2  UNL     1      59.534  47.932  32.392  1.00  0.00    -0.349 OA
HETATM   10  C3  UNL     1      60.716  47.274  32.312  1.00  0.00     0.223 C 
HETATM   11  C14 UNL     1      61.019  46.863  33.692  1.00  0.00     0.176 C 
HETATM   12  C13 UNL     1      59.712  46.743  34.385  1.00  0.00     0.179 C 
HETATM   13  O3  UNL     1      62.123  46.666  34.159  1.00  0.00    -0.294 OA
HETATM   14 BR2  UNL     1      59.400  44.893  34.756  1.00  0.00    -0.078 Br
BRANCH  10  15
HETATM   15  C2  UNL     1      61.790  48.230  31.775  1.00  0.00     0.150 C 
HETATM   16  C1  UNL     1      61.300  48.805  30.472  1.00  0.00     0.042 C 
BRANCH  15  17
HETATM   17  O1  UNL     1      61.886  49.271  32.696  1.00  0.00    -0.393 OA
ATOM     18  H1  UNL     1      62.774  49.285  33.032  1.00  0.00     0.210 HD
ENDBRANCH  15  17
ENDBRANCH  10  15
ENDBRANCH   1   8
BRANCH   7  19
HETATM   19  C8  UNL     1      55.845  46.733  34.672  1.00  0.00     0.005 A 
HETATM   20  C9  UNL     1      56.095  45.830  35.909  1.00  0.00     0.022 C 
HETATM   21  C10 UNL     1      56.309  48.183  35.124  1.00  0.00     0.021 A 
HETATM   22  C11 UNL     1      54.890  47.835  34.690  1.00  0.00    -0.003 A 
HETATM   23  C12 UNL     1      54.488  48.656  33.510  1.00  0.00     0.011 C 
ENDBRANCH   7  19
TORSDOF 4
ENDMDL
