MODEL 1
REMARK VINA RESULT: -8.958260145      0.000      0.000
REMARK  5 active torsions:
REMARK  status: ('A' for Active; 'I' for Inactive)
REMARK    1  A    between atoms: C2_2  and  C3_3 
REMARK    2  A    between atoms: C3_3  and  O2_5 
REMARK    3  A    between atoms: O2_5  and  C4_6 
REMARK    4  A    between atoms: C4_6  and  C5_8 
REMARK    5  A    between atoms: C5_8  and  N1_9 
ROOT
HETATM    1  N1  UNL     1      47.683  50.813  35.195  1.00  0.00    -0.257 N 
HETATM    2  C6  UNL     1      46.306  51.103  35.499  1.00  0.00     0.327 C 
HETATM    3  O4  UNL     1      45.812  50.956  36.663  1.00  0.00    -0.247 OA
HETATM    4  N2  UNL     1      45.663  51.554  34.314  1.00  0.00    -0.311 N 
ATOM      5  H2  UNL     1      44.767  52.038  34.252  1.00  0.00     0.166 HD
HETATM    6  C7  UNL     1      46.525  51.195  33.219  1.00  0.00     0.206 C 
HETATM    7  S1  UNL     1      46.529  52.456  31.912  1.00  0.00    -0.107 SA
HETATM    8  C8  UNL     1      46.635  51.281  30.543  1.00  0.00     0.039 C 
HETATM    9  C9  UNL     1      48.083  51.152  30.124  1.00  0.00     0.032 C 
HETATM   10  C10 UNL     1      45.752  51.683  29.386  1.00  0.00     0.032 C 
HETATM   11  C11 UNL     1      46.129  50.048  31.188  1.00  0.00     0.028 C 
HETATM   12 BR1  UNL     1      45.573  48.560  30.035  1.00  0.00    -0.052 Br
HETATM   13  C12 UNL     1      46.079  50.015  32.474  1.00  0.00     0.075 C 
HETATM   14 CL1  UNL     1      45.488  48.583  33.377  1.00  0.00    -0.084 Cl
HETATM   15  C13 UNL     1      47.866  51.093  33.814  1.00  0.00     0.273 C 
HETATM   16  O5  UNL     1      48.987  51.225  33.230  1.00  0.00    -0.269 OA
ENDROOT
BRANCH   1  17
HETATM   17  C5  UNL     1      48.711  50.336  36.072  1.00  0.00     0.248 C 
BRANCH  17  18
HETATM   18  C4  UNL     1      48.819  51.100  37.308  1.00  0.00     0.284 C 
HETATM   19  O3  UNL     1      49.058  52.330  37.271  1.00  0.00    -0.263 OA
BRANCH  18  20
HETATM   20  O2  UNL     1      48.661  50.495  38.537  1.00  0.00    -0.244 OA
BRANCH  20  21
HETATM   21  C3  UNL     1      48.320  49.156  38.687  1.00  0.00     0.265 C 
HETATM   22  O1  UNL     1      49.200  48.291  38.474  1.00  0.00    -0.265 OA
BRANCH  21  23
HETATM   23  C2  UNL     1      46.928  48.759  39.097  1.00  0.00     0.107 C 
HETATM   24  C1  UNL     1      46.985  48.203  40.490  1.00  0.00     0.015 C 
ENDBRANCH  21  23
ENDBRANCH  20  21
ENDBRANCH  18  20
ENDBRANCH  17  18
ENDBRANCH   1  17
TORSDOF 5
ENDMDL
MODEL 2
REMARK VINA RESULT: -8.200668417      2.109      2.699
REMARK  5 active torsions:
REMARK  status: ('A' for Active; 'I' for Inactive)
REMARK    1  A    between atoms: C2_2  and  C3_3 
REMARK    2  A    between atoms: C3_3  and  O2_5 
REMARK    3  A    between atoms: O2_5  and  C4_6 
REMARK    4  A    between atoms: C4_6  and  C5_8 
REMARK    5  A    between atoms: C5_8  and  N1_9 
ROOT
HETATM    1  N1  UNL     1      48.489  50.703  35.568  1.00  0.00    -0.257 N 
HETATM    2  C6  UNL     1      49.354  49.650  35.100  1.00  0.00     0.327 C 
HETATM    3  O4  UNL     1      50.532  49.475  35.549  1.00  0.00    -0.247 OA
HETATM    4  N2  UNL     1      48.664  48.904  34.104  1.00  0.00    -0.311 N 
ATOM      5  H2  UNL     1      48.918  47.983  33.748  1.00  0.00     0.166 HD
HETATM    6  C7  UNL     1      47.540  49.705  33.699  1.00  0.00     0.206 C 
HETATM    7  S1  UNL     1      46.073  48.692  33.346  1.00  0.00    -0.107 SA
HETATM    8  C8  UNL     1      45.502  49.700  31.959  1.00  0.00     0.039 C 
HETATM    9  C9  UNL     1      44.449  50.664  32.459  1.00  0.00     0.032 C 
HETATM   10  C10 UNL     1      44.986  48.851  30.821  1.00  0.00     0.032 C 
HETATM   11  C11 UNL     1      46.754  50.391  31.575  1.00  0.00     0.028 C 
HETATM   12 BR1  UNL     1      46.834  51.255  29.815  1.00  0.00    -0.052 Br
HETATM   13  C12 UNL     1      47.729  50.388  32.416  1.00  0.00     0.075 C 
HETATM   14 CL1  UNL     1      49.296  51.188  32.074  1.00  0.00    -0.084 Cl
HETATM   15  C13 UNL     1      47.271  50.585  34.846  1.00  0.00     0.273 C 
HETATM   16  O5  UNL     1      46.173  51.146  35.155  1.00  0.00    -0.269 OA
ENDROOT
BRANCH   1  17
HETATM   17  C5  UNL     1      48.752  51.698  36.565  1.00  0.00     0.248 C 
BRANCH  17  18
HETATM   18  C4  UNL     1      48.698  51.182  37.927  1.00  0.00     0.284 C 
HETATM   19  O3  UNL     1      49.361  51.733  38.837  1.00  0.00    -0.263 OA
BRANCH  18  20
HETATM   20  O2  UNL     1      47.924  50.087  38.245  1.00  0.00    -0.244 OA
BRANCH  20  21
HETATM   21  C3  UNL     1      48.413  48.984  38.936  1.00  0.00     0.265 C 
HETATM   22  O1  UNL     1      49.122  48.160  38.314  1.00  0.00    -0.265 OA
BRANCH  21  23
HETATM   23  C2  UNL     1      48.097  48.788  40.393  1.00  0.00     0.107 C 
HETATM   24  C1  UNL     1      46.762  48.111  40.501  1.00  0.00     0.015 C 
ENDBRANCH  21  23
ENDBRANCH  20  21
ENDBRANCH  18  20
ENDBRANCH  17  18
ENDBRANCH   1  17
TORSDOF 5
ENDMDL
MODEL 3
REMARK VINA RESULT: -7.930263368      0.870      1.200
REMARK  5 active torsions:
REMARK  status: ('A' for Active; 'I' for Inactive)
REMARK    1  A    between atoms: C2_2  and  C3_3 
REMARK    2  A    between atoms: C3_3  and  O2_5 
REMARK    3  A    between atoms: O2_5  and  C4_6 
REMARK    4  A    between atoms: C4_6  and  C5_8 
REMARK    5  A    between atoms: C5_8  and  N1_9 
ROOT
HETATM    1  N1  UNL     1      47.666  50.996  35.013  1.00  0.00    -0.257 N 
HETATM    2  C6  UNL     1      46.304  51.344  35.327  1.00  0.00     0.327 C 
HETATM    3  O4  UNL     1      45.829  51.267  36.506  1.00  0.00    -0.247 OA
HETATM    4  N2  UNL     1      45.653  51.759  34.134  1.00  0.00    -0.311 N 
ATOM      5  H2  UNL     1      44.771  52.267  34.065  1.00  0.00     0.166 HD
HETATM    6  C7  UNL     1      46.482  51.322  33.042  1.00  0.00     0.206 C 
HETATM    7  S1  UNL     1      46.499  52.519  31.676  1.00  0.00    -0.107 SA
HETATM    8  C8  UNL     1      46.543  51.277  30.364  1.00  0.00     0.039 C 
HETATM    9  C9  UNL     1      47.978  51.083  29.925  1.00  0.00     0.032 C 
HETATM   10  C10 UNL     1      45.650  51.652  29.204  1.00  0.00     0.032 C 
HETATM   11  C11 UNL     1      46.012  50.092  31.076  1.00  0.00     0.028 C 
HETATM   12 BR1  UNL     1      45.387  48.571  30.005  1.00  0.00    -0.052 Br
HETATM   13  C12 UNL     1      45.986  50.122  32.363  1.00  0.00     0.075 C 
HETATM   14 CL1  UNL     1      45.369  48.754  33.343  1.00  0.00    -0.084 Cl
HETATM   15  C13 UNL     1      47.831  51.205  33.617  1.00  0.00     0.273 C 
HETATM   16  O5  UNL     1      48.944  51.274  33.007  1.00  0.00    -0.269 OA
ENDROOT
BRANCH   1  17
HETATM   17  C5  UNL     1      48.696  50.529  35.893  1.00  0.00     0.248 C 
BRANCH  17  18
HETATM   18  C4  UNL     1      48.363  49.276  36.560  1.00  0.00     0.284 C 
HETATM   19  O3  UNL     1      47.558  48.475  36.032  1.00  0.00    -0.263 OA
BRANCH  18  20
HETATM   20  O2  UNL     1      48.922  48.946  37.777  1.00  0.00    -0.244 OA
BRANCH  20  21
HETATM   21  C3  UNL     1      48.262  49.119  38.989  1.00  0.00     0.265 C 
HETATM   22  O1  UNL     1      48.495  50.157  39.649  1.00  0.00    -0.265 OA
BRANCH  21  23
HETATM   23  C2  UNL     1      47.293  48.084  39.490  1.00  0.00     0.107 C 
HETATM   24  C1  UNL     1      46.909  48.437  40.897  1.00  0.00     0.015 C 
ENDBRANCH  21  23
ENDBRANCH  20  21
ENDBRANCH  18  20
ENDBRANCH  17  18
ENDBRANCH   1  17
TORSDOF 5
ENDMDL
MODEL 4
REMARK VINA RESULT: -7.922610954      1.749      2.804
REMARK  5 active torsions:
REMARK  status: ('A' for Active; 'I' for Inactive)
REMARK    1  A    between atoms: C2_2  and  C3_3 
REMARK    2  A    between atoms: C3_3  and  O2_5 
REMARK    3  A    between atoms: O2_5  and  C4_6 
REMARK    4  A    between atoms: C4_6  and  C5_8 
REMARK    5  A    between atoms: C5_8  and  N1_9 
ROOT
HETATM    1  N1  UNL     1      47.747  50.718  35.273  1.00  0.00    -0.257 N 
HETATM    2  C6  UNL     1      46.386  51.039  35.617  1.00  0.00     0.327 C 
HETATM    3  O4  UNL     1      45.916  50.881  36.790  1.00  0.00    -0.247 OA
HETATM    4  N2  UNL     1      45.728  51.533  34.457  1.00  0.00    -0.311 N 
ATOM      5  H2  UNL     1      44.844  52.042  34.427  1.00  0.00     0.166 HD
HETATM    6  C7  UNL     1      46.553  51.173  33.335  1.00  0.00     0.206 C 
HETATM    7  S1  UNL     1      46.560  52.461  32.053  1.00  0.00    -0.107 SA
HETATM    8  C8  UNL     1      46.601  51.312  30.659  1.00  0.00     0.039 C 
HETATM    9  C9  UNL     1      48.034  51.153  30.202  1.00  0.00     0.032 C 
HETATM   10  C10 UNL     1      45.701  51.762  29.532  1.00  0.00     0.032 C 
HETATM   11  C11 UNL     1      46.077  50.080  31.291  1.00  0.00     0.028 C 
HETATM   12 BR1  UNL     1      45.451  48.633  30.122  1.00  0.00    -0.052 Br
HETATM   13  C12 UNL     1      46.056  50.021  32.577  1.00  0.00     0.075 C 
HETATM   14 CL1  UNL     1      45.448  48.588  33.464  1.00  0.00    -0.084 Cl
HETATM   15  C13 UNL     1      47.904  51.022  33.894  1.00  0.00     0.273 C 
HETATM   16  O5  UNL     1      49.014  51.136  33.286  1.00  0.00    -0.269 OA
ENDROOT
BRANCH   1  17
HETATM   17  C5  UNL     1      48.782  50.195  36.115  1.00  0.00     0.248 C 
BRANCH  17  18
HETATM   18  C4  UNL     1      49.691  51.217  36.618  1.00  0.00     0.284 C 
HETATM   19  O3  UNL     1      49.241  52.300  37.059  1.00  0.00    -0.263 OA
BRANCH  18  20
HETATM   20  O2  UNL     1      51.056  51.018  36.622  1.00  0.00    -0.244 OA
BRANCH  20  21
HETATM   21  C3  UNL     1      51.810  50.893  35.461  1.00  0.00     0.265 C 
HETATM   22  O1  UNL     1      51.906  51.886  34.705  1.00  0.00    -0.265 OA
BRANCH  21  23
HETATM   23  C2  UNL     1      52.492  49.595  35.125  1.00  0.00     0.107 C 
HETATM   24  C1  UNL     1      51.625  48.841  34.159  1.00  0.00     0.015 C 
ENDBRANCH  21  23
ENDBRANCH  20  21
ENDBRANCH  18  20
ENDBRANCH  17  18
ENDBRANCH   1  17
TORSDOF 5
ENDMDL
MODEL 5
REMARK VINA RESULT: -7.912386657      1.330      1.449
REMARK  5 active torsions:
REMARK  status: ('A' for Active; 'I' for Inactive)
REMARK    1  A    between atoms: C2_2  and  C3_3 
REMARK    2  A    between atoms: C3_3  and  O2_5 
REMARK    3  A    between atoms: O2_5  and  C4_6 
REMARK    4  A    between atoms: C4_6  and  C5_8 
REMARK    5  A    between atoms: C5_8  and  N1_9 
ROOT
HETATM    1  N1  UNL     1      47.591  51.096  35.419  1.00  0.00    -0.257 N 
HETATM    2  C6  UNL     1      46.213  50.774  35.688  1.00  0.00     0.327 C 
HETATM    3  O4  UNL     1      45.728  50.749  36.865  1.00  0.00    -0.247 OA
HETATM    4  N2  UNL     1      45.558  50.511  34.453  1.00  0.00    -0.311 N 
ATOM      5  H2  UNL     1      44.552  50.474  34.292  1.00  0.00     0.166 HD
HETATM    6  C7  UNL     1      46.594  50.307  33.476  1.00  0.00     0.206 C 
HETATM    7  S1  UNL     1      46.146  50.990  31.853  1.00  0.00    -0.107 SA
HETATM    8  C8  UNL     1      46.924  49.670  30.894  1.00  0.00     0.039 C 
HETATM    9  C9  UNL     1      48.300  50.128  30.464  1.00  0.00     0.032 C 
HETATM   10  C10 UNL     1      46.077  49.261  29.712  1.00  0.00     0.032 C 
HETATM   11  C11 UNL     1      46.984  48.586  31.900  1.00  0.00     0.028 C 
HETATM   12 BR1  UNL     1      47.301  46.755  31.270  1.00  0.00    -0.052 Br
HETATM   13  C12 UNL     1      46.825  48.900  33.139  1.00  0.00     0.075 C 
HETATM   14 CL1  UNL     1      46.876  47.683  34.453  1.00  0.00    -0.084 Cl
HETATM   15  C13 UNL     1      47.762  51.024  34.010  1.00  0.00     0.273 C 
HETATM   16  O5  UNL     1      48.747  51.498  33.362  1.00  0.00    -0.269 OA
ENDROOT
BRANCH   1  17
HETATM   17  C5  UNL     1      48.627  51.433  36.350  1.00  0.00     0.248 C 
BRANCH  17  18
HETATM   18  C4  UNL     1      48.926  50.365  37.296  1.00  0.00     0.284 C 
HETATM   19  O3  UNL     1      49.492  49.317  36.906  1.00  0.00    -0.263 OA
BRANCH  18  20
HETATM   20  O2  UNL     1      48.596  50.481  38.629  1.00  0.00    -0.244 OA
BRANCH  20  21
HETATM   21  C3  UNL     1      48.354  49.385  39.451  1.00  0.00     0.265 C 
HETATM   22  O1  UNL     1      49.222  49.075  40.299  1.00  0.00    -0.265 OA
BRANCH  21  23
HETATM   23  C2  UNL     1      47.081  48.596  39.323  1.00  0.00     0.107 C 
HETATM   24  C1  UNL     1      46.668  48.137  40.691  1.00  0.00     0.015 C 
ENDBRANCH  21  23
ENDBRANCH  20  21
ENDBRANCH  18  20
ENDBRANCH  17  18
ENDBRANCH   1  17
TORSDOF 5
ENDMDL
