MODEL 1
REMARK VINA RESULT: -8.790614082      0.000      0.000
REMARK  15 active torsions:
REMARK  status: ('A' for Active; 'I' for Inactive)
REMARK    1  A    between atoms: C2_2  and  C3_3 
REMARK    2  A    between atoms: C3_3  and  C4_4 
REMARK    3  A    between atoms: C4_4  and  C5_5 
REMARK    4  A    between atoms: C5_5  and  C6_6 
REMARK    5  A    between atoms: C6_6  and  N1_7 
REMARK    6  A    between atoms: C10_11  and  C11_12 
REMARK    7  A    between atoms: C12_13  and  C13_14 
REMARK    8  A    between atoms: C13_14  and  N2_15 
REMARK    9  A    between atoms: N2_15  and  C14_17 
REMARK   10  A    between atoms: C17_22  and  S1_23 
REMARK   11  A    between atoms: S1_23  and  C18_24 
REMARK   12  A    between atoms: C18_24  and  C19_25 
REMARK   13  A    between atoms: C19_25  and  C20_26 
REMARK   14  A    between atoms: C19_25  and  O2_29 
REMARK   15  A    between atoms: C20_26  and  O1_27 
ROOT
HETATM    1  C14 UNL     1      14.071  21.469  16.327  1.00  0.00     0.121 A 
HETATM    2  N3  UNL     1      14.580  21.111  17.520  1.00  0.00    -0.327 N 
ATOM      3  H3  UNL     1      15.456  21.465  17.905  1.00  0.00     0.169 HD
HETATM    4  C15 UNL     1      13.782  20.225  18.138  1.00  0.00     0.127 A 
HETATM    5  C16 UNL     1      12.722  20.022  17.282  1.00  0.00     0.097 A 
HETATM    6  C17 UNL     1      12.861  20.778  16.134  1.00  0.00     0.064 A 
HETATM    7  C22 UNL     1      11.739  19.155  17.709  1.00  0.00     0.262 A 
HETATM    8  O3  UNL     1      10.755  18.953  16.957  1.00  0.00    -0.267 OA
HETATM    9  N4  UNL     1      11.868  18.562  18.914  1.00  0.00    -0.312 N 
ATOM     10  H4  UNL     1      11.139  17.920  19.226  1.00  0.00     0.170 HD
HETATM   11  C23 UNL     1      12.925  18.789  19.720  1.00  0.00     0.087 A 
HETATM   12  N5  UNL     1      13.909  19.627  19.349  1.00  0.00    -0.322 N 
HETATM   13  C24 UNL     1      14.933  19.706  20.382  1.00  0.00     0.132 C 
HETATM   14  C25 UNL     1      14.754  18.369  21.081  1.00  0.00     0.028 C 
HETATM   15  C26 UNL     1      13.245  18.241  21.064  1.00  0.00     0.078 C 
ENDROOT
BRANCH   1  16
HETATM   16  N2  UNL     1      14.595  22.373  15.377  1.00  0.00    -0.365 N 
ATOM     17  H2  UNL     1      14.147  23.273  15.208  1.00  0.00     0.162 HD
BRANCH  16  18
HETATM   18  C13 UNL     1      15.779  21.990  14.653  1.00  0.00     0.216 C 
BRANCH  18  19
HETATM   19  C12 UNL     1      16.955  22.774  15.020  1.00  0.00    -0.081 C 
HETATM   20  C11 UNL     1      17.936  23.402  15.307  1.00  0.00    -0.064 C 
BRANCH  20  21
HETATM   21  C10 UNL     1      19.133  24.138  15.634  1.00  0.00     0.033 A 
HETATM   22  C9  UNL     1      19.960  24.628  14.637  1.00  0.00     0.023 A 
HETATM   23  C8  UNL     1      21.098  25.313  14.982  1.00  0.00     0.019 A 
HETATM   24  C7  UNL     1      21.380  25.491  16.325  1.00  0.00     0.090 A 
HETATM   25  N1  UNL     1      20.605  25.032  17.314  1.00  0.00    -0.365 N 
HETATM   26  C27 UNL     1      19.473  24.352  16.950  1.00  0.00     0.111 A 
BRANCH  25  27
HETATM   27  C6  UNL     1      20.879  25.182  18.730  1.00  0.00     0.128 C 
BRANCH  27  28
HETATM   28  C5  UNL     1      20.808  23.895  19.500  1.00  0.00     0.020 C 
BRANCH  28  29
HETATM   29  C4  UNL     1      19.830  23.888  20.636  1.00  0.00     0.002 C 
BRANCH  29  30
HETATM   30  C3  UNL     1      18.630  23.021  20.411  1.00  0.00    -0.000 C 
BRANCH  30  31
HETATM   31  C2  UNL     1      19.042  21.767  19.634  1.00  0.00    -0.005 C 
HETATM   32  C1  UNL     1      17.957  21.328  18.685  1.00  0.00     0.005 C 
ENDBRANCH  30  31
ENDBRANCH  29  30
ENDBRANCH  28  29
ENDBRANCH  27  28
ENDBRANCH  25  27
ENDBRANCH  20  21
ENDBRANCH  18  19
ENDBRANCH  16  18
ENDBRANCH   1  16
BRANCH   6  33
HETATM   33  S1  UNL     1      11.755  20.928  14.759  1.00  0.00    -0.122 SA
BRANCH  33  34
HETATM   34  C18 UNL     1      11.821  19.577  13.611  1.00  0.00     0.113 C 
BRANCH  34  35
HETATM   35  C19 UNL     1      12.661  18.400  13.897  1.00  0.00     0.154 C 
BRANCH  35  36
HETATM   36  C20 UNL     1      11.608  17.210  13.861  1.00  0.00     0.196 C 
BRANCH  36  37
HETATM   37  O1  UNL     1      11.211  16.889  15.126  1.00  0.00    -0.398 OA
ATOM     38  H1  UNL     1      10.558  16.199  15.103  1.00  0.00     0.209 HD
ENDBRANCH  36  37
ENDBRANCH  35  36
BRANCH  35  39
HETATM   39  O2  UNL     1      13.541  18.016  12.895  1.00  0.00    -0.388 OA
HETATM   40  C21 UNL     1      13.353  16.720  12.446  1.00  0.00     0.202 C 
ENDBRANCH  35  39
ENDBRANCH  34  35
ENDBRANCH  33  34
ENDBRANCH   6  33
TORSDOF 15
ENDMDL
MODEL 2
REMARK VINA RESULT: -8.535407464      0.880      1.063
REMARK  15 active torsions:
REMARK  status: ('A' for Active; 'I' for Inactive)
REMARK    1  A    between atoms: C2_2  and  C3_3 
REMARK    2  A    between atoms: C3_3  and  C4_4 
REMARK    3  A    between atoms: C4_4  and  C5_5 
REMARK    4  A    between atoms: C5_5  and  C6_6 
REMARK    5  A    between atoms: C6_6  and  N1_7 
REMARK    6  A    between atoms: C10_11  and  C11_12 
REMARK    7  A    between atoms: C12_13  and  C13_14 
REMARK    8  A    between atoms: C13_14  and  N2_15 
REMARK    9  A    between atoms: N2_15  and  C14_17 
REMARK   10  A    between atoms: C17_22  and  S1_23 
REMARK   11  A    between atoms: S1_23  and  C18_24 
REMARK   12  A    between atoms: C18_24  and  C19_25 
REMARK   13  A    between atoms: C19_25  and  C20_26 
REMARK   14  A    between atoms: C19_25  and  O2_29 
REMARK   15  A    between atoms: C20_26  and  O1_27 
ROOT
HETATM    1  C14 UNL     1      14.204  21.419  16.336  1.00  0.00     0.121 A 
HETATM    2  N3  UNL     1      14.689  21.045  17.535  1.00  0.00    -0.327 N 
ATOM      3  H3  UNL     1      15.580  21.358  17.921  1.00  0.00     0.169 HD
HETATM    4  C15 UNL     1      13.845  20.204  18.155  1.00  0.00     0.127 A 
HETATM    5  C16 UNL     1      12.781  20.048  17.296  1.00  0.00     0.097 A 
HETATM    6  C17 UNL     1      12.962  20.788  16.144  1.00  0.00     0.064 A 
HETATM    7  C22 UNL     1      11.753  19.235  17.725  1.00  0.00     0.262 A 
HETATM    8  O3  UNL     1      10.764  19.076  16.970  1.00  0.00    -0.267 OA
HETATM    9  N4  UNL     1      11.847  18.646  18.935  1.00  0.00    -0.312 N 
ATOM     10  H4  UNL     1      11.087  18.043  19.249  1.00  0.00     0.170 HD
HETATM   11  C23 UNL     1      12.912  18.825  19.744  1.00  0.00     0.087 A 
HETATM   12  N5  UNL     1      13.938  19.610  19.372  1.00  0.00    -0.322 N 
HETATM   13  C24 UNL     1      14.961  19.645  20.408  1.00  0.00     0.132 C 
HETATM   14  C25 UNL     1      14.712  18.324  21.116  1.00  0.00     0.028 C 
HETATM   15  C26 UNL     1      13.198  18.272  21.093  1.00  0.00     0.078 C 
ENDROOT
BRANCH   1  16
HETATM   16  N2  UNL     1      14.777  22.288  15.382  1.00  0.00    -0.365 N 
ATOM     17  H2  UNL     1      14.257  23.090  15.027  1.00  0.00     0.162 HD
BRANCH  16  18
HETATM   18  C13 UNL     1      16.113  22.011  14.923  1.00  0.00     0.216 C 
BRANCH  18  19
HETATM   19  C12 UNL     1      17.015  23.150  15.063  1.00  0.00    -0.081 C 
HETATM   20  C11 UNL     1      17.759  24.087  15.151  1.00  0.00    -0.064 C 
BRANCH  20  21
HETATM   21  C10 UNL     1      18.659  25.212  15.226  1.00  0.00     0.033 A 
HETATM   22  C9  UNL     1      18.837  26.053  14.140  1.00  0.00     0.023 A 
HETATM   23  C8  UNL     1      19.709  27.107  14.240  1.00  0.00     0.019 A 
HETATM   24  C7  UNL     1      20.386  27.294  15.433  1.00  0.00     0.090 A 
HETATM   25  N1  UNL     1      20.239  26.503  16.501  1.00  0.00    -0.365 N 
HETATM   26  C27 UNL     1      19.363  25.456  16.383  1.00  0.00     0.111 A 
BRANCH  25  27
HETATM   27  C6  UNL     1      20.946  26.655  17.759  1.00  0.00     0.128 C 
BRANCH  27  28
HETATM   28  C5  UNL     1      21.227  25.356  18.457  1.00  0.00     0.020 C 
BRANCH  28  29
HETATM   29  C4  UNL     1      20.772  25.290  19.883  1.00  0.00     0.002 C 
BRANCH  29  30
HETATM   30  C3  UNL     1      20.325  23.930  20.325  1.00  0.00    -0.000 C 
BRANCH  30  31
HETATM   31  C2  UNL     1      18.955  23.618  19.716  1.00  0.00    -0.005 C 
HETATM   32  C1  UNL     1      18.999  22.365  18.880  1.00  0.00     0.005 C 
ENDBRANCH  30  31
ENDBRANCH  29  30
ENDBRANCH  28  29
ENDBRANCH  27  28
ENDBRANCH  25  27
ENDBRANCH  20  21
ENDBRANCH  18  19
ENDBRANCH  16  18
ENDBRANCH   1  16
BRANCH   6  33
HETATM   33  S1  UNL     1      11.870  20.982  14.762  1.00  0.00    -0.122 SA
BRANCH  33  34
HETATM   34  C18 UNL     1      11.919  19.649  13.593  1.00  0.00     0.113 C 
BRANCH  34  35
HETATM   35  C19 UNL     1      12.708  18.437  13.880  1.00  0.00     0.154 C 
BRANCH  35  36
HETATM   36  C20 UNL     1      11.607  17.292  13.835  1.00  0.00     0.196 C 
BRANCH  36  37
HETATM   37  O1  UNL     1      11.224  16.951  15.099  1.00  0.00    -0.398 OA
ATOM     38  H1  UNL     1      11.674  16.162  15.379  1.00  0.00     0.209 HD
ENDBRANCH  36  37
ENDBRANCH  35  36
BRANCH  35  39
HETATM   39  O2  UNL     1      13.577  18.020  12.881  1.00  0.00    -0.388 OA
HETATM   40  C21 UNL     1      13.331  16.738  12.420  1.00  0.00     0.202 C 
ENDBRANCH  35  39
ENDBRANCH  34  35
ENDBRANCH  33  34
ENDBRANCH   6  33
TORSDOF 15
ENDMDL
MODEL 3
REMARK VINA RESULT: -8.489102413      0.708      1.082
REMARK  15 active torsions:
REMARK  status: ('A' for Active; 'I' for Inactive)
REMARK    1  A    between atoms: C2_2  and  C3_3 
REMARK    2  A    between atoms: C3_3  and  C4_4 
REMARK    3  A    between atoms: C4_4  and  C5_5 
REMARK    4  A    between atoms: C5_5  and  C6_6 
REMARK    5  A    between atoms: C6_6  and  N1_7 
REMARK    6  A    between atoms: C10_11  and  C11_12 
REMARK    7  A    between atoms: C12_13  and  C13_14 
REMARK    8  A    between atoms: C13_14  and  N2_15 
REMARK    9  A    between atoms: N2_15  and  C14_17 
REMARK   10  A    between atoms: C17_22  and  S1_23 
REMARK   11  A    between atoms: S1_23  and  C18_24 
REMARK   12  A    between atoms: C18_24  and  C19_25 
REMARK   13  A    between atoms: C19_25  and  C20_26 
REMARK   14  A    between atoms: C19_25  and  O2_29 
REMARK   15  A    between atoms: C20_26  and  O1_27 
ROOT
HETATM    1  C14 UNL     1      14.057  21.409  16.668  1.00  0.00     0.121 A 
HETATM    2  N3  UNL     1      14.561  21.022  17.855  1.00  0.00    -0.327 N 
ATOM      3  H3  UNL     1      15.429  21.376  18.257  1.00  0.00     0.169 HD
HETATM    4  C15 UNL     1      13.770  20.107  18.439  1.00  0.00     0.127 A 
HETATM    5  C16 UNL     1      12.721  19.916  17.568  1.00  0.00     0.097 A 
HETATM    6  C17 UNL     1      12.858  20.708  16.445  1.00  0.00     0.064 A 
HETATM    7  C22 UNL     1      11.746  19.023  17.961  1.00  0.00     0.262 A 
HETATM    8  O3  UNL     1      10.771  18.830  17.195  1.00  0.00    -0.267 OA
HETATM    9  N4  UNL     1      11.873  18.397  19.149  1.00  0.00    -0.312 N 
ATOM     10  H4  UNL     1      11.151  17.735  19.436  1.00  0.00     0.170 HD
HETATM   11  C23 UNL     1      12.921  18.613  19.970  1.00  0.00     0.087 A 
HETATM   12  N5  UNL     1      13.896  19.475  19.633  1.00  0.00    -0.322 N 
HETATM   13  C24 UNL     1      14.910  19.537  20.676  1.00  0.00     0.132 C 
HETATM   14  C25 UNL     1      14.744  18.177  21.333  1.00  0.00     0.028 C 
HETATM   15  C26 UNL     1      13.237  18.029  21.299  1.00  0.00     0.078 C 
ENDROOT
BRANCH   1  16
HETATM   16  N2  UNL     1      14.576  22.347  15.750  1.00  0.00    -0.365 N 
ATOM     17  H2  UNL     1      14.161  23.274  15.658  1.00  0.00     0.162 HD
BRANCH  16  18
HETATM   18  C13 UNL     1      15.708  21.962  14.947  1.00  0.00     0.216 C 
BRANCH  18  19
HETATM   19  C12 UNL     1      16.915  22.724  15.254  1.00  0.00    -0.081 C 
HETATM   20  C11 UNL     1      17.909  23.356  15.480  1.00  0.00    -0.064 C 
BRANCH  20  21
HETATM   21  C10 UNL     1      19.108  24.122  15.721  1.00  0.00     0.033 A 
HETATM   22  C9  UNL     1      19.840  24.644  14.668  1.00  0.00     0.023 A 
HETATM   23  C8  UNL     1      20.982  25.358  14.931  1.00  0.00     0.019 A 
HETATM   24  C7  UNL     1      21.365  25.531  16.249  1.00  0.00     0.090 A 
HETATM   25  N1  UNL     1      20.683  25.040  17.291  1.00  0.00    -0.365 N 
HETATM   26  C27 UNL     1      19.545  24.332  17.008  1.00  0.00     0.111 A 
BRANCH  25  27
HETATM   27  C6  UNL     1      21.064  25.184  18.683  1.00  0.00     0.128 C 
BRANCH  27  28
HETATM   28  C5  UNL     1      20.888  23.930  19.491  1.00  0.00     0.020 C 
BRANCH  28  29
HETATM   29  C4  UNL     1      19.951  24.051  20.654  1.00  0.00     0.002 C 
BRANCH  29  30
HETATM   30  C3  UNL     1      18.824  23.065  20.644  1.00  0.00    -0.000 C 
BRANCH  30  31
HETATM   31  C2  UNL     1      19.174  21.899  19.714  1.00  0.00    -0.005 C 
HETATM   32  C1  UNL     1      17.976  21.460  18.911  1.00  0.00     0.005 C 
ENDBRANCH  30  31
ENDBRANCH  29  30
ENDBRANCH  28  29
ENDBRANCH  27  28
ENDBRANCH  25  27
ENDBRANCH  20  21
ENDBRANCH  18  19
ENDBRANCH  16  18
ENDBRANCH   1  16
BRANCH   6  33
HETATM   33  S1  UNL     1      11.761  20.883  15.065  1.00  0.00    -0.122 SA
BRANCH  33  34
HETATM   34  C18 UNL     1      12.142  19.836  13.685  1.00  0.00     0.113 C 
BRANCH  34  35
HETATM   35  C19 UNL     1      13.420  19.103  13.638  1.00  0.00     0.154 C 
BRANCH  35  36
HETATM   36  C20 UNL     1      13.013  17.749  12.913  1.00  0.00     0.196 C 
BRANCH  36  37
HETATM   37  O1  UNL     1      14.122  16.998  12.655  1.00  0.00    -0.398 OA
ATOM     38  H1  UNL     1      14.631  16.875  13.448  1.00  0.00     0.209 HD
ENDBRANCH  36  37
ENDBRANCH  35  36
BRANCH  35  39
HETATM   39  O2  UNL     1      14.381  19.601  12.768  1.00  0.00    -0.388 OA
HETATM   40  C21 UNL     1      14.100  20.867  12.284  1.00  0.00     0.202 C 
ENDBRANCH  35  39
ENDBRANCH  34  35
ENDBRANCH  33  34
ENDBRANCH   6  33
TORSDOF 15
ENDMDL
MODEL 4
REMARK VINA RESULT: -8.443174875      1.818      3.030
REMARK  15 active torsions:
REMARK  status: ('A' for Active; 'I' for Inactive)
REMARK    1  A    between atoms: C2_2  and  C3_3 
REMARK    2  A    between atoms: C3_3  and  C4_4 
REMARK    3  A    between atoms: C4_4  and  C5_5 
REMARK    4  A    between atoms: C5_5  and  C6_6 
REMARK    5  A    between atoms: C6_6  and  N1_7 
REMARK    6  A    between atoms: C10_11  and  C11_12 
REMARK    7  A    between atoms: C12_13  and  C13_14 
REMARK    8  A    between atoms: C13_14  and  N2_15 
REMARK    9  A    between atoms: N2_15  and  C14_17 
REMARK   10  A    between atoms: C17_22  and  S1_23 
REMARK   11  A    between atoms: S1_23  and  C18_24 
REMARK   12  A    between atoms: C18_24  and  C19_25 
REMARK   13  A    between atoms: C19_25  and  C20_26 
REMARK   14  A    between atoms: C19_25  and  O2_29 
REMARK   15  A    between atoms: C20_26  and  O1_27 
ROOT
HETATM    1  C14 UNL     1      14.253  21.361  16.461  1.00  0.00     0.121 A 
HETATM    2  N3  UNL     1      14.690  20.945  17.665  1.00  0.00    -0.327 N 
ATOM      3  H3  UNL     1      15.575  21.228  18.087  1.00  0.00     0.169 HD
HETATM    4  C15 UNL     1      13.809  20.109  18.235  1.00  0.00     0.127 A 
HETATM    5  C16 UNL     1      12.769  19.999  17.339  1.00  0.00     0.097 A 
HETATM    6  C17 UNL     1      13.004  20.763  16.213  1.00  0.00     0.064 A 
HETATM    7  C22 UNL     1      11.711  19.198  17.714  1.00  0.00     0.262 A 
HETATM    8  O3  UNL     1      10.744  19.081  16.923  1.00  0.00    -0.267 OA
HETATM    9  N4  UNL     1      11.753  18.576  18.910  1.00  0.00    -0.312 N 
ATOM     10  H4  UNL     1      10.969  17.983  19.183  1.00  0.00     0.170 HD
HETATM   11  C23 UNL     1      12.794  18.711  19.757  1.00  0.00     0.087 A 
HETATM   12  N5  UNL     1      13.848  19.482  19.438  1.00  0.00    -0.322 N 
HETATM   13  C24 UNL     1      14.837  19.467  20.507  1.00  0.00     0.132 C 
HETATM   14  C25 UNL     1      14.537  18.135  21.172  1.00  0.00     0.028 C 
HETATM   15  C26 UNL     1      13.024  18.117  21.100  1.00  0.00     0.078 C 
ENDROOT
BRANCH   1  16
HETATM   16  N2  UNL     1      14.875  22.240  15.549  1.00  0.00    -0.365 N 
ATOM     17  H2  UNL     1      14.407  23.093  15.242  1.00  0.00     0.162 HD
BRANCH  16  18
HETATM   18  C13 UNL     1      16.187  21.902  15.062  1.00  0.00     0.216 C 
BRANCH  18  19
HETATM   19  C12 UNL     1      17.092  23.047  15.011  1.00  0.00    -0.081 C 
HETATM   20  C11 UNL     1      17.815  24.003  14.975  1.00  0.00    -0.064 C 
BRANCH  20  21
HETATM   21  C10 UNL     1      18.660  25.173  14.936  1.00  0.00     0.033 A 
HETATM   22  C9  UNL     1      18.800  25.908  13.772  1.00  0.00     0.023 A 
HETATM   23  C8  UNL     1      19.621  27.008  13.764  1.00  0.00     0.019 A 
HETATM   24  C7  UNL     1      20.284  27.345  14.932  1.00  0.00     0.090 A 
HETATM   25  N1  UNL     1      20.172  26.658  16.074  1.00  0.00    -0.365 N 
HETATM   26  C27 UNL     1      19.348  25.564  16.062  1.00  0.00     0.111 A 
BRANCH  25  27
HETATM   27  C6  UNL     1      20.866  26.969  17.309  1.00  0.00     0.128 C 
BRANCH  27  28
HETATM   28  C5  UNL     1      22.092  26.133  17.542  1.00  0.00     0.020 C 
BRANCH  28  29
HETATM   29  C4  UNL     1      23.394  26.853  17.368  1.00  0.00     0.002 C 
BRANCH  29  30
HETATM   30  C3  UNL     1      23.866  26.940  15.949  1.00  0.00    -0.000 C 
BRANCH  30  31
HETATM   31  C2  UNL     1      24.383  28.355  15.668  1.00  0.00    -0.005 C 
HETATM   32  C1  UNL     1      23.392  29.149  14.856  1.00  0.00     0.005 C 
ENDBRANCH  30  31
ENDBRANCH  29  30
ENDBRANCH  28  29
ENDBRANCH  27  28
ENDBRANCH  25  27
ENDBRANCH  20  21
ENDBRANCH  18  19
ENDBRANCH  16  18
ENDBRANCH   1  16
BRANCH   6  33
HETATM   33  S1  UNL     1      11.962  21.017  14.803  1.00  0.00    -0.122 SA
BRANCH  33  34
HETATM   34  C18 UNL     1      11.871  19.633  13.697  1.00  0.00     0.113 C 
BRANCH  34  35
HETATM   35  C19 UNL     1      12.686  18.431  13.943  1.00  0.00     0.154 C 
BRANCH  35  36
HETATM   36  C20 UNL     1      11.608  17.265  13.879  1.00  0.00     0.196 C 
BRANCH  36  37
HETATM   37  O1  UNL     1      11.213  16.915  15.137  1.00  0.00    -0.398 OA
ATOM     38  H1  UNL     1      11.391  15.996  15.296  1.00  0.00     0.209 HD
ENDBRANCH  36  37
ENDBRANCH  35  36
BRANCH  35  39
HETATM   39  O2  UNL     1      13.552  18.057  12.923  1.00  0.00    -0.388 OA
HETATM   40  C21 UNL     1      13.345  16.773  12.451  1.00  0.00     0.202 C 
ENDBRANCH  35  39
ENDBRANCH  34  35
ENDBRANCH  33  34
ENDBRANCH   6  33
TORSDOF 15
ENDMDL
MODEL 5
REMARK VINA RESULT: -8.439766820      1.009      2.840
REMARK  15 active torsions:
REMARK  status: ('A' for Active; 'I' for Inactive)
REMARK    1  A    between atoms: C2_2  and  C3_3 
REMARK    2  A    between atoms: C3_3  and  C4_4 
REMARK    3  A    between atoms: C4_4  and  C5_5 
REMARK    4  A    between atoms: C5_5  and  C6_6 
REMARK    5  A    between atoms: C6_6  and  N1_7 
REMARK    6  A    between atoms: C10_11  and  C11_12 
REMARK    7  A    between atoms: C12_13  and  C13_14 
REMARK    8  A    between atoms: C13_14  and  N2_15 
REMARK    9  A    between atoms: N2_15  and  C14_17 
REMARK   10  A    between atoms: C17_22  and  S1_23 
REMARK   11  A    between atoms: S1_23  and  C18_24 
REMARK   12  A    between atoms: C18_24  and  C19_25 
REMARK   13  A    between atoms: C19_25  and  C20_26 
REMARK   14  A    between atoms: C19_25  and  O2_29 
REMARK   15  A    between atoms: C20_26  and  O1_27 
ROOT
HETATM    1  C14 UNL     1      14.250  21.483  16.319  1.00  0.00     0.121 A 
HETATM    2  N3  UNL     1      14.720  21.102  17.521  1.00  0.00    -0.327 N 
ATOM      3  H3  UNL     1      15.605  21.414  17.921  1.00  0.00     0.169 HD
HETATM    4  C15 UNL     1      13.870  20.256  18.125  1.00  0.00     0.127 A 
HETATM    5  C16 UNL     1      12.817  20.103  17.251  1.00  0.00     0.097 A 
HETATM    6  C17 UNL     1      13.012  20.851  16.106  1.00  0.00     0.064 A 
HETATM    7  C22 UNL     1      11.785  19.285  17.661  1.00  0.00     0.262 A 
HETATM    8  O3  UNL     1      10.807  19.130  16.892  1.00  0.00    -0.267 OA
HETATM    9  N4  UNL     1      11.865  18.689  18.868  1.00  0.00    -0.312 N 
ATOM     10  H4  UNL     1      11.101  18.083  19.168  1.00  0.00     0.170 HD
HETATM   11  C23 UNL     1      12.918  18.865  19.693  1.00  0.00     0.087 A 
HETATM   12  N5  UNL     1      13.947  19.654  19.339  1.00  0.00    -0.322 N 
HETATM   13  C24 UNL     1      14.956  19.685  20.389  1.00  0.00     0.132 C 
HETATM   14  C25 UNL     1      14.700  18.359  21.085  1.00  0.00     0.028 C 
HETATM   15  C26 UNL     1      13.187  18.303  21.042  1.00  0.00     0.078 C 
ENDROOT
BRANCH   1  16
HETATM   16  N2  UNL     1      14.834  22.359  15.378  1.00  0.00    -0.365 N 
ATOM     17  H2  UNL     1      14.325  23.174  15.036  1.00  0.00     0.162 HD
BRANCH  16  18
HETATM   18  C13 UNL     1      16.165  22.071  14.912  1.00  0.00     0.216 C 
BRANCH  18  19
HETATM   19  C12 UNL     1      17.205  22.683  15.735  1.00  0.00    -0.081 C 
HETATM   20  C11 UNL     1      18.054  23.168  16.430  1.00  0.00    -0.064 C 
BRANCH  20  21
HETATM   21  C10 UNL     1      19.067  23.732  17.289  1.00  0.00     0.033 A 
HETATM   22  C9  UNL     1      19.586  23.004  18.346  1.00  0.00     0.023 A 
HETATM   23  C8  UNL     1      20.539  23.574  19.153  1.00  0.00     0.019 A 
HETATM   24  C7  UNL     1      20.951  24.866  18.877  1.00  0.00     0.090 A 
HETATM   25  N1  UNL     1      20.472  25.598  17.866  1.00  0.00    -0.365 N 
HETATM   26  C27 UNL     1      19.521  25.012  17.071  1.00  0.00     0.111 A 
BRANCH  25  27
HETATM   27  C6  UNL     1      20.863  26.960  17.559  1.00  0.00     0.128 C 
BRANCH  27  28
HETATM   28  C5  UNL     1      21.581  27.104  16.248  1.00  0.00     0.020 C 
BRANCH  28  29
HETATM   29  C4  UNL     1      20.896  27.979  15.242  1.00  0.00     0.002 C 
BRANCH  29  30
HETATM   30  C3  UNL     1      20.565  27.293  13.953  1.00  0.00    -0.000 C 
BRANCH  30  31
HETATM   31  C2  UNL     1      19.084  26.900  13.949  1.00  0.00    -0.005 C 
HETATM   32  C1  UNL     1      18.901  25.457  13.554  1.00  0.00     0.005 C 
ENDBRANCH  30  31
ENDBRANCH  29  30
ENDBRANCH  28  29
ENDBRANCH  27  28
ENDBRANCH  25  27
ENDBRANCH  20  21
ENDBRANCH  18  19
ENDBRANCH  16  18
ENDBRANCH   1  16
BRANCH   6  33
HETATM   33  S1  UNL     1      11.938  21.052  14.711  1.00  0.00    -0.122 SA
BRANCH  33  34
HETATM   34  C18 UNL     1      11.881  19.655  13.619  1.00  0.00     0.113 C 
BRANCH  34  35
HETATM   35  C19 UNL     1      12.711  18.467  13.889  1.00  0.00     0.154 C 
BRANCH  35  36
HETATM   36  C20 UNL     1      11.643  17.290  13.865  1.00  0.00     0.196 C 
BRANCH  36  37
HETATM   37  O1  UNL     1      11.233  16.996  15.133  1.00  0.00    -0.398 OA
ATOM     38  H1  UNL     1      10.284  16.986  15.179  1.00  0.00     0.209 HD
ENDBRANCH  36  37
ENDBRANCH  35  36
BRANCH  35  39
HETATM   39  O2  UNL     1      13.571  18.075  12.871  1.00  0.00    -0.388 OA
HETATM   40  C21 UNL     1      13.399  16.765  12.462  1.00  0.00     0.202 C 
ENDBRANCH  35  39
ENDBRANCH  34  35
ENDBRANCH  33  34
ENDBRANCH   6  33
TORSDOF 15
ENDMDL
