MODEL 1
REMARK VINA RESULT: -8.764678737      0.000      0.000
REMARK  12 active torsions:
REMARK  status: ('A' for Active; 'I' for Inactive)
REMARK    1  A    between atoms: C2_2  and  C3_3 
REMARK    2  A    between atoms: C3_3  and  C4_4 
REMARK    3  A    between atoms: C4_4  and  S1_5 
REMARK    4  A    between atoms: S1_5  and  C5_6 
REMARK    5  A    between atoms: S1_5  and  C18_33 
REMARK    6  A    between atoms: C5_6  and  C6_7 
REMARK    7  A    between atoms: C7_10  and  N2_11 
REMARK    8  A    between atoms: N2_11  and  C8_13 
REMARK    9  A    between atoms: C11_18  and  C12_19 
REMARK   10  A    between atoms: C12_19  and  N4_20 
REMARK   11  A    between atoms: N8_36  and  O1_37 
REMARK   12  A    between atoms: C21_39  and  N9_40 
ROOT
HETATM    1  C6  UNL     1      17.739  22.528  19.561  1.00  0.00     0.121 A 
HETATM    2  N1  UNL     1      19.013  22.811  19.876  1.00  0.00    -0.177 N 
ATOM      3  H1  UNL     1      19.797  22.166  19.783  1.00  0.00     0.185 HD
HETATM    4  C7  UNL     1      19.098  24.053  20.326  1.00  0.00     0.698 A 
HETATM    5  N6  UNL     1      17.851  24.544  20.288  1.00  0.00    -0.131 N 
ATOM      6  H6  UNL     1      17.588  25.487  20.575  1.00  0.00     0.205 HD
HETATM    7  N7  UNL     1      17.019  23.641  19.830  1.00  0.00    -0.274 N 
ATOM      8  H7  UNL     1      16.014  23.757  19.701  1.00  0.00     0.189 HD
ENDROOT
BRANCH   4   9
HETATM    9  N2  UNL     1      20.185  24.651  20.720  1.00  0.00    -0.190 N 
ATOM     10  H2  UNL     1      20.298  24.817  21.720  1.00  0.00     0.184 HD
BRANCH   9  11
HETATM   11  C8  UNL     1      21.211  25.085  19.868  1.00  0.00     0.052 A 
HETATM   12  C9  UNL     1      22.481  24.576  19.936  1.00  0.00     0.047 A 
HETATM   13  C10 UNL     1      23.465  25.026  19.084  1.00  0.00     0.090 A 
HETATM   14  N3  UNL     1      23.134  25.986  18.179  1.00  0.00    -0.368 N 
HETATM   15  C11 UNL     1      21.903  26.493  18.096  1.00  0.00     0.039 A 
ATOM     16  H3  UNL     1      23.851  26.329  17.540  1.00  0.00     0.165 HD
HETATM   17  C17 UNL     1      20.899  26.064  18.934  1.00  0.00     0.057 A 
BRANCH  15  18
HETATM   18  C12 UNL     1      21.605  27.539  17.091  1.00  0.00     0.329 C 
BRANCH  18  19
HETATM   19  N4  UNL     1      21.198  26.861  15.867  1.00  0.00     0.097 N 
HETATM   20  C13 UNL     1      19.774  26.855  15.700  1.00  0.00     0.300 C 
HETATM   21  C14 UNL     1      19.390  26.602  14.254  1.00  0.00     0.262 C 
HETATM   22  N5  UNL     1      19.792  27.764  13.485  1.00  0.00    -0.072 N 
HETATM   23  C15 UNL     1      20.965  28.409  14.018  1.00  0.00     0.262 C 
ATOM     24  H52 UNL     1      19.921  27.524  12.502  1.00  0.00     0.277 HD
ATOM     25  H51 UNL     1      19.021  28.425  13.393  1.00  0.00     0.277 HD
HETATM   26  C16 UNL     1      21.883  27.420  14.715  1.00  0.00     0.300 C 
ENDBRANCH  18  19
ENDBRANCH  15  18
ENDBRANCH   9  11
ENDBRANCH   4   9
BRANCH   1  27
HETATM   27  C5  UNL     1      17.284  21.243  19.036  1.00  0.00     0.147 C 
BRANCH  27  28
HETATM   28  S1  UNL     1      15.832  21.135  18.162  1.00  0.00    -0.179 SA
BRANCH  28  29
HETATM   29  C4  UNL     1      15.679  21.561  16.532  1.00  0.00     0.069 C 
BRANCH  29  30
HETATM   30  C3  UNL     1      15.655  22.986  16.118  1.00  0.00     0.009 C 
BRANCH  30  31
HETATM   31  C2  UNL     1      16.840  23.345  15.229  1.00  0.00    -0.004 C 
HETATM   32  C1  UNL     1      18.119  23.449  15.999  1.00  0.00     0.005 C 
ENDBRANCH  30  31
ENDBRANCH  29  30
ENDBRANCH  28  29
BRANCH  28  33
HETATM   33  C18 UNL     1      14.536  20.293  18.894  1.00  0.00    -0.004 A 
HETATM   34  C19 UNL     1      14.598  19.950  20.219  1.00  0.00     0.037 A 
HETATM   35  C20 UNL     1      13.535  19.272  20.765  1.00  0.00     0.126 A 
HETATM   36  N8  UNL     1      12.458  18.952  20.011  1.00  0.00    -0.220 N 
HETATM   37  C21 UNL     1      12.336  19.260  18.710  1.00  0.00     0.131 A 
HETATM   38  C24 UNL     1      13.430  19.952  18.164  1.00  0.00     0.068 A 
BRANCH  36  39
HETATM   39  O1  UNL     1      11.434  18.264  20.658  1.00  0.00    -0.282 OA
ATOM     40  H1  UNL     1      10.973  18.740  21.340  1.00  0.00     0.245 HD
ENDBRANCH  36  39
BRANCH  37  41
HETATM   41  N9  UNL     1      11.218  18.929  17.924  1.00  0.00    -0.374 N 
HETATM   42  C22 UNL     1      10.546  19.995  17.197  1.00  0.00     0.150 C 
HETATM   43  C23 UNL     1      10.702  17.594  17.797  1.00  0.00     0.150 C 
ENDBRANCH  37  41
ENDBRANCH  28  33
ENDBRANCH  27  28
ENDBRANCH   1  27
TORSDOF 12
ENDMDL
MODEL 2
REMARK VINA RESULT: -8.733533340      2.446      3.873
REMARK  12 active torsions:
REMARK  status: ('A' for Active; 'I' for Inactive)
REMARK    1  A    between atoms: C2_2  and  C3_3 
REMARK    2  A    between atoms: C3_3  and  C4_4 
REMARK    3  A    between atoms: C4_4  and  S1_5 
REMARK    4  A    between atoms: S1_5  and  C5_6 
REMARK    5  A    between atoms: S1_5  and  C18_33 
REMARK    6  A    between atoms: C5_6  and  C6_7 
REMARK    7  A    between atoms: C7_10  and  N2_11 
REMARK    8  A    between atoms: N2_11  and  C8_13 
REMARK    9  A    between atoms: C11_18  and  C12_19 
REMARK   10  A    between atoms: C12_19  and  N4_20 
REMARK   11  A    between atoms: N8_36  and  O1_37 
REMARK   12  A    between atoms: C21_39  and  N9_40 
ROOT
HETATM    1  C6  UNL     1      14.683  22.863  16.405  1.00  0.00     0.121 A 
HETATM    2  N1  UNL     1      15.791  22.696  17.145  1.00  0.00    -0.177 N 
ATOM      3  H1  UNL     1      16.572  22.087  16.902  1.00  0.00     0.185 HD
HETATM    4  C7  UNL     1      15.717  23.441  18.236  1.00  0.00     0.698 A 
HETATM    5  N6  UNL     1      14.540  24.078  18.168  1.00  0.00    -0.131 N 
ATOM      6  H6  UNL     1      14.189  24.731  18.869  1.00  0.00     0.205 HD
HETATM    7  N7  UNL     1      13.903  23.743  17.073  1.00  0.00    -0.274 N 
ATOM      8  H7  UNL     1      12.987  24.084  16.778  1.00  0.00     0.189 HD
ENDROOT
BRANCH   4   9
HETATM    9  N2  UNL     1      16.619  23.519  19.172  1.00  0.00    -0.190 N 
ATOM     10  H2  UNL     1      16.316  23.375  20.135  1.00  0.00     0.184 HD
BRANCH   9  11
HETATM   11  C8  UNL     1      17.977  23.790  18.950  1.00  0.00     0.052 A 
HETATM   12  C9  UNL     1      18.971  22.973  19.420  1.00  0.00     0.047 A 
HETATM   13  C10 UNL     1      20.295  23.269  19.185  1.00  0.00     0.090 A 
HETATM   14  N3  UNL     1      20.579  24.394  18.474  1.00  0.00    -0.368 N 
HETATM   15  C11 UNL     1      19.626  25.201  18.008  1.00  0.00     0.039 A 
ATOM     16  H3  UNL     1      21.555  24.627  18.291  1.00  0.00     0.165 HD
HETATM   17  C17 UNL     1      18.295  24.932  18.227  1.00  0.00     0.057 A 
BRANCH  15  18
HETATM   18  C12 UNL     1      19.999  26.414  17.243  1.00  0.00     0.329 C 
BRANCH  18  19
HETATM   19  N4  UNL     1      20.020  26.047  15.832  1.00  0.00     0.097 N 
HETATM   20  C13 UNL     1      18.727  26.166  15.224  1.00  0.00     0.300 C 
HETATM   21  C14 UNL     1      18.836  26.261  13.713  1.00  0.00     0.262 C 
HETATM   22  N5  UNL     1      19.449  27.536  13.399  1.00  0.00    -0.072 N 
HETATM   23  C15 UNL     1      20.377  27.975  14.409  1.00  0.00     0.262 C 
ATOM     24  H52 UNL     1      19.892  27.511  12.481  1.00  0.00     0.277 HD
ATOM     25  H51 UNL     1      18.740  28.248  13.220  1.00  0.00     0.277 HD
HETATM   26  C16 UNL     1      21.034  26.803  15.118  1.00  0.00     0.300 C 
ENDBRANCH  18  19
ENDBRANCH  15  18
ENDBRANCH   9  11
ENDBRANCH   4   9
BRANCH   1  27
HETATM   27  C5  UNL     1      14.430  22.189  15.134  1.00  0.00     0.147 C 
BRANCH  27  28
HETATM   28  S1  UNL     1      13.219  21.005  15.013  1.00  0.00    -0.179 SA
BRANCH  28  29
HETATM   29  C4  UNL     1      12.737  20.296  13.554  1.00  0.00     0.069 C 
BRANCH  29  30
HETATM   30  C3  UNL     1      13.321  19.009  13.105  1.00  0.00     0.009 C 
BRANCH  30  31
HETATM   31  C2  UNL     1      12.265  17.917  12.967  1.00  0.00    -0.004 C 
HETATM   32  C1  UNL     1      12.779  16.717  12.236  1.00  0.00     0.005 C 
ENDBRANCH  30  31
ENDBRANCH  29  30
ENDBRANCH  28  29
BRANCH  28  33
HETATM   33  C18 UNL     1      12.660  20.301  16.468  1.00  0.00    -0.004 A 
HETATM   34  C19 UNL     1      11.362  19.875  16.571  1.00  0.00     0.037 A 
HETATM   35  C20 UNL     1      10.955  19.317  17.760  1.00  0.00     0.126 A 
HETATM   36  N8  UNL     1      11.815  19.195  18.797  1.00  0.00    -0.220 N 
HETATM   37  C21 UNL     1      13.097  19.592  18.758  1.00  0.00     0.131 A 
HETATM   38  C24 UNL     1      13.500  20.161  17.539  1.00  0.00     0.068 A 
BRANCH  36  39
HETATM   39  O1  UNL     1      11.304  18.618  19.957  1.00  0.00    -0.282 OA
ATOM     40  H1  UNL     1      11.783  18.791  20.760  1.00  0.00     0.245 HD
ENDBRANCH  36  39
BRANCH  37  41
HETATM   41  N9  UNL     1      13.993  19.466  19.835  1.00  0.00    -0.374 N 
HETATM   42  C22 UNL     1      14.601  20.675  20.371  1.00  0.00     0.150 C 
HETATM   43  C23 UNL     1      14.342  18.209  20.436  1.00  0.00     0.150 C 
ENDBRANCH  37  41
ENDBRANCH  28  33
ENDBRANCH  27  28
ENDBRANCH   1  27
TORSDOF 12
ENDMDL
MODEL 3
REMARK VINA RESULT: -8.680984849      2.570      4.542
REMARK  12 active torsions:
REMARK  status: ('A' for Active; 'I' for Inactive)
REMARK    1  A    between atoms: C2_2  and  C3_3 
REMARK    2  A    between atoms: C3_3  and  C4_4 
REMARK    3  A    between atoms: C4_4  and  S1_5 
REMARK    4  A    between atoms: S1_5  and  C5_6 
REMARK    5  A    between atoms: S1_5  and  C18_33 
REMARK    6  A    between atoms: C5_6  and  C6_7 
REMARK    7  A    between atoms: C7_10  and  N2_11 
REMARK    8  A    between atoms: N2_11  and  C8_13 
REMARK    9  A    between atoms: C11_18  and  C12_19 
REMARK   10  A    between atoms: C12_19  and  N4_20 
REMARK   11  A    between atoms: N8_36  and  O1_37 
REMARK   12  A    between atoms: C21_39  and  N9_40 
ROOT
HETATM    1  C6  UNL     1      17.049  22.501  19.043  1.00  0.00     0.121 A 
HETATM    2  N1  UNL     1      17.144  23.255  17.936  1.00  0.00    -0.177 N 
ATOM      3  H1  UNL     1      17.112  22.900  16.980  1.00  0.00     0.185 HD
HETATM    4  C7  UNL     1      17.285  24.527  18.271  1.00  0.00     0.698 A 
HETATM    5  N6  UNL     1      17.278  24.558  19.611  1.00  0.00    -0.131 N 
ATOM      6  H6  UNL     1      17.370  25.403  20.175  1.00  0.00     0.205 HD
HETATM    7  N7  UNL     1      17.137  23.348  20.094  1.00  0.00    -0.274 N 
ATOM      8  H7  UNL     1      17.099  23.092  21.081  1.00  0.00     0.189 HD
ENDROOT
BRANCH   4   9
HETATM    9  N2  UNL     1      17.406  25.528  17.446  1.00  0.00    -0.190 N 
ATOM     10  H2  UNL     1      16.953  26.406  17.698  1.00  0.00     0.184 HD
BRANCH   9  11
HETATM   11  C8  UNL     1      18.114  25.483  16.236  1.00  0.00     0.052 A 
HETATM   12  C9  UNL     1      17.505  25.191  15.044  1.00  0.00     0.047 A 
HETATM   13  C10 UNL     1      18.231  25.154  13.874  1.00  0.00     0.090 A 
HETATM   14  N3  UNL     1      19.564  25.416  13.944  1.00  0.00    -0.368 N 
HETATM   15  C11 UNL     1      20.174  25.703  15.094  1.00  0.00     0.039 A 
ATOM     16  H3  UNL     1      20.115  25.393  13.086  1.00  0.00     0.165 HD
HETATM   17  C17 UNL     1      19.476  25.746  16.279  1.00  0.00     0.057 A 
BRANCH  15  18
HETATM   18  C12 UNL     1      21.630  25.976  15.105  1.00  0.00     0.329 C 
BRANCH  18  19
HETATM   19  N4  UNL     1      21.809  27.358  15.534  1.00  0.00     0.097 N 
HETATM   20  C13 UNL     1      23.183  27.763  15.492  1.00  0.00     0.300 C 
HETATM   21  C14 UNL     1      23.310  29.275  15.461  1.00  0.00     0.262 C 
HETATM   22  N5  UNL     1      22.810  29.730  14.179  1.00  0.00    -0.072 N 
HETATM   23  C15 UNL     1      21.759  28.892  13.659  1.00  0.00     0.262 C 
ATOM     24  H52 UNL     1      22.511  30.703  14.228  1.00  0.00     0.277 HD
ATOM     25  H51 UNL     1      23.569  29.825  13.504  1.00  0.00     0.277 HD
HETATM   26  C16 UNL     1      20.950  28.248  14.772  1.00  0.00     0.300 C 
ENDBRANCH  18  19
ENDBRANCH  15  18
ENDBRANCH   9  11
ENDBRANCH   4   9
BRANCH   1  27
HETATM   27  C5  UNL     1      16.887  21.049  19.042  1.00  0.00     0.147 C 
BRANCH  27  28
HETATM   28  S1  UNL     1      15.354  20.354  19.264  1.00  0.00    -0.179 SA
BRANCH  28  29
HETATM   29  C4  UNL     1      14.755  19.854  20.765  1.00  0.00     0.069 C 
BRANCH  29  30
HETATM   30  C3  UNL     1      14.488  18.420  21.038  1.00  0.00     0.009 C 
BRANCH  30  31
HETATM   31  C2  UNL     1      13.034  18.170  21.421  1.00  0.00    -0.004 C 
HETATM   32  C1  UNL     1      12.283  17.436  20.356  1.00  0.00     0.005 C 
ENDBRANCH  30  31
ENDBRANCH  29  30
ENDBRANCH  28  29
BRANCH  28  33
HETATM   33  C18 UNL     1      14.262  20.421  17.949  1.00  0.00    -0.004 A 
HETATM   34  C19 UNL     1      12.929  20.176  18.149  1.00  0.00     0.037 A 
HETATM   35  C20 UNL     1      12.087  20.238  17.064  1.00  0.00     0.126 A 
HETATM   36  N8  UNL     1      12.567  20.533  15.833  1.00  0.00    -0.220 N 
HETATM   37  C21 UNL     1      13.860  20.783  15.573  1.00  0.00     0.131 A 
HETATM   38  C24 UNL     1      14.709  20.715  16.690  1.00  0.00     0.068 A 
BRANCH  36  39
HETATM   39  O1  UNL     1      11.633  20.570  14.801  1.00  0.00    -0.282 OA
ATOM     40  H1  UNL     1      11.732  19.913  14.120  1.00  0.00     0.245 HD
ENDBRANCH  36  39
BRANCH  37  41
HETATM   41  N9  UNL     1      14.361  21.089  14.295  1.00  0.00    -0.374 N 
HETATM   42  C22 UNL     1      15.235  22.244  14.155  1.00  0.00     0.150 C 
HETATM   43  C23 UNL     1      14.058  20.323  13.118  1.00  0.00     0.150 C 
ENDBRANCH  37  41
ENDBRANCH  28  33
ENDBRANCH  27  28
ENDBRANCH   1  27
TORSDOF 12
ENDMDL
MODEL 4
REMARK VINA RESULT: -8.570415552      2.288      3.729
REMARK  12 active torsions:
REMARK  status: ('A' for Active; 'I' for Inactive)
REMARK    1  A    between atoms: C2_2  and  C3_3 
REMARK    2  A    between atoms: C3_3  and  C4_4 
REMARK    3  A    between atoms: C4_4  and  S1_5 
REMARK    4  A    between atoms: S1_5  and  C5_6 
REMARK    5  A    between atoms: S1_5  and  C18_33 
REMARK    6  A    between atoms: C5_6  and  C6_7 
REMARK    7  A    between atoms: C7_10  and  N2_11 
REMARK    8  A    between atoms: N2_11  and  C8_13 
REMARK    9  A    between atoms: C11_18  and  C12_19 
REMARK   10  A    between atoms: C12_19  and  N4_20 
REMARK   11  A    between atoms: N8_36  and  O1_37 
REMARK   12  A    between atoms: C21_39  and  N9_40 
ROOT
HETATM    1  C6  UNL     1      17.830  22.500  19.653  1.00  0.00     0.121 A 
HETATM    2  N1  UNL     1      19.094  22.820  19.977  1.00  0.00    -0.177 N 
ATOM      3  H1  UNL     1      19.892  22.189  19.918  1.00  0.00     0.185 HD
HETATM    4  C7  UNL     1      19.146  24.077  20.386  1.00  0.00     0.698 A 
HETATM    5  N6  UNL     1      17.890  24.541  20.312  1.00  0.00    -0.131 N 
ATOM      6  H6  UNL     1      17.602  25.487  20.563  1.00  0.00     0.205 HD
HETATM    7  N7  UNL     1      17.084  23.605  19.873  1.00  0.00    -0.274 N 
ATOM      8  H7  UNL     1      16.078  23.695  19.724  1.00  0.00     0.189 HD
ENDROOT
BRANCH   4   9
HETATM    9  N2  UNL     1      20.214  24.712  20.776  1.00  0.00    -0.190 N 
ATOM     10  H2  UNL     1      20.295  24.938  21.767  1.00  0.00     0.184 HD
BRANCH   9  11
HETATM   11  C8  UNL     1      21.260  25.108  19.930  1.00  0.00     0.052 A 
HETATM   12  C9  UNL     1      22.517  24.571  20.023  1.00  0.00     0.047 A 
HETATM   13  C10 UNL     1      23.522  24.984  19.176  1.00  0.00     0.090 A 
HETATM   14  N3  UNL     1      23.225  25.935  18.251  1.00  0.00    -0.368 N 
HETATM   15  C11 UNL     1      22.008  26.470  18.145  1.00  0.00     0.039 A 
ATOM     16  H3  UNL     1      23.958  26.252  17.617  1.00  0.00     0.165 HD
HETATM   17  C17 UNL     1      20.984  26.078  18.977  1.00  0.00     0.057 A 
BRANCH  15  18
HETATM   18  C12 UNL     1      21.746  27.506  17.119  1.00  0.00     0.329 C 
BRANCH  18  19
HETATM   19  N4  UNL     1      21.240  26.825  15.934  1.00  0.00     0.097 N 
HETATM   20  C13 UNL     1      19.809  26.868  15.857  1.00  0.00     0.300 C 
HETATM   21  C14 UNL     1      19.325  26.607  14.443  1.00  0.00     0.262 C 
HETATM   22  N5  UNL     1      19.717  27.743  13.631  1.00  0.00    -0.072 N 
HETATM   23  C15 UNL     1      20.943  28.354  14.079  1.00  0.00     0.262 C 
ATOM     24  H52 UNL     1      19.775  27.486  12.647  1.00  0.00     0.277 HD
ATOM     25  H51 UNL     1      18.965  28.430  13.578  1.00  0.00     0.277 HD
HETATM   26  C16 UNL     1      21.869  27.344  14.733  1.00  0.00     0.300 C 
ENDBRANCH  18  19
ENDBRANCH  15  18
ENDBRANCH   9  11
ENDBRANCH   4   9
BRANCH   1  27
HETATM   27  C5  UNL     1      17.411  21.188  19.165  1.00  0.00     0.147 C 
BRANCH  27  28
HETATM   28  S1  UNL     1      15.829  20.945  18.600  1.00  0.00    -0.179 SA
BRANCH  28  29
HETATM   29  C4  UNL     1      14.503  20.651  19.609  1.00  0.00     0.069 C 
BRANCH  29  30
HETATM   30  C3  UNL     1      14.562  19.601  20.656  1.00  0.00     0.009 C 
BRANCH  30  31
HETATM   31  C2  UNL     1      13.902  18.304  20.204  1.00  0.00    -0.004 C 
HETATM   32  C1  UNL     1      12.704  17.957  21.031  1.00  0.00     0.005 C 
ENDBRANCH  30  31
ENDBRANCH  29  30
ENDBRANCH  28  29
BRANCH  28  33
HETATM   33  C18 UNL     1      15.520  21.291  16.953  1.00  0.00    -0.004 A 
HETATM   34  C19 UNL     1      16.363  22.114  16.254  1.00  0.00     0.037 A 
HETATM   35  C20 UNL     1      16.074  22.367  14.934  1.00  0.00     0.126 A 
HETATM   36  N8  UNL     1      14.988  21.816  14.345  1.00  0.00    -0.220 N 
HETATM   37  C21 UNL     1      14.126  21.003  14.976  1.00  0.00     0.131 A 
HETATM   38  C24 UNL     1      14.431  20.753  16.325  1.00  0.00     0.068 A 
BRANCH  36  39
HETATM   39  O1  UNL     1      14.784  22.135  13.005  1.00  0.00    -0.282 OA
ATOM     40  H1  UNL     1      13.943  22.522  12.787  1.00  0.00     0.245 HD
ENDBRANCH  36  39
BRANCH  37  41
HETATM   41  N9  UNL     1      12.995  20.429  14.367  1.00  0.00    -0.374 N 
HETATM   42  C22 UNL     1      13.192  19.298  13.473  1.00  0.00     0.150 C 
HETATM   43  C23 UNL     1      11.654  20.898  14.579  1.00  0.00     0.150 C 
ENDBRANCH  37  41
ENDBRANCH  28  33
ENDBRANCH  27  28
ENDBRANCH   1  27
TORSDOF 12
ENDMDL
MODEL 5
REMARK VINA RESULT: -8.490429442      1.443      1.728
REMARK  12 active torsions:
REMARK  status: ('A' for Active; 'I' for Inactive)
REMARK    1  A    between atoms: C2_2  and  C3_3 
REMARK    2  A    between atoms: C3_3  and  C4_4 
REMARK    3  A    between atoms: C4_4  and  S1_5 
REMARK    4  A    between atoms: S1_5  and  C5_6 
REMARK    5  A    between atoms: S1_5  and  C18_33 
REMARK    6  A    between atoms: C5_6  and  C6_7 
REMARK    7  A    between atoms: C7_10  and  N2_11 
REMARK    8  A    between atoms: N2_11  and  C8_13 
REMARK    9  A    between atoms: C11_18  and  C12_19 
REMARK   10  A    between atoms: C12_19  and  N4_20 
REMARK   11  A    between atoms: N8_36  and  O1_37 
REMARK   12  A    between atoms: C21_39  and  N9_40 
ROOT
HETATM    1  C6  UNL     1      17.414  22.587  19.413  1.00  0.00     0.121 A 
HETATM    2  N1  UNL     1      18.700  22.604  19.801  1.00  0.00    -0.177 N 
ATOM      3  H1  UNL     1      19.338  21.809  19.754  1.00  0.00     0.185 HD
HETATM    4  C7  UNL     1      19.016  23.807  20.252  1.00  0.00     0.698 A 
HETATM    5  N6  UNL     1      17.902  24.545  20.142  1.00  0.00    -0.131 N 
ATOM      6  H6  UNL     1      17.824  25.526  20.411  1.00  0.00     0.205 HD
HETATM    7  N7  UNL     1      16.927  23.828  19.639  1.00  0.00    -0.274 N 
ATOM      8  H7  UNL     1      15.977  24.147  19.451  1.00  0.00     0.189 HD
ENDROOT
BRANCH   4   9
HETATM    9  N2  UNL     1      20.179  24.174  20.707  1.00  0.00    -0.190 N 
ATOM     10  H2  UNL     1      20.357  24.053  21.704  1.00  0.00     0.184 HD
BRANCH   9  11
HETATM   11  C8  UNL     1      21.205  24.722  19.924  1.00  0.00     0.052 A 
HETATM   12  C9  UNL     1      22.488  24.245  19.962  1.00  0.00     0.047 A 
HETATM   13  C10 UNL     1      23.472  24.809  19.180  1.00  0.00     0.090 A 
HETATM   14  N3  UNL     1      23.126  25.848  18.374  1.00  0.00    -0.368 N 
HETATM   15  C11 UNL     1      21.883  26.327  18.322  1.00  0.00     0.039 A 
ATOM     16  H3  UNL     1      23.844  26.277  17.788  1.00  0.00     0.165 HD
HETATM   17  C17 UNL     1      20.879  25.785  19.092  1.00  0.00     0.057 A 
BRANCH  15  18
HETATM   18  C12 UNL     1      21.569  27.465  17.427  1.00  0.00     0.329 C 
BRANCH  18  19
HETATM   19  N4  UNL     1      21.307  26.914  16.103  1.00  0.00     0.097 N 
HETATM   20  C13 UNL     1      19.944  27.100  15.701  1.00  0.00     0.300 C 
HETATM   21  C14 UNL     1      19.792  26.980  14.196  1.00  0.00     0.262 C 
HETATM   22  N5  UNL     1      20.453  28.123  13.598  1.00  0.00    -0.072 N 
HETATM   23  C15 UNL     1      21.582  28.582  14.367  1.00  0.00     0.262 C 
ATOM     24  H52 UNL     1      20.724  27.926  12.634  1.00  0.00     0.277 HD
ATOM     25  H51 UNL     1      19.793  28.882  13.431  1.00  0.00     0.277 HD
HETATM   26  C16 UNL     1      22.243  27.446  15.129  1.00  0.00     0.300 C 
ENDBRANCH  18  19
ENDBRANCH  15  18
ENDBRANCH   9  11
ENDBRANCH   4   9
BRANCH   1  27
HETATM   27  C5  UNL     1      16.734  21.416  18.865  1.00  0.00     0.147 C 
BRANCH  27  28
HETATM   28  S1  UNL     1      15.930  21.508  17.373  1.00  0.00    -0.179 SA
BRANCH  28  29
HETATM   29  C4  UNL     1      16.684  21.938  15.921  1.00  0.00     0.069 C 
BRANCH  29  30
HETATM   30  C3  UNL     1      16.502  23.292  15.341  1.00  0.00     0.009 C 
BRANCH  30  31
HETATM   31  C2  UNL     1      17.626  24.242  15.740  1.00  0.00    -0.004 C 
HETATM   32  C1  UNL     1      18.874  23.515  16.130  1.00  0.00     0.005 C 
ENDBRANCH  30  31
ENDBRANCH  29  30
ENDBRANCH  28  29
BRANCH  28  33
HETATM   33  C18 UNL     1      14.347  20.865  17.291  1.00  0.00    -0.004 A 
HETATM   34  C19 UNL     1      13.759  20.340  18.413  1.00  0.00     0.037 A 
HETATM   35  C20 UNL     1      12.487  19.832  18.301  1.00  0.00     0.126 A 
HETATM   36  N8  UNL     1      11.836  19.851  17.115  1.00  0.00    -0.220 N 
HETATM   37  C21 UNL     1      12.356  20.351  15.983  1.00  0.00     0.131 A 
HETATM   38  C24 UNL     1      13.657  20.866  16.110  1.00  0.00     0.068 A 
BRANCH  36  39
HETATM   39  O1  UNL     1      10.552  19.312  17.107  1.00  0.00    -0.282 OA
ATOM     40  H1  UNL     1      10.494  18.363  17.098  1.00  0.00     0.245 HD
ENDBRANCH  36  39
BRANCH  37  41
HETATM   41  N9  UNL     1      11.682  20.373  14.749  1.00  0.00    -0.374 N 
HETATM   42  C22 UNL     1      10.890  21.547  14.415  1.00  0.00     0.150 C 
HETATM   43  C23 UNL     1      11.733  19.298  13.797  1.00  0.00     0.150 C 
ENDBRANCH  37  41
ENDBRANCH  28  33
ENDBRANCH  27  28
ENDBRANCH   1  27
TORSDOF 12
ENDMDL
