MODEL 1
REMARK VINA RESULT: -9.317902194      0.000      0.000
REMARK  11 active torsions:
REMARK  status: ('A' for Active; 'I' for Inactive)
REMARK    1  A    between atoms: C2_2  and  C3_4 
REMARK    2  A    between atoms: C6_9  and  C7_10 
REMARK       I    between atoms: C7_10  and  N2_12 
REMARK    3  A    between atoms: C8_14  and  C9_15 
REMARK    4  A    between atoms: C8_14  and  C19_33 
REMARK    5  A    between atoms: C9_15  and  C10_16 
REMARK       I    between atoms: N5_21  and  C11_22 
REMARK       I    between atoms: C11_22  and  N6_24 
REMARK    6  A    between atoms: N6_24  and  C12_26 
REMARK    7  A    between atoms: C12_26  and  C13_27 
REMARK    8  A    between atoms: C13_27  and  C14_28 
REMARK       I    between atoms: C19_33  and  N7_35 
REMARK    9  A    between atoms: N7_35  and  C20_37 
REMARK   10  A    between atoms: C20_37  and  C21_38 
REMARK   11  A    between atoms: C21_38  and  C22_39 
ROOT
HETATM    1  C7  UNL     1      14.801  22.565  18.275  1.00  0.00     0.273 C 
HETATM    2  O2  UNL     1      14.226  23.680  18.364  1.00  0.00    -0.266 OA
HETATM    3  N2  UNL     1      16.159  22.561  18.002  1.00  0.00    -0.320 N 
ATOM      4  H2  UNL     1      16.764  22.609  18.821  1.00  0.00     0.169 HD
HETATM    5  C8  UNL     1      16.775  22.506  16.865  1.00  0.00     0.086 C 
ENDROOT
BRANCH   5   6
HETATM    6  C9  UNL     1      18.282  22.519  16.900  1.00  0.00     0.123 C 
BRANCH   6   7
HETATM    7  C10 UNL     1      18.901  23.803  17.202  1.00  0.00     0.057 A 
HETATM    8  N3  UNL     1      19.205  24.330  18.392  1.00  0.00    -0.288 N 
HETATM    9  N4  UNL     1      19.769  25.491  18.259  1.00  0.00    -0.232 N 
ATOM     10  H3  UNL     1      19.018  23.878  19.287  1.00  0.00     0.188 HD
HETATM   11  N5  UNL     1      19.882  25.826  16.947  1.00  0.00    -0.194 N 
ATOM     12  H4  UNL     1      20.084  26.073  19.034  1.00  0.00     0.209 HD
HETATM   13  C11 UNL     1      20.471  27.042  16.524  1.00  0.00     0.342 C 
HETATM   14  C17 UNL     1      19.346  24.787  16.297  1.00  0.00     0.061 A 
HETATM   15  O3  UNL     1      20.847  27.830  17.467  1.00  0.00    -0.245 OA
HETATM   16  N6  UNL     1      20.689  27.478  15.226  1.00  0.00    -0.341 N 
ATOM     17  H6  UNL     1      20.407  26.896  14.437  1.00  0.00     0.164 HD
HETATM   18  C18 UNL     1      19.156  24.674  14.847  1.00  0.00     0.072 C 
BRANCH  16  19
HETATM   19  C12 UNL     1      21.328  28.780  14.992  1.00  0.00     0.125 C 
BRANCH  19  20
HETATM   20  C13 UNL     1      22.676  28.591  14.389  1.00  0.00     0.023 C 
BRANCH  20  21
HETATM   21  C14 UNL     1      23.687  28.753  15.544  1.00  0.00    -0.021 C 
HETATM   22  C15 UNL     1      24.255  27.382  15.826  1.00  0.00     0.009 C 
HETATM   23  C16 UNL     1      24.755  29.714  15.064  1.00  0.00     0.009 C 
ENDBRANCH  20  21
ENDBRANCH  19  20
ENDBRANCH  16  19
ENDBRANCH   6   7
ENDBRANCH   5   6
BRANCH   5  24
HETATM   24  C19 UNL     1      15.982  22.484  15.662  1.00  0.00     0.264 C 
HETATM   25  O4  UNL     1      15.869  23.589  15.018  1.00  0.00    -0.266 OA
HETATM   26  N7  UNL     1      15.294  21.333  15.120  1.00  0.00    -0.356 N 
ATOM     27  H7  UNL     1      15.335  20.416  15.564  1.00  0.00     0.162 HD
BRANCH  26  28
HETATM   28  C20 UNL     1      14.549  21.568  13.916  1.00  0.00     0.123 C 
BRANCH  28  29
HETATM   29  C21 UNL     1      14.004  20.435  13.174  1.00  0.00     0.023 C 
BRANCH  29  30
HETATM   30  C22 UNL     1      12.932  19.604  13.759  1.00  0.00    -0.021 C 
HETATM   31  C23 UNL     1      12.696  18.362  12.870  1.00  0.00     0.009 C 
HETATM   32  C24 UNL     1      11.580  20.255  13.864  1.00  0.00     0.009 C 
ENDBRANCH  29  30
ENDBRANCH  28  29
ENDBRANCH  26  28
ENDBRANCH   5  24
BRANCH   1  33
HETATM   33  C6  UNL     1      14.044  21.311  18.460  1.00  0.00     0.108 A 
HETATM   34  N1  UNL     1      12.933  21.036  17.704  1.00  0.00    -0.354 N 
HETATM   35  C4  UNL     1      12.422  19.858  18.060  1.00  0.00     0.020 A 
ATOM     36  H1  UNL     1      12.553  21.643  16.977  1.00  0.00     0.166 HD
HETATM   37  C3  UNL     1      13.226  19.354  19.077  1.00  0.00     0.040 A 
HETATM   38  C5  UNL     1      11.209  19.209  17.469  1.00  0.00     0.069 C 
HETATM   39  C25 UNL     1      14.245  20.271  19.323  1.00  0.00    -0.014 A 
HETATM   40  C26 UNL     1      15.325  20.138  20.308  1.00  0.00     0.052 C 
BRANCH  37  41
HETATM   41  C2  UNL     1      12.990  18.094  19.730  1.00  0.00     0.158 C 
HETATM   42  C1  UNL     1      12.394  17.872  21.052  1.00  0.00     0.097 C 
HETATM   43  O1  UNL     1      13.329  17.016  19.107  1.00  0.00    -0.293 OA
ENDBRANCH  37  41
ENDBRANCH   1  33
TORSDOF 11
ENDMDL
MODEL 2
REMARK VINA RESULT: -9.216715373      2.725     10.397
REMARK  11 active torsions:
REMARK  status: ('A' for Active; 'I' for Inactive)
REMARK    1  A    between atoms: C2_2  and  C3_4 
REMARK    2  A    between atoms: C6_9  and  C7_10 
REMARK       I    between atoms: C7_10  and  N2_12 
REMARK    3  A    between atoms: C8_14  and  C9_15 
REMARK    4  A    between atoms: C8_14  and  C19_33 
REMARK    5  A    between atoms: C9_15  and  C10_16 
REMARK       I    between atoms: N5_21  and  C11_22 
REMARK       I    between atoms: C11_22  and  N6_24 
REMARK    6  A    between atoms: N6_24  and  C12_26 
REMARK    7  A    between atoms: C12_26  and  C13_27 
REMARK    8  A    between atoms: C13_27  and  C14_28 
REMARK       I    between atoms: C19_33  and  N7_35 
REMARK    9  A    between atoms: N7_35  and  C20_37 
REMARK   10  A    between atoms: C20_37  and  C21_38 
REMARK   11  A    between atoms: C21_38  and  C22_39 
ROOT
HETATM    1  C7  UNL     1      16.985  25.243  17.024  1.00  0.00     0.273 C 
HETATM    2  O2  UNL     1      16.412  25.511  18.110  1.00  0.00    -0.266 OA
HETATM    3  N2  UNL     1      16.281  24.496  16.093  1.00  0.00    -0.320 N 
ATOM      4  H2  UNL     1      15.704  25.038  15.451  1.00  0.00     0.169 HD
HETATM    5  C8  UNL     1      16.246  23.214  15.915  1.00  0.00     0.086 C 
ENDROOT
BRANCH   5   6
HETATM    6  C9  UNL     1      15.371  22.701  14.800  1.00  0.00     0.123 C 
BRANCH   6   7
HETATM    7  C10 UNL     1      14.253  21.858  15.204  1.00  0.00     0.057 A 
HETATM    8  N3  UNL     1      13.539  21.895  16.333  1.00  0.00    -0.288 N 
HETATM    9  N4  UNL     1      12.605  20.995  16.325  1.00  0.00    -0.232 N 
ATOM     10  H3  UNL     1      13.707  22.546  17.100  1.00  0.00     0.188 HD
HETATM   11  N5  UNL     1      12.631  20.280  15.170  1.00  0.00    -0.194 N 
ATOM     12  H4  UNL     1      11.940  20.844  17.083  1.00  0.00     0.209 HD
HETATM   13  C11 UNL     1      11.711  19.238  14.901  1.00  0.00     0.342 C 
HETATM   14  C17 UNL     1      13.648  20.811  14.481  1.00  0.00     0.061 A 
HETATM   15  O3  UNL     1      10.877  18.982  15.846  1.00  0.00    -0.245 OA
HETATM   16  N6  UNL     1      11.601  18.473  13.751  1.00  0.00    -0.341 N 
ATOM     17  H6  UNL     1      12.238  18.629  12.970  1.00  0.00     0.164 HD
HETATM   18  C18 UNL     1      14.150  20.352  13.182  1.00  0.00     0.072 C 
BRANCH  16  19
HETATM   19  C12 UNL     1      10.564  17.435  13.662  1.00  0.00     0.125 C 
BRANCH  19  20
HETATM   20  C13 UNL     1      11.068  16.269  12.885  1.00  0.00     0.023 C 
BRANCH  20  21
HETATM   21  C14 UNL     1      11.941  16.855  11.755  1.00  0.00    -0.021 C 
HETATM   22  C15 UNL     1      13.370  16.474  12.062  1.00  0.00     0.009 C 
HETATM   23  C16 UNL     1      11.462  16.233  10.461  1.00  0.00     0.009 C 
ENDBRANCH  20  21
ENDBRANCH  19  20
ENDBRANCH  16  19
ENDBRANCH   6   7
ENDBRANCH   5   6
BRANCH   5  24
HETATM   24  C19 UNL     1      17.002  22.382  16.816  1.00  0.00     0.264 C 
HETATM   25  O4  UNL     1      17.919  21.646  16.300  1.00  0.00    -0.266 OA
HETATM   26  N7  UNL     1      16.813  22.291  18.248  1.00  0.00    -0.356 N 
ATOM     27  H7  UNL     1      16.111  22.843  18.740  1.00  0.00     0.162 HD
BRANCH  26  28
HETATM   28  C20 UNL     1      17.680  21.371  18.929  1.00  0.00     0.123 C 
BRANCH  28  29
HETATM   29  C21 UNL     1      18.787  21.885  19.729  1.00  0.00     0.023 C 
BRANCH  29  30
HETATM   30  C22 UNL     1      19.077  23.333  19.763  1.00  0.00    -0.021 C 
HETATM   31  C23 UNL     1      20.602  23.554  19.888  1.00  0.00     0.009 C 
HETATM   32  C24 UNL     1      18.490  24.093  20.921  1.00  0.00     0.009 C 
ENDBRANCH  29  30
ENDBRANCH  28  29
ENDBRANCH  26  28
ENDBRANCH   5  24
BRANCH   1  33
HETATM   33  C6  UNL     1      18.358  25.715  16.759  1.00  0.00     0.108 A 
HETATM   34  N1  UNL     1      19.202  26.053  17.787  1.00  0.00    -0.354 N 
HETATM   35  C4  UNL     1      20.374  26.456  17.298  1.00  0.00     0.020 A 
ATOM     36  H1  UNL     1      18.967  26.003  18.778  1.00  0.00     0.166 HD
HETATM   37  C3  UNL     1      20.288  26.379  15.912  1.00  0.00     0.040 A 
HETATM   38  C5  UNL     1      21.555  26.908  18.100  1.00  0.00     0.069 C 
HETATM   39  C25 UNL     1      19.019  25.911  15.579  1.00  0.00    -0.014 A 
HETATM   40  C26 UNL     1      18.501  25.667  14.228  1.00  0.00     0.052 C 
BRANCH  37  41
HETATM   41  C2  UNL     1      21.360  26.741  15.024  1.00  0.00     0.158 C 
HETATM   42  C1  UNL     1      21.452  27.932  14.174  1.00  0.00     0.097 C 
HETATM   43  O1  UNL     1      22.375  25.947  14.945  1.00  0.00    -0.293 OA
ENDBRANCH  37  41
ENDBRANCH   1  33
TORSDOF 11
ENDMDL
MODEL 3
REMARK VINA RESULT: -9.212541857      2.477     10.643
REMARK  11 active torsions:
REMARK  status: ('A' for Active; 'I' for Inactive)
REMARK    1  A    between atoms: C2_2  and  C3_4 
REMARK    2  A    between atoms: C6_9  and  C7_10 
REMARK       I    between atoms: C7_10  and  N2_12 
REMARK    3  A    between atoms: C8_14  and  C9_15 
REMARK    4  A    between atoms: C8_14  and  C19_33 
REMARK    5  A    between atoms: C9_15  and  C10_16 
REMARK       I    between atoms: N5_21  and  C11_22 
REMARK       I    between atoms: C11_22  and  N6_24 
REMARK    6  A    between atoms: N6_24  and  C12_26 
REMARK    7  A    between atoms: C12_26  and  C13_27 
REMARK    8  A    between atoms: C13_27  and  C14_28 
REMARK       I    between atoms: C19_33  and  N7_35 
REMARK    9  A    between atoms: N7_35  and  C20_37 
REMARK   10  A    between atoms: C20_37  and  C21_38 
REMARK   11  A    between atoms: C21_38  and  C22_39 
ROOT
HETATM    1  C7  UNL     1      16.860  24.997  17.033  1.00  0.00     0.273 C 
HETATM    2  O2  UNL     1      16.238  25.262  18.092  1.00  0.00    -0.266 OA
HETATM    3  N2  UNL     1      16.260  24.130  16.135  1.00  0.00    -0.320 N 
ATOM      4  H2  UNL     1      15.644  24.572  15.453  1.00  0.00     0.169 HD
HETATM    5  C8  UNL     1      16.364  22.843  16.029  1.00  0.00     0.086 C 
ENDROOT
BRANCH   5   6
HETATM    6  C9  UNL     1      15.573  22.180  14.931  1.00  0.00     0.123 C 
BRANCH   6   7
HETATM    7  C10 UNL     1      14.221  21.764  15.281  1.00  0.00     0.057 A 
HETATM    8  N3  UNL     1      13.055  22.220  14.813  1.00  0.00    -0.288 N 
HETATM    9  N4  UNL     1      12.057  21.589  15.350  1.00  0.00    -0.232 N 
ATOM     10  H3  UNL     1      12.963  22.966  14.124  1.00  0.00     0.188 HD
HETATM   11  N5  UNL     1      12.494  20.651  16.231  1.00  0.00    -0.194 N 
ATOM     12  H4  UNL     1      11.076  21.771  15.140  1.00  0.00     0.209 HD
HETATM   13  C11 UNL     1      11.608  19.814  16.951  1.00  0.00     0.342 C 
HETATM   14  C17 UNL     1      13.827  20.762  16.189  1.00  0.00     0.061 A 
HETATM   15  O3  UNL     1      10.357  20.035  16.750  1.00  0.00    -0.245 OA
HETATM   16  N6  UNL     1      11.926  18.795  17.833  1.00  0.00    -0.341 N 
ATOM     17  H6  UNL     1      12.902  18.577  18.034  1.00  0.00     0.164 HD
HETATM   18  C18 UNL     1      14.786  20.016  17.011  1.00  0.00     0.072 C 
BRANCH  16  19
HETATM   19  C12 UNL     1      10.851  18.028  18.480  1.00  0.00     0.125 C 
BRANCH  19  20
HETATM   20  C13 UNL     1      11.086  16.568  18.308  1.00  0.00     0.023 C 
BRANCH  20  21
HETATM   21  C14 UNL     1       9.934  16.051  17.420  1.00  0.00    -0.021 C 
HETATM   22  C15 UNL     1      10.373  16.231  15.985  1.00  0.00     0.009 C 
HETATM   23  C16 UNL     1       9.732  14.591  17.765  1.00  0.00     0.009 C 
ENDBRANCH  20  21
ENDBRANCH  19  20
ENDBRANCH  16  19
ENDBRANCH   6   7
ENDBRANCH   5   6
BRANCH   5  24
HETATM   24  C19 UNL     1      17.181  22.146  16.989  1.00  0.00     0.264 C 
HETATM   25  O4  UNL     1      18.082  21.357  16.525  1.00  0.00    -0.266 OA
HETATM   26  N7  UNL     1      17.072  22.246  18.429  1.00  0.00    -0.356 N 
ATOM     27  H7  UNL     1      16.389  22.853  18.882  1.00  0.00     0.162 HD
BRANCH  26  28
HETATM   28  C20 UNL     1      17.990  21.434  19.176  1.00  0.00     0.123 C 
BRANCH  28  29
HETATM   29  C21 UNL     1      19.092  22.069  19.893  1.00  0.00     0.023 C 
BRANCH  29  30
HETATM   30  C22 UNL     1      19.182  23.541  19.975  1.00  0.00    -0.021 C 
HETATM   31  C23 UNL     1      20.631  23.953  20.322  1.00  0.00     0.009 C 
HETATM   32  C24 UNL     1      18.340  24.193  21.037  1.00  0.00     0.009 C 
ENDBRANCH  29  30
ENDBRANCH  28  29
ENDBRANCH  26  28
ENDBRANCH   5  24
BRANCH   1  33
HETATM   33  C6  UNL     1      18.182  25.597  16.765  1.00  0.00     0.108 A 
HETATM   34  N1  UNL     1      19.000  25.995  17.791  1.00  0.00    -0.354 N 
HETATM   35  C4  UNL     1      20.126  26.511  17.300  1.00  0.00     0.020 A 
ATOM     36  H1  UNL     1      18.780  25.910  18.784  1.00  0.00     0.166 HD
HETATM   37  C3  UNL     1      20.035  26.446  15.913  1.00  0.00     0.040 A 
HETATM   38  C5  UNL     1      21.268  27.057  18.100  1.00  0.00     0.069 C 
HETATM   39  C25 UNL     1      18.811  25.869  15.583  1.00  0.00    -0.014 A 
HETATM   40  C26 UNL     1      18.307  25.598  14.232  1.00  0.00     0.052 C 
BRANCH  37  41
HETATM   41  C2  UNL     1      21.063  26.917  15.024  1.00  0.00     0.158 C 
HETATM   42  C1  UNL     1      21.122  28.211  14.335  1.00  0.00     0.097 C 
HETATM   43  O1  UNL     1      22.061  26.135  14.784  1.00  0.00    -0.293 OA
ENDBRANCH  37  41
ENDBRANCH   1  33
TORSDOF 11
ENDMDL
MODEL 4
REMARK VINA RESULT: -9.199284939      1.458      2.073
REMARK  11 active torsions:
REMARK  status: ('A' for Active; 'I' for Inactive)
REMARK    1  A    between atoms: C2_2  and  C3_4 
REMARK    2  A    between atoms: C6_9  and  C7_10 
REMARK       I    between atoms: C7_10  and  N2_12 
REMARK    3  A    between atoms: C8_14  and  C9_15 
REMARK    4  A    between atoms: C8_14  and  C19_33 
REMARK    5  A    between atoms: C9_15  and  C10_16 
REMARK       I    between atoms: N5_21  and  C11_22 
REMARK       I    between atoms: C11_22  and  N6_24 
REMARK    6  A    between atoms: N6_24  and  C12_26 
REMARK    7  A    between atoms: C12_26  and  C13_27 
REMARK    8  A    between atoms: C13_27  and  C14_28 
REMARK       I    between atoms: C19_33  and  N7_35 
REMARK    9  A    between atoms: N7_35  and  C20_37 
REMARK   10  A    between atoms: C20_37  and  C21_38 
REMARK   11  A    between atoms: C21_38  and  C22_39 
ROOT
HETATM    1  C7  UNL     1      14.807  22.471  18.750  1.00  0.00     0.273 C 
HETATM    2  O2  UNL     1      14.276  23.547  18.375  1.00  0.00    -0.266 OA
HETATM    3  N2  UNL     1      16.138  22.510  19.135  1.00  0.00    -0.320 N 
ATOM      4  H2  UNL     1      16.297  22.727  20.118  1.00  0.00     0.169 HD
HETATM    5  C8  UNL     1      17.209  22.314  18.434  1.00  0.00     0.086 C 
ENDROOT
BRANCH   5   6
HETATM    6  C9  UNL     1      18.528  22.429  19.154  1.00  0.00     0.123 C 
BRANCH   6   7
HETATM    7  C10 UNL     1      19.140  23.751  19.157  1.00  0.00     0.057 A 
HETATM    8  N3  UNL     1      19.293  24.603  20.175  1.00  0.00    -0.288 N 
HETATM    9  N4  UNL     1      19.905  25.682  19.794  1.00  0.00    -0.232 N 
ATOM     10  H3  UNL     1      18.971  24.427  21.127  1.00  0.00     0.188 HD
HETATM   11  N5  UNL     1      20.207  25.625  18.471  1.00  0.00    -0.194 N 
ATOM     12  H4  UNL     1      20.129  26.467  20.405  1.00  0.00     0.209 HD
HETATM   13  C11 UNL     1      20.885  26.673  17.802  1.00  0.00     0.342 C 
HETATM   14  C17 UNL     1      19.734  24.437  18.079  1.00  0.00     0.061 A 
HETATM   15  O3  UNL     1      21.153  27.704  18.522  1.00  0.00    -0.245 OA
HETATM   16  N6  UNL     1      21.293  26.717  16.478  1.00  0.00    -0.341 N 
ATOM     17  H6  UNL     1      21.104  25.929  15.858  1.00  0.00     0.164 HD
HETATM   18  C18 UNL     1      19.741  23.908  16.711  1.00  0.00     0.072 C 
BRANCH  16  19
HETATM   19  C12 UNL     1      21.997  27.903  15.971  1.00  0.00     0.125 C 
BRANCH  19  20
HETATM   20  C13 UNL     1      21.101  28.692  15.082  1.00  0.00     0.023 C 
BRANCH  20  21
HETATM   21  C14 UNL     1      20.703  27.746  13.928  1.00  0.00    -0.021 C 
HETATM   22  C15 UNL     1      19.259  27.366  14.152  1.00  0.00     0.009 C 
HETATM   23  C16 UNL     1      20.886  28.521  12.640  1.00  0.00     0.009 C 
ENDBRANCH  20  21
ENDBRANCH  19  20
ENDBRANCH  16  19
ENDBRANCH   6   7
ENDBRANCH   5   6
BRANCH   5  24
HETATM   24  C19 UNL     1      17.061  22.050  17.026  1.00  0.00     0.264 C 
HETATM   25  O4  UNL     1      17.575  20.961  16.580  1.00  0.00    -0.266 OA
HETATM   26  N7  UNL     1      16.396  22.905  16.067  1.00  0.00    -0.356 N 
ATOM     27  H7  UNL     1      15.956  23.785  16.336  1.00  0.00     0.162 HD
BRANCH  26  28
HETATM   28  C20 UNL     1      16.397  22.432  14.712  1.00  0.00     0.123 C 
BRANCH  28  29
HETATM   29  C21 UNL     1      15.151  21.971  14.110  1.00  0.00     0.023 C 
BRANCH  29  30
HETATM   30  C22 UNL     1      13.930  21.830  14.931  1.00  0.00    -0.021 C 
HETATM   31  C23 UNL     1      13.044  20.702  14.354  1.00  0.00     0.009 C 
HETATM   32  C24 UNL     1      13.028  23.032  14.977  1.00  0.00     0.009 C 
ENDBRANCH  29  30
ENDBRANCH  28  29
ENDBRANCH  26  28
ENDBRANCH   5  24
BRANCH   1  33
HETATM   33  C6  UNL     1      14.030  21.216  18.780  1.00  0.00     0.108 A 
HETATM   34  N1  UNL     1      12.958  21.027  17.944  1.00  0.00    -0.354 N 
HETATM   35  C4  UNL     1      12.418  19.830  18.164  1.00  0.00     0.020 A 
ATOM     36  H1  UNL     1      12.625  21.703  17.257  1.00  0.00     0.166 HD
HETATM   37  C3  UNL     1      13.160  19.224  19.172  1.00  0.00     0.040 A 
HETATM   38  C5  UNL     1      11.232  19.254  17.453  1.00  0.00     0.069 C 
HETATM   39  C25 UNL     1      14.173  20.100  19.554  1.00  0.00    -0.014 A 
HETATM   40  C26 UNL     1      15.196  19.862  20.579  1.00  0.00     0.052 C 
BRANCH  37  41
HETATM   41  C2  UNL     1      12.876  17.914  19.694  1.00  0.00     0.158 C 
HETATM   42  C1  UNL     1      12.518  17.561  21.072  1.00  0.00     0.097 C 
HETATM   43  O1  UNL     1      12.934  16.912  18.882  1.00  0.00    -0.293 OA
ENDBRANCH  37  41
ENDBRANCH   1  33
TORSDOF 11
ENDMDL
MODEL 5
REMARK VINA RESULT: -9.162378447      2.346     10.176
REMARK  11 active torsions:
REMARK  status: ('A' for Active; 'I' for Inactive)
REMARK    1  A    between atoms: C2_2  and  C3_4 
REMARK    2  A    between atoms: C6_9  and  C7_10 
REMARK       I    between atoms: C7_10  and  N2_12 
REMARK    3  A    between atoms: C8_14  and  C9_15 
REMARK    4  A    between atoms: C8_14  and  C19_33 
REMARK    5  A    between atoms: C9_15  and  C10_16 
REMARK       I    between atoms: N5_21  and  C11_22 
REMARK       I    between atoms: C11_22  and  N6_24 
REMARK    6  A    between atoms: N6_24  and  C12_26 
REMARK    7  A    between atoms: C12_26  and  C13_27 
REMARK    8  A    between atoms: C13_27  and  C14_28 
REMARK       I    between atoms: C19_33  and  N7_35 
REMARK    9  A    between atoms: N7_35  and  C20_37 
REMARK   10  A    between atoms: C20_37  and  C21_38 
REMARK   11  A    between atoms: C21_38  and  C22_39 
ROOT
HETATM    1  C7  UNL     1      17.055  25.160  16.964  1.00  0.00     0.273 C 
HETATM    2  O2  UNL     1      16.433  25.444  18.018  1.00  0.00    -0.266 OA
HETATM    3  N2  UNL     1      16.427  24.328  16.051  1.00  0.00    -0.320 N 
ATOM      4  H2  UNL     1      15.840  24.803  15.366  1.00  0.00     0.169 HD
HETATM    5  C8  UNL     1      16.473  23.039  15.935  1.00  0.00     0.086 C 
ENDROOT
BRANCH   5   6
HETATM    6  C9  UNL     1      15.667  22.422  14.822  1.00  0.00     0.123 C 
BRANCH   6   7
HETATM    7  C10 UNL     1      14.323  21.984  15.176  1.00  0.00     0.057 A 
HETATM    8  N3  UNL     1      13.148  22.428  14.720  1.00  0.00    -0.288 N 
HETATM    9  N4  UNL     1      12.162  21.777  15.257  1.00  0.00    -0.232 N 
ATOM     10  H3  UNL     1      13.041  23.179  14.039  1.00  0.00     0.188 HD
HETATM   11  N5  UNL     1      12.618  20.837  16.126  1.00  0.00    -0.194 N 
ATOM     12  H4  UNL     1      11.177  21.948  15.055  1.00  0.00     0.209 HD
HETATM   13  C11 UNL     1      11.748  19.981  16.843  1.00  0.00     0.342 C 
HETATM   14  C17 UNL     1      13.949  20.967  16.077  1.00  0.00     0.061 A 
HETATM   15  O3  UNL     1      10.493  20.186  16.652  1.00  0.00    -0.245 OA
HETATM   16  N6  UNL     1      12.086  18.958  17.714  1.00  0.00    -0.341 N 
ATOM     17  H6  UNL     1      13.066  18.752  17.906  1.00  0.00     0.164 HD
HETATM   18  C18 UNL     1      14.924  20.227  16.885  1.00  0.00     0.072 C 
BRANCH  16  19
HETATM   19  C12 UNL     1      11.026  18.170  18.359  1.00  0.00     0.125 C 
BRANCH  19  20
HETATM   20  C13 UNL     1      11.607  17.285  19.406  1.00  0.00     0.023 C 
BRANCH  20  21
HETATM   21  C14 UNL     1      12.780  18.073  20.028  1.00  0.00    -0.021 C 
HETATM   22  C15 UNL     1      12.722  17.840  21.520  1.00  0.00     0.009 C 
HETATM   23  C16 UNL     1      14.053  17.520  19.423  1.00  0.00     0.009 C 
ENDBRANCH  20  21
ENDBRANCH  19  20
ENDBRANCH  16  19
ENDBRANCH   6   7
ENDBRANCH   5   6
BRANCH   5  24
HETATM   24  C19 UNL     1      17.247  22.298  16.898  1.00  0.00     0.264 C 
HETATM   25  O4  UNL     1      18.154  21.514  16.438  1.00  0.00    -0.266 OA
HETATM   26  N7  UNL     1      17.088  22.349  18.336  1.00  0.00    -0.356 N 
ATOM     27  H7  UNL     1      16.396  22.948  18.785  1.00  0.00     0.162 HD
BRANCH  26  28
HETATM   28  C20 UNL     1      17.968  21.499  19.086  1.00  0.00     0.123 C 
BRANCH  28  29
HETATM   29  C21 UNL     1      19.066  22.091  19.843  1.00  0.00     0.023 C 
BRANCH  29  30
HETATM   30  C22 UNL     1      19.212  23.559  19.927  1.00  0.00    -0.021 C 
HETATM   31  C23 UNL     1      20.696  23.920  20.163  1.00  0.00     0.009 C 
HETATM   32  C24 UNL     1      18.477  24.227  21.056  1.00  0.00     0.009 C 
ENDBRANCH  29  30
ENDBRANCH  28  29
ENDBRANCH  26  28
ENDBRANCH   5  24
BRANCH   1  33
HETATM   33  C6  UNL     1      18.406  25.702  16.716  1.00  0.00     0.108 A 
HETATM   34  N1  UNL     1      19.190  26.149  17.749  1.00  0.00    -0.354 N 
HETATM   35  C4  UNL     1      20.352  26.596  17.276  1.00  0.00     0.020 A 
ATOM     36  H1  UNL     1      18.923  26.139  18.734  1.00  0.00     0.166 HD
HETATM   37  C3  UNL     1      20.321  26.435  15.895  1.00  0.00     0.040 A 
HETATM   38  C5  UNL     1      21.474  27.165  18.088  1.00  0.00     0.069 C 
HETATM   39  C25 UNL     1      19.095  25.872  15.549  1.00  0.00    -0.014 A 
HETATM   40  C26 UNL     1      18.642  25.520  14.198  1.00  0.00     0.052 C 
BRANCH  37  41
HETATM   41  C2  UNL     1      21.400  26.813  15.023  1.00  0.00     0.158 C 
HETATM   42  C1  UNL     1      21.498  28.019  14.193  1.00  0.00     0.097 C 
HETATM   43  O1  UNL     1      22.417  26.022  14.939  1.00  0.00    -0.293 OA
ENDBRANCH  37  41
ENDBRANCH   1  33
TORSDOF 11
ENDMDL
