MODEL 1
REMARK VINA RESULT: -8.131257670      0.000      0.000
REMARK  11 active torsions:
REMARK  status: ('A' for Active; 'I' for Inactive)
REMARK    1  A    between atoms: O1_2  and  C2_3 
REMARK    2  A    between atoms: C11_14  and  O4_15 
REMARK    3  A    between atoms: O4_15  and  C12_16 
REMARK    4  A    between atoms: C12_16  and  C13_17 
REMARK       I    between atoms: C13_17  and  N1_19 
REMARK    5  A    between atoms: N1_19  and  C14_21 
REMARK    6  A    between atoms: C14_21  and  C15_22 
REMARK    7  A    between atoms: C14_21  and  C21_30 
REMARK    8  A    between atoms: C15_22  and  C16_23 
REMARK    9  A    between atoms: C16_23  and  C17_24 
REMARK   10  A    between atoms: C17_24  and  C18_25 
REMARK   11  A    between atoms: C18_25  and  N2_26 
REMARK       I    between atoms: N2_26  and  C19_27 
ROOT
HETATM    1  C2  UNL     1      12.968  20.449  15.005  1.00  0.00     0.200 C 
HETATM    2  O2  UNL     1      12.427  21.673  15.540  1.00  0.00    -0.321 OA
HETATM    3  C3  UNL     1      11.472  21.369  16.493  1.00  0.00     0.269 C 
HETATM    4  O3  UNL     1      11.632  22.297  17.510  1.00  0.00    -0.355 OA
HETATM    5  C4  UNL     1      11.677  21.842  18.796  1.00  0.00     0.124 C 
HETATM    6  C5  UNL     1      10.315  21.431  19.339  1.00  0.00     0.040 C 
HETATM    7  C6  UNL     1      12.762  20.826  19.086  1.00  0.00     0.015 C 
HETATM    8  C7  UNL     1      13.932  21.447  19.815  1.00  0.00     0.013 C 
HETATM    9  C8  UNL     1      13.282  20.492  17.669  1.00  0.00     0.001 C 
HETATM   10  C9  UNL     1      14.467  19.630  17.634  1.00  0.00     0.008 C 
HETATM   11  C10 UNL     1      15.046  19.610  16.274  1.00  0.00     0.038 C 
HETATM   12  C11 UNL     1      14.468  20.473  15.200  1.00  0.00     0.185 C 
HETATM   13  C22 UNL     1      12.042  20.050  17.001  1.00  0.00     0.059 C 
HETATM   14  C23 UNL     1      12.196  19.390  15.648  1.00  0.00     0.020 C 
HETATM   15  C24 UNL     1      10.753  19.436  15.062  1.00  0.00     0.021 C 
HETATM   16  C25 UNL     1      12.587  17.995  15.624  1.00  0.00     0.021 C 
ENDROOT
BRANCH  12  17
HETATM   17  O4  UNL     1      14.872  21.702  15.287  1.00  0.00    -0.371 OA
BRANCH  17  18
HETATM   18  C12 UNL     1      15.514  22.739  15.264  1.00  0.00     0.271 C 
BRANCH  18  19
HETATM   19  C13 UNL     1      16.547  23.050  16.328  1.00  0.00     0.242 C 
HETATM   20  O5  UNL     1      17.708  22.513  16.203  1.00  0.00    -0.271 OA
HETATM   21  N1  UNL     1      16.295  23.875  17.412  1.00  0.00    -0.345 N 
ATOM     22  H1  UNL     1      15.391  24.323  17.561  1.00  0.00     0.163 HD
BRANCH  21  23
HETATM   23  C14 UNL     1      17.478  24.066  18.372  1.00  0.00     0.185 C 
BRANCH  23  24
HETATM   24  C15 UNL     1      18.269  25.084  17.701  1.00  0.00     0.037 C 
BRANCH  24  25
HETATM   25  C16 UNL     1      18.014  26.504  17.921  1.00  0.00     0.008 C 
BRANCH  25  26
HETATM   26  C17 UNL     1      19.055  27.475  17.563  1.00  0.00     0.060 C 
BRANCH  26  27
HETATM   27  C18 UNL     1      18.728  28.286  16.320  1.00  0.00     0.159 C 
BRANCH  27  28
HETATM   28  N2  UNL     1      18.468  27.460  15.246  1.00  0.00    -0.388 NA
HETATM   29  C19 UNL     1      18.219  26.630  14.203  1.00  0.00     0.286 C 
HETATM   30  C20 UNL     1      17.761  27.248  12.887  1.00  0.00     0.135 C 
HETATM   31  O6  UNL     1      18.325  25.375  14.181  1.00  0.00    -0.258 OA
ENDBRANCH  27  28
ENDBRANCH  26  27
ENDBRANCH  25  26
ENDBRANCH  24  25
ENDBRANCH  23  24
BRANCH  23  32
HETATM   32  C21 UNL     1      16.774  24.365  19.649  1.00  0.00     0.196 C 
HETATM   33  O7  UNL     1      17.499  24.354  20.739  1.00  0.00    -0.646 OA
HETATM   34  O8  UNL     1      15.489  24.659  19.799  1.00  0.00    -0.646 OA
ENDBRANCH  23  32
ENDBRANCH  21  23
ENDBRANCH  18  19
ENDBRANCH  17  18
ENDBRANCH  12  17
BRANCH   1  35
HETATM   35  O1  UNL     1      12.689  20.644  13.672  1.00  0.00    -0.357 OA
HETATM   36  C1  UNL     1      13.606  20.979  12.787  1.00  0.00     0.205 C 
ENDBRANCH   1  35
TORSDOF 11
ENDMDL
MODEL 2
REMARK VINA RESULT: -8.060076301      5.547     10.659
REMARK  11 active torsions:
REMARK  status: ('A' for Active; 'I' for Inactive)
REMARK    1  A    between atoms: O1_2  and  C2_3 
REMARK    2  A    between atoms: C11_14  and  O4_15 
REMARK    3  A    between atoms: O4_15  and  C12_16 
REMARK    4  A    between atoms: C12_16  and  C13_17 
REMARK       I    between atoms: C13_17  and  N1_19 
REMARK    5  A    between atoms: N1_19  and  C14_21 
REMARK    6  A    between atoms: C14_21  and  C15_22 
REMARK    7  A    between atoms: C14_21  and  C21_30 
REMARK    8  A    between atoms: C15_22  and  C16_23 
REMARK    9  A    between atoms: C16_23  and  C17_24 
REMARK   10  A    between atoms: C17_24  and  C18_25 
REMARK   11  A    between atoms: C18_25  and  N2_26 
REMARK       I    between atoms: N2_26  and  C19_27 
ROOT
HETATM    1  C2  UNL     1      13.058  19.991  17.132  1.00  0.00     0.200 C 
HETATM    2  O2  UNL     1      12.900  18.862  18.014  1.00  0.00    -0.321 OA
HETATM    3  C3  UNL     1      12.281  19.278  19.178  1.00  0.00     0.269 C 
HETATM    4  O3  UNL     1      11.404  18.265  19.533  1.00  0.00    -0.355 OA
HETATM    5  C4  UNL     1      10.124  18.608  19.864  1.00  0.00     0.124 C 
HETATM    6  C5  UNL     1      10.008  19.239  21.246  1.00  0.00     0.040 C 
HETATM    7  C6  UNL     1       9.361  19.367  18.799  1.00  0.00     0.015 C 
HETATM    8  C7  UNL     1       8.380  18.476  18.071  1.00  0.00     0.013 C 
HETATM    9  C8  UNL     1      10.470  19.693  17.773  1.00  0.00     0.001 C 
HETATM   10  C9  UNL     1       9.998  20.305  16.528  1.00  0.00     0.008 C 
HETATM   11  C10 UNL     1      11.076  20.309  15.518  1.00  0.00     0.038 C 
HETATM   12  C11 UNL     1      12.387  19.657  15.818  1.00  0.00     0.185 C 
HETATM   13  C22 UNL     1      11.441  20.418  18.616  1.00  0.00     0.059 C 
HETATM   14  C23 UNL     1      12.566  21.131  17.899  1.00  0.00     0.020 C 
HETATM   15  C24 UNL     1      13.593  21.413  19.035  1.00  0.00     0.021 C 
HETATM   16  C25 UNL     1      12.272  22.420  17.305  1.00  0.00     0.021 C 
ENDROOT
BRANCH  12  17
HETATM   17  O4  UNL     1      12.339  18.369  15.672  1.00  0.00    -0.371 OA
BRANCH  17  18
HETATM   18  C12 UNL     1      12.044  17.225  15.371  1.00  0.00     0.271 C 
BRANCH  18  19
HETATM   19  C13 UNL     1      10.771  16.914  14.609  1.00  0.00     0.242 C 
HETATM   20  O5  UNL     1      10.856  16.810  13.330  1.00  0.00    -0.271 OA
HETATM   21  N1  UNL     1       9.541  16.742  15.222  1.00  0.00    -0.345 N 
ATOM     22  H1  UNL     1       9.418  16.818  16.232  1.00  0.00     0.163 HD
BRANCH  21  23
HETATM   23  C14 UNL     1       8.379  16.428  14.271  1.00  0.00     0.185 C 
BRANCH  23  24
HETATM   24  C15 UNL     1       8.125  15.021  14.535  1.00  0.00     0.037 C 
BRANCH  24  25
HETATM   25  C16 UNL     1       7.497  14.167  13.532  1.00  0.00     0.008 C 
BRANCH  25  26
HETATM   26  C17 UNL     1       6.087  13.798  13.699  1.00  0.00     0.060 C 
BRANCH  26  27
HETATM   27  C18 UNL     1       5.605  13.871  15.139  1.00  0.00     0.159 C 
BRANCH  27  28
HETATM   28  N2  UNL     1       4.317  14.362  15.204  1.00  0.00    -0.388 NA
HETATM   29  C19 UNL     1       3.043  14.823  15.265  1.00  0.00     0.286 C 
HETATM   30  C20 UNL     1       2.830  16.316  15.476  1.00  0.00     0.135 C 
HETATM   31  O6  UNL     1       1.982  14.153  15.160  1.00  0.00    -0.258 OA
ENDBRANCH  27  28
ENDBRANCH  26  27
ENDBRANCH  25  26
ENDBRANCH  24  25
ENDBRANCH  23  24
BRANCH  23  32
HETATM   32  C21 UNL     1       7.389  17.468  14.663  1.00  0.00     0.196 C 
HETATM   33  O7  UNL     1       7.611  18.685  14.235  1.00  0.00    -0.646 OA
HETATM   34  O8  UNL     1       6.293  17.290  15.389  1.00  0.00    -0.646 OA
ENDBRANCH  23  32
ENDBRANCH  21  23
ENDBRANCH  18  19
ENDBRANCH  17  18
ENDBRANCH  12  17
BRANCH   1  35
HETATM   35  O1  UNL     1      14.421  19.951  16.958  1.00  0.00    -0.357 OA
HETATM   36  C1  UNL     1      15.014  20.298  15.833  1.00  0.00     0.205 C 
ENDBRANCH   1  35
TORSDOF 11
ENDMDL
MODEL 3
REMARK VINA RESULT: -8.012962119      2.116      4.820
REMARK  11 active torsions:
REMARK  status: ('A' for Active; 'I' for Inactive)
REMARK    1  A    between atoms: O1_2  and  C2_3 
REMARK    2  A    between atoms: C11_14  and  O4_15 
REMARK    3  A    between atoms: O4_15  and  C12_16 
REMARK    4  A    between atoms: C12_16  and  C13_17 
REMARK       I    between atoms: C13_17  and  N1_19 
REMARK    5  A    between atoms: N1_19  and  C14_21 
REMARK    6  A    between atoms: C14_21  and  C15_22 
REMARK    7  A    between atoms: C14_21  and  C21_30 
REMARK    8  A    between atoms: C15_22  and  C16_23 
REMARK    9  A    between atoms: C16_23  and  C17_24 
REMARK   10  A    between atoms: C17_24  and  C18_25 
REMARK   11  A    between atoms: C18_25  and  N2_26 
REMARK       I    between atoms: N2_26  and  C19_27 
ROOT
HETATM    1  C2  UNL     1      12.283  20.279  18.420  1.00  0.00     0.200 C 
HETATM    2  O2  UNL     1      12.538  18.935  17.965  1.00  0.00    -0.321 OA
HETATM    3  C3  UNL     1      11.418  18.158  18.193  1.00  0.00     0.269 C 
HETATM    4  O3  UNL     1      11.299  17.320  17.096  1.00  0.00    -0.355 OA
HETATM    5  C4  UNL     1      10.076  17.209  16.498  1.00  0.00     0.124 C 
HETATM    6  C5  UNL     1       9.091  16.363  17.294  1.00  0.00     0.040 C 
HETATM    7  C6  UNL     1       9.478  18.509  16.003  1.00  0.00     0.015 C 
HETATM    8  C7  UNL     1       9.617  18.657  14.505  1.00  0.00     0.013 C 
HETATM    9  C8  UNL     1      10.431  19.561  16.617  1.00  0.00     0.001 C 
HETATM   10  C9  UNL     1      10.192  20.939  16.179  1.00  0.00     0.008 C 
HETATM   11  C10 UNL     1      11.315  21.808  16.587  1.00  0.00     0.038 C 
HETATM   12  C11 UNL     1      12.514  21.218  17.257  1.00  0.00     0.185 C 
HETATM   13  C22 UNL     1      10.343  19.229  18.053  1.00  0.00     0.059 C 
HETATM   14  C23 UNL     1      10.953  20.221  19.018  1.00  0.00     0.020 C 
HETATM   15  C24 UNL     1      11.068  19.407  20.342  1.00  0.00     0.021 C 
HETATM   16  C25 UNL     1      10.178  21.401  19.347  1.00  0.00     0.021 C 
ENDROOT
BRANCH  12  17
HETATM   17  O4  UNL     1      13.328  20.667  16.411  1.00  0.00    -0.371 OA
BRANCH  17  18
HETATM   18  C12 UNL     1      14.222  20.427  15.617  1.00  0.00     0.271 C 
BRANCH  18  19
HETATM   19  C13 UNL     1      15.105  21.530  15.067  1.00  0.00     0.242 C 
HETATM   20  O5  UNL     1      14.626  22.255  14.119  1.00  0.00    -0.271 OA
HETATM   21  N1  UNL     1      16.384  21.783  15.534  1.00  0.00    -0.345 N 
ATOM     22  H1  UNL     1      16.813  21.236  16.280  1.00  0.00     0.163 HD
BRANCH  21  23
HETATM   23  C14 UNL     1      17.108  22.948  14.846  1.00  0.00     0.185 C 
BRANCH  23  24
HETATM   24  C15 UNL     1      17.664  23.684  15.970  1.00  0.00     0.037 C 
BRANCH  24  25
HETATM   25  C16 UNL     1      18.026  25.092  15.844  1.00  0.00     0.008 C 
BRANCH  25  26
HETATM   26  C17 UNL     1      18.812  25.719  16.913  1.00  0.00     0.060 C 
BRANCH  26  27
HETATM   27  C18 UNL     1      17.980  26.563  17.865  1.00  0.00     0.159 C 
BRANCH  27  28
HETATM   28  N2  UNL     1      17.413  25.781  18.850  1.00  0.00    -0.388 NA
HETATM   29  C19 UNL     1      16.876  25.006  19.824  1.00  0.00     0.286 C 
HETATM   30  C20 UNL     1      15.358  24.957  19.949  1.00  0.00     0.135 C 
HETATM   31  O6  UNL     1      17.492  24.295  20.663  1.00  0.00    -0.258 OA
ENDBRANCH  27  28
ENDBRANCH  26  27
ENDBRANCH  25  26
ENDBRANCH  24  25
ENDBRANCH  23  24
BRANCH  23  32
HETATM   32  C21 UNL     1      17.995  22.223  13.895  1.00  0.00     0.196 C 
HETATM   33  O7  UNL     1      18.329  22.857  12.799  1.00  0.00    -0.646 OA
HETATM   34  O8  UNL     1      18.497  21.005  14.048  1.00  0.00    -0.646 OA
ENDBRANCH  23  32
ENDBRANCH  21  23
ENDBRANCH  18  19
ENDBRANCH  17  18
ENDBRANCH  12  17
BRANCH   1  35
HETATM   35  O1  UNL     1      13.319  20.415  19.314  1.00  0.00    -0.357 OA
HETATM   36  C1  UNL     1      13.931  21.560  19.538  1.00  0.00     0.205 C 
ENDBRANCH   1  35
TORSDOF 11
ENDMDL
MODEL 4
REMARK VINA RESULT: -7.970188490      2.167      5.035
REMARK  11 active torsions:
REMARK  status: ('A' for Active; 'I' for Inactive)
REMARK    1  A    between atoms: O1_2  and  C2_3 
REMARK    2  A    between atoms: C11_14  and  O4_15 
REMARK    3  A    between atoms: O4_15  and  C12_16 
REMARK    4  A    between atoms: C12_16  and  C13_17 
REMARK       I    between atoms: C13_17  and  N1_19 
REMARK    5  A    between atoms: N1_19  and  C14_21 
REMARK    6  A    between atoms: C14_21  and  C15_22 
REMARK    7  A    between atoms: C14_21  and  C21_30 
REMARK    8  A    between atoms: C15_22  and  C16_23 
REMARK    9  A    between atoms: C16_23  and  C17_24 
REMARK   10  A    between atoms: C17_24  and  C18_25 
REMARK   11  A    between atoms: C18_25  and  N2_26 
REMARK       I    between atoms: N2_26  and  C19_27 
ROOT
HETATM    1  C2  UNL     1      11.110  19.204  18.995  1.00  0.00     0.200 C 
HETATM    2  O2  UNL     1      11.998  18.290  18.322  1.00  0.00    -0.321 OA
HETATM    3  C3  UNL     1      11.322  17.682  17.281  1.00  0.00     0.269 C 
HETATM    4  O3  UNL     1      12.227  17.586  16.236  1.00  0.00    -0.355 OA
HETATM    5  C4  UNL     1      11.822  17.988  14.995  1.00  0.00     0.124 C 
HETATM    6  C5  UNL     1      10.883  17.000  14.317  1.00  0.00     0.040 C 
HETATM    7  C6  UNL     1      11.343  19.422  14.903  1.00  0.00     0.015 C 
HETATM    8  C7  UNL     1      12.387  20.324  14.285  1.00  0.00     0.013 C 
HETATM    9  C8  UNL     1      11.263  19.834  16.391  1.00  0.00     0.001 C 
HETATM   10  C9  UNL     1      10.967  21.250  16.623  1.00  0.00     0.008 C 
HETATM   11  C10 UNL     1      11.196  21.595  18.042  1.00  0.00     0.038 C 
HETATM   12  C11 UNL     1      11.750  20.574  18.982  1.00  0.00     0.185 C 
HETATM   13  C22 UNL     1      10.352  18.804  16.929  1.00  0.00     0.059 C 
HETATM   14  C23 UNL     1       9.823  19.028  18.329  1.00  0.00     0.020 C 
HETATM   15  C24 UNL     1       9.273  17.626  18.731  1.00  0.00     0.021 C 
HETATM   16  C25 UNL     1       8.714  19.946  18.487  1.00  0.00     0.021 C 
ENDROOT
BRANCH  12  17
HETATM   17  O4  UNL     1      13.036  20.450  18.869  1.00  0.00    -0.371 OA
BRANCH  17  18
HETATM   18  C12 UNL     1      14.226  20.623  18.665  1.00  0.00     0.271 C 
BRANCH  18  19
HETATM   19  C13 UNL     1      14.713  21.648  17.661  1.00  0.00     0.242 C 
HETATM   20  O5  UNL     1      14.171  22.813  17.692  1.00  0.00    -0.271 OA
HETATM   21  N1  UNL     1      15.701  21.385  16.726  1.00  0.00    -0.345 N 
ATOM     22  H1  UNL     1      16.160  20.477  16.656  1.00  0.00     0.163 HD
BRANCH  21  23
HETATM   23  C14 UNL     1      16.053  22.561  15.805  1.00  0.00     0.185 C 
BRANCH  23  24
HETATM   24  C15 UNL     1      17.462  22.777  16.091  1.00  0.00     0.037 C 
BRANCH  24  25
HETATM   25  C16 UNL     1      17.884  23.649  17.181  1.00  0.00     0.008 C 
BRANCH  25  26
HETATM   26  C17 UNL     1      18.340  25.009  16.865  1.00  0.00     0.060 C 
BRANCH  26  27
HETATM   27  C18 UNL     1      17.938  26.042  17.905  1.00  0.00     0.159 C 
BRANCH  27  28
HETATM   28  N2  UNL     1      17.320  25.443  18.983  1.00  0.00    -0.388 NA
HETATM   29  C19 UNL     1      16.732  24.847  20.050  1.00  0.00     0.286 C 
HETATM   30  C20 UNL     1      15.218  24.944  20.182  1.00  0.00     0.135 C 
HETATM   31  O6  UNL     1      17.297  24.199  20.971  1.00  0.00    -0.258 OA
ENDBRANCH  27  28
ENDBRANCH  26  27
ENDBRANCH  25  26
ENDBRANCH  24  25
ENDBRANCH  23  24
BRANCH  23  32
HETATM   32  C21 UNL     1      15.614  22.039  14.481  1.00  0.00     0.196 C 
HETATM   33  O7  UNL     1      15.828  20.769  14.248  1.00  0.00    -0.646 OA
HETATM   34  O8  UNL     1      15.014  22.722  13.516  1.00  0.00    -0.646 OA
ENDBRANCH  23  32
ENDBRANCH  21  23
ENDBRANCH  18  19
ENDBRANCH  17  18
ENDBRANCH  12  17
BRANCH   1  35
HETATM   35  O1  UNL     1      11.181  18.691  20.268  1.00  0.00    -0.357 OA
HETATM   36  C1  UNL     1      10.572  19.240  21.300  1.00  0.00     0.205 C 
ENDBRANCH   1  35
TORSDOF 11
ENDMDL
MODEL 5
REMARK VINA RESULT: -7.931178125      2.243      4.420
REMARK  11 active torsions:
REMARK  status: ('A' for Active; 'I' for Inactive)
REMARK    1  A    between atoms: O1_2  and  C2_3 
REMARK    2  A    between atoms: C11_14  and  O4_15 
REMARK    3  A    between atoms: O4_15  and  C12_16 
REMARK    4  A    between atoms: C12_16  and  C13_17 
REMARK       I    between atoms: C13_17  and  N1_19 
REMARK    5  A    between atoms: N1_19  and  C14_21 
REMARK    6  A    between atoms: C14_21  and  C15_22 
REMARK    7  A    between atoms: C14_21  and  C21_30 
REMARK    8  A    between atoms: C15_22  and  C16_23 
REMARK    9  A    between atoms: C16_23  and  C17_24 
REMARK   10  A    between atoms: C17_24  and  C18_25 
REMARK   11  A    between atoms: C18_25  and  N2_26 
REMARK       I    between atoms: N2_26  and  C19_27 
ROOT
HETATM    1  C2  UNL     1      12.330  20.095  18.119  1.00  0.00     0.200 C 
HETATM    2  O2  UNL     1      12.444  18.736  17.651  1.00  0.00    -0.321 OA
HETATM    3  C3  UNL     1      11.310  18.034  18.015  1.00  0.00     0.269 C 
HETATM    4  O3  UNL     1      11.010  17.204  16.947  1.00  0.00    -0.355 OA
HETATM    5  C4  UNL     1       9.721  17.172  16.497  1.00  0.00     0.124 C 
HETATM    6  C5  UNL     1       8.783  16.393  17.410  1.00  0.00     0.040 C 
HETATM    7  C6  UNL     1       9.154  18.507  16.063  1.00  0.00     0.015 C 
HETATM    8  C7  UNL     1       9.126  18.642  14.557  1.00  0.00     0.013 C 
HETATM    9  C8  UNL     1      10.238  19.495  16.551  1.00  0.00     0.001 C 
HETATM   10  C9  UNL     1      10.039  20.885  16.130  1.00  0.00     0.008 C 
HETATM   11  C10 UNL     1      11.256  21.680  16.396  1.00  0.00     0.038 C 
HETATM   12  C11 UNL     1      12.484  21.015  16.928  1.00  0.00     0.185 C 
HETATM   13  C22 UNL     1      10.297  19.173  17.991  1.00  0.00     0.059 C 
HETATM   14  C23 UNL     1      11.079  20.125  18.869  1.00  0.00     0.020 C 
HETATM   15  C24 UNL     1      11.295  19.308  20.178  1.00  0.00     0.021 C 
HETATM   16  C25 UNL     1      10.425  21.353  19.274  1.00  0.00     0.021 C 
ENDROOT
BRANCH  12  17
HETATM   17  O4  UNL     1      13.156  20.410  15.999  1.00  0.00    -0.371 OA
BRANCH  17  18
HETATM   18  C12 UNL     1      13.786  20.120  14.995  1.00  0.00     0.271 C 
BRANCH  18  19
HETATM   19  C13 UNL     1      15.232  20.542  14.823  1.00  0.00     0.242 C 
HETATM   20  O5  UNL     1      16.096  19.617  14.598  1.00  0.00    -0.271 OA
HETATM   21  N1  UNL     1      15.652  21.859  14.897  1.00  0.00    -0.345 N 
ATOM     22  H1  UNL     1      15.009  22.630  15.076  1.00  0.00     0.163 HD
BRANCH  21  23
HETATM   23  C14 UNL     1      17.158  22.073  14.688  1.00  0.00     0.185 C 
BRANCH  23  24
HETATM   24  C15 UNL     1      17.203  22.788  13.422  1.00  0.00     0.037 C 
BRANCH  24  25
HETATM   25  C16 UNL     1      16.144  23.717  13.043  1.00  0.00     0.008 C 
BRANCH  25  26
HETATM   26  C17 UNL     1      16.509  25.081  12.640  1.00  0.00     0.060 C 
BRANCH  26  27
HETATM   27  C18 UNL     1      17.989  25.388  12.803  1.00  0.00     0.159 C 
BRANCH  27  28
HETATM   28  N2  UNL     1      18.206  26.213  13.887  1.00  0.00    -0.388 NA
HETATM   29  C19 UNL     1      18.416  27.043  14.939  1.00  0.00     0.286 C 
HETATM   30  C20 UNL     1      18.745  26.420  16.290  1.00  0.00     0.135 C 
HETATM   31  O6  UNL     1      18.377  28.302  14.940  1.00  0.00    -0.258 OA
ENDBRANCH  27  28
ENDBRANCH  26  27
ENDBRANCH  25  26
ENDBRANCH  24  25
ENDBRANCH  23  24
BRANCH  23  32
HETATM   32  C21 UNL     1      17.538  22.748  15.959  1.00  0.00     0.196 C 
HETATM   33  O7  UNL     1      16.559  23.161  16.724  1.00  0.00    -0.646 OA
HETATM   34  O8  UNL     1      18.768  22.962  16.409  1.00  0.00    -0.646 OA
ENDBRANCH  23  32
ENDBRANCH  21  23
ENDBRANCH  18  19
ENDBRANCH  17  18
ENDBRANCH  12  17
BRANCH   1  35
HETATM   35  O1  UNL     1      13.470  20.165  18.885  1.00  0.00    -0.357 OA
HETATM   36  C1  UNL     1      14.221  21.245  18.962  1.00  0.00     0.205 C 
ENDBRANCH   1  35
TORSDOF 11
ENDMDL
