MODEL 1
REMARK VINA RESULT: -8.299046897      0.000      0.000
REMARK  12 active torsions:
REMARK  status: ('A' for Active; 'I' for Inactive)
REMARK    1  A    between atoms: C2_2  and  C3_3 
REMARK    2  A    between atoms: C2_2  and  C13_17 
REMARK    3  A    between atoms: C3_3  and  N1_4 
REMARK    4  A    between atoms: N1_4  and  C4_6 
REMARK    5  A    between atoms: C4_6  and  C5_7 
REMARK    6  A    between atoms: C5_7  and  N2_8 
REMARK    7  A    between atoms: N2_8  and  C6_10 
REMARK    8  A    between atoms: C13_17  and  N3_18 
REMARK    9  A    between atoms: C15_20  and  O1_21 
REMARK   10  A    between atoms: C15_20  and  C17_23 
REMARK   11  A    between atoms: N5_33  and  C25_34 
REMARK   12  A    between atoms: C28_37  and  O2_38 
ROOT
HETATM    1  N3  UNL     1       9.796  18.488  17.848  1.00  0.00    -0.298 N 
HETATM    2  C14 UNL     1       9.042  17.505  17.208  1.00  0.00     0.127 C 
HETATM    3  C15 UNL     1       9.099  17.516  15.663  1.00  0.00     0.130 C 
HETATM    4  C22 UNL     1      10.518  17.552  15.281  1.00  0.00     0.066 C 
HETATM    5  C23 UNL     1      10.844  17.645  13.816  1.00  0.00     0.019 C 
HETATM    6  C24 UNL     1      11.212  18.709  15.921  1.00  0.00     0.091 C 
HETATM    7  N5  UNL     1      10.903  18.931  17.247  1.00  0.00    -0.300 N 
ENDROOT
BRANCH   1   8
HETATM    8  C13 UNL     1       9.051  19.438  18.602  1.00  0.00     0.183 C 
BRANCH   8   9
HETATM    9  C2  UNL     1       8.813  19.017  20.019  1.00  0.00    -0.052 C 
HETATM   10  C1  UNL     1       9.779  19.031  20.891  1.00  0.00     0.017 C 
BRANCH   9  11
HETATM   11  C3  UNL     1       7.476  18.516  20.335  1.00  0.00     0.149 C 
BRANCH  11  12
HETATM   12  N1  UNL     1       6.409  18.610  19.411  1.00  0.00    -0.413 N 
ATOM     13  H1  UNL     1       6.579  18.686  18.407  1.00  0.00     0.153 HD
BRANCH  12  14
HETATM   14  C4  UNL     1       5.084  18.593  19.943  1.00  0.00     0.158 C 
BRANCH  14  15
HETATM   15  C5  UNL     1       4.016  17.977  19.132  1.00  0.00     0.075 C 
BRANCH  15  16
HETATM   16  N2  UNL     1       4.082  17.912  17.735  1.00  0.00    -0.396 N 
ATOM     17  H2  UNL     1       3.901  18.738  17.165  1.00  0.00     0.159 HD
BRANCH  16  18
HETATM   18  C6  UNL     1       4.411  16.662  17.128  1.00  0.00     0.085 C 
HETATM   19  C7  UNL     1       3.513  15.509  17.605  1.00  0.00     0.030 C 
HETATM   20  C8  UNL     1       3.411  15.065  16.178  1.00  0.00    -0.006 C 
HETATM   21  C9  UNL     1       1.997  14.783  15.705  1.00  0.00     0.005 C 
HETATM   22  C12 UNL     1       3.699  16.495  15.774  1.00  0.00     0.012 C 
HETATM   23  C10 UNL     1       1.295  16.124  15.815  1.00  0.00     0.001 C 
HETATM   24  C11 UNL     1       2.354  17.190  15.722  1.00  0.00     0.007 C 
ENDBRANCH  16  18
ENDBRANCH  15  16
ENDBRANCH  14  15
ENDBRANCH  12  14
ENDBRANCH  11  12
ENDBRANCH   9  11
ENDBRANCH   8   9
ENDBRANCH   1   8
BRANCH   7  25
HETATM   25  C25 UNL     1      12.003  19.346  18.083  1.00  0.00     0.107 C 
HETATM   26  C26 UNL     1      13.279  18.803  17.546  1.00  0.00     0.030 C 
HETATM   27  C27 UNL     1      14.460  19.708  17.635  1.00  0.00     0.034 C 
HETATM   28  C28 UNL     1      14.443  20.712  18.735  1.00  0.00     0.118 C 
HETATM   29  C29 UNL     1      13.103  21.312  19.038  1.00  0.00     0.034 C 
HETATM   30  C30 UNL     1      12.135  20.896  17.960  1.00  0.00     0.030 C 
BRANCH  28  31
HETATM   31  O2  UNL     1      15.328  21.741  18.336  1.00  0.00    -0.396 OA
ATOM     32  H2  UNL     1      15.955  21.834  19.043  1.00  0.00     0.210 HD
ENDBRANCH  28  31
ENDBRANCH   7  25
BRANCH   3  33
HETATM   33  O1  UNL     1       8.376  18.586  15.288  1.00  0.00    -0.374 OA
HETATM   34  C16 UNL     1       7.871  18.753  14.054  1.00  0.00     0.203 C 
ENDBRANCH   3  33
BRANCH   3  35
HETATM   35  C17 UNL     1       8.392  16.255  15.294  1.00  0.00    -0.003 A 
HETATM   36  C18 UNL     1       8.507  15.697  14.057  1.00  0.00     0.013 A 
HETATM   37  C19 UNL     1       7.835  14.519  13.777  1.00  0.00     0.018 A 
HETATM   38  C20 UNL     1       7.065  13.935  14.751  1.00  0.00     0.087 A 
HETATM   39  N4  UNL     1       6.976  14.529  15.969  1.00  0.00    -0.375 N 
HETATM   40  C21 UNL     1       7.623  15.670  16.249  1.00  0.00     0.098 A 
ATOM     41  H4  UNL     1       6.401  14.095  16.692  1.00  0.00     0.164 HD
ENDBRANCH   3  35
TORSDOF 12
ENDMDL
MODEL 2
REMARK VINA RESULT: -8.222339071      5.222     10.093
REMARK  12 active torsions:
REMARK  status: ('A' for Active; 'I' for Inactive)
REMARK    1  A    between atoms: C2_2  and  C3_3 
REMARK    2  A    between atoms: C2_2  and  C13_17 
REMARK    3  A    between atoms: C3_3  and  N1_4 
REMARK    4  A    between atoms: N1_4  and  C4_6 
REMARK    5  A    between atoms: C4_6  and  C5_7 
REMARK    6  A    between atoms: C5_7  and  N2_8 
REMARK    7  A    between atoms: N2_8  and  C6_10 
REMARK    8  A    between atoms: C13_17  and  N3_18 
REMARK    9  A    between atoms: C15_20  and  O1_21 
REMARK   10  A    between atoms: C15_20  and  C17_23 
REMARK   11  A    between atoms: N5_33  and  C25_34 
REMARK   12  A    between atoms: C28_37  and  O2_38 
ROOT
HETATM    1  N3  UNL     1      13.410  20.886  17.216  1.00  0.00    -0.298 N 
HETATM    2  C14 UNL     1      12.320  20.172  16.720  1.00  0.00     0.127 C 
HETATM    3  C15 UNL     1      11.337  19.625  17.782  1.00  0.00     0.130 C 
HETATM    4  C22 UNL     1      10.992  20.743  18.671  1.00  0.00     0.066 C 
HETATM    5  C23 UNL     1      10.098  20.450  19.845  1.00  0.00     0.019 C 
HETATM    6  C24 UNL     1      12.220  21.365  19.246  1.00  0.00     0.091 C 
HETATM    7  N5  UNL     1      13.264  21.553  18.363  1.00  0.00    -0.300 N 
ENDROOT
BRANCH   1   8
HETATM    8  C13 UNL     1      14.686  20.305  16.970  1.00  0.00     0.183 C 
BRANCH   8   9
HETATM    9  C2  UNL     1      15.127  20.423  15.543  1.00  0.00    -0.052 C 
HETATM   10  C1  UNL     1      15.789  19.462  14.967  1.00  0.00     0.017 C 
BRANCH   9  11
HETATM   11  C3  UNL     1      14.850  21.695  14.878  1.00  0.00     0.149 C 
BRANCH  11  12
HETATM   12  N1  UNL     1      14.283  21.748  13.582  1.00  0.00    -0.413 N 
ATOM     13  H1  UNL     1      13.431  21.236  13.352  1.00  0.00     0.153 HD
BRANCH  12  14
HETATM   14  C4  UNL     1      14.956  22.550  12.610  1.00  0.00     0.158 C 
BRANCH  14  15
HETATM   15  C5  UNL     1      16.136  23.324  13.043  1.00  0.00     0.075 C 
BRANCH  15  16
HETATM   16  N2  UNL     1      16.128  24.723  13.107  1.00  0.00    -0.396 N 
ATOM     17  H2  UNL     1      15.279  25.230  13.358  1.00  0.00     0.159 HD
BRANCH  16  18
HETATM   18  C6  UNL     1      17.338  25.423  12.813  1.00  0.00     0.085 C 
HETATM   19  C7  UNL     1      17.819  25.209  11.368  1.00  0.00     0.030 C 
HETATM   20  C8  UNL     1      18.099  26.679  11.297  1.00  0.00    -0.006 C 
HETATM   21  C9  UNL     1      17.546  27.367  10.064  1.00  0.00     0.005 C 
HETATM   22  C12 UNL     1      17.053  26.871  12.376  1.00  0.00     0.012 C 
HETATM   23  C10 UNL     1      16.043  27.196  10.186  1.00  0.00     0.001 C 
HETATM   24  C11 UNL     1      15.732  27.021  11.649  1.00  0.00     0.007 C 
ENDBRANCH  16  18
ENDBRANCH  15  16
ENDBRANCH  14  15
ENDBRANCH  12  14
ENDBRANCH  11  12
ENDBRANCH   9  11
ENDBRANCH   8   9
ENDBRANCH   1   8
BRANCH   7  25
HETATM   25  C25 UNL     1      14.013  22.774  18.533  1.00  0.00     0.107 C 
HETATM   26  C26 UNL     1      13.845  23.282  19.920  1.00  0.00     0.030 C 
HETATM   27  C27 UNL     1      15.058  23.884  20.544  1.00  0.00     0.034 C 
HETATM   28  C28 UNL     1      16.054  24.481  19.612  1.00  0.00     0.118 C 
HETATM   29  C29 UNL     1      16.249  23.745  18.321  1.00  0.00     0.034 C 
HETATM   30  C30 UNL     1      15.529  22.424  18.407  1.00  0.00     0.030 C 
BRANCH  28  31
HETATM   31  O2  UNL     1      17.280  24.505  20.318  1.00  0.00    -0.396 OA
ATOM     32  H2  UNL     1      17.788  25.210  19.934  1.00  0.00     0.210 HD
ENDBRANCH  28  31
ENDBRANCH   7  25
BRANCH   3  33
HETATM   33  O1  UNL     1      11.985  18.602  18.370  1.00  0.00    -0.374 OA
HETATM   34  C16 UNL     1      12.477  17.545  17.701  1.00  0.00     0.203 C 
ENDBRANCH   3  33
BRANCH   3  35
HETATM   35  C17 UNL     1      10.203  19.117  16.957  1.00  0.00    -0.003 A 
HETATM   36  C18 UNL     1      10.091  19.402  15.630  1.00  0.00     0.013 A 
HETATM   37  C19 UNL     1       9.021  18.893  14.913  1.00  0.00     0.018 A 
HETATM   38  C20 UNL     1       8.093  18.111  15.553  1.00  0.00     0.087 A 
HETATM   39  N4  UNL     1       8.244  17.855  16.878  1.00  0.00    -0.375 N 
HETATM   40  C21 UNL     1       9.276  18.344  17.580  1.00  0.00     0.098 A 
ATOM     41  H4  UNL     1       7.552  17.275  17.353  1.00  0.00     0.164 HD
ENDBRANCH   3  35
TORSDOF 12
ENDMDL
MODEL 3
REMARK VINA RESULT: -8.199249915      5.474     11.244
REMARK  12 active torsions:
REMARK  status: ('A' for Active; 'I' for Inactive)
REMARK    1  A    between atoms: C2_2  and  C3_3 
REMARK    2  A    between atoms: C2_2  and  C13_17 
REMARK    3  A    between atoms: C3_3  and  N1_4 
REMARK    4  A    between atoms: N1_4  and  C4_6 
REMARK    5  A    between atoms: C4_6  and  C5_7 
REMARK    6  A    between atoms: C5_7  and  N2_8 
REMARK    7  A    between atoms: N2_8  and  C6_10 
REMARK    8  A    between atoms: C13_17  and  N3_18 
REMARK    9  A    between atoms: C15_20  and  O1_21 
REMARK   10  A    between atoms: C15_20  and  C17_23 
REMARK   11  A    between atoms: N5_33  and  C25_34 
REMARK   12  A    between atoms: C28_37  and  O2_38 
ROOT
HETATM    1  N3  UNL     1      14.330  21.401  16.254  1.00  0.00    -0.298 N 
HETATM    2  C14 UNL     1      13.246  20.648  15.806  1.00  0.00     0.127 C 
HETATM    3  C15 UNL     1      12.368  20.013  16.909  1.00  0.00     0.130 C 
HETATM    4  C22 UNL     1      12.027  21.079  17.860  1.00  0.00     0.066 C 
HETATM    5  C23 UNL     1      11.233  20.699  19.079  1.00  0.00     0.019 C 
HETATM    6  C24 UNL     1      13.259  21.747  18.376  1.00  0.00     0.091 C 
HETATM    7  N5  UNL     1      14.229  22.020  17.433  1.00  0.00    -0.300 N 
ENDROOT
BRANCH   1   8
HETATM    8  C13 UNL     1      15.614  20.899  15.902  1.00  0.00     0.183 C 
BRANCH   8   9
HETATM    9  C2  UNL     1      16.271  21.669  14.798  1.00  0.00    -0.052 C 
HETATM   10  C1  UNL     1      17.530  21.491  14.517  1.00  0.00     0.017 C 
BRANCH   9  11
HETATM   11  C3  UNL     1      15.451  22.675  14.127  1.00  0.00     0.149 C 
BRANCH  11  12
HETATM   12  N1  UNL     1      15.821  23.221  12.875  1.00  0.00    -0.413 N 
ATOM     13  H1  UNL     1      15.833  22.652  12.028  1.00  0.00     0.153 HD
BRANCH  12  14
HETATM   14  C4  UNL     1      16.177  24.605  12.848  1.00  0.00     0.158 C 
BRANCH  14  15
HETATM   15  C5  UNL     1      17.576  24.969  13.146  1.00  0.00     0.075 C 
BRANCH  15  16
HETATM   16  N2  UNL     1      17.922  25.775  14.238  1.00  0.00    -0.396 N 
ATOM     17  H2  UNL     1      17.459  25.658  15.140  1.00  0.00     0.159 HD
BRANCH  16  18
HETATM   18  C6  UNL     1      18.938  26.762  14.059  1.00  0.00     0.085 C 
HETATM   19  C7  UNL     1      18.454  28.186  14.382  1.00  0.00     0.030 C 
HETATM   20  C8  UNL     1      19.741  28.401  15.119  1.00  0.00    -0.006 C 
HETATM   21  C9  UNL     1      19.581  28.994  16.506  1.00  0.00     0.005 C 
HETATM   22  C12 UNL     1      19.808  26.902  15.321  1.00  0.00     0.012 C 
HETATM   23  C10 UNL     1      18.791  27.946  17.269  1.00  0.00     0.001 C 
HETATM   24  C11 UNL     1      19.046  26.621  16.600  1.00  0.00     0.007 C 
ENDBRANCH  16  18
ENDBRANCH  15  16
ENDBRANCH  14  15
ENDBRANCH  12  14
ENDBRANCH  11  12
ENDBRANCH   9  11
ENDBRANCH   8   9
ENDBRANCH   1   8
BRANCH   7  25
HETATM   25  C25 UNL     1      14.925  23.273  17.598  1.00  0.00     0.107 C 
HETATM   26  C26 UNL     1      14.147  24.169  18.495  1.00  0.00     0.030 C 
HETATM   27  C27 UNL     1      14.948  24.996  19.443  1.00  0.00     0.034 C 
HETATM   28  C28 UNL     1      16.334  25.333  19.017  1.00  0.00     0.118 C 
HETATM   29  C29 UNL     1      17.062  24.251  18.278  1.00  0.00     0.034 C 
HETATM   30  C30 UNL     1      16.253  22.982  18.364  1.00  0.00     0.030 C 
BRANCH  28  31
HETATM   31  O2  UNL     1      17.042  25.636  20.205  1.00  0.00    -0.396 OA
ATOM     32  H2  UNL     1      17.913  25.275  20.088  1.00  0.00     0.210 HD
ENDBRANCH  28  31
ENDBRANCH   7  25
BRANCH   3  33
HETATM   33  O1  UNL     1      13.105  19.007  17.414  1.00  0.00    -0.374 OA
HETATM   34  C16 UNL     1      12.588  17.965  18.087  1.00  0.00     0.203 C 
ENDBRANCH   3  33
BRANCH   3  35
HETATM   35  C17 UNL     1      11.208  19.474  16.143  1.00  0.00    -0.003 A 
HETATM   36  C18 UNL     1      11.370  18.720  15.020  1.00  0.00     0.013 A 
HETATM   37  C19 UNL     1      10.255  18.238  14.357  1.00  0.00     0.018 A 
HETATM   38  C20 UNL     1       9.005  18.529  14.842  1.00  0.00     0.087 A 
HETATM   39  N4  UNL     1       8.890  19.288  15.963  1.00  0.00    -0.375 N 
HETATM   40  C21 UNL     1       9.965  19.759  16.611  1.00  0.00     0.098 A 
ATOM     41  H4  UNL     1       7.960  19.505  16.321  1.00  0.00     0.164 HD
ENDBRANCH   3  35
TORSDOF 12
ENDMDL
MODEL 4
REMARK VINA RESULT: -8.038346421      5.335     10.350
REMARK  12 active torsions:
REMARK  status: ('A' for Active; 'I' for Inactive)
REMARK    1  A    between atoms: C2_2  and  C3_3 
REMARK    2  A    between atoms: C2_2  and  C13_17 
REMARK    3  A    between atoms: C3_3  and  N1_4 
REMARK    4  A    between atoms: N1_4  and  C4_6 
REMARK    5  A    between atoms: C4_6  and  C5_7 
REMARK    6  A    between atoms: C5_7  and  N2_8 
REMARK    7  A    between atoms: N2_8  and  C6_10 
REMARK    8  A    between atoms: C13_17  and  N3_18 
REMARK    9  A    between atoms: C15_20  and  O1_21 
REMARK   10  A    between atoms: C15_20  and  C17_23 
REMARK   11  A    between atoms: N5_33  and  C25_34 
REMARK   12  A    between atoms: C28_37  and  O2_38 
ROOT
HETATM    1  N3  UNL     1      12.840  20.531  15.782  1.00  0.00    -0.298 N 
HETATM    2  C14 UNL     1      11.674  19.845  15.444  1.00  0.00     0.127 C 
HETATM    3  C15 UNL     1      11.125  18.882  16.522  1.00  0.00     0.130 C 
HETATM    4  C22 UNL     1      11.055  19.634  17.782  1.00  0.00     0.066 C 
HETATM    5  C23 UNL     1      10.619  18.890  19.014  1.00  0.00     0.019 C 
HETATM    6  C24 UNL     1      12.382  20.229  18.121  1.00  0.00     0.091 C 
HETATM    7  N5  UNL     1      13.062  20.809  17.069  1.00  0.00    -0.300 N 
ENDROOT
BRANCH   1   8
HETATM    8  C13 UNL     1      13.981  20.231  14.985  1.00  0.00     0.183 C 
BRANCH   8   9
HETATM    9  C2  UNL     1      14.263  21.267  13.941  1.00  0.00    -0.052 C 
HETATM   10  C1  UNL     1      13.676  21.221  12.780  1.00  0.00     0.017 C 
BRANCH   9  11
HETATM   11  C3  UNL     1      15.283  22.261  14.266  1.00  0.00     0.149 C 
BRANCH  11  12
HETATM   12  N1  UNL     1      16.600  21.886  14.623  1.00  0.00    -0.413 N 
ATOM     13  H1  UNL     1      16.780  21.223  15.377  1.00  0.00     0.153 HD
BRANCH  12  14
HETATM   14  C4  UNL     1      17.669  22.477  13.880  1.00  0.00     0.158 C 
BRANCH  14  15
HETATM   15  C5  UNL     1      17.388  23.709  13.118  1.00  0.00     0.075 C 
BRANCH  15  16
HETATM   16  N2  UNL     1      17.291  24.963  13.735  1.00  0.00    -0.396 N 
ATOM     17  H2  UNL     1      16.528  25.170  14.379  1.00  0.00     0.159 HD
BRANCH  16  18
HETATM   18  C6  UNL     1      18.286  25.944  13.440  1.00  0.00     0.085 C 
HETATM   19  C7  UNL     1      18.964  25.720  12.078  1.00  0.00     0.030 C 
HETATM   20  C8  UNL     1      18.834  27.192  11.829  1.00  0.00    -0.006 C 
HETATM   21  C9  UNL     1      18.253  27.553  10.476  1.00  0.00     0.005 C 
HETATM   22  C12 UNL     1      17.663  27.192  12.789  1.00  0.00     0.012 C 
HETATM   23  C10 UNL     1      16.851  26.972  10.506  1.00  0.00     0.001 C 
HETATM   24  C11 UNL     1      16.441  26.876  11.952  1.00  0.00     0.007 C 
ENDBRANCH  16  18
ENDBRANCH  15  16
ENDBRANCH  14  15
ENDBRANCH  12  14
ENDBRANCH  11  12
ENDBRANCH   9  11
ENDBRANCH   8   9
ENDBRANCH   1   8
BRANCH   7  25
HETATM   25  C25 UNL     1      13.779  22.021  17.383  1.00  0.00     0.107 C 
HETATM   26  C26 UNL     1      13.112  22.726  18.509  1.00  0.00     0.030 C 
HETATM   27  C27 UNL     1      14.018  23.378  19.497  1.00  0.00     0.034 C 
HETATM   28  C28 UNL     1      15.350  23.808  18.989  1.00  0.00     0.118 C 
HETATM   29  C29 UNL     1      15.985  22.891  17.988  1.00  0.00     0.034 C 
HETATM   30  C30 UNL     1      15.183  21.615  17.930  1.00  0.00     0.030 C 
BRANCH  28  31
HETATM   31  O2  UNL     1      16.189  23.900  20.126  1.00  0.00    -0.396 OA
ATOM     32  H2  UNL     1      16.315  24.828  20.282  1.00  0.00     0.210 HD
ENDBRANCH  28  31
ENDBRANCH   7  25
BRANCH   3  33
HETATM   33  O1  UNL     1      11.969  17.834  16.523  1.00  0.00    -0.374 OA
HETATM   34  C16 UNL     1      12.231  17.082  15.440  1.00  0.00     0.203 C 
ENDBRANCH   3  33
BRANCH   3  35
HETATM   35  C17 UNL     1       9.800  18.481  15.966  1.00  0.00    -0.003 A 
HETATM   36  C18 UNL     1       9.413  18.818  14.705  1.00  0.00     0.013 A 
HETATM   37  C19 UNL     1       8.175  18.408  14.240  1.00  0.00     0.018 A 
HETATM   38  C20 UNL     1       7.359  17.670  15.060  1.00  0.00     0.087 A 
HETATM   39  N4  UNL     1       7.784  17.360  16.313  1.00  0.00    -0.375 N 
HETATM   40  C21 UNL     1       8.982  17.753  16.770  1.00  0.00     0.098 A 
ATOM     41  H4  UNL     1       7.175  16.813  16.922  1.00  0.00     0.164 HD
ENDBRANCH   3  35
TORSDOF 12
ENDMDL
MODEL 5
REMARK VINA RESULT: -7.962152380      1.836      6.023
REMARK  12 active torsions:
REMARK  status: ('A' for Active; 'I' for Inactive)
REMARK    1  A    between atoms: C2_2  and  C3_3 
REMARK    2  A    between atoms: C2_2  and  C13_17 
REMARK    3  A    between atoms: C3_3  and  N1_4 
REMARK    4  A    between atoms: N1_4  and  C4_6 
REMARK    5  A    between atoms: C4_6  and  C5_7 
REMARK    6  A    between atoms: C5_7  and  N2_8 
REMARK    7  A    between atoms: N2_8  and  C6_10 
REMARK    8  A    between atoms: C13_17  and  N3_18 
REMARK    9  A    between atoms: C15_20  and  O1_21 
REMARK   10  A    between atoms: C15_20  and  C17_23 
REMARK   11  A    between atoms: N5_33  and  C25_34 
REMARK   12  A    between atoms: C28_37  and  O2_38 
ROOT
HETATM    1  N3  UNL     1      10.828  19.592  18.465  1.00  0.00    -0.298 N 
HETATM    2  C14 UNL     1      11.686  20.628  18.831  1.00  0.00     0.127 C 
HETATM    3  C15 UNL     1      12.915  20.837  17.917  1.00  0.00     0.130 C 
HETATM    4  C22 UNL     1      12.422  20.904  16.535  1.00  0.00     0.066 C 
HETATM    5  C23 UNL     1      13.441  21.030  15.435  1.00  0.00     0.019 C 
HETATM    6  C24 UNL     1      11.615  19.694  16.198  1.00  0.00     0.091 C 
HETATM    7  N5  UNL     1      10.730  19.277  17.171  1.00  0.00    -0.300 N 
ENDROOT
BRANCH   1   8
HETATM    8  C13 UNL     1      10.729  18.520  19.395  1.00  0.00     0.183 C 
BRANCH   8   9
HETATM    9  C2  UNL     1       9.553  18.637  20.314  1.00  0.00    -0.052 C 
HETATM   10  C1  UNL     1       9.612  19.374  21.385  1.00  0.00     0.017 C 
BRANCH   9  11
HETATM   11  C3  UNL     1       8.385  17.820  19.987  1.00  0.00     0.149 C 
BRANCH  11  12
HETATM   12  N1  UNL     1       7.212  18.387  19.435  1.00  0.00    -0.413 N 
ATOM     13  H1  UNL     1       7.164  18.662  18.454  1.00  0.00     0.153 HD
BRANCH  12  14
HETATM   14  C4  UNL     1       6.097  18.557  20.313  1.00  0.00     0.158 C 
BRANCH  14  15
HETATM   15  C5  UNL     1       4.742  18.518  19.731  1.00  0.00     0.075 C 
BRANCH  15  16
HETATM   16  N2  UNL     1       4.496  18.027  18.443  1.00  0.00    -0.396 N 
ATOM     17  H2  UNL     1       5.207  18.091  17.715  1.00  0.00     0.159 HD
BRANCH  16  18
HETATM   18  C6  UNL     1       3.226  17.432  18.174  1.00  0.00     0.085 C 
HETATM   19  C7  UNL     1       2.712  17.729  16.755  1.00  0.00     0.030 C 
HETATM   20  C8  UNL     1       2.316  16.289  16.651  1.00  0.00    -0.006 C 
HETATM   21  C9  UNL     1       2.770  15.601  15.378  1.00  0.00     0.005 C 
HETATM   22  C12 UNL     1       3.381  15.982  17.683  1.00  0.00     0.012 C 
HETATM   23  C10 UNL     1       4.285  15.651  15.448  1.00  0.00     0.001 C 
HETATM   24  C11 UNL     1       4.660  15.755  16.903  1.00  0.00     0.007 C 
ENDBRANCH  16  18
ENDBRANCH  15  16
ENDBRANCH  14  15
ENDBRANCH  12  14
ENDBRANCH  11  12
ENDBRANCH   9  11
ENDBRANCH   8   9
ENDBRANCH   1   8
BRANCH   7  25
HETATM   25  C25 UNL     1       9.461  18.786  16.691  1.00  0.00     0.107 C 
HETATM   26  C26 UNL     1       9.239  19.242  15.293  1.00  0.00     0.030 C 
HETATM   27  C27 UNL     1       8.584  18.258  14.384  1.00  0.00     0.034 C 
HETATM   28  C28 UNL     1       7.690  17.256  15.029  1.00  0.00     0.118 C 
HETATM   29  C29 UNL     1       8.147  16.749  16.363  1.00  0.00     0.034 C 
HETATM   30  C30 UNL     1       9.554  17.231  16.603  1.00  0.00     0.030 C 
BRANCH  28  31
HETATM   31  O2  UNL     1       7.609  16.170  14.125  1.00  0.00    -0.396 OA
ATOM     32  H2  UNL     1       7.503  15.393  14.661  1.00  0.00     0.210 HD
ENDBRANCH  28  31
ENDBRANCH   7  25
BRANCH   3  33
HETATM   33  O1  UNL     1      13.736  19.806  18.185  1.00  0.00    -0.374 OA
HETATM   34  C16 UNL     1      14.942  19.641  17.614  1.00  0.00     0.203 C 
ENDBRANCH   3  33
BRANCH   3  35
HETATM   35  C17 UNL     1      13.498  22.112  18.427  1.00  0.00    -0.003 A 
HETATM   36  C18 UNL     1      13.878  22.264  19.726  1.00  0.00     0.013 A 
HETATM   37  C19 UNL     1      14.423  23.467  20.140  1.00  0.00     0.018 A 
HETATM   38  C20 UNL     1      14.570  24.487  19.233  1.00  0.00     0.087 A 
HETATM   39  N4  UNL     1      14.174  24.292  17.949  1.00  0.00    -0.375 N 
HETATM   40  C21 UNL     1      13.645  23.130  17.540  1.00  0.00     0.098 A 
ATOM     41  H4  UNL     1      14.281  25.052  17.276  1.00  0.00     0.164 HD
ENDBRANCH   3  35
TORSDOF 12
ENDMDL
