MODEL 1
REMARK VINA RESULT: -7.724786767      0.000      0.000
REMARK  15 active torsions:
REMARK  status: ('A' for Active; 'I' for Inactive)
REMARK    1  A    between atoms: C2_2  and  O1_3 
REMARK    2  A    between atoms: O1_3  and  C3_4 
REMARK    3  A    between atoms: C3_4  and  C18_29 
REMARK       I    between atoms: N1_5  and  C4_7 
REMARK    4  A    between atoms: C4_7  and  C5_9 
REMARK    5  A    between atoms: C11_15  and  C12_16 
REMARK    6  A    between atoms: C12_16  and  C13_17 
REMARK       I    between atoms: C13_17  and  N2_19 
REMARK    7  A    between atoms: N2_19  and  C14_21 
REMARK    8  A    between atoms: C14_21  and  O4_22 
REMARK    9  A    between atoms: C14_21  and  C15_24 
REMARK   10  A    between atoms: C18_29  and  C19_31 
REMARK   11  A    between atoms: C19_31  and  C20_32 
REMARK   12  A    between atoms: C20_32  and  C21_33 
REMARK   13  A    between atoms: C21_33  and  N4_34 
REMARK   14  A    between atoms: N4_34  and  C22_35 
REMARK   15  A    between atoms: N4_34  and  C24_37 
ROOT
HETATM    1  C5  UNL     1      12.483  19.852  17.076  1.00  0.00     0.050 C 
HETATM    2  C6  UNL     1      12.997  18.995  15.883  1.00  0.00     0.024 C 
HETATM    3  C7  UNL     1      13.817  20.038  15.157  1.00  0.00    -0.012 C 
HETATM    4  C8  UNL     1      12.847  21.025  14.555  1.00  0.00     0.009 C 
HETATM    5  C9  UNL     1      12.009  21.649  15.652  1.00  0.00    -0.012 C 
HETATM    6  C10 UNL     1      12.889  22.214  16.750  1.00  0.00     0.016 C 
HETATM    7  C11 UNL     1      13.475  20.899  17.311  1.00  0.00    -0.015 C 
HETATM    8  C16 UNL     1      14.617  20.614  16.300  1.00  0.00     0.016 C 
HETATM    9  C17 UNL     1      11.279  20.577  16.428  1.00  0.00     0.024 C 
ENDROOT
BRANCH   1  10
HETATM   10  C4  UNL     1      12.052  18.980  18.159  1.00  0.00     0.233 C 
HETATM   11  N1  UNL     1      10.827  19.181  18.789  1.00  0.00    -0.309 N 
HETATM   12  C3  UNL     1       9.678  18.701  18.615  1.00  0.00     0.135 C 
ATOM     13  H1  UNL     1      10.871  19.860  19.550  1.00  0.00     0.170 HD
HETATM   14  O2  UNL     1      12.784  18.034  18.530  1.00  0.00    -0.272 OA
BRANCH  12  15
HETATM   15  O1  UNL     1       8.682  19.195  19.502  1.00  0.00    -0.338 OA
BRANCH  15  16
HETATM   16  C2  UNL     1       8.972  19.104  20.906  1.00  0.00     0.172 C 
HETATM   17  C1  UNL     1       7.713  18.506  21.527  1.00  0.00     0.034 C 
ENDBRANCH  15  16
ENDBRANCH  12  15
BRANCH  12  18
HETATM   18  C18 UNL     1       9.222  17.706  17.630  1.00  0.00     0.133 C 
HETATM   19  S1  UNL     1       7.982  16.561  18.339  1.00  0.00    -0.084 SA
BRANCH  18  20
HETATM   20  C19 UNL     1       8.478  18.471  16.500  1.00  0.00     0.029 C 
BRANCH  20  21
HETATM   21  C20 UNL     1       7.588  17.529  15.771  1.00  0.00     0.046 C 
BRANCH  21  22
HETATM   22  C21 UNL     1       7.943  17.221  14.361  1.00  0.00     0.063 C 
BRANCH  22  23
HETATM   23  N4  UNL     1       8.545  16.012  13.999  1.00  0.00    -0.375 N 
BRANCH  23  24
HETATM   24  C22 UNL     1       9.929  15.975  13.777  1.00  0.00     0.058 C 
HETATM   25  C23 UNL     1      10.554  17.364  13.666  1.00  0.00     0.055 C 
ENDBRANCH  23  24
BRANCH  23  26
HETATM   26  C24 UNL     1       8.070  14.880  14.737  1.00  0.00     0.122 C 
HETATM   27  C25 UNL     1       6.869  14.249  14.056  1.00  0.00     0.027 C 
ENDBRANCH  23  26
ENDBRANCH  22  23
ENDBRANCH  21  22
ENDBRANCH  20  21
ENDBRANCH  18  20
ENDBRANCH  12  18
ENDBRANCH   1  10
BRANCH   7  28
HETATM   28  C12 UNL     1      14.095  21.089  18.618  1.00  0.00     0.113 C 
BRANCH  28  29
HETATM   29  C13 UNL     1      14.094  22.436  19.229  1.00  0.00     0.224 C 
HETATM   30  O3  UNL     1      13.159  22.779  19.950  1.00  0.00    -0.273 OA
HETATM   31  N2  UNL     1      15.182  23.272  18.953  1.00  0.00    -0.303 N 
ATOM     32  H2  UNL     1      15.891  22.868  18.341  1.00  0.00     0.171 HD
BRANCH  31  33
HETATM   33  C14 UNL     1      15.446  24.566  19.383  1.00  0.00     0.209 C 
BRANCH  33  34
HETATM   34  O4  UNL     1      14.583  25.491  19.005  1.00  0.00    -0.342 OA
ATOM     35  H4  UNL     1      14.952  26.259  18.584  1.00  0.00     0.219 HD
ENDBRANCH  33  34
BRANCH  33  36
HETATM   36  C15 UNL     1      16.508  25.099  20.179  1.00  0.00     0.305 C 
HETATM   37  N3  UNL     1      16.212  25.955  21.329  1.00  0.00    -0.054 NA
HETATM   38  O5  UNL     1      17.734  24.926  20.021  1.00  0.00    -0.267 OA
ENDBRANCH  33  36
ENDBRANCH  31  33
ENDBRANCH  28  29
ENDBRANCH   7  28
TORSDOF 15
ENDMDL
MODEL 2
REMARK VINA RESULT: -7.686976737      0.256      1.301
REMARK  15 active torsions:
REMARK  status: ('A' for Active; 'I' for Inactive)
REMARK    1  A    between atoms: C2_2  and  O1_3 
REMARK    2  A    between atoms: O1_3  and  C3_4 
REMARK    3  A    between atoms: C3_4  and  C18_29 
REMARK       I    between atoms: N1_5  and  C4_7 
REMARK    4  A    between atoms: C4_7  and  C5_9 
REMARK    5  A    between atoms: C11_15  and  C12_16 
REMARK    6  A    between atoms: C12_16  and  C13_17 
REMARK       I    between atoms: C13_17  and  N2_19 
REMARK    7  A    between atoms: N2_19  and  C14_21 
REMARK    8  A    between atoms: C14_21  and  O4_22 
REMARK    9  A    between atoms: C14_21  and  C15_24 
REMARK   10  A    between atoms: C18_29  and  C19_31 
REMARK   11  A    between atoms: C19_31  and  C20_32 
REMARK   12  A    between atoms: C20_32  and  C21_33 
REMARK   13  A    between atoms: C21_33  and  N4_34 
REMARK   14  A    between atoms: N4_34  and  C22_35 
REMARK   15  A    between atoms: N4_34  and  C24_37 
ROOT
HETATM    1  C5  UNL     1      12.547  19.860  17.062  1.00  0.00     0.050 C 
HETATM    2  C6  UNL     1      13.089  19.022  15.868  1.00  0.00     0.024 C 
HETATM    3  C7  UNL     1      13.920  20.077  15.174  1.00  0.00    -0.012 C 
HETATM    4  C8  UNL     1      12.959  21.070  14.566  1.00  0.00     0.009 C 
HETATM    5  C9  UNL     1      12.097  21.675  15.654  1.00  0.00    -0.012 C 
HETATM    6  C10 UNL     1      12.951  22.228  16.778  1.00  0.00     0.016 C 
HETATM    7  C11 UNL     1      13.530  20.906  17.333  1.00  0.00    -0.015 C 
HETATM    8  C16 UNL     1      14.694  20.640  16.342  1.00  0.00     0.016 C 
HETATM    9  C17 UNL     1      11.354  20.589  16.399  1.00  0.00     0.024 C 
ENDROOT
BRANCH   1  10
HETATM   10  C4  UNL     1      12.097  18.970  18.123  1.00  0.00     0.233 C 
HETATM   11  N1  UNL     1      10.864  19.166  18.739  1.00  0.00    -0.309 N 
HETATM   12  C3  UNL     1       9.715  18.694  18.540  1.00  0.00     0.135 C 
ATOM     13  H1  UNL     1      10.900  19.831  19.512  1.00  0.00     0.170 HD
HETATM   14  O2  UNL     1      12.819  18.015  18.487  1.00  0.00    -0.272 OA
BRANCH  12  15
HETATM   15  O1  UNL     1       8.709  19.178  19.422  1.00  0.00    -0.338 OA
BRANCH  15  16
HETATM   16  C2  UNL     1       9.009  19.129  20.826  1.00  0.00     0.172 C 
HETATM   17  C1  UNL     1       7.778  18.494  21.466  1.00  0.00     0.034 C 
ENDBRANCH  15  16
ENDBRANCH  12  15
BRANCH  12  18
HETATM   18  C18 UNL     1       9.269  17.719  17.532  1.00  0.00     0.133 C 
HETATM   19  S1  UNL     1       7.968  16.609  18.183  1.00  0.00    -0.084 SA
BRANCH  18  20
HETATM   20  C19 UNL     1       8.595  18.513  16.377  1.00  0.00     0.029 C 
BRANCH  20  21
HETATM   21  C20 UNL     1       7.594  17.644  15.702  1.00  0.00     0.046 C 
BRANCH  21  22
HETATM   22  C21 UNL     1       7.938  17.151  14.343  1.00  0.00     0.063 C 
BRANCH  22  23
HETATM   23  N4  UNL     1       8.518  15.896  14.139  1.00  0.00    -0.375 N 
BRANCH  23  24
HETATM   24  C22 UNL     1       7.705  14.822  13.744  1.00  0.00     0.058 C 
HETATM   25  C23 UNL     1       6.826  14.291  14.874  1.00  0.00     0.055 C 
ENDBRANCH  23  24
BRANCH  23  26
HETATM   26  C24 UNL     1       9.766  15.935  13.438  1.00  0.00     0.122 C 
HETATM   27  C25 UNL     1      10.585  17.145  13.849  1.00  0.00     0.027 C 
ENDBRANCH  23  26
ENDBRANCH  22  23
ENDBRANCH  21  22
ENDBRANCH  20  21
ENDBRANCH  18  20
ENDBRANCH  12  18
ENDBRANCH   1  10
BRANCH   7  28
HETATM   28  C12 UNL     1      14.122  21.080  18.655  1.00  0.00     0.113 C 
BRANCH  28  29
HETATM   29  C13 UNL     1      14.126  22.423  19.274  1.00  0.00     0.224 C 
HETATM   30  O3  UNL     1      13.224  22.742  20.047  1.00  0.00    -0.273 OA
HETATM   31  N2  UNL     1      15.179  23.283  18.945  1.00  0.00    -0.303 N 
ATOM     32  H2  UNL     1      15.862  22.899  18.293  1.00  0.00     0.171 HD
BRANCH  31  33
HETATM   33  C14 UNL     1      15.439  24.581  19.368  1.00  0.00     0.209 C 
BRANCH  33  34
HETATM   34  O4  UNL     1      14.560  25.497  19.006  1.00  0.00    -0.342 OA
ATOM     35  H4  UNL     1      14.894  26.209  18.472  1.00  0.00     0.219 HD
ENDBRANCH  33  34
BRANCH  33  36
HETATM   36  C15 UNL     1      16.510  25.125  20.144  1.00  0.00     0.305 C 
HETATM   37  N3  UNL     1      16.231  26.032  21.258  1.00  0.00    -0.054 NA
HETATM   38  O5  UNL     1      17.733  24.922  19.994  1.00  0.00    -0.267 OA
ENDBRANCH  33  36
ENDBRANCH  31  33
ENDBRANCH  28  29
ENDBRANCH   7  28
TORSDOF 15
ENDMDL
MODEL 3
REMARK VINA RESULT: -7.595615026      3.498      9.551
REMARK  15 active torsions:
REMARK  status: ('A' for Active; 'I' for Inactive)
REMARK    1  A    between atoms: C2_2  and  O1_3 
REMARK    2  A    between atoms: O1_3  and  C3_4 
REMARK    3  A    between atoms: C3_4  and  C18_29 
REMARK       I    between atoms: N1_5  and  C4_7 
REMARK    4  A    between atoms: C4_7  and  C5_9 
REMARK    5  A    between atoms: C11_15  and  C12_16 
REMARK    6  A    between atoms: C12_16  and  C13_17 
REMARK       I    between atoms: C13_17  and  N2_19 
REMARK    7  A    between atoms: N2_19  and  C14_21 
REMARK    8  A    between atoms: C14_21  and  O4_22 
REMARK    9  A    between atoms: C14_21  and  C15_24 
REMARK   10  A    between atoms: C18_29  and  C19_31 
REMARK   11  A    between atoms: C19_31  and  C20_32 
REMARK   12  A    between atoms: C20_32  and  C21_33 
REMARK   13  A    between atoms: C21_33  and  N4_34 
REMARK   14  A    between atoms: N4_34  and  C22_35 
REMARK   15  A    between atoms: N4_34  and  C24_37 
ROOT
HETATM    1  C5  UNL     1      12.601  20.794  16.396  1.00  0.00     0.050 C 
HETATM    2  C6  UNL     1      13.356  20.094  17.563  1.00  0.00     0.024 C 
HETATM    3  C7  UNL     1      12.181  19.734  18.445  1.00  0.00    -0.012 C 
HETATM    4  C8  UNL     1      11.651  21.023  19.024  1.00  0.00     0.009 C 
HETATM    5  C9  UNL     1      11.234  21.951  17.903  1.00  0.00    -0.012 C 
HETATM    6  C10 UNL     1      10.290  21.253  16.944  1.00  0.00     0.016 C 
HETATM    7  C11 UNL     1      11.262  20.212  16.341  1.00  0.00    -0.015 C 
HETATM    8  C16 UNL     1      11.250  19.111  17.434  1.00  0.00     0.016 C 
HETATM    9  C17 UNL     1      12.400  22.213  16.978  1.00  0.00     0.024 C 
ENDROOT
BRANCH   1  10
HETATM   10  C4  UNL     1      13.447  20.825  15.211  1.00  0.00     0.233 C 
HETATM   11  N1  UNL     1      13.947  22.031  14.727  1.00  0.00    -0.309 N 
HETATM   12  C3  UNL     1      15.028  22.649  14.902  1.00  0.00     0.135 C 
ATOM     13  H1  UNL     1      13.302  22.512  14.100  1.00  0.00     0.170 HD
HETATM   14  O2  UNL     1      13.734  19.760  14.619  1.00  0.00    -0.272 OA
BRANCH  12  15
HETATM   15  O1  UNL     1      15.133  23.881  14.201  1.00  0.00    -0.338 OA
BRANCH  15  16
HETATM   16  C2  UNL     1      15.251  23.798  12.771  1.00  0.00     0.172 C 
HETATM   17  C1  UNL     1      16.386  24.754  12.417  1.00  0.00     0.034 C 
ENDBRANCH  15  16
ENDBRANCH  12  15
BRANCH  12  18
HETATM   18  C18 UNL     1      16.191  22.278  15.725  1.00  0.00     0.133 C 
HETATM   19  S1  UNL     1      17.711  22.103  14.719  1.00  0.00    -0.084 SA
BRANCH  18  20
HETATM   20  C19 UNL     1      16.474  23.456  16.698  1.00  0.00     0.029 C 
BRANCH  20  21
HETATM   21  C20 UNL     1      15.827  23.178  18.008  1.00  0.00     0.046 C 
BRANCH  21  22
HETATM   22  C21 UNL     1      15.575  24.344  18.895  1.00  0.00     0.063 C 
BRANCH  22  23
HETATM   23  N4  UNL     1      16.422  24.655  19.963  1.00  0.00    -0.375 N 
BRANCH  23  24
HETATM   24  C22 UNL     1      17.522  25.497  19.743  1.00  0.00     0.058 C 
HETATM   25  C23 UNL     1      17.249  26.574  18.695  1.00  0.00     0.055 C 
ENDBRANCH  23  24
BRANCH  23  26
HETATM   26  C24 UNL     1      15.737  24.945  21.187  1.00  0.00     0.122 C 
HETATM   27  C25 UNL     1      14.266  24.584  21.088  1.00  0.00     0.027 C 
ENDBRANCH  23  26
ENDBRANCH  22  23
ENDBRANCH  21  22
ENDBRANCH  20  21
ENDBRANCH  18  20
ENDBRANCH  12  18
ENDBRANCH   1  10
BRANCH   7  28
HETATM   28  C12 UNL     1      10.734  19.613  15.120  1.00  0.00     0.113 C 
BRANCH  28  29
HETATM   29  C13 UNL     1      10.736  18.141  14.978  1.00  0.00     0.224 C 
HETATM   30  O3  UNL     1      11.789  17.518  15.092  1.00  0.00    -0.273 OA
HETATM   31  N2  UNL     1       9.511  17.516  14.716  1.00  0.00    -0.303 N 
ATOM     32  H2  UNL     1       8.713  18.145  14.644  1.00  0.00     0.171 HD
BRANCH  31  33
HETATM   33  C14 UNL     1       9.215  16.169  14.539  1.00  0.00     0.209 C 
BRANCH  33  34
HETATM   34  O4  UNL     1       9.747  15.593  13.476  1.00  0.00    -0.342 OA
ATOM     35  H4  UNL     1      10.640  15.284  13.572  1.00  0.00     0.219 HD
ENDBRANCH  33  34
BRANCH  33  36
HETATM   36  C15 UNL     1       8.420  15.268  15.313  1.00  0.00     0.305 C 
HETATM   37  N3  UNL     1       8.044  15.606  16.687  1.00  0.00    -0.054 NA
HETATM   38  O5  UNL     1       7.972  14.157  14.959  1.00  0.00    -0.267 OA
ENDBRANCH  33  36
ENDBRANCH  31  33
ENDBRANCH  28  29
ENDBRANCH   7  28
TORSDOF 15
ENDMDL
MODEL 4
REMARK VINA RESULT: -7.549124911      2.130      4.093
REMARK  15 active torsions:
REMARK  status: ('A' for Active; 'I' for Inactive)
REMARK    1  A    between atoms: C2_2  and  O1_3 
REMARK    2  A    between atoms: O1_3  and  C3_4 
REMARK    3  A    between atoms: C3_4  and  C18_29 
REMARK       I    between atoms: N1_5  and  C4_7 
REMARK    4  A    between atoms: C4_7  and  C5_9 
REMARK    5  A    between atoms: C11_15  and  C12_16 
REMARK    6  A    between atoms: C12_16  and  C13_17 
REMARK       I    between atoms: C13_17  and  N2_19 
REMARK    7  A    between atoms: N2_19  and  C14_21 
REMARK    8  A    between atoms: C14_21  and  O4_22 
REMARK    9  A    between atoms: C14_21  and  C15_24 
REMARK   10  A    between atoms: C18_29  and  C19_31 
REMARK   11  A    between atoms: C19_31  and  C20_32 
REMARK   12  A    between atoms: C20_32  and  C21_33 
REMARK   13  A    between atoms: C21_33  and  N4_34 
REMARK   14  A    between atoms: N4_34  and  C22_35 
REMARK   15  A    between atoms: N4_34  and  C24_37 
ROOT
HETATM    1  C5  UNL     1      12.673  21.122  16.066  1.00  0.00     0.050 C 
HETATM    2  C6  UNL     1      13.294  19.731  16.387  1.00  0.00     0.024 C 
HETATM    3  C7  UNL     1      14.759  20.106  16.404  1.00  0.00    -0.012 C 
HETATM    4  C8  UNL     1      15.157  20.405  14.979  1.00  0.00     0.009 C 
HETATM    5  C9  UNL     1      14.305  21.535  14.439  1.00  0.00    -0.012 C 
HETATM    6  C10 UNL     1      14.339  22.731  15.370  1.00  0.00     0.016 C 
HETATM    7  C11 UNL     1      13.592  22.132  16.584  1.00  0.00    -0.015 C 
HETATM    8  C16 UNL     1      14.726  21.335  17.281  1.00  0.00     0.016 C 
HETATM    9  C17 UNL     1      12.840  21.176  14.528  1.00  0.00     0.024 C 
ENDROOT
BRANCH   1  10
HETATM   10  C4  UNL     1      11.268  21.132  16.444  1.00  0.00     0.233 C 
HETATM   11  N1  UNL     1      10.625  19.955  16.820  1.00  0.00    -0.309 N 
HETATM   12  C3  UNL     1      10.404  19.409  17.931  1.00  0.00     0.135 C 
ATOM     13  H1  UNL     1      10.257  19.426  16.029  1.00  0.00     0.170 HD
HETATM   14  O2  UNL     1      10.624  22.206  16.438  1.00  0.00    -0.272 OA
BRANCH  12  15
HETATM   15  O1  UNL     1       9.696  18.178  17.863  1.00  0.00    -0.338 OA
BRANCH  15  16
HETATM   16  C2  UNL     1       9.797  17.447  16.630  1.00  0.00     0.172 C 
HETATM   17  C1  UNL     1       8.645  16.448  16.674  1.00  0.00     0.034 C 
ENDBRANCH  15  16
ENDBRANCH  12  15
BRANCH  12  18
HETATM   18  C18 UNL     1      10.772  19.863  19.282  1.00  0.00     0.133 C 
HETATM   19  S1  UNL     1       9.883  21.392  19.755  1.00  0.00    -0.084 SA
BRANCH  18  20
HETATM   20  C19 UNL     1      10.294  18.779  20.288  1.00  0.00     0.029 C 
BRANCH  20  21
HETATM   21  C20 UNL     1       9.274  19.367  21.197  1.00  0.00     0.046 C 
BRANCH  21  22
HETATM   22  C21 UNL     1       8.018  18.595  21.388  1.00  0.00     0.063 C 
BRANCH  22  23
HETATM   23  N4  UNL     1       7.748  17.435  20.658  1.00  0.00    -0.375 N 
BRANCH  23  24
HETATM   24  C22 UNL     1       7.639  16.210  21.333  1.00  0.00     0.058 C 
HETATM   25  C23 UNL     1       7.232  16.368  22.796  1.00  0.00     0.055 C 
ENDBRANCH  23  24
BRANCH  23  26
HETATM   26  C24 UNL     1       6.750  17.600  19.645  1.00  0.00     0.122 C 
HETATM   27  C25 UNL     1       5.733  18.654  20.047  1.00  0.00     0.027 C 
ENDBRANCH  23  26
ENDBRANCH  22  23
ENDBRANCH  21  22
ENDBRANCH  20  21
ENDBRANCH  18  20
ENDBRANCH  12  18
ENDBRANCH   1  10
BRANCH   7  28
HETATM   28  C12 UNL     1      13.153  23.163  17.519  1.00  0.00     0.113 C 
BRANCH  28  29
HETATM   29  C13 UNL     1      13.702  23.173  18.892  1.00  0.00     0.224 C 
HETATM   30  O3  UNL     1      13.414  22.268  19.673  1.00  0.00    -0.273 OA
HETATM   31  N2  UNL     1      14.542  24.236  19.244  1.00  0.00    -0.303 N 
ATOM     32  H2  UNL     1      14.702  24.922  18.506  1.00  0.00     0.171 HD
BRANCH  31  33
HETATM   33  C14 UNL     1      15.193  24.502  20.443  1.00  0.00     0.209 C 
BRANCH  33  34
HETATM   34  O4  UNL     1      14.612  24.039  21.534  1.00  0.00    -0.342 OA
ATOM     35  H4  UNL     1      14.551  24.644  22.264  1.00  0.00     0.219 HD
ENDBRANCH  33  34
BRANCH  33  36
HETATM   36  C15 UNL     1      16.407  25.204  20.723  1.00  0.00     0.305 C 
HETATM   37  N3  UNL     1      16.374  26.490  21.422  1.00  0.00    -0.054 NA
HETATM   38  O5  UNL     1      17.570  24.851  20.436  1.00  0.00    -0.267 OA
ENDBRANCH  33  36
ENDBRANCH  31  33
ENDBRANCH  28  29
ENDBRANCH   7  28
TORSDOF 15
ENDMDL
MODEL 5
REMARK VINA RESULT: -7.527558626      3.097      9.294
REMARK  15 active torsions:
REMARK  status: ('A' for Active; 'I' for Inactive)
REMARK    1  A    between atoms: C2_2  and  O1_3 
REMARK    2  A    between atoms: O1_3  and  C3_4 
REMARK    3  A    between atoms: C3_4  and  C18_29 
REMARK       I    between atoms: N1_5  and  C4_7 
REMARK    4  A    between atoms: C4_7  and  C5_9 
REMARK    5  A    between atoms: C11_15  and  C12_16 
REMARK    6  A    between atoms: C12_16  and  C13_17 
REMARK       I    between atoms: C13_17  and  N2_19 
REMARK    7  A    between atoms: N2_19  and  C14_21 
REMARK    8  A    between atoms: C14_21  and  O4_22 
REMARK    9  A    between atoms: C14_21  and  C15_24 
REMARK   10  A    between atoms: C18_29  and  C19_31 
REMARK   11  A    between atoms: C19_31  and  C20_32 
REMARK   12  A    between atoms: C20_32  and  C21_33 
REMARK   13  A    between atoms: C21_33  and  N4_34 
REMARK   14  A    between atoms: N4_34  and  C22_35 
REMARK   15  A    between atoms: N4_34  and  C24_37 
ROOT
HETATM    1  C5  UNL     1      11.084  19.450  16.935  1.00  0.00     0.050 C 
HETATM    2  C6  UNL     1      11.393  18.254  17.883  1.00  0.00     0.024 C 
HETATM    3  C7  UNL     1      10.155  18.292  18.750  1.00  0.00    -0.012 C 
HETATM    4  C8  UNL     1      10.255  19.527  19.612  1.00  0.00     0.009 C 
HETATM    5  C9  UNL     1      10.348  20.756  18.733  1.00  0.00    -0.012 C 
HETATM    6  C10 UNL     1       9.223  20.782  17.717  1.00  0.00     0.016 C 
HETATM    7  C11 UNL     1       9.630  19.567  16.853  1.00  0.00    -0.015 C 
HETATM    8  C16 UNL     1       9.077  18.389  17.697  1.00  0.00     0.016 C 
HETATM    9  C17 UNL     1      11.537  20.647  17.805  1.00  0.00     0.024 C 
ENDROOT
BRANCH   1  10
HETATM   10  C4  UNL     1      11.890  19.341  15.728  1.00  0.00     0.233 C 
HETATM   11  N1  UNL     1      12.333  20.482  15.064  1.00  0.00    -0.309 N 
HETATM   12  C3  UNL     1      13.397  21.151  15.113  1.00  0.00     0.135 C 
ATOM     13  H1  UNL     1      11.652  20.852  14.400  1.00  0.00     0.170 HD
HETATM   14  O2  UNL     1      12.196  18.213  15.278  1.00  0.00    -0.272 OA
BRANCH  12  15
HETATM   15  O1  UNL     1      13.436  22.277  14.244  1.00  0.00    -0.338 OA
BRANCH  15  16
HETATM   16  C2  UNL     1      13.918  22.042  12.911  1.00  0.00     0.172 C 
HETATM   17  C1  UNL     1      14.943  23.146  12.667  1.00  0.00     0.034 C 
ENDBRANCH  15  16
ENDBRANCH  12  15
BRANCH  12  18
HETATM   18  C18 UNL     1      14.597  20.934  15.936  1.00  0.00     0.133 C 
HETATM   19  S1  UNL     1      15.973  20.220  14.962  1.00  0.00    -0.084 SA
BRANCH  18  20
HETATM   20  C19 UNL     1      15.103  22.327  16.405  1.00  0.00     0.029 C 
BRANCH  20  21
HETATM   21  C20 UNL     1      14.887  22.461  17.871  1.00  0.00     0.046 C 
BRANCH  21  22
HETATM   22  C21 UNL     1      14.238  23.712  18.343  1.00  0.00     0.063 C 
BRANCH  22  23
HETATM   23  N4  UNL     1      14.943  24.681  19.063  1.00  0.00    -0.375 N 
BRANCH  23  24
HETATM   24  C22 UNL     1      14.409  25.163  20.268  1.00  0.00     0.058 C 
HETATM   25  C23 UNL     1      14.748  24.280  21.467  1.00  0.00     0.055 C 
ENDBRANCH  23  24
BRANCH  23  26
HETATM   26  C24 UNL     1      16.353  24.444  19.137  1.00  0.00     0.122 C 
HETATM   27  C25 UNL     1      17.129  25.748  19.076  1.00  0.00     0.027 C 
ENDBRANCH  23  26
ENDBRANCH  22  23
ENDBRANCH  21  22
ENDBRANCH  20  21
ENDBRANCH  18  20
ENDBRANCH  12  18
ENDBRANCH   1  10
BRANCH   7  28
HETATM   28  C12 UNL     1       8.929  19.546  15.573  1.00  0.00     0.113 C 
BRANCH  28  29
HETATM   29  C13 UNL     1       8.445  18.256  15.036  1.00  0.00     0.224 C 
HETATM   30  O3  UNL     1       7.240  18.072  14.881  1.00  0.00    -0.273 OA
HETATM   31  N2  UNL     1       9.405  17.286  14.721  1.00  0.00    -0.303 N 
ATOM     32  H2  UNL     1      10.370  17.563  14.896  1.00  0.00     0.171 HD
BRANCH  31  33
HETATM   33  C14 UNL     1       9.245  16.005  14.206  1.00  0.00     0.209 C 
BRANCH  33  34
HETATM   34  O4  UNL     1      10.143  15.621  13.318  1.00  0.00    -0.342 OA
ATOM     35  H4  UNL     1      10.086  14.717  13.031  1.00  0.00     0.219 HD
ENDBRANCH  33  34
BRANCH  33  36
HETATM   36  C15 UNL     1       8.263  14.999  14.466  1.00  0.00     0.305 C 
HETATM   37  N3  UNL     1       7.438  14.473  13.376  1.00  0.00    -0.054 NA
HETATM   38  O5  UNL     1       7.991  14.470  15.563  1.00  0.00    -0.267 OA
ENDBRANCH  33  36
ENDBRANCH  31  33
ENDBRANCH  28  29
ENDBRANCH   7  28
TORSDOF 15
ENDMDL
