MODEL 1
REMARK VINA RESULT: -6.574943477      0.000      0.000
REMARK  0 active torsions:
REMARK  status: ('A' for Active; 'I' for Inactive)
ROOT
HETATM    1  C1  UNL     1       1.568  31.281  16.980  1.00  0.00     0.018 C 
HETATM    2  C2  UNL     1       2.349  30.643  16.311  1.00  0.00    -0.078 C 
HETATM    3  C3  UNL     1       3.260  29.874  15.506  1.00  0.00     0.017 A 
HETATM    4  C4  UNL     1       3.703  30.335  14.281  1.00  0.00     0.021 A 
HETATM    5  C5  UNL     1       4.578  29.605  13.499  1.00  0.00     0.014 A 
HETATM    6  C6  UNL     1       5.049  28.376  13.914  1.00  0.00    -0.023 A 
HETATM    7  C7  UNL     1       5.919  27.604  13.182  1.00  0.00     0.029 A 
HETATM    8  C8  UNL     1       6.383  26.373  13.611  1.00  0.00     0.088 A 
HETATM    9  N1  UNL     1       5.944  25.936  14.803  1.00  0.00    -0.374 N 
ATOM     10  H1  UNL     1       6.264  25.032  15.153  1.00  0.00     0.164 HD
HETATM   11  C9  UNL     1       5.080  26.676  15.555  1.00  0.00     0.100 A 
HETATM   12  C10 UNL     1       4.618  27.903  15.131  1.00  0.00    -0.009 A 
HETATM   13  C11 UNL     1       3.736  28.641  15.915  1.00  0.00     0.034 A 
ENDROOT
TORSDOF 0
ENDMDL
MODEL 2
REMARK VINA RESULT: -6.511265880      2.416      3.753
REMARK  0 active torsions:
REMARK  status: ('A' for Active; 'I' for Inactive)
ROOT
HETATM    1  C1  UNL     1       1.281  25.666  19.015  1.00  0.00     0.018 C 
HETATM    2  C2  UNL     1       2.100  25.763  18.129  1.00  0.00    -0.078 C 
HETATM    3  C3  UNL     1       3.089  25.880  17.091  1.00  0.00     0.017 A 
HETATM    4  C4  UNL     1       3.682  24.763  16.534  1.00  0.00     0.021 A 
HETATM    5  C5  UNL     1       4.633  24.862  15.536  1.00  0.00     0.014 A 
HETATM    6  C6  UNL     1       5.032  26.092  15.051  1.00  0.00    -0.023 A 
HETATM    7  C7  UNL     1       5.971  26.255  14.062  1.00  0.00     0.029 A 
HETATM    8  C8  UNL     1       6.362  27.495  13.587  1.00  0.00     0.088 A 
HETATM    9  N1  UNL     1       5.777  28.572  14.137  1.00  0.00    -0.374 N 
ATOM     10  H1  UNL     1       6.039  29.504  13.812  1.00  0.00     0.164 HD
HETATM   11  C9  UNL     1       4.841  28.446  15.120  1.00  0.00     0.100 A 
HETATM   12  C10 UNL     1       4.450  27.213  15.596  1.00  0.00    -0.009 A 
HETATM   13  C11 UNL     1       3.494  27.108  16.600  1.00  0.00     0.034 A 
ENDROOT
TORSDOF 0
ENDMDL
MODEL 3
REMARK VINA RESULT: -6.476541812      2.166      4.212
REMARK  0 active torsions:
REMARK  status: ('A' for Active; 'I' for Inactive)
ROOT
HETATM    1  C1  UNL     1       4.040  23.820  16.949  1.00  0.00     0.018 C 
HETATM    2  C2  UNL     1       4.332  24.735  16.213  1.00  0.00    -0.078 C 
HETATM    3  C3  UNL     1       4.690  25.833  15.354  1.00  0.00     0.017 A 
HETATM    4  C4  UNL     1       5.825  25.791  14.569  1.00  0.00     0.021 A 
HETATM    5  C5  UNL     1       6.180  26.839  13.740  1.00  0.00     0.014 A 
HETATM    6  C6  UNL     1       5.406  27.979  13.663  1.00  0.00    -0.023 A 
HETATM    7  C7  UNL     1       5.705  29.053  12.860  1.00  0.00     0.029 A 
HETATM    8  C8  UNL     1       4.920  30.191  12.794  1.00  0.00     0.088 A 
HETATM    9  N1  UNL     1       3.818  30.219  13.564  1.00  0.00    -0.374 N 
ATOM     10  H1  UNL     1       3.214  31.041  13.542  1.00  0.00     0.164 HD
HETATM   11  C9  UNL     1       3.492  29.171  14.372  1.00  0.00     0.100 A 
HETATM   12  C10 UNL     1       4.272  28.036  14.440  1.00  0.00    -0.009 A 
HETATM   13  C11 UNL     1       3.920  26.979  15.272  1.00  0.00     0.034 A 
ENDROOT
TORSDOF 0
ENDMDL
MODEL 4
REMARK VINA RESULT: -6.421660119      2.980      4.241
REMARK  0 active torsions:
REMARK  status: ('A' for Active; 'I' for Inactive)
ROOT
HETATM    1  C1  UNL     1       4.195  23.743  16.852  1.00  0.00     0.018 C 
HETATM    2  C2  UNL     1       4.407  24.709  16.154  1.00  0.00    -0.078 C 
HETATM    3  C3  UNL     1       4.643  25.867  15.334  1.00  0.00     0.017 A 
HETATM    4  C4  UNL     1       5.610  26.797  15.666  1.00  0.00     0.021 A 
HETATM    5  C5  UNL     1       5.846  27.914  14.887  1.00  0.00     0.014 A 
HETATM    6  C6  UNL     1       5.120  28.147  13.736  1.00  0.00    -0.023 A 
HETATM    7  C7  UNL     1       5.308  29.237  12.921  1.00  0.00     0.029 A 
HETATM    8  C8  UNL     1       4.571  29.458  11.771  1.00  0.00     0.088 A 
HETATM    9  N1  UNL     1       3.634  28.547  11.460  1.00  0.00    -0.374 N 
ATOM     10  H1  UNL     1       3.071  28.675  10.619  1.00  0.00     0.164 HD
HETATM   11  C9  UNL     1       3.422  27.453  12.247  1.00  0.00     0.100 A 
HETATM   12  C10 UNL     1       4.154  27.230  13.393  1.00  0.00    -0.009 A 
HETATM   13  C11 UNL     1       3.920  26.108  14.180  1.00  0.00     0.034 A 
ENDROOT
TORSDOF 0
ENDMDL
MODEL 5
REMARK VINA RESULT: -6.259164185      2.627      3.969
REMARK  0 active torsions:
REMARK  status: ('A' for Active; 'I' for Inactive)
ROOT
HETATM    1  C1  UNL     1       5.137  29.992  11.996  1.00  0.00     0.018 C 
HETATM    2  C2  UNL     1       5.047  29.032  12.728  1.00  0.00    -0.078 C 
HETATM    3  C3  UNL     1       4.933  27.879  13.581  1.00  0.00     0.017 A 
HETATM    4  C4  UNL     1       6.016  27.058  13.828  1.00  0.00     0.021 A 
HETATM    5  C5  UNL     1       5.920  25.948  14.645  1.00  0.00     0.014 A 
HETATM    6  C6  UNL     1       4.727  25.612  15.253  1.00  0.00    -0.023 A 
HETATM    7  C7  UNL     1       4.568  24.522  16.075  1.00  0.00     0.029 A 
HETATM    8  C8  UNL     1       3.365  24.197  16.677  1.00  0.00     0.088 A 
HETATM    9  N1  UNL     1       2.320  25.003  16.428  1.00  0.00    -0.374 N 
ATOM     10  H1  UNL     1       1.416  24.796  16.854  1.00  0.00     0.164 HD
HETATM   11  C9  UNL     1       2.442  26.093  15.617  1.00  0.00     0.100 A 
HETATM   12  C10 UNL     1       3.639  26.419  15.017  1.00  0.00    -0.009 A 
HETATM   13  C11 UNL     1       3.741  27.536  14.193  1.00  0.00     0.034 A 
ENDROOT
TORSDOF 0
ENDMDL
