MODEL 1
REMARK VINA RESULT: -9.352636403      0.000      0.000
REMARK  15 active torsions:
REMARK  status: ('A' for Active; 'I' for Inactive)
REMARK    1  A    between atoms: N1_1  and  N2_4 
REMARK    2  A    between atoms: C1_6  and  N3_7 
REMARK    3  A    between atoms: C1_6  and  C5_17 
REMARK    4  A    between atoms: N3_7  and  C2_9 
REMARK    5  A    between atoms: C2_9  and  C3_10 
REMARK    6  A    between atoms: C3_10  and  S1_11 
REMARK    7  A    between atoms: S1_11  and  N4_12 
REMARK    8  A    between atoms: C5_17  and  C6_18 
REMARK    9  A    between atoms: C5_17  and  N10_28 
REMARK   10  A    between atoms: C6_18  and  S2_19 
REMARK   11  A    between atoms: S2_19  and  S3_20 
REMARK   12  A    between atoms: S3_20  and  C7_21 
REMARK   13  A    between atoms: C7_21  and  C8_22 
REMARK   14  A    between atoms: C8_22  and  N7_23 
REMARK   15  A    between atoms: N10_28  and  C10_30 
REMARK       I    between atoms: N12_37  and  C14_38 
ROOT
HETATM    1  C5  UNL     1     -17.002 -19.754 -21.753  1.00  0.00     0.162 C 
ENDROOT
BRANCH   1   2
HETATM    2  C1  UNL     1     -16.309 -20.980 -21.146  1.00  0.00     0.115 C 
HETATM    3  N2  UNL     1     -15.339 -21.456 -21.808  1.00  0.00    -0.294 N 
ATOM      4  H2  UNL     1     -15.127 -20.971 -22.681  1.00  0.00     0.187 HD
BRANCH   3   5
HETATM    5  N1  UNL     1     -14.537 -22.521 -21.525  1.00  0.00    -0.344 N 
ATOM      6  H12 UNL     1     -13.558 -22.383 -21.778  1.00  0.00     0.176 HD
ATOM      7  H11 UNL     1     -14.776 -23.418 -21.104  1.00  0.00     0.176 HD
ENDBRANCH   3   5
BRANCH   2   8
HETATM    8  N3  UNL     1     -16.826 -21.438 -19.915  1.00  0.00    -0.376 N 
ATOM      9  H3  UNL     1     -17.518 -22.187 -19.922  1.00  0.00     0.160 HD
BRANCH   8  10
HETATM   10  C2  UNL     1     -16.420 -20.896 -18.673  1.00  0.00     0.133 C 
BRANCH  10  11
HETATM   11  C3  UNL     1     -15.193 -21.554 -18.072  1.00  0.00     0.117 C 
BRANCH  11  12
HETATM   12  S1  UNL     1     -15.732 -22.481 -16.609  1.00  0.00    -0.052 SA
BRANCH  12  13
HETATM   13  N4  UNL     1     -14.730 -22.015 -15.236  1.00  0.00    -0.307 N 
HETATM   14  C4  UNL     1     -13.685 -22.691 -14.853  1.00  0.00     0.206 C 
HETATM   15  N5  UNL     1     -13.000 -22.167 -13.729  1.00  0.00    -0.066 NA
HETATM   16  N6  UNL     1     -13.284 -23.866 -15.529  1.00  0.00    -0.066 NA
ATOM     17  H4  UNL     1     -14.980 -21.174 -14.716  1.00  0.00     0.176 HD
ENDBRANCH  12  13
ENDBRANCH  11  12
ENDBRANCH  10  11
ENDBRANCH   8  10
ENDBRANCH   2   8
ENDBRANCH   1   2
BRANCH   1  18
HETATM   18  C6  UNL     1     -18.458 -20.101 -21.895  1.00  0.00     0.119 C 
BRANCH  18  19
HETATM   19  S2  UNL     1     -19.487 -18.719 -22.274  1.00  0.00    -0.095 SA
BRANCH  19  20
HETATM   20  S3  UNL     1     -19.812 -18.203 -24.224  1.00  0.00    -0.096 SA
BRANCH  20  21
HETATM   21  C7  UNL     1     -20.533 -16.646 -24.613  1.00  0.00     0.105 C 
BRANCH  21  22
HETATM   22  C8  UNL     1     -19.533 -15.597 -24.996  1.00  0.00     0.133 C 
BRANCH  22  23
HETATM   23  N7  UNL     1     -20.071 -14.608 -25.887  1.00  0.00    -0.366 N 
HETATM   24  C9  UNL     1     -20.488 -13.454 -25.543  1.00  0.00     0.196 C 
HETATM   25  N8  UNL     1     -20.480 -12.971 -24.208  1.00  0.00    -0.067 NA
HETATM   26  N9  UNL     1     -20.991 -12.618 -26.604  1.00  0.00    -0.067 NA
ATOM     27  H7  UNL     1     -20.124 -14.849 -26.876  1.00  0.00     0.161 HD
ENDBRANCH  22  23
ENDBRANCH  21  22
ENDBRANCH  20  21
ENDBRANCH  19  20
ENDBRANCH  18  19
ENDBRANCH   1  18
BRANCH   1  28
HETATM   28  N10 UNL     1     -16.461 -19.589 -23.065  1.00  0.00    -0.362 N 
ATOM     29  H10 UNL     1     -16.286 -20.455 -23.575  1.00  0.00     0.162 HD
BRANCH  28  30
HETATM   30  C10 UNL     1     -16.167 -18.528 -23.687  1.00  0.00     0.128 A 
HETATM   31  C11 UNL     1     -15.780 -17.397 -23.019  1.00  0.00     0.056 A 
HETATM   32  C12 UNL     1     -15.440 -16.227 -23.688  1.00  0.00     0.079 A 
HETATM   33  C13 UNL     1     -15.507 -16.243 -25.064  1.00  0.00     0.260 A 
HETATM   34  O1  UNL     1     -15.204 -15.193 -25.699  1.00  0.00    -0.267 OA
HETATM   35  N11 UNL     1     -15.887 -17.356 -25.692  1.00  0.00    -0.254 N 
HETATM   36  N12 UNL     1     -16.211 -18.476 -25.021  1.00  0.00    -0.189 N 
ATOM     37  H11 UNL     1     -15.934 -17.358 -26.711  1.00  0.00     0.191 HD
HETATM   38  C14 UNL     1     -16.598 -19.612 -25.760  1.00  0.00     0.355 C 
HETATM   39  N13 UNL     1     -16.954 -20.832 -25.136  1.00  0.00    -0.038 NA
HETATM   40  O2  UNL     1     -16.629 -19.538 -27.042  1.00  0.00    -0.249 OA
ENDBRANCH  28  30
ENDBRANCH   1  28
TORSDOF 15
ENDMDL
MODEL 2
REMARK VINA RESULT: -9.287624639      2.462      4.323
REMARK  15 active torsions:
REMARK  status: ('A' for Active; 'I' for Inactive)
REMARK    1  A    between atoms: N1_1  and  N2_4 
REMARK    2  A    between atoms: C1_6  and  N3_7 
REMARK    3  A    between atoms: C1_6  and  C5_17 
REMARK    4  A    between atoms: N3_7  and  C2_9 
REMARK    5  A    between atoms: C2_9  and  C3_10 
REMARK    6  A    between atoms: C3_10  and  S1_11 
REMARK    7  A    between atoms: S1_11  and  N4_12 
REMARK    8  A    between atoms: C5_17  and  C6_18 
REMARK    9  A    between atoms: C5_17  and  N10_28 
REMARK   10  A    between atoms: C6_18  and  S2_19 
REMARK   11  A    between atoms: S2_19  and  S3_20 
REMARK   12  A    between atoms: S3_20  and  C7_21 
REMARK   13  A    between atoms: C7_21  and  C8_22 
REMARK   14  A    between atoms: C8_22  and  N7_23 
REMARK   15  A    between atoms: N10_28  and  C10_30 
REMARK       I    between atoms: N12_37  and  C14_38 
ROOT
HETATM    1  C5  UNL     1     -17.290 -19.594 -21.823  1.00  0.00     0.162 C 
ENDROOT
BRANCH   1   2
HETATM    2  C1  UNL     1     -16.463 -20.437 -20.844  1.00  0.00     0.115 C 
HETATM    3  N2  UNL     1     -16.918 -20.530 -19.666  1.00  0.00    -0.294 N 
ATOM      4  H2  UNL     1     -17.789 -20.026 -19.494  1.00  0.00     0.187 HD
BRANCH   3   5
HETATM    5  N1  UNL     1     -16.415 -21.204 -18.594  1.00  0.00    -0.344 N 
ATOM      6  H12 UNL     1     -15.740 -20.671 -18.046  1.00  0.00     0.176 HD
ATOM      7  H11 UNL     1     -16.618 -22.150 -18.270  1.00  0.00     0.176 HD
ENDBRANCH   3   5
BRANCH   2   8
HETATM    8  N3  UNL     1     -15.288 -21.020 -21.368  1.00  0.00    -0.376 N 
ATOM      9  H3  UNL     1     -14.634 -20.429 -21.882  1.00  0.00     0.160 HD
BRANCH   8  10
HETATM   10  C2  UNL     1     -14.985 -22.393 -21.208  1.00  0.00     0.133 C 
BRANCH  10  11
HETATM   11  C3  UNL     1     -14.596 -23.103 -22.490  1.00  0.00     0.117 C 
BRANCH  11  12
HETATM   12  S1  UNL     1     -13.096 -22.302 -23.123  1.00  0.00    -0.052 SA
BRANCH  12  13
HETATM   13  N4  UNL     1     -13.530 -21.277 -24.490  1.00  0.00    -0.307 N 
HETATM   14  C4  UNL     1     -12.798 -21.170 -25.563  1.00  0.00     0.206 C 
HETATM   15  N5  UNL     1     -13.305 -20.299 -26.559  1.00  0.00    -0.066 NA
HETATM   16  N6  UNL     1     -11.586 -21.884 -25.697  1.00  0.00    -0.066 NA
ATOM     17  H4  UNL     1     -14.396 -20.741 -24.438  1.00  0.00     0.176 HD
ENDBRANCH  12  13
ENDBRANCH  11  12
ENDBRANCH  10  11
ENDBRANCH   8  10
ENDBRANCH   2   8
ENDBRANCH   1   2
BRANCH   1  18
HETATM   18  C6  UNL     1     -18.523 -20.390 -22.151  1.00  0.00     0.119 C 
BRANCH  18  19
HETATM   19  S2  UNL     1     -19.771 -19.460 -22.982  1.00  0.00    -0.095 SA
BRANCH  19  20
HETATM   20  S3  UNL     1     -19.560 -17.438 -23.184  1.00  0.00    -0.096 SA
BRANCH  20  21
HETATM   21  C7  UNL     1     -19.498 -16.717 -24.788  1.00  0.00     0.105 C 
BRANCH  21  22
HETATM   22  C8  UNL     1     -18.979 -15.311 -24.797  1.00  0.00     0.133 C 
BRANCH  22  23
HETATM   23  N7  UNL     1     -19.674 -14.462 -25.723  1.00  0.00    -0.366 N 
HETATM   24  C9  UNL     1     -20.336 -13.419 -25.413  1.00  0.00     0.196 C 
HETATM   25  N8  UNL     1     -20.484 -12.935 -24.086  1.00  0.00    -0.067 NA
HETATM   26  N9  UNL     1     -20.959 -12.713 -26.506  1.00  0.00    -0.067 NA
ATOM     27  H7  UNL     1     -19.635 -14.716 -26.710  1.00  0.00     0.161 HD
ENDBRANCH  22  23
ENDBRANCH  21  22
ENDBRANCH  20  21
ENDBRANCH  19  20
ENDBRANCH  18  19
ENDBRANCH   1  18
BRANCH   1  28
HETATM   28  N10 UNL     1     -16.513 -19.478 -23.016  1.00  0.00    -0.362 N 
ATOM     29  H10 UNL     1     -16.165 -20.358 -23.396  1.00  0.00     0.162 HD
BRANCH  28  30
HETATM   30  C10 UNL     1     -16.193 -18.444 -23.671  1.00  0.00     0.128 A 
HETATM   31  C11 UNL     1     -15.818 -17.290 -23.037  1.00  0.00     0.056 A 
HETATM   32  C12 UNL     1     -15.450 -16.150 -23.742  1.00  0.00     0.079 A 
HETATM   33  C13 UNL     1     -15.477 -16.220 -25.118  1.00  0.00     0.260 A 
HETATM   34  O1  UNL     1     -15.148 -15.198 -25.784  1.00  0.00    -0.267 OA
HETATM   35  N11 UNL     1     -15.846 -17.355 -25.711  1.00  0.00    -0.254 N 
HETATM   36  N12 UNL     1     -16.197 -18.445 -25.006  1.00  0.00    -0.189 N 
ATOM     37  H11 UNL     1     -15.864 -17.398 -26.731  1.00  0.00     0.191 HD
HETATM   38  C14 UNL     1     -16.571 -19.607 -25.710  1.00  0.00     0.355 C 
HETATM   39  N13 UNL     1     -16.954 -20.800 -25.050  1.00  0.00    -0.038 NA
HETATM   40  O2  UNL     1     -16.564 -19.585 -26.995  1.00  0.00    -0.249 OA
ENDBRANCH  28  30
ENDBRANCH   1  28
TORSDOF 15
ENDMDL
MODEL 3
REMARK VINA RESULT: -8.731672603      3.447      9.362
REMARK  15 active torsions:
REMARK  status: ('A' for Active; 'I' for Inactive)
REMARK    1  A    between atoms: N1_1  and  N2_4 
REMARK    2  A    between atoms: C1_6  and  N3_7 
REMARK    3  A    between atoms: C1_6  and  C5_17 
REMARK    4  A    between atoms: N3_7  and  C2_9 
REMARK    5  A    between atoms: C2_9  and  C3_10 
REMARK    6  A    between atoms: C3_10  and  S1_11 
REMARK    7  A    between atoms: S1_11  and  N4_12 
REMARK    8  A    between atoms: C5_17  and  C6_18 
REMARK    9  A    between atoms: C5_17  and  N10_28 
REMARK   10  A    between atoms: C6_18  and  S2_19 
REMARK   11  A    between atoms: S2_19  and  S3_20 
REMARK   12  A    between atoms: S3_20  and  C7_21 
REMARK   13  A    between atoms: C7_21  and  C8_22 
REMARK   14  A    between atoms: C8_22  and  N7_23 
REMARK   15  A    between atoms: N10_28  and  C10_30 
REMARK       I    between atoms: N12_37  and  C14_38 
ROOT
HETATM    1  C5  UNL     1     -15.603 -21.132 -20.938  1.00  0.00     0.162 C 
ENDROOT
BRANCH   1   2
HETATM    2  C1  UNL     1     -15.011 -22.099 -21.972  1.00  0.00     0.115 C 
HETATM    3  N2  UNL     1     -14.481 -23.152 -21.509  1.00  0.00    -0.294 N 
ATOM      4  H2  UNL     1     -14.502 -23.241 -20.493  1.00  0.00     0.187 HD
BRANCH   3   5
HETATM    5  N1  UNL     1     -13.887 -24.185 -22.171  1.00  0.00    -0.344 N 
ATOM      6  H12 UNL     1     -14.529 -24.744 -22.732  1.00  0.00     0.176 HD
ATOM      7  H11 UNL     1     -12.907 -24.470 -22.181  1.00  0.00     0.176 HD
ENDBRANCH   3   5
BRANCH   2   8
HETATM    8  N3  UNL     1     -15.128 -21.708 -23.323  1.00  0.00    -0.376 N 
ATOM      9  H3  UNL     1     -15.901 -22.077 -23.876  1.00  0.00     0.160 HD
BRANCH   8  10
HETATM   10  C2  UNL     1     -14.211 -20.822 -23.939  1.00  0.00     0.133 C 
BRANCH  10  11
HETATM   11  C3  UNL     1     -12.973 -21.492 -24.502  1.00  0.00     0.117 C 
BRANCH  11  12
HETATM   12  S1  UNL     1     -12.736 -20.869 -26.190  1.00  0.00    -0.052 SA
BRANCH  12  13
HETATM   13  N4  UNL     1     -14.274 -20.945 -27.048  1.00  0.00    -0.307 N 
HETATM   14  C4  UNL     1     -14.966 -19.888 -27.367  1.00  0.00     0.206 C 
HETATM   15  N5  UNL     1     -16.179 -20.141 -28.055  1.00  0.00    -0.066 NA
HETATM   16  N6  UNL     1     -14.517 -18.590 -27.035  1.00  0.00    -0.066 NA
ATOM     17  H4  UNL     1     -14.640 -21.861 -27.308  1.00  0.00     0.176 HD
ENDBRANCH  12  13
ENDBRANCH  11  12
ENDBRANCH  10  11
ENDBRANCH   8  10
ENDBRANCH   2   8
ENDBRANCH   1   2
BRANCH   1  18
HETATM   18  C6  UNL     1     -16.052 -21.964 -19.769  1.00  0.00     0.119 C 
BRANCH  18  19
HETATM   19  S2  UNL     1     -15.867 -21.161 -18.209  1.00  0.00    -0.095 SA
BRANCH  19  20
HETATM   20  S3  UNL     1     -15.328 -22.251 -16.568  1.00  0.00    -0.096 SA
BRANCH  20  21
HETATM   21  C7  UNL     1     -14.148 -21.606 -15.433  1.00  0.00     0.105 C 
BRANCH  21  22
HETATM   22  C8  UNL     1     -13.482 -22.655 -14.594  1.00  0.00     0.133 C 
BRANCH  22  23
HETATM   23  N7  UNL     1     -13.552 -23.966 -15.176  1.00  0.00    -0.366 N 
HETATM   24  C9  UNL     1     -12.718 -24.907 -14.973  1.00  0.00     0.196 C 
HETATM   25  N8  UNL     1     -11.581 -24.796 -14.130  1.00  0.00    -0.067 NA
HETATM   26  N9  UNL     1     -12.980 -26.147 -15.662  1.00  0.00    -0.067 NA
ATOM     27  H7  UNL     1     -14.333 -24.159 -15.802  1.00  0.00     0.161 HD
ENDBRANCH  22  23
ENDBRANCH  21  22
ENDBRANCH  20  21
ENDBRANCH  19  20
ENDBRANCH  18  19
ENDBRANCH   1  18
BRANCH   1  28
HETATM   28  N10 UNL     1     -16.765 -20.557 -21.539  1.00  0.00    -0.362 N 
ATOM     29  H10 UNL     1     -17.497 -21.221 -21.793  1.00  0.00     0.162 HD
BRANCH  28  30
HETATM   30  C10 UNL     1     -17.020 -19.347 -21.802  1.00  0.00     0.128 A 
HETATM   31  C11 UNL     1     -16.047 -18.501 -22.266  1.00  0.00     0.056 A 
HETATM   32  C12 UNL     1     -16.314 -17.172 -22.574  1.00  0.00     0.079 A 
HETATM   33  C13 UNL     1     -17.606 -16.728 -22.392  1.00  0.00     0.260 A 
HETATM   34  O1  UNL     1     -17.876 -15.523 -22.663  1.00  0.00    -0.267 OA
HETATM   35  N11 UNL     1     -18.534 -17.570 -21.939  1.00  0.00    -0.254 N 
HETATM   36  N12 UNL     1     -18.251 -18.852 -21.649  1.00  0.00    -0.189 N 
ATOM     37  H11 UNL     1     -19.487 -17.231 -21.807  1.00  0.00     0.191 HD
HETATM   38  C14 UNL     1     -19.290 -19.679 -21.179  1.00  0.00     0.355 C 
HETATM   39  N13 UNL     1     -19.082 -21.041 -20.850  1.00  0.00    -0.038 NA
HETATM   40  O2  UNL     1     -20.467 -19.181 -21.043  1.00  0.00    -0.249 OA
ENDBRANCH  28  30
ENDBRANCH   1  28
TORSDOF 15
ENDMDL
MODEL 4
REMARK VINA RESULT: -8.690531124      3.315      6.236
REMARK  15 active torsions:
REMARK  status: ('A' for Active; 'I' for Inactive)
REMARK    1  A    between atoms: N1_1  and  N2_4 
REMARK    2  A    between atoms: C1_6  and  N3_7 
REMARK    3  A    between atoms: C1_6  and  C5_17 
REMARK    4  A    between atoms: N3_7  and  C2_9 
REMARK    5  A    between atoms: C2_9  and  C3_10 
REMARK    6  A    between atoms: C3_10  and  S1_11 
REMARK    7  A    between atoms: S1_11  and  N4_12 
REMARK    8  A    between atoms: C5_17  and  C6_18 
REMARK    9  A    between atoms: C5_17  and  N10_28 
REMARK   10  A    between atoms: C6_18  and  S2_19 
REMARK   11  A    between atoms: S2_19  and  S3_20 
REMARK   12  A    between atoms: S3_20  and  C7_21 
REMARK   13  A    between atoms: C7_21  and  C8_22 
REMARK   14  A    between atoms: C8_22  and  N7_23 
REMARK   15  A    between atoms: N10_28  and  C10_30 
REMARK       I    between atoms: N12_37  and  C14_38 
ROOT
HETATM    1  C5  UNL     1     -15.501 -20.500 -22.107  1.00  0.00     0.162 C 
ENDROOT
BRANCH   1   2
HETATM    2  C1  UNL     1     -14.742 -21.694 -22.701  1.00  0.00     0.115 C 
HETATM    3  N2  UNL     1     -14.516 -22.659 -21.911  1.00  0.00    -0.294 N 
ATOM      4  H2  UNL     1     -14.862 -22.533 -20.959  1.00  0.00     0.187 HD
BRANCH   3   5
HETATM    5  N1  UNL     1     -13.879 -23.840 -22.147  1.00  0.00    -0.344 N 
ATOM      6  H12 UNL     1     -13.135 -23.780 -22.843  1.00  0.00     0.176 HD
ATOM      7  H11 UNL     1     -14.040 -24.757 -21.732  1.00  0.00     0.176 HD
ENDBRANCH   3   5
BRANCH   2   8
HETATM    8  N3  UNL     1     -14.384 -21.586 -24.062  1.00  0.00    -0.376 N 
ATOM      9  H3  UNL     1     -15.068 -21.848 -24.772  1.00  0.00     0.160 HD
BRANCH   8  10
HETATM   10  C2  UNL     1     -13.113 -21.125 -24.479  1.00  0.00     0.133 C 
BRANCH  10  11
HETATM   11  C3  UNL     1     -13.145 -20.171 -25.656  1.00  0.00     0.117 C 
BRANCH  11  12
HETATM   12  S1  UNL     1     -13.139 -21.172 -27.170  1.00  0.00    -0.052 SA
BRANCH  12  13
HETATM   13  N4  UNL     1     -14.685 -20.972 -27.993  1.00  0.00    -0.307 N 
HETATM   14  C4  UNL     1     -14.942 -21.482 -29.163  1.00  0.00     0.206 C 
HETATM   15  N5  UNL     1     -16.238 -21.218 -29.670  1.00  0.00    -0.066 NA
HETATM   16  N6  UNL     1     -13.975 -22.243 -29.859  1.00  0.00    -0.066 NA
ATOM     17  H4  UNL     1     -15.414 -20.430 -27.530  1.00  0.00     0.176 HD
ENDBRANCH  12  13
ENDBRANCH  11  12
ENDBRANCH  10  11
ENDBRANCH   8  10
ENDBRANCH   2   8
ENDBRANCH   1   2
BRANCH   1  18
HETATM   18  C6  UNL     1     -16.517 -21.060 -21.151  1.00  0.00     0.119 C 
BRANCH  18  19
HETATM   19  S2  UNL     1     -17.853 -19.961 -20.806  1.00  0.00    -0.095 SA
BRANCH  19  20
HETATM   20  S3  UNL     1     -19.688 -20.307 -21.637  1.00  0.00    -0.096 SA
BRANCH  20  21
HETATM   21  C7  UNL     1     -19.863 -20.369 -23.387  1.00  0.00     0.105 C 
BRANCH  21  22
HETATM   22  C8  UNL     1     -19.864 -19.019 -24.040  1.00  0.00     0.133 C 
BRANCH  22  23
HETATM   23  N7  UNL     1     -19.511 -17.959 -23.138  1.00  0.00    -0.366 N 
HETATM   24  C9  UNL     1     -19.202 -16.772 -23.481  1.00  0.00     0.196 C 
HETATM   25  N8  UNL     1     -19.161 -16.316 -24.825  1.00  0.00    -0.067 NA
HETATM   26  N9  UNL     1     -18.880 -15.864 -22.408  1.00  0.00    -0.067 NA
ATOM     27  H7  UNL     1     -19.507 -18.175 -22.141  1.00  0.00     0.161 HD
ENDBRANCH  22  23
ENDBRANCH  21  22
ENDBRANCH  20  21
ENDBRANCH  19  20
ENDBRANCH  18  19
ENDBRANCH   1  18
BRANCH   1  28
HETATM   28  N10 UNL     1     -16.206 -19.889 -23.189  1.00  0.00    -0.362 N 
ATOM     29  H10 UNL     1     -16.948 -20.457 -23.600  1.00  0.00     0.162 HD
BRANCH  28  30
HETATM   30  C10 UNL     1     -16.047 -18.749 -23.712  1.00  0.00     0.128 A 
HETATM   31  C11 UNL     1     -15.608 -17.683 -22.972  1.00  0.00     0.056 A 
HETATM   32  C12 UNL     1     -15.414 -16.427 -23.535  1.00  0.00     0.079 A 
HETATM   33  C13 UNL     1     -15.683 -16.288 -24.879  1.00  0.00     0.260 A 
HETATM   34  O1  UNL     1     -15.515 -15.157 -25.417  1.00  0.00    -0.267 OA
HETATM   35  N11 UNL     1     -16.109 -17.340 -25.577  1.00  0.00    -0.254 N 
HETATM   36  N12 UNL     1     -16.288 -18.546 -25.010  1.00  0.00    -0.189 N 
ATOM     37  H11 UNL     1     -16.305 -17.227 -26.572  1.00  0.00     0.191 HD
HETATM   38  C14 UNL     1     -16.737 -19.608 -25.819  1.00  0.00     0.355 C 
HETATM   39  N13 UNL     1     -16.953 -20.910 -25.306  1.00  0.00    -0.038 NA
HETATM   40  O2  UNL     1     -16.959 -19.389 -27.066  1.00  0.00    -0.249 OA
ENDBRANCH  28  30
ENDBRANCH   1  28
TORSDOF 15
ENDMDL
MODEL 5
REMARK VINA RESULT: -8.658061311      3.843      5.972
REMARK  15 active torsions:
REMARK  status: ('A' for Active; 'I' for Inactive)
REMARK    1  A    between atoms: N1_1  and  N2_4 
REMARK    2  A    between atoms: C1_6  and  N3_7 
REMARK    3  A    between atoms: C1_6  and  C5_17 
REMARK    4  A    between atoms: N3_7  and  C2_9 
REMARK    5  A    between atoms: C2_9  and  C3_10 
REMARK    6  A    between atoms: C3_10  and  S1_11 
REMARK    7  A    between atoms: S1_11  and  N4_12 
REMARK    8  A    between atoms: C5_17  and  C6_18 
REMARK    9  A    between atoms: C5_17  and  N10_28 
REMARK   10  A    between atoms: C6_18  and  S2_19 
REMARK   11  A    between atoms: S2_19  and  S3_20 
REMARK   12  A    between atoms: S3_20  and  C7_21 
REMARK   13  A    between atoms: C7_21  and  C8_22 
REMARK   14  A    between atoms: C8_22  and  N7_23 
REMARK   15  A    between atoms: N10_28  and  C10_30 
REMARK       I    between atoms: N12_37  and  C14_38 
ROOT
HETATM    1  C5  UNL     1     -15.462 -20.509 -22.130  1.00  0.00     0.162 C 
ENDROOT
BRANCH   1   2
HETATM    2  C1  UNL     1     -14.656 -21.671 -22.723  1.00  0.00     0.115 C 
HETATM    3  N2  UNL     1     -14.530 -22.695 -21.988  1.00  0.00    -0.294 N 
ATOM      4  H2  UNL     1     -14.979 -22.632 -21.073  1.00  0.00     0.187 HD
BRANCH   3   5
HETATM    5  N1  UNL     1     -13.884 -23.868 -22.239  1.00  0.00    -0.344 N 
ATOM      6  H12 UNL     1     -12.870 -23.780 -22.298  1.00  0.00     0.176 HD
ATOM      7  H11 UNL     1     -14.269 -24.803 -22.374  1.00  0.00     0.176 HD
ENDBRANCH   3   5
BRANCH   2   8
HETATM    8  N3  UNL     1     -14.147 -21.471 -24.025  1.00  0.00    -0.376 N 
ATOM      9  H3  UNL     1     -14.800 -21.268 -24.781  1.00  0.00     0.160 HD
BRANCH   8  10
HETATM   10  C2  UNL     1     -12.765 -21.542 -24.319  1.00  0.00     0.133 C 
BRANCH  10  11
HETATM   11  C3  UNL     1     -12.332 -20.704 -25.506  1.00  0.00     0.117 C 
BRANCH  11  12
HETATM   12  S1  UNL     1     -11.026 -21.618 -26.372  1.00  0.00    -0.052 SA
BRANCH  12  13
HETATM   13  N4  UNL     1      -9.563 -20.635 -26.399  1.00  0.00    -0.307 N 
HETATM   14  C4  UNL     1      -8.682 -20.693 -27.357  1.00  0.00     0.206 C 
HETATM   15  N5  UNL     1      -7.567 -19.830 -27.210  1.00  0.00    -0.066 NA
HETATM   16  N6  UNL     1      -8.849 -21.565 -28.455  1.00  0.00    -0.066 NA
ATOM     17  H4  UNL     1      -9.398 -19.990 -25.626  1.00  0.00     0.176 HD
ENDBRANCH  12  13
ENDBRANCH  11  12
ENDBRANCH  10  11
ENDBRANCH   8  10
ENDBRANCH   2   8
ENDBRANCH   1   2
BRANCH   1  18
HETATM   18  C6  UNL     1     -16.477 -21.112 -21.199  1.00  0.00     0.119 C 
BRANCH  18  19
HETATM   19  S2  UNL     1     -17.761 -19.999 -20.726  1.00  0.00    -0.095 SA
BRANCH  19  20
HETATM   20  S3  UNL     1     -19.598 -20.139 -21.611  1.00  0.00    -0.096 SA
BRANCH  20  21
HETATM   21  C7  UNL     1     -19.724 -20.239 -23.363  1.00  0.00     0.105 C 
BRANCH  21  22
HETATM   22  C8  UNL     1     -19.853 -18.904 -24.034  1.00  0.00     0.133 C 
BRANCH  22  23
HETATM   23  N7  UNL     1     -19.474 -17.810 -23.185  1.00  0.00    -0.366 N 
HETATM   24  C9  UNL     1     -19.173 -16.638 -23.583  1.00  0.00     0.196 C 
HETATM   25  N8  UNL     1     -19.167 -16.237 -24.945  1.00  0.00    -0.067 NA
HETATM   26  N9  UNL     1     -18.820 -15.689 -22.556  1.00  0.00    -0.067 NA
ATOM     27  H7  UNL     1     -19.444 -17.986 -22.181  1.00  0.00     0.161 HD
ENDBRANCH  22  23
ENDBRANCH  21  22
ENDBRANCH  20  21
ENDBRANCH  19  20
ENDBRANCH  18  19
ENDBRANCH   1  18
BRANCH   1  28
HETATM   28  N10 UNL     1     -16.168 -19.908 -23.217  1.00  0.00    -0.362 N 
ATOM     29  H10 UNL     1     -16.903 -20.482 -23.628  1.00  0.00     0.162 HD
BRANCH  28  30
HETATM   30  C10 UNL     1     -16.014 -18.769 -23.744  1.00  0.00     0.128 A 
HETATM   31  C11 UNL     1     -15.590 -17.696 -23.006  1.00  0.00     0.056 A 
HETATM   32  C12 UNL     1     -15.403 -16.440 -23.573  1.00  0.00     0.079 A 
HETATM   33  C13 UNL     1     -15.661 -16.310 -24.920  1.00  0.00     0.260 A 
HETATM   34  O1  UNL     1     -15.500 -15.180 -25.462  1.00  0.00    -0.267 OA
HETATM   35  N11 UNL     1     -16.073 -17.369 -25.617  1.00  0.00    -0.254 N 
HETATM   36  N12 UNL     1     -16.246 -18.573 -25.045  1.00  0.00    -0.189 N 
ATOM     37  H11 UNL     1     -16.262 -17.262 -26.614  1.00  0.00     0.191 HD
HETATM   38  C14 UNL     1     -16.680 -19.644 -25.853  1.00  0.00     0.355 C 
HETATM   39  N13 UNL     1     -16.888 -20.945 -25.335  1.00  0.00    -0.038 NA
HETATM   40  O2  UNL     1     -16.893 -19.432 -27.102  1.00  0.00    -0.249 OA
ENDBRANCH  28  30
ENDBRANCH   1  28
TORSDOF 15
ENDMDL
