MODEL 1
REMARK VINA RESULT: -8.649988111      0.000      0.000
REMARK  17 active torsions:
REMARK  status: ('A' for Active; 'I' for Inactive)
REMARK    1  A    between atoms: C2_2  and  N1_3 
REMARK    2  A    between atoms: C2_2  and  N2_6 
REMARK    3  A    between atoms: N2_6  and  C3_8 
REMARK    4  A    between atoms: C3_8  and  C4_9 
REMARK    5  A    between atoms: C4_9  and  N3_10 
REMARK    6  A    between atoms: N3_10  and  C5_13 
REMARK    7  A    between atoms: C5_13  and  C6_14 
REMARK    8  A    between atoms: N5_17  and  C8_18 
REMARK    9  A    between atoms: C8_18  and  C9_19 
REMARK   10  A    between atoms: C9_19  and  O1_20 
REMARK   11  A    between atoms: C9_19  and  C10_22 
REMARK   12  A    between atoms: C10_22  and  C11_23 
REMARK   13  A    between atoms: C11_23  and  O2_24 
REMARK   14  A    between atoms: C11_23  and  C12_26 
REMARK   15  A    between atoms: C12_26  and  N6_27 
REMARK   16  A    between atoms: C15_33  and  C16_34 
REMARK       I    between atoms: C16_34  and  N8_36 
REMARK   17  A    between atoms: N8_36  and  C17_38 
ROOT
HETATM    1  C11 UNL     1     -17.961 -20.008 -22.286  1.00  0.00     0.158 C 
ENDROOT
BRANCH   1   2
HETATM    2  C10 UNL     1     -17.830 -19.738 -20.764  1.00  0.00     0.070 C 
BRANCH   2   3
HETATM    3  C9  UNL     1     -17.156 -20.906 -20.135  1.00  0.00     0.140 C 
BRANCH   3   4
HETATM    4  C8  UNL     1     -16.056 -20.495 -19.132  1.00  0.00     0.170 C 
BRANCH   4   5
HETATM    5  N5  UNL     1     -16.107 -21.307 -18.050  1.00  0.00    -0.321 N 
HETATM    6  C6  UNL     1     -15.199 -22.157 -17.462  1.00  0.00     0.140 C 
HETATM    7  C7  UNL     1     -16.414 -22.596 -16.613  1.00  0.00     0.162 C 
HETATM    8  N4  UNL     1     -16.951 -21.339 -17.033  1.00  0.00    -0.141 NA
BRANCH   6   9
HETATM    9  C5  UNL     1     -14.183 -21.611 -16.499  1.00  0.00     0.259 C 
BRANCH   9  10
HETATM   10  N3  UNL     1     -14.501 -21.740 -15.114  1.00  0.00    -0.072 N 
ATOM     11  H32 UNL     1     -15.374 -22.248 -14.974  1.00  0.00     0.277 HD
ATOM     12  H31 UNL     1     -14.775 -20.846 -14.706  1.00  0.00     0.277 HD
BRANCH  10  13
HETATM   13  C4  UNL     1     -13.393 -22.353 -14.377  1.00  0.00     0.251 C 
BRANCH  13  14
HETATM   14  C3  UNL     1     -12.857 -23.556 -15.090  1.00  0.00     0.148 C 
BRANCH  14  15
HETATM   15  N2  UNL     1     -13.488 -24.778 -14.620  1.00  0.00    -0.379 N 
ATOM     16  H2  UNL     1     -14.315 -25.151 -15.086  1.00  0.00     0.160 HD
BRANCH  15  17
HETATM   17  C2  UNL     1     -12.926 -25.440 -13.497  1.00  0.00     0.066 C 
HETATM   18  C1  UNL     1     -11.423 -25.383 -13.314  1.00  0.00     0.088 C 
BRANCH  17  19
HETATM   19  N1  UNL     1     -13.605 -26.063 -12.650  1.00  0.00    -0.389 N 
ATOM     20  H12 UNL     1     -14.004 -26.988 -12.815  1.00  0.00     0.157 HD
ATOM     21  H11 UNL     1     -13.773 -25.623 -11.745  1.00  0.00     0.157 HD
ENDBRANCH  17  19
ENDBRANCH  15  17
ENDBRANCH  14  15
ENDBRANCH  13  14
ENDBRANCH  10  13
ENDBRANCH   9  10
ENDBRANCH   6   9
ENDBRANCH   4   5
ENDBRANCH   3   4
BRANCH   3  22
HETATM   22  O1  UNL     1     -18.002 -21.862 -19.620  1.00  0.00    -0.394 OA
ATOM     23  H1  UNL     1     -18.136 -21.758 -18.685  1.00  0.00     0.210 HD
ENDBRANCH   3  22
ENDBRANCH   2   3
ENDBRANCH   1   2
BRANCH   1  24
HETATM   24  O2  UNL     1     -16.901 -20.882 -22.539  1.00  0.00    -0.390 OA
ATOM     25  H2  UNL     1     -17.336 -21.640 -22.910  1.00  0.00     0.210 HD
ENDBRANCH   1  24
BRANCH   1  26
HETATM   26  C12 UNL     1     -17.858 -18.686 -22.971  1.00  0.00     0.092 C 
BRANCH  26  27
HETATM   27  N6  UNL     1     -16.661 -18.341 -23.599  1.00  0.00    -0.355 N 
HETATM   28  C13 UNL     1     -15.875 -17.312 -22.948  1.00  0.00     0.152 C 
HETATM   29  C14 UNL     1     -15.513 -16.355 -24.079  1.00  0.00     0.255 C 
HETATM   30  N7  UNL     1     -15.495 -17.235 -25.242  1.00  0.00    -0.044 N 
HETATM   31  C15 UNL     1     -16.587 -18.200 -25.015  1.00  0.00     0.379 C 
ATOM     32  H72 UNL     1     -15.559 -16.742 -26.132  1.00  0.00     0.280 HD
ATOM     33  H71 UNL     1     -14.589 -17.671 -25.414  1.00  0.00     0.280 HD
BRANCH  31  34
HETATM   34  C16 UNL     1     -16.076 -19.546 -25.538  1.00  0.00     0.274 C 
HETATM   35  O3  UNL     1     -16.811 -20.523 -25.684  1.00  0.00    -0.269 OA
HETATM   36  N8  UNL     1     -14.679 -19.614 -25.835  1.00  0.00    -0.304 N 
ATOM     37  H8  UNL     1     -14.245 -19.030 -26.550  1.00  0.00     0.171 HD
BRANCH  36  38
HETATM   38  C17 UNL     1     -13.998 -20.469 -25.133  1.00  0.00     0.154 A 
HETATM   39  N9  UNL     1     -14.435 -21.150 -24.071  1.00  0.00    -0.346 N 
HETATM   40  C18 UNL     1     -13.767 -21.955 -23.259  1.00  0.00     0.095 A 
ATOM     41  H9  UNL     1     -15.425 -21.033 -23.853  1.00  0.00     0.167 HD
HETATM   42  C19 UNL     1     -12.432 -22.270 -23.343  1.00  0.00     0.080 A 
HETATM   43  C20 UNL     1     -11.588 -21.779 -24.312  1.00  0.00     0.217 A 
HETATM   44  O4  UNL     1     -10.353 -22.135 -24.295  1.00  0.00    -0.280 OA
HETATM   45  S1  UNL     1     -12.298 -20.724 -25.445  1.00  0.00    -0.012 SA
ENDBRANCH  36  38
ENDBRANCH  31  34
ENDBRANCH  26  27
ENDBRANCH   1  26
TORSDOF 17
ENDMDL
MODEL 2
REMARK VINA RESULT: -8.244178059      1.542      1.902
REMARK  17 active torsions:
REMARK  status: ('A' for Active; 'I' for Inactive)
REMARK    1  A    between atoms: C2_2  and  N1_3 
REMARK    2  A    between atoms: C2_2  and  N2_6 
REMARK    3  A    between atoms: N2_6  and  C3_8 
REMARK    4  A    between atoms: C3_8  and  C4_9 
REMARK    5  A    between atoms: C4_9  and  N3_10 
REMARK    6  A    between atoms: N3_10  and  C5_13 
REMARK    7  A    between atoms: C5_13  and  C6_14 
REMARK    8  A    between atoms: N5_17  and  C8_18 
REMARK    9  A    between atoms: C8_18  and  C9_19 
REMARK   10  A    between atoms: C9_19  and  O1_20 
REMARK   11  A    between atoms: C9_19  and  C10_22 
REMARK   12  A    between atoms: C10_22  and  C11_23 
REMARK   13  A    between atoms: C11_23  and  O2_24 
REMARK   14  A    between atoms: C11_23  and  C12_26 
REMARK   15  A    between atoms: C12_26  and  N6_27 
REMARK   16  A    between atoms: C15_33  and  C16_34 
REMARK       I    between atoms: C16_34  and  N8_36 
REMARK   17  A    between atoms: N8_36  and  C17_38 
ROOT
HETATM    1  C11 UNL     1     -18.988 -18.809 -23.329  1.00  0.00     0.158 C 
ENDROOT
BRANCH   1   2
HETATM    2  C10 UNL     1     -19.240 -20.240 -22.789  1.00  0.00     0.070 C 
BRANCH   2   3
HETATM    3  C9  UNL     1     -18.845 -20.277 -21.355  1.00  0.00     0.140 C 
BRANCH   3   4
HETATM    4  C8  UNL     1     -17.341 -20.566 -21.154  1.00  0.00     0.170 C 
BRANCH   4   5
HETATM    5  N5  UNL     1     -17.177 -21.384 -20.087  1.00  0.00    -0.321 N 
HETATM    6  C6  UNL     1     -16.079 -21.790 -19.366  1.00  0.00     0.140 C 
HETATM    7  C7  UNL     1     -17.082 -22.762 -18.705  1.00  0.00     0.162 C 
HETATM    8  N4  UNL     1     -18.052 -21.840 -19.207  1.00  0.00    -0.141 NA
BRANCH   6   9
HETATM    9  C5  UNL     1     -15.545 -20.916 -18.266  1.00  0.00     0.259 C 
BRANCH   9  10
HETATM   10  N3  UNL     1     -15.831 -21.342 -16.935  1.00  0.00    -0.072 N 
ATOM     11  H32 UNL     1     -16.249 -22.273 -16.919  1.00  0.00     0.277 HD
ATOM     12  H31 UNL     1     -16.607 -20.817 -16.531  1.00  0.00     0.277 HD
BRANCH  10  13
HETATM   13  C4  UNL     1     -14.634 -21.271 -16.093  1.00  0.00     0.251 C 
BRANCH  13  14
HETATM   14  C3  UNL     1     -14.136 -22.636 -15.730  1.00  0.00     0.148 C 
BRANCH  14  15
HETATM   15  N2  UNL     1     -13.715 -22.696 -14.341  1.00  0.00    -0.379 N 
ATOM     16  H2  UNL     1     -14.144 -22.094 -13.639  1.00  0.00     0.160 HD
BRANCH  15  17
HETATM   17  C2  UNL     1     -12.692 -23.613 -13.983  1.00  0.00     0.066 C 
HETATM   18  C1  UNL     1     -12.490 -24.833 -14.860  1.00  0.00     0.088 C 
BRANCH  17  19
HETATM   19  N1  UNL     1     -11.948 -23.466 -12.988  1.00  0.00    -0.389 N 
ATOM     20  H12 UNL     1     -10.930 -23.533 -13.029  1.00  0.00     0.157 HD
ATOM     21  H11 UNL     1     -12.380 -23.273 -12.084  1.00  0.00     0.157 HD
ENDBRANCH  17  19
ENDBRANCH  15  17
ENDBRANCH  14  15
ENDBRANCH  13  14
ENDBRANCH  10  13
ENDBRANCH   9  10
ENDBRANCH   6   9
ENDBRANCH   4   5
ENDBRANCH   3   4
BRANCH   3  22
HETATM   22  O1  UNL     1     -19.275 -19.207 -20.602  1.00  0.00    -0.394 OA
ATOM     23  H1  UNL     1     -19.327 -19.416 -19.676  1.00  0.00     0.210 HD
ENDBRANCH   3  22
ENDBRANCH   2   3
ENDBRANCH   1   2
BRANCH   1  24
HETATM   24  O2  UNL     1     -20.273 -18.266 -23.386  1.00  0.00    -0.390 OA
ATOM     25  H2  UNL     1     -20.449 -18.234 -24.319  1.00  0.00     0.210 HD
ENDBRANCH   1  24
BRANCH   1  26
HETATM   26  C12 UNL     1     -18.314 -18.958 -24.653  1.00  0.00     0.092 C 
BRANCH  26  27
HETATM   27  N6  UNL     1     -17.006 -18.497 -24.802  1.00  0.00    -0.355 N 
HETATM   28  C13 UNL     1     -16.575 -17.489 -23.853  1.00  0.00     0.152 C 
HETATM   29  C14 UNL     1     -15.925 -16.418 -24.724  1.00  0.00     0.255 C 
HETATM   30  N7  UNL     1     -15.439 -17.190 -25.862  1.00  0.00    -0.044 N 
HETATM   31  C15 UNL     1     -16.463 -18.228 -26.092  1.00  0.00     0.379 C 
ATOM     32  H72 UNL     1     -15.234 -16.625 -26.685  1.00  0.00     0.280 HD
ATOM     33  H71 UNL     1     -14.498 -17.561 -25.736  1.00  0.00     0.280 HD
BRANCH  31  34
HETATM   34  C16 UNL     1     -15.699 -19.493 -26.491  1.00  0.00     0.274 C 
HETATM   35  O3  UNL     1     -16.261 -20.498 -26.927  1.00  0.00    -0.269 OA
HETATM   36  N8  UNL     1     -14.281 -19.452 -26.311  1.00  0.00    -0.304 N 
ATOM     37  H8  UNL     1     -13.688 -18.787 -26.808  1.00  0.00     0.171 HD
BRANCH  36  38
HETATM   38  C17 UNL     1     -13.797 -20.319 -25.473  1.00  0.00     0.154 A 
HETATM   39  N9  UNL     1     -14.440 -20.867 -24.439  1.00  0.00    -0.346 N 
HETATM   40  C18 UNL     1     -13.977 -21.673 -23.498  1.00  0.00     0.095 A 
ATOM     41  H9  UNL     1     -15.429 -20.631 -24.365  1.00  0.00     0.167 HD
HETATM   42  C19 UNL     1     -12.687 -22.132 -23.381  1.00  0.00     0.080 A 
HETATM   43  C20 UNL     1     -11.675 -21.807 -24.256  1.00  0.00     0.217 A 
HETATM   44  O4  UNL     1     -10.502 -22.290 -24.050  1.00  0.00    -0.280 OA
HETATM   45  S1  UNL     1     -12.111 -20.773 -25.537  1.00  0.00    -0.012 SA
ENDBRANCH  36  38
ENDBRANCH  31  34
ENDBRANCH  26  27
ENDBRANCH   1  26
TORSDOF 17
ENDMDL
MODEL 3
REMARK VINA RESULT: -8.124237670      5.163      8.092
REMARK  17 active torsions:
REMARK  status: ('A' for Active; 'I' for Inactive)
REMARK    1  A    between atoms: C2_2  and  N1_3 
REMARK    2  A    between atoms: C2_2  and  N2_6 
REMARK    3  A    between atoms: N2_6  and  C3_8 
REMARK    4  A    between atoms: C3_8  and  C4_9 
REMARK    5  A    between atoms: C4_9  and  N3_10 
REMARK    6  A    between atoms: N3_10  and  C5_13 
REMARK    7  A    between atoms: C5_13  and  C6_14 
REMARK    8  A    between atoms: N5_17  and  C8_18 
REMARK    9  A    between atoms: C8_18  and  C9_19 
REMARK   10  A    between atoms: C9_19  and  O1_20 
REMARK   11  A    between atoms: C9_19  and  C10_22 
REMARK   12  A    between atoms: C10_22  and  C11_23 
REMARK   13  A    between atoms: C11_23  and  O2_24 
REMARK   14  A    between atoms: C11_23  and  C12_26 
REMARK   15  A    between atoms: C12_26  and  N6_27 
REMARK   16  A    between atoms: C15_33  and  C16_34 
REMARK       I    between atoms: C16_34  and  N8_36 
REMARK   17  A    between atoms: N8_36  and  C17_38 
ROOT
HETATM    1  C11 UNL     1     -17.202 -19.841 -22.097  1.00  0.00     0.158 C 
ENDROOT
BRANCH   1   2
HETATM    2  C10 UNL     1     -18.120 -19.794 -20.847  1.00  0.00     0.070 C 
BRANCH   2   3
HETATM    3  C9  UNL     1     -19.489 -19.408 -21.285  1.00  0.00     0.140 C 
BRANCH   3   4
HETATM    4  C8  UNL     1     -20.487 -20.586 -21.238  1.00  0.00     0.170 C 
BRANCH   4   5
HETATM    5  N5  UNL     1     -20.850 -20.919 -22.500  1.00  0.00    -0.321 N 
HETATM    6  C6  UNL     1     -21.902 -20.557 -23.309  1.00  0.00     0.140 C 
HETATM    7  C7  UNL     1     -21.362 -21.676 -24.227  1.00  0.00     0.162 C 
HETATM    8  N4  UNL     1     -20.161 -21.486 -23.476  1.00  0.00    -0.141 NA
BRANCH   6   9
HETATM    9  C5  UNL     1     -21.827 -19.282 -24.101  1.00  0.00     0.259 C 
BRANCH   9  10
HETATM   10  N3  UNL     1     -20.518 -18.848 -24.464  1.00  0.00    -0.072 N 
ATOM     11  H32 UNL     1     -20.030 -19.548 -25.023  1.00  0.00     0.277 HD
ATOM     12  H31 UNL     1     -19.891 -18.828 -23.659  1.00  0.00     0.277 HD
BRANCH  10  13
HETATM   13  C4  UNL     1     -20.565 -17.550 -25.143  1.00  0.00     0.251 C 
BRANCH  13  14
HETATM   14  C3  UNL     1     -19.866 -16.489 -24.352  1.00  0.00     0.148 C 
BRANCH  14  15
HETATM   15  N2  UNL     1     -19.234 -15.509 -25.219  1.00  0.00    -0.379 N 
ATOM     16  H2  UNL     1     -18.300 -15.669 -25.594  1.00  0.00     0.160 HD
BRANCH  15  17
HETATM   17  C2  UNL     1     -19.948 -14.322 -25.531  1.00  0.00     0.066 C 
HETATM   18  C1  UNL     1     -20.247 -13.353 -24.404  1.00  0.00     0.088 C 
BRANCH  17  19
HETATM   19  N1  UNL     1     -20.338 -14.031 -26.684  1.00  0.00    -0.389 N 
ATOM     20  H12 UNL     1     -20.371 -13.078 -27.045  1.00  0.00     0.157 HD
ATOM     21  H11 UNL     1     -20.643 -14.787 -27.296  1.00  0.00     0.157 HD
ENDBRANCH  17  19
ENDBRANCH  15  17
ENDBRANCH  14  15
ENDBRANCH  13  14
ENDBRANCH  10  13
ENDBRANCH   9  10
ENDBRANCH   6   9
ENDBRANCH   4   5
ENDBRANCH   3   4
BRANCH   3  22
HETATM   22  O1  UNL     1     -19.994 -18.272 -20.695  1.00  0.00    -0.394 OA
ATOM     23  H1  UNL     1     -19.313 -17.645 -20.478  1.00  0.00     0.210 HD
ENDBRANCH   3  22
ENDBRANCH   2   3
ENDBRANCH   1   2
BRANCH   1  24
HETATM   24  O2  UNL     1     -15.949 -20.130 -21.553  1.00  0.00    -0.390 OA
ATOM     25  H2  UNL     1     -15.353 -19.883 -22.250  1.00  0.00     0.210 HD
ENDBRANCH   1  24
BRANCH   1  26
HETATM   26  C12 UNL     1     -17.303 -18.507 -22.758  1.00  0.00     0.092 C 
BRANCH  26  27
HETATM   27  N6  UNL     1     -16.376 -18.169 -23.744  1.00  0.00    -0.355 N 
HETATM   28  C13 UNL     1     -15.579 -16.985 -23.488  1.00  0.00     0.152 C 
HETATM   29  C14 UNL     1     -15.662 -16.197 -24.792  1.00  0.00     0.255 C 
HETATM   30  N7  UNL     1     -15.849 -17.249 -25.784  1.00  0.00    -0.044 N 
HETATM   31  C15 UNL     1     -16.707 -18.253 -25.128  1.00  0.00     0.379 C 
ATOM     32  H72 UNL     1     -16.214 -16.914 -26.675  1.00  0.00     0.280 HD
ATOM     33  H71 UNL     1     -14.976 -17.630 -26.150  1.00  0.00     0.280 HD
BRANCH  31  34
HETATM   34  C16 UNL     1     -16.193 -19.618 -25.594  1.00  0.00     0.274 C 
HETATM   35  O3  UNL     1     -16.918 -20.610 -25.670  1.00  0.00    -0.269 OA
HETATM   36  N8  UNL     1     -14.802 -19.685 -25.922  1.00  0.00    -0.304 N 
ATOM     37  H8  UNL     1     -14.394 -19.134 -26.677  1.00  0.00     0.171 HD
BRANCH  36  38
HETATM   38  C17 UNL     1     -14.094 -20.495 -25.195  1.00  0.00     0.154 A 
HETATM   39  N9  UNL     1     -14.512 -21.169 -24.121  1.00  0.00    -0.346 N 
HETATM   40  C18 UNL     1     -13.819 -21.926 -23.285  1.00  0.00     0.095 A 
ATOM     41  H9  UNL     1     -15.507 -21.088 -23.915  1.00  0.00     0.167 HD
HETATM   42  C19 UNL     1     -12.471 -22.187 -23.350  1.00  0.00     0.080 A 
HETATM   43  C20 UNL     1     -11.638 -21.683 -24.324  1.00  0.00     0.217 A 
HETATM   44  O4  UNL     1     -10.390 -21.988 -24.288  1.00  0.00    -0.280 OA
HETATM   45  S1  UNL     1     -12.381 -20.686 -25.487  1.00  0.00    -0.012 SA
ENDBRANCH  36  38
ENDBRANCH  31  34
ENDBRANCH  26  27
ENDBRANCH   1  26
TORSDOF 17
ENDMDL
MODEL 4
REMARK VINA RESULT: -7.896479893      2.296      4.099
REMARK  17 active torsions:
REMARK  status: ('A' for Active; 'I' for Inactive)
REMARK    1  A    between atoms: C2_2  and  N1_3 
REMARK    2  A    between atoms: C2_2  and  N2_6 
REMARK    3  A    between atoms: N2_6  and  C3_8 
REMARK    4  A    between atoms: C3_8  and  C4_9 
REMARK    5  A    between atoms: C4_9  and  N3_10 
REMARK    6  A    between atoms: N3_10  and  C5_13 
REMARK    7  A    between atoms: C5_13  and  C6_14 
REMARK    8  A    between atoms: N5_17  and  C8_18 
REMARK    9  A    between atoms: C8_18  and  C9_19 
REMARK   10  A    between atoms: C9_19  and  O1_20 
REMARK   11  A    between atoms: C9_19  and  C10_22 
REMARK   12  A    between atoms: C10_22  and  C11_23 
REMARK   13  A    between atoms: C11_23  and  O2_24 
REMARK   14  A    between atoms: C11_23  and  C12_26 
REMARK   15  A    between atoms: C12_26  and  N6_27 
REMARK   16  A    between atoms: C15_33  and  C16_34 
REMARK       I    between atoms: C16_34  and  N8_36 
REMARK   17  A    between atoms: N8_36  and  C17_38 
ROOT
HETATM    1  C11 UNL     1     -15.833 -20.588 -23.566  1.00  0.00     0.158 C 
ENDROOT
BRANCH   1   2
HETATM    2  C10 UNL     1     -15.892 -19.782 -22.243  1.00  0.00     0.070 C 
BRANCH   2   3
HETATM    3  C9  UNL     1     -16.439 -20.666 -21.178  1.00  0.00     0.140 C 
BRANCH   3   4
HETATM    4  C8  UNL     1     -16.121 -20.158 -19.755  1.00  0.00     0.170 C 
BRANCH   4   5
HETATM    5  N5  UNL     1     -16.223 -21.184 -18.877  1.00  0.00    -0.321 N 
HETATM    6  C6  UNL     1     -15.311 -21.855 -18.096  1.00  0.00     0.140 C 
HETATM    7  C7  UNL     1     -16.496 -22.810 -17.827  1.00  0.00     0.162 C 
HETATM    8  N4  UNL     1     -17.278 -21.696 -18.265  1.00  0.00    -0.141 NA
BRANCH   6   9
HETATM    9  C5  UNL     1     -14.912 -21.287 -16.762  1.00  0.00     0.259 C 
BRANCH   9  10
HETATM   10  N3  UNL     1     -15.059 -22.158 -15.642  1.00  0.00    -0.072 N 
ATOM     11  H32 UNL     1     -15.288 -23.109 -15.933  1.00  0.00     0.277 HD
ATOM     12  H31 UNL     1     -15.905 -21.950 -15.112  1.00  0.00     0.277 HD
BRANCH  10  13
HETATM   13  C4  UNL     1     -13.866 -22.124 -14.792  1.00  0.00     0.251 C 
BRANCH  13  14
HETATM   14  C3  UNL     1     -13.092 -23.402 -14.879  1.00  0.00     0.148 C 
BRANCH  14  15
HETATM   15  N2  UNL     1     -13.173 -24.159 -13.641  1.00  0.00    -0.379 N 
ATOM     16  H2  UNL     1     -13.151 -23.686 -12.738  1.00  0.00     0.160 HD
BRANCH  15  17
HETATM   17  C2  UNL     1     -13.283 -25.572 -13.718  1.00  0.00     0.066 C 
HETATM   18  C1  UNL     1     -12.931 -26.244 -15.030  1.00  0.00     0.088 C 
BRANCH  17  19
HETATM   19  N1  UNL     1     -13.649 -26.291 -12.761  1.00  0.00    -0.389 N 
ATOM     20  H12 UNL     1     -13.012 -26.873 -12.216  1.00  0.00     0.157 HD
ATOM     21  H11 UNL     1     -14.638 -26.300 -12.513  1.00  0.00     0.157 HD
ENDBRANCH  17  19
ENDBRANCH  15  17
ENDBRANCH  14  15
ENDBRANCH  13  14
ENDBRANCH  10  13
ENDBRANCH   9  10
ENDBRANCH   6   9
ENDBRANCH   4   5
ENDBRANCH   3   4
BRANCH   3  22
HETATM   22  O1  UNL     1     -17.764 -21.010 -21.326  1.00  0.00    -0.394 OA
ATOM     23  H1  UNL     1     -17.876 -21.802 -21.839  1.00  0.00     0.210 HD
ENDBRANCH   3  22
ENDBRANCH   2   3
ENDBRANCH   1   2
BRANCH   1  24
HETATM   24  O2  UNL     1     -15.395 -21.845 -23.147  1.00  0.00    -0.390 OA
ATOM     25  H2  UNL     1     -14.469 -21.706 -22.992  1.00  0.00     0.210 HD
ENDBRANCH   1  24
BRANCH   1  26
HETATM   26  C12 UNL     1     -14.890 -19.867 -24.470  1.00  0.00     0.092 C 
BRANCH  26  27
HETATM   27  N6  UNL     1     -15.407 -19.040 -25.467  1.00  0.00    -0.355 N 
HETATM   28  C13 UNL     1     -15.819 -19.699 -26.691  1.00  0.00     0.152 C 
HETATM   29  C14 UNL     1     -15.190 -18.854 -27.794  1.00  0.00     0.255 C 
HETATM   30  N7  UNL     1     -15.127 -17.532 -27.180  1.00  0.00    -0.044 N 
HETATM   31  C15 UNL     1     -14.810 -17.779 -25.760  1.00  0.00     0.379 C 
ATOM     32  H72 UNL     1     -14.478 -16.895 -27.641  1.00  0.00     0.280 HD
ATOM     33  H71 UNL     1     -15.966 -16.971 -27.323  1.00  0.00     0.280 HD
BRANCH  31  34
HETATM   34  C16 UNL     1     -15.613 -16.747 -24.963  1.00  0.00     0.274 C 
HETATM   35  O3  UNL     1     -15.086 -15.964 -24.171  1.00  0.00    -0.269 OA
HETATM   36  N8  UNL     1     -17.027 -16.752 -25.176  1.00  0.00    -0.304 N 
ATOM     37  H8  UNL     1     -17.442 -16.555 -26.087  1.00  0.00     0.171 HD
BRANCH  36  38
HETATM   38  C17 UNL     1     -17.750 -17.024 -24.131  1.00  0.00     0.154 A 
HETATM   39  N9  UNL     1     -17.657 -16.446 -22.931  1.00  0.00    -0.346 N 
HETATM   40  C18 UNL     1     -18.291 -16.744 -21.808  1.00  0.00     0.095 A 
ATOM     41  H9  UNL     1     -17.006 -15.664 -22.871  1.00  0.00     0.167 HD
HETATM   42  C19 UNL     1     -19.211 -17.750 -21.634  1.00  0.00     0.080 A 
HETATM   43  C20 UNL     1     -19.612 -18.604 -22.636  1.00  0.00     0.217 A 
HETATM   44  O4  UNL     1     -20.477 -19.514 -22.364  1.00  0.00    -0.280 OA
HETATM   45  S1  UNL     1     -18.888 -18.350 -24.156  1.00  0.00    -0.012 SA
ENDBRANCH  36  38
ENDBRANCH  31  34
ENDBRANCH  26  27
ENDBRANCH   1  26
TORSDOF 17
ENDMDL
MODEL 5
REMARK VINA RESULT: -7.893865206      6.460      9.605
REMARK  17 active torsions:
REMARK  status: ('A' for Active; 'I' for Inactive)
REMARK    1  A    between atoms: C2_2  and  N1_3 
REMARK    2  A    between atoms: C2_2  and  N2_6 
REMARK    3  A    between atoms: N2_6  and  C3_8 
REMARK    4  A    between atoms: C3_8  and  C4_9 
REMARK    5  A    between atoms: C4_9  and  N3_10 
REMARK    6  A    between atoms: N3_10  and  C5_13 
REMARK    7  A    between atoms: C5_13  and  C6_14 
REMARK    8  A    between atoms: N5_17  and  C8_18 
REMARK    9  A    between atoms: C8_18  and  C9_19 
REMARK   10  A    between atoms: C9_19  and  O1_20 
REMARK   11  A    between atoms: C9_19  and  C10_22 
REMARK   12  A    between atoms: C10_22  and  C11_23 
REMARK   13  A    between atoms: C11_23  and  O2_24 
REMARK   14  A    between atoms: C11_23  and  C12_26 
REMARK   15  A    between atoms: C12_26  and  N6_27 
REMARK   16  A    between atoms: C15_33  and  C16_34 
REMARK       I    between atoms: C16_34  and  N8_36 
REMARK   17  A    between atoms: N8_36  and  C17_38 
ROOT
HETATM    1  C11 UNL     1     -16.548 -19.652 -25.251  1.00  0.00     0.158 C 
ENDROOT
BRANCH   1   2
HETATM    2  C10 UNL     1     -16.044 -19.815 -26.709  1.00  0.00     0.070 C 
BRANCH   2   3
HETATM    3  C9  UNL     1     -14.607 -19.430 -26.754  1.00  0.00     0.140 C 
BRANCH   3   4
HETATM    4  C8  UNL     1     -13.684 -20.606 -27.142  1.00  0.00     0.170 C 
BRANCH   4   5
HETATM    5  N5  UNL     1     -12.999 -21.021 -26.049  1.00  0.00    -0.321 N 
HETATM    6  C6  UNL     1     -11.858 -21.770 -25.876  1.00  0.00     0.140 C 
HETATM    7  C7  UNL     1     -12.264 -21.733 -24.385  1.00  0.00     0.162 C 
HETATM    8  N4  UNL     1     -13.041 -20.606 -24.795  1.00  0.00    -0.141 NA
BRANCH   6   9
HETATM    9  C5  UNL     1     -10.512 -21.108 -25.967  1.00  0.00     0.259 C 
BRANCH   9  10
HETATM   10  N3  UNL     1      -9.688 -21.203 -24.807  1.00  0.00    -0.072 N 
ATOM     11  H32 UNL     1     -10.193 -21.610 -24.020  1.00  0.00     0.277 HD
ATOM     12  H31 UNL     1      -9.493 -20.285 -24.408  1.00  0.00     0.277 HD
BRANCH  10  13
HETATM   13  C4  UNL     1      -8.456 -21.939 -25.098  1.00  0.00     0.251 C 
BRANCH  13  14
HETATM   14  C3  UNL     1      -7.732 -21.358 -26.273  1.00  0.00     0.148 C 
BRANCH  14  15
HETATM   15  N2  UNL     1      -6.879 -20.250 -25.878  1.00  0.00    -0.379 N 
ATOM     16  H2  UNL     1      -6.522 -20.181 -24.925  1.00  0.00     0.160 HD
BRANCH  15  17
HETATM   17  C2  UNL     1      -6.554 -19.267 -26.848  1.00  0.00     0.066 C 
HETATM   18  C1  UNL     1      -7.614 -18.889 -27.863  1.00  0.00     0.088 C 
BRANCH  17  19
HETATM   19  N1  UNL     1      -5.443 -18.693 -26.907  1.00  0.00    -0.389 N 
ATOM     20  H12 UNL     1      -4.554 -19.190 -26.973  1.00  0.00     0.157 HD
ATOM     21  H11 UNL     1      -5.422 -17.674 -26.884  1.00  0.00     0.157 HD
ENDBRANCH  17  19
ENDBRANCH  15  17
ENDBRANCH  14  15
ENDBRANCH  13  14
ENDBRANCH  10  13
ENDBRANCH   9  10
ENDBRANCH   6   9
ENDBRANCH   4   5
ENDBRANCH   3   4
BRANCH   3  22
HETATM   22  O1  UNL     1     -14.329 -18.289 -27.472  1.00  0.00    -0.394 OA
ATOM     23  H1  UNL     1     -14.263 -17.521 -26.916  1.00  0.00     0.210 HD
ENDBRANCH   3  22
ENDBRANCH   2   3
ENDBRANCH   1   2
BRANCH   1  24
HETATM   24  O2  UNL     1     -17.069 -20.914 -24.958  1.00  0.00    -0.390 OA
ATOM     25  H2  UNL     1     -17.995 -20.740 -24.841  1.00  0.00     0.210 HD
ENDBRANCH   1  24
BRANCH   1  26
HETATM   26  C12 UNL     1     -17.554 -18.549 -25.262  1.00  0.00     0.092 C 
BRANCH  26  27
HETATM   27  N6  UNL     1     -17.325 -17.418 -24.479  1.00  0.00    -0.355 N 
HETATM   28  C13 UNL     1     -16.131 -16.658 -24.792  1.00  0.00     0.152 C 
HETATM   29  C14 UNL     1     -15.475 -16.428 -23.435  1.00  0.00     0.255 C 
HETATM   30  N7  UNL     1     -16.618 -16.427 -22.529  1.00  0.00    -0.044 N 
HETATM   31  C15 UNL     1     -17.543 -17.441 -23.071  1.00  0.00     0.379 C 
ATOM     32  H72 UNL     1     -16.369 -16.577 -21.552  1.00  0.00     0.280 HD
ATOM     33  H71 UNL     1     -17.043 -15.508 -22.403  1.00  0.00     0.280 HD
BRANCH  31  34
HETATM   34  C16 UNL     1     -18.952 -16.881 -22.861  1.00  0.00     0.274 C 
HETATM   35  O3  UNL     1     -19.915 -17.596 -22.577  1.00  0.00    -0.269 OA
HETATM   36  N8  UNL     1     -19.099 -15.469 -23.032  1.00  0.00    -0.304 N 
ATOM     37  H8  UNL     1     -18.609 -14.795 -22.443  1.00  0.00     0.171 HD
BRANCH  36  38
HETATM   38  C17 UNL     1     -19.897 -15.100 -23.987  1.00  0.00     0.154 A 
HETATM   39  N9  UNL     1     -20.764 -15.877 -24.642  1.00  0.00    -0.346 N 
HETATM   40  C18 UNL     1     -21.528 -15.588 -25.683  1.00  0.00     0.095 A 
ATOM     41  H9  UNL     1     -20.849 -16.830 -24.288  1.00  0.00     0.167 HD
HETATM   42  C19 UNL     1     -21.591 -14.380 -26.335  1.00  0.00     0.080 A 
HETATM   43  C20 UNL     1     -20.849 -13.277 -25.980  1.00  0.00     0.217 A 
HETATM   44  O4  UNL     1     -20.982 -12.196 -26.663  1.00  0.00    -0.280 OA
HETATM   45  S1  UNL     1     -19.810 -13.484 -24.647  1.00  0.00    -0.012 SA
ENDBRANCH  36  38
ENDBRANCH  31  34
ENDBRANCH  26  27
ENDBRANCH   1  26
TORSDOF 17
ENDMDL
