MODEL 1
REMARK VINA RESULT: -8.070384525      0.000      0.000
REMARK  10 active torsions:
REMARK  status: ('A' for Active; 'I' for Inactive)
REMARK    1  A    between atoms: O1_1  and  C1_3 
REMARK    2  A    between atoms: C1_3  and  C2_4 
REMARK    3  A    between atoms: C2_4  and  C3_5 
REMARK    4  A    between atoms: C3_5  and  C4_6 
REMARK    5  A    between atoms: C7_10  and  N1_11 
REMARK    6  A    between atoms: N2_14  and  C10_15 
REMARK    7  A    between atoms: C10_15  and  C11_16 
REMARK    8  A    between atoms: C10_15  and  C12_19 
REMARK    9  A    between atoms: C11_16  and  O3_17 
REMARK   10  A    between atoms: C12_19  and  O4_20 
ROOT
HETATM    1  N1  UNL     1      -5.468  -6.602  -7.735  1.00  0.00    -0.361 N 
HETATM    2  C8  UNL     1      -4.353  -6.364  -8.549  1.00  0.00     0.107 C 
HETATM    3  C9  UNL     1      -3.010  -6.374  -7.911  1.00  0.00     0.103 C 
HETATM    4  N2  UNL     1      -3.001  -5.972  -6.586  1.00  0.00    -0.375 N 
HETATM    5  C13 UNL     1      -4.013  -6.506  -5.751  1.00  0.00     0.167 C 
HETATM    6  C14 UNL     1      -5.395  -6.453  -6.363  1.00  0.00     0.083 C 
ENDROOT
BRANCH   1   7
HETATM    7  C7  UNL     1      -6.392  -7.517  -8.317  1.00  0.00     0.112 C 
HETATM    8  C6  UNL     1      -6.428  -7.220  -9.800  1.00  0.00     0.193 C 
HETATM    9  O2  UNL     1      -7.015  -8.265 -10.457  1.00  0.00    -0.389 OA
HETATM   10  C5  UNL     1      -7.727  -9.137  -9.665  1.00  0.00     0.172 C 
HETATM   11  C4  UNL     1      -8.597  -8.470  -8.651  1.00  0.00     0.011 C 
HETATM   12  C15 UNL     1      -7.769  -7.483  -7.796  1.00  0.00     0.034 C 
BRANCH  11  13
HETATM   13  C3  UNL     1      -9.737  -7.777  -9.295  1.00  0.00     0.009 C 
BRANCH  13  14
HETATM   14  C2  UNL     1     -11.028  -8.536  -9.255  1.00  0.00     0.026 C 
BRANCH  14  15
HETATM   15  C1  UNL     1     -11.275  -9.061  -7.869  1.00  0.00     0.164 C 
BRANCH  15  16
HETATM   16  O1  UNL     1     -12.606  -8.866  -7.481  1.00  0.00    -0.401 OA
ATOM     17  H1  UNL     1     -12.700  -8.086  -6.947  1.00  0.00     0.209 HD
ENDBRANCH  15  16
ENDBRANCH  14  15
ENDBRANCH  13  14
ENDBRANCH  11  13
ENDBRANCH   1   7
BRANCH   4  18
HETATM   18  C10 UNL     1      -2.101  -5.060  -6.056  1.00  0.00     0.131 C 
BRANCH  18  19
HETATM   19  C11 UNL     1      -2.837  -3.917  -5.387  1.00  0.00     0.191 C 
BRANCH  19  20
HETATM   20  O3  UNL     1      -2.178  -2.713  -5.512  1.00  0.00    -0.399 OA
ATOM     21  H3  UNL     1      -2.771  -1.970  -5.537  1.00  0.00     0.209 HD
ENDBRANCH  19  20
ENDBRANCH  18  19
BRANCH  18  22
HETATM   22  C12 UNL     1      -0.997  -5.608  -5.189  1.00  0.00     0.191 C 
BRANCH  22  23
HETATM   23  O4  UNL     1       0.179  -4.913  -5.243  1.00  0.00    -0.399 OA
ATOM     24  H4  UNL     1       0.754  -5.038  -4.498  1.00  0.00     0.209 HD
ENDBRANCH  22  23
ENDBRANCH  18  22
ENDBRANCH   4  18
TORSDOF 10
ENDMDL
MODEL 2
REMARK VINA RESULT: -7.960963821      0.881      1.486
REMARK  10 active torsions:
REMARK  status: ('A' for Active; 'I' for Inactive)
REMARK    1  A    between atoms: O1_1  and  C1_3 
REMARK    2  A    between atoms: C1_3  and  C2_4 
REMARK    3  A    between atoms: C2_4  and  C3_5 
REMARK    4  A    between atoms: C3_5  and  C4_6 
REMARK    5  A    between atoms: C7_10  and  N1_11 
REMARK    6  A    between atoms: N2_14  and  C10_15 
REMARK    7  A    between atoms: C10_15  and  C11_16 
REMARK    8  A    between atoms: C10_15  and  C12_19 
REMARK    9  A    between atoms: C11_16  and  O3_17 
REMARK   10  A    between atoms: C12_19  and  O4_20 
ROOT
HETATM    1  N1  UNL     1      -5.697  -6.824  -7.839  1.00  0.00    -0.361 N 
HETATM    2  C8  UNL     1      -4.421  -6.814  -8.416  1.00  0.00     0.107 C 
HETATM    3  C9  UNL     1      -3.246  -6.860  -7.507  1.00  0.00     0.103 C 
HETATM    4  N2  UNL     1      -3.453  -6.273  -6.270  1.00  0.00    -0.375 N 
HETATM    5  C13 UNL     1      -4.670  -6.580  -5.615  1.00  0.00     0.167 C 
HETATM    6  C14 UNL     1      -5.884  -6.485  -6.512  1.00  0.00     0.083 C 
ENDROOT
BRANCH   1   7
HETATM    7  C7  UNL     1      -6.592  -7.720  -8.491  1.00  0.00     0.112 C 
HETATM    8  C6  UNL     1      -6.599  -7.345  -9.957  1.00  0.00     0.193 C 
HETATM    9  O2  UNL     1      -7.153  -8.362 -10.683  1.00  0.00    -0.389 OA
HETATM   10  C5  UNL     1      -7.867  -9.286  -9.955  1.00  0.00     0.172 C 
HETATM   11  C4  UNL     1      -8.772  -8.689  -8.928  1.00  0.00     0.011 C 
HETATM   12  C15 UNL     1      -7.981  -7.736  -8.002  1.00  0.00     0.034 C 
BRANCH  11  13
HETATM   13  C3  UNL     1      -9.909  -7.981  -9.562  1.00  0.00     0.009 C 
BRANCH  13  14
HETATM   14  C2  UNL     1     -10.732  -8.827 -10.484  1.00  0.00     0.026 C 
BRANCH  14  15
HETATM   15  C1  UNL     1     -12.192  -8.646 -10.183  1.00  0.00     0.164 C 
BRANCH  15  16
HETATM   16  O1  UNL     1     -12.398  -8.318  -8.837  1.00  0.00    -0.401 OA
ATOM     17  H1  UNL     1     -13.030  -8.901  -8.433  1.00  0.00     0.209 HD
ENDBRANCH  15  16
ENDBRANCH  14  15
ENDBRANCH  13  14
ENDBRANCH  11  13
ENDBRANCH   1   7
BRANCH   4  18
HETATM   18  C10 UNL     1      -2.572  -5.384  -5.674  1.00  0.00     0.131 C 
BRANCH  18  19
HETATM   19  C11 UNL     1      -1.387  -5.123  -6.581  1.00  0.00     0.191 C 
BRANCH  19  20
HETATM   20  O3  UNL     1      -0.197  -5.035  -5.891  1.00  0.00    -0.399 OA
ATOM     21  H3  UNL     1       0.505  -5.524  -6.305  1.00  0.00     0.209 HD
ENDBRANCH  19  20
ENDBRANCH  18  19
BRANCH  18  22
HETATM   22  C12 UNL     1      -3.153  -4.108  -5.119  1.00  0.00     0.191 C 
BRANCH  22  23
HETATM   23  O4  UNL     1      -2.581  -2.960  -5.592  1.00  0.00    -0.399 OA
ATOM     24  H4  UNL     1      -1.634  -2.923  -5.518  1.00  0.00     0.209 HD
ENDBRANCH  22  23
ENDBRANCH  18  22
ENDBRANCH   4  18
TORSDOF 10
ENDMDL
MODEL 3
REMARK VINA RESULT: -7.888739853      1.115      1.691
REMARK  10 active torsions:
REMARK  status: ('A' for Active; 'I' for Inactive)
REMARK    1  A    between atoms: O1_1  and  C1_3 
REMARK    2  A    between atoms: C1_3  and  C2_4 
REMARK    3  A    between atoms: C2_4  and  C3_5 
REMARK    4  A    between atoms: C3_5  and  C4_6 
REMARK    5  A    between atoms: C7_10  and  N1_11 
REMARK    6  A    between atoms: N2_14  and  C10_15 
REMARK    7  A    between atoms: C10_15  and  C11_16 
REMARK    8  A    between atoms: C10_15  and  C12_19 
REMARK    9  A    between atoms: C11_16  and  O3_17 
REMARK   10  A    between atoms: C12_19  and  O4_20 
ROOT
HETATM    1  N1  UNL     1      -5.763  -6.708  -8.210  1.00  0.00    -0.361 N 
HETATM    2  C8  UNL     1      -4.488  -6.614  -8.782  1.00  0.00     0.107 C 
HETATM    3  C9  UNL     1      -3.310  -6.762  -7.886  1.00  0.00     0.103 C 
HETATM    4  N2  UNL     1      -3.521  -6.338  -6.585  1.00  0.00    -0.375 N 
HETATM    5  C13 UNL     1      -4.734  -6.737  -5.973  1.00  0.00     0.167 C 
HETATM    6  C14 UNL     1      -5.950  -6.541  -6.851  1.00  0.00     0.083 C 
ENDROOT
BRANCH   1   7
HETATM    7  C7  UNL     1      -6.650  -7.525  -8.969  1.00  0.00     0.112 C 
HETATM    8  C6  UNL     1      -7.573  -6.589  -9.719  1.00  0.00     0.193 C 
HETATM    9  O2  UNL     1      -8.206  -7.279 -10.715  1.00  0.00    -0.389 OA
HETATM   10  C5  UNL     1      -8.158  -8.650 -10.607  1.00  0.00     0.172 C 
HETATM   11  C4  UNL     1      -8.417  -9.165  -9.229  1.00  0.00     0.011 C 
HETATM   12  C15 UNL     1      -7.467  -8.489  -8.214  1.00  0.00     0.034 C 
BRANCH  11  13
HETATM   13  C3  UNL     1      -9.832  -8.964  -8.839  1.00  0.00     0.009 C 
BRANCH  13  14
HETATM   14  C2  UNL     1     -10.254  -9.726  -7.620  1.00  0.00     0.026 C 
BRANCH  14  15
HETATM   15  C1  UNL     1     -10.758  -8.778  -6.569  1.00  0.00     0.164 C 
BRANCH  15  16
HETATM   16  O1  UNL     1     -10.332  -7.467  -6.820  1.00  0.00    -0.401 OA
ATOM     17  H1  UNL     1     -10.722  -6.854  -6.209  1.00  0.00     0.209 HD
ENDBRANCH  15  16
ENDBRANCH  14  15
ENDBRANCH  13  14
ENDBRANCH  11  13
ENDBRANCH   1   7
BRANCH   4  18
HETATM   18  C10 UNL     1      -2.648  -5.522  -5.882  1.00  0.00     0.131 C 
BRANCH  18  19
HETATM   19  C11 UNL     1      -1.425  -5.208  -6.719  1.00  0.00     0.191 C 
BRANCH  19  20
HETATM   20  O3  UNL     1      -0.278  -5.085  -5.964  1.00  0.00    -0.399 OA
ATOM     21  H3  UNL     1       0.514  -5.147  -6.485  1.00  0.00     0.209 HD
ENDBRANCH  19  20
ENDBRANCH  18  19
BRANCH  18  22
HETATM   22  C12 UNL     1      -3.227  -4.287  -5.240  1.00  0.00     0.191 C 
BRANCH  22  23
HETATM   23  O4  UNL     1      -2.682  -3.107  -5.664  1.00  0.00    -0.399 OA
ATOM     24  H4  UNL     1      -3.016  -2.786  -6.493  1.00  0.00     0.209 HD
ENDBRANCH  22  23
ENDBRANCH  18  22
ENDBRANCH   4  18
TORSDOF 10
ENDMDL
MODEL 4
REMARK VINA RESULT: -7.694884594      1.373      2.327
REMARK  10 active torsions:
REMARK  status: ('A' for Active; 'I' for Inactive)
REMARK    1  A    between atoms: O1_1  and  C1_3 
REMARK    2  A    between atoms: C1_3  and  C2_4 
REMARK    3  A    between atoms: C2_4  and  C3_5 
REMARK    4  A    between atoms: C3_5  and  C4_6 
REMARK    5  A    between atoms: C7_10  and  N1_11 
REMARK    6  A    between atoms: N2_14  and  C10_15 
REMARK    7  A    between atoms: C10_15  and  C11_16 
REMARK    8  A    between atoms: C10_15  and  C12_19 
REMARK    9  A    between atoms: C11_16  and  O3_17 
REMARK   10  A    between atoms: C12_19  and  O4_20 
ROOT
HETATM    1  N1  UNL     1      -5.431  -6.841  -8.014  1.00  0.00    -0.361 N 
HETATM    2  C8  UNL     1      -5.689  -6.767  -6.640  1.00  0.00     0.107 C 
HETATM    3  C9  UNL     1      -4.965  -5.736  -5.850  1.00  0.00     0.103 C 
HETATM    4  N2  UNL     1      -3.710  -5.414  -6.339  1.00  0.00    -0.375 N 
HETATM    5  C13 UNL     1      -3.604  -5.214  -7.736  1.00  0.00     0.167 C 
HETATM    6  C14 UNL     1      -4.288  -6.284  -8.557  1.00  0.00     0.083 C 
ENDROOT
BRANCH   1   7
HETATM    7  C7  UNL     1      -6.617  -6.967  -8.793  1.00  0.00     0.112 C 
HETATM    8  C6  UNL     1      -7.721  -7.383  -7.847  1.00  0.00     0.193 C 
HETATM    9  O2  UNL     1      -8.932  -7.185  -8.449  1.00  0.00    -0.389 OA
HETATM   10  C5  UNL     1      -8.892  -7.010  -9.814  1.00  0.00     0.172 C 
HETATM   11  C4  UNL     1      -7.990  -7.964 -10.526  1.00  0.00     0.011 C 
HETATM   12  C15 UNL     1      -6.571  -7.922  -9.914  1.00  0.00     0.034 C 
BRANCH  11  13
HETATM   13  C3  UNL     1      -8.534  -9.341 -10.496  1.00  0.00     0.009 C 
BRANCH  13  14
HETATM   14  C2  UNL     1     -10.003  -9.435 -10.776  1.00  0.00     0.026 C 
BRANCH  14  15
HETATM   15  C1  UNL     1     -10.733  -9.895  -9.546  1.00  0.00     0.164 C 
BRANCH  15  16
HETATM   16  O1  UNL     1      -9.847 -10.134  -8.488  1.00  0.00    -0.401 OA
ATOM     17  H1  UNL     1     -10.277 -10.590  -7.774  1.00  0.00     0.209 HD
ENDBRANCH  15  16
ENDBRANCH  14  15
ENDBRANCH  13  14
ENDBRANCH  11  13
ENDBRANCH   1   7
BRANCH   4  18
HETATM   18  C10 UNL     1      -2.570  -5.323  -5.556  1.00  0.00     0.131 C 
BRANCH  18  19
HETATM   19  C11 UNL     1      -1.336  -5.637  -6.377  1.00  0.00     0.191 C 
BRANCH  19  20
HETATM   20  O3  UNL     1      -0.199  -5.033  -5.884  1.00  0.00    -0.399 OA
ATOM     21  H3  UNL     1       0.055  -4.265  -6.383  1.00  0.00     0.209 HD
ENDBRANCH  19  20
ENDBRANCH  18  19
BRANCH  18  22
HETATM   22  C12 UNL     1      -2.399  -4.072  -4.732  1.00  0.00     0.191 C 
BRANCH  22  23
HETATM   23  O4  UNL     1      -2.537  -2.902  -5.425  1.00  0.00    -0.399 OA
ATOM     24  H4  UNL     1      -3.104  -2.259  -5.017  1.00  0.00     0.209 HD
ENDBRANCH  22  23
ENDBRANCH  18  22
ENDBRANCH   4  18
TORSDOF 10
ENDMDL
MODEL 5
REMARK VINA RESULT: -7.461875522      1.730      2.602
REMARK  10 active torsions:
REMARK  status: ('A' for Active; 'I' for Inactive)
REMARK    1  A    between atoms: O1_1  and  C1_3 
REMARK    2  A    between atoms: C1_3  and  C2_4 
REMARK    3  A    between atoms: C2_4  and  C3_5 
REMARK    4  A    between atoms: C3_5  and  C4_6 
REMARK    5  A    between atoms: C7_10  and  N1_11 
REMARK    6  A    between atoms: N2_14  and  C10_15 
REMARK    7  A    between atoms: C10_15  and  C11_16 
REMARK    8  A    between atoms: C10_15  and  C12_19 
REMARK    9  A    between atoms: C11_16  and  O3_17 
REMARK   10  A    between atoms: C12_19  and  O4_20 
ROOT
HETATM    1  N1  UNL     1      -4.014  -6.373  -7.085  1.00  0.00    -0.361 N 
HETATM    2  C8  UNL     1      -4.357  -6.045  -5.767  1.00  0.00     0.107 C 
HETATM    3  C9  UNL     1      -3.525  -5.033  -5.063  1.00  0.00     0.103 C 
HETATM    4  N2  UNL     1      -2.201  -4.996  -5.466  1.00  0.00    -0.375 N 
HETATM    5  C13 UNL     1      -1.958  -5.037  -6.860  1.00  0.00     0.167 C 
HETATM    6  C14 UNL     1      -2.755  -6.098  -7.586  1.00  0.00     0.083 C 
ENDROOT
BRANCH   1   7
HETATM    7  C7  UNL     1      -5.143  -6.426  -7.953  1.00  0.00     0.112 C 
HETATM    8  C6  UNL     1      -6.338  -6.783  -7.096  1.00  0.00     0.193 C 
HETATM    9  O2  UNL     1      -7.487  -6.513  -7.786  1.00  0.00    -0.389 OA
HETATM   10  C5  UNL     1      -7.334  -6.334  -9.142  1.00  0.00     0.172 C 
HETATM   11  C4  UNL     1      -6.436  -7.334  -9.793  1.00  0.00     0.011 C 
HETATM   12  C15 UNL     1      -5.067  -7.377  -9.075  1.00  0.00     0.034 C 
BRANCH  11  13
HETATM   13  C3  UNL     1      -7.058  -8.678  -9.817  1.00  0.00     0.009 C 
BRANCH  13  14
HETATM   14  C2  UNL     1      -8.472  -8.699 -10.311  1.00  0.00     0.026 C 
BRANCH  14  15
HETATM   15  C1  UNL     1      -9.394  -9.150  -9.214  1.00  0.00     0.164 C 
BRANCH  15  16
HETATM   16  O1  UNL     1      -8.689  -9.417  -8.034  1.00  0.00    -0.401 OA
ATOM     17  H1  UNL     1      -9.021  -8.902  -7.309  1.00  0.00     0.209 HD
ENDBRANCH  15  16
ENDBRANCH  14  15
ENDBRANCH  13  14
ENDBRANCH  11  13
ENDBRANCH   1   7
BRANCH   4  18
HETATM   18  C10 UNL     1      -1.123  -4.969  -4.594  1.00  0.00     0.131 C 
BRANCH  18  19
HETATM   19  C11 UNL     1      -1.181  -3.735  -3.718  1.00  0.00     0.191 C 
BRANCH  19  20
HETATM   20  O3  UNL     1      -1.040  -2.566  -4.435  1.00  0.00    -0.399 OA
ATOM     21  H3  UNL     1      -1.289  -1.796  -3.936  1.00  0.00     0.209 HD
ENDBRANCH  19  20
ENDBRANCH  18  19
BRANCH  18  22
HETATM   22  C12 UNL     1      -0.854  -6.219  -3.795  1.00  0.00     0.191 C 
BRANCH  22  23
HETATM   23  O4  UNL     1      -0.389  -7.279  -4.521  1.00  0.00    -0.399 OA
ATOM     24  H4  UNL     1       0.539  -7.251  -4.724  1.00  0.00     0.209 HD
ENDBRANCH  22  23
ENDBRANCH  18  22
ENDBRANCH   4  18
TORSDOF 10
ENDMDL
