MODEL 1
REMARK VINA RESULT: -8.674424843      0.000      0.000
REMARK  16 active torsions:
REMARK  status: ('A' for Active; 'I' for Inactive)
REMARK    1  A    between atoms: C2_2  and  C3_3 
REMARK    2  A    between atoms: C3_3  and  C4_4 
REMARK    3  A    between atoms: C4_4  and  C5_5 
REMARK       I    between atoms: C5_5  and  N1_7 
REMARK    4  A    between atoms: N1_7  and  C6_9 
REMARK    5  A    between atoms: C6_9  and  C7_10 
REMARK    6  A    between atoms: C7_10  and  C8_11 
REMARK    7  A    between atoms: C8_11  and  C9_12 
REMARK    8  A    between atoms: C9_12  and  N2_13 
REMARK    9  A    between atoms: C9_12  and  C18_35 
REMARK       I    between atoms: N2_13  and  C10_15 
REMARK   10  A    between atoms: C10_15  and  C11_17 
REMARK   11  A    between atoms: C11_17  and  N3_18 
REMARK   12  A    between atoms: C11_17  and  C12_22 
REMARK   13  A    between atoms: C12_22  and  C13_23 
REMARK   14  A    between atoms: N4_27  and  S1_28 
REMARK   15  A    between atoms: S1_28  and  N5_29 
REMARK   16  A    between atoms: C22_42  and  N7_43 
ROOT
HETATM    1  C9  UNL     1       6.730 -15.321 -23.445  1.00  0.00     0.090 C 
ENDROOT
BRANCH   1   2
HETATM    2  C8  UNL     1       5.306 -15.105 -23.167  1.00  0.00     0.027 C 
BRANCH   2   3
HETATM    3  C7  UNL     1       4.538 -13.991 -23.743  1.00  0.00     0.022 C 
BRANCH   3   4
HETATM    4  C6  UNL     1       3.896 -13.109 -22.683  1.00  0.00     0.122 C 
BRANCH   4   5
HETATM    5  N1  UNL     1       3.752 -13.775 -21.424  1.00  0.00    -0.361 N 
HETATM    6  C5  UNL     1       3.236 -13.229 -20.233  1.00  0.00     0.217 C 
HETATM    7  O1  UNL     1       2.823 -12.052 -20.126  1.00  0.00    -0.274 OA
ATOM      8  H1  UNL     1       4.055 -14.748 -21.386  1.00  0.00     0.162 HD
BRANCH   6   9
HETATM    9  C4  UNL     1       3.184 -14.126 -19.023  1.00  0.00     0.103 C 
BRANCH   9  10
HETATM   10  C3  UNL     1       3.940 -15.369 -19.337  1.00  0.00     0.009 C 
BRANCH  10  11
HETATM   11  C2  UNL     1       5.041 -15.519 -18.293  1.00  0.00    -0.004 C 
HETATM   12  C1  UNL     1       6.330 -15.098 -18.966  1.00  0.00     0.005 C 
ENDBRANCH  10  11
ENDBRANCH   9  10
ENDBRANCH   6   9
ENDBRANCH   4   5
ENDBRANCH   3   4
ENDBRANCH   2   3
ENDBRANCH   1   2
BRANCH   1  13
HETATM   13  N2  UNL     1       7.286 -13.977 -23.876  1.00  0.00    -0.354 N 
HETATM   14  C10 UNL     1       7.769 -13.785 -25.184  1.00  0.00     0.248 C 
HETATM   15  O2  UNL     1       7.745 -14.732 -26.007  1.00  0.00    -0.271 OA
ATOM     16  H2  UNL     1       7.310 -13.204 -23.210  1.00  0.00     0.162 HD
BRANCH  14  17
HETATM   17  C11 UNL     1       8.306 -12.488 -25.604  1.00  0.00     0.275 C 
BRANCH  17  18
HETATM   18  N3  UNL     1       9.727 -12.464 -25.239  1.00  0.00    -0.066 N 
ATOM     19  H33 UNL     1       9.890 -12.698 -24.259  1.00  0.00     0.275 HD
ATOM     20  H32 UNL     1      10.256 -13.233 -25.649  1.00  0.00     0.275 HD
ATOM     21  H31 UNL     1      10.091 -11.547 -25.496  1.00  0.00     0.275 HD
ENDBRANCH  17  18
BRANCH  17  22
HETATM   22  C12 UNL     1       7.628 -11.340 -24.876  1.00  0.00     0.048 C 
BRANCH  22  23
HETATM   23  C13 UNL     1       6.784 -10.547 -25.851  1.00  0.00     0.002 C 
HETATM   24  C14 UNL     1       5.470 -10.246 -25.187  1.00  0.00     0.007 C 
HETATM   25  C15 UNL     1       4.329 -11.032 -25.798  1.00  0.00     0.016 C 
HETATM   26  C16 UNL     1       4.309 -10.621 -27.253  1.00  0.00     0.109 C 
HETATM   27  N4  UNL     1       5.467 -11.136 -27.882  1.00  0.00    -0.193 NA
HETATM   28  C17 UNL     1       6.654 -11.275 -27.150  1.00  0.00     0.113 C 
BRANCH  27  29
HETATM   29  S1  UNL     1       5.055 -12.597 -28.700  1.00  0.00     0.296 S 
HETATM   30  O3  UNL     1       5.261 -13.787 -27.809  1.00  0.00    -0.189 OA
HETATM   31  O4  UNL     1       5.984 -12.787 -29.889  1.00  0.00    -0.189 OA
BRANCH  29  32
HETATM   32  N5  UNL     1       3.460 -12.622 -29.298  1.00  0.00    -0.316 N 
ATOM     33  H52 UNL     1       3.009 -11.791 -29.680  1.00  0.00     0.170 HD
ATOM     34  H51 UNL     1       3.012 -13.537 -29.235  1.00  0.00     0.170 HD
ENDBRANCH  29  32
ENDBRANCH  27  29
ENDBRANCH  22  23
ENDBRANCH  17  22
ENDBRANCH  14  17
ENDBRANCH   1  13
BRANCH   1  35
HETATM   35  C18 UNL     1       7.657 -15.733 -22.379  1.00  0.00     0.042 C 
HETATM   36  C19 UNL     1       8.823 -14.699 -22.343  1.00  0.00     0.036 C 
HETATM   37  C20 UNL     1       9.540 -14.936 -21.033  1.00  0.00     0.233 C 
HETATM   38  N6  UNL     1      10.039 -16.298 -20.948  1.00  0.00    -0.073 N 
HETATM   39  C21 UNL     1       8.967 -17.259 -21.039  1.00  0.00     0.265 C 
ATOM     40  H62 UNL     1      10.761 -16.475 -21.647  1.00  0.00     0.277 HD
ATOM     41  H61 UNL     1      10.598 -16.439 -20.107  1.00  0.00     0.277 HD
HETATM   42  C22 UNL     1       8.347 -17.043 -22.452  1.00  0.00     0.215 C 
BRANCH  42  43
HETATM   43  N7  UNL     1       9.549 -17.020 -23.310  1.00  0.00    -0.073 N 
ATOM     44  H73 UNL     1       9.598 -16.152 -23.844  1.00  0.00     0.274 HD
ATOM     45  H72 UNL     1      10.394 -16.919 -22.749  1.00  0.00     0.274 HD
ATOM     46  H71 UNL     1       9.617 -17.829 -23.927  1.00  0.00     0.274 HD
ENDBRANCH  42  43
ENDBRANCH   1  35
TORSDOF 16
ENDMDL
MODEL 2
REMARK VINA RESULT: -8.568187038      2.591      7.341
REMARK  16 active torsions:
REMARK  status: ('A' for Active; 'I' for Inactive)
REMARK    1  A    between atoms: C2_2  and  C3_3 
REMARK    2  A    between atoms: C3_3  and  C4_4 
REMARK    3  A    between atoms: C4_4  and  C5_5 
REMARK       I    between atoms: C5_5  and  N1_7 
REMARK    4  A    between atoms: N1_7  and  C6_9 
REMARK    5  A    between atoms: C6_9  and  C7_10 
REMARK    6  A    between atoms: C7_10  and  C8_11 
REMARK    7  A    between atoms: C8_11  and  C9_12 
REMARK    8  A    between atoms: C9_12  and  N2_13 
REMARK    9  A    between atoms: C9_12  and  C18_35 
REMARK       I    between atoms: N2_13  and  C10_15 
REMARK   10  A    between atoms: C10_15  and  C11_17 
REMARK   11  A    between atoms: C11_17  and  N3_18 
REMARK   12  A    between atoms: C11_17  and  C12_22 
REMARK   13  A    between atoms: C12_22  and  C13_23 
REMARK   14  A    between atoms: N4_27  and  S1_28 
REMARK   15  A    between atoms: S1_28  and  N5_29 
REMARK   16  A    between atoms: C22_42  and  N7_43 
ROOT
HETATM    1  C9  UNL     1       6.089 -13.660 -24.107  1.00  0.00     0.090 C 
ENDROOT
BRANCH   1   2
HETATM    2  C8  UNL     1       5.550 -14.387 -25.261  1.00  0.00     0.027 C 
BRANCH   2   3
HETATM    3  C7  UNL     1       4.182 -14.193 -25.762  1.00  0.00     0.022 C 
BRANCH   3   4
HETATM    4  C6  UNL     1       4.143 -13.798 -27.231  1.00  0.00     0.122 C 
BRANCH   4   5
HETATM    5  N1  UNL     1       4.553 -12.444 -27.449  1.00  0.00    -0.361 N 
HETATM    6  C5  UNL     1       5.476 -11.984 -28.409  1.00  0.00     0.217 C 
HETATM    7  O1  UNL     1       6.070 -12.731 -29.219  1.00  0.00    -0.274 OA
ATOM      8  H1  UNL     1       4.132 -11.737 -26.847  1.00  0.00     0.162 HD
BRANCH   6   9
HETATM    9  C4  UNL     1       5.754 -10.504 -28.451  1.00  0.00     0.103 C 
BRANCH   9  10
HETATM   10  C3  UNL     1       5.481  -9.943 -27.100  1.00  0.00     0.009 C 
BRANCH  10  11
HETATM   11  C2  UNL     1       4.573  -8.731 -27.274  1.00  0.00    -0.004 C 
HETATM   12  C1  UNL     1       3.268  -9.072 -26.587  1.00  0.00     0.005 C 
ENDBRANCH  10  11
ENDBRANCH   9  10
ENDBRANCH   6   9
ENDBRANCH   4   5
ENDBRANCH   3   4
ENDBRANCH   2   3
ENDBRANCH   1   2
BRANCH   1  13
HETATM   13  N2  UNL     1       5.999 -14.611 -22.928  1.00  0.00    -0.354 N 
HETATM   14  C10 UNL     1       5.248 -14.271 -21.786  1.00  0.00     0.248 C 
HETATM   15  O2  UNL     1       4.648 -13.171 -21.734  1.00  0.00    -0.271 OA
ATOM     16  H2  UNL     1       6.486 -15.507 -22.964  1.00  0.00     0.162 HD
BRANCH  14  17
HETATM   17  C11 UNL     1       5.158 -15.189 -20.646  1.00  0.00     0.275 C 
BRANCH  17  18
HETATM   18  N3  UNL     1       3.766 -15.175 -20.184  1.00  0.00    -0.066 N 
ATOM     19  H33 UNL     1       3.660 -14.779 -19.250  1.00  0.00     0.275 HD
ATOM     20  H32 UNL     1       3.188 -14.499 -20.681  1.00  0.00     0.275 HD
ATOM     21  H31 UNL     1       3.414 -16.130 -20.255  1.00  0.00     0.275 HD
ENDBRANCH  17  18
BRANCH  17  22
HETATM   22  C12 UNL     1       6.029 -14.729 -19.490  1.00  0.00     0.048 C 
BRANCH  22  23
HETATM   23  C13 UNL     1       7.099 -15.765 -19.216  1.00  0.00     0.002 C 
HETATM   24  C14 UNL     1       8.437 -15.092 -19.346  1.00  0.00     0.007 C 
HETATM   25  C15 UNL     1       9.185 -15.549 -20.582  1.00  0.00     0.016 C 
HETATM   26  C16 UNL     1       9.342 -17.043 -20.411  1.00  0.00     0.109 C 
HETATM   27  N4  UNL     1       8.068 -17.645 -20.530  1.00  0.00    -0.193 NA
HETATM   28  C17 UNL     1       6.927 -16.951 -20.108  1.00  0.00     0.113 C 
BRANCH  27  29
HETATM   29  S1  UNL     1       7.883 -18.248 -22.135  1.00  0.00     0.296 S 
HETATM   30  O3  UNL     1       9.044 -17.844 -22.997  1.00  0.00    -0.189 OA
HETATM   31  O4  UNL     1       6.646 -17.628 -22.766  1.00  0.00    -0.189 OA
BRANCH  29  32
HETATM   32  N5  UNL     1       7.696 -19.939 -22.216  1.00  0.00    -0.316 N 
ATOM     33  H52 UNL     1       7.920 -20.549 -21.430  1.00  0.00     0.170 HD
ATOM     34  H51 UNL     1       7.344 -20.271 -23.113  1.00  0.00     0.170 HD
ENDBRANCH  29  32
ENDBRANCH  27  29
ENDBRANCH  22  23
ENDBRANCH  17  22
ENDBRANCH  14  17
ENDBRANCH   1  13
BRANCH   1  35
HETATM   35  C18 UNL     1       7.494 -13.225 -24.071  1.00  0.00     0.042 C 
HETATM   36  C19 UNL     1       7.894 -12.803 -25.518  1.00  0.00     0.036 C 
HETATM   37  C20 UNL     1       9.188 -12.036 -25.377  1.00  0.00     0.233 C 
HETATM   38  N6  UNL     1      10.219 -12.855 -24.762  1.00  0.00    -0.073 N 
HETATM   39  C21 UNL     1       9.827 -13.294 -23.445  1.00  0.00     0.265 C 
ATOM     40  H62 UNL     1      10.476 -13.642 -25.358  1.00  0.00     0.277 HD
ATOM     41  H61 UNL     1      11.118 -12.373 -24.743  1.00  0.00     0.277 HD
HETATM   42  C22 UNL     1       8.561 -14.173 -23.670  1.00  0.00     0.215 C 
BRANCH  42  43
HETATM   43  N7  UNL     1       8.997 -15.056 -24.771  1.00  0.00    -0.073 N 
ATOM     44  H73 UNL     1       9.018 -14.550 -25.656  1.00  0.00     0.274 HD
ATOM     45  H72 UNL     1       9.987 -15.283 -24.684  1.00  0.00     0.274 HD
ATOM     46  H71 UNL     1       8.436 -15.904 -24.851  1.00  0.00     0.274 HD
ENDBRANCH  42  43
ENDBRANCH   1  35
TORSDOF 16
ENDMDL
MODEL 3
REMARK VINA RESULT: -8.523073099      1.432      1.671
REMARK  16 active torsions:
REMARK  status: ('A' for Active; 'I' for Inactive)
REMARK    1  A    between atoms: C2_2  and  C3_3 
REMARK    2  A    between atoms: C3_3  and  C4_4 
REMARK    3  A    between atoms: C4_4  and  C5_5 
REMARK       I    between atoms: C5_5  and  N1_7 
REMARK    4  A    between atoms: N1_7  and  C6_9 
REMARK    5  A    between atoms: C6_9  and  C7_10 
REMARK    6  A    between atoms: C7_10  and  C8_11 
REMARK    7  A    between atoms: C8_11  and  C9_12 
REMARK    8  A    between atoms: C9_12  and  N2_13 
REMARK    9  A    between atoms: C9_12  and  C18_35 
REMARK       I    between atoms: N2_13  and  C10_15 
REMARK   10  A    between atoms: C10_15  and  C11_17 
REMARK   11  A    between atoms: C11_17  and  N3_18 
REMARK   12  A    between atoms: C11_17  and  C12_22 
REMARK   13  A    between atoms: C12_22  and  C13_23 
REMARK   14  A    between atoms: N4_27  and  S1_28 
REMARK   15  A    between atoms: S1_28  and  N5_29 
REMARK   16  A    between atoms: C22_42  and  N7_43 
ROOT
HETATM    1  C9  UNL     1       7.133 -15.505 -22.330  1.00  0.00     0.090 C 
ENDROOT
BRANCH   1   2
HETATM    2  C8  UNL     1       5.677 -15.654 -22.434  1.00  0.00     0.027 C 
BRANCH   2   3
HETATM    3  C7  UNL     1       4.935 -15.419 -23.682  1.00  0.00     0.022 C 
BRANCH   3   4
HETATM    4  C6  UNL     1       3.942 -14.273 -23.569  1.00  0.00     0.122 C 
BRANCH   4   5
HETATM    5  N1  UNL     1       3.382 -14.154 -22.257  1.00  0.00    -0.361 N 
HETATM    6  C5  UNL     1       3.403 -13.016 -21.429  1.00  0.00     0.217 C 
HETATM    7  O1  UNL     1       3.932 -11.928 -21.751  1.00  0.00    -0.274 OA
ATOM      8  H1  UNL     1       2.918 -14.982 -21.883  1.00  0.00     0.162 HD
BRANCH   6   9
HETATM    9  C4  UNL     1       2.747 -13.129 -20.077  1.00  0.00     0.103 C 
BRANCH   9  10
HETATM   10  C3  UNL     1       3.075 -14.467 -19.513  1.00  0.00     0.009 C 
BRANCH  10  11
HETATM   11  C2  UNL     1       4.440 -14.366 -18.841  1.00  0.00    -0.004 C 
HETATM   12  C1  UNL     1       4.799 -15.765 -18.389  1.00  0.00     0.005 C 
ENDBRANCH  10  11
ENDBRANCH   9  10
ENDBRANCH   6   9
ENDBRANCH   4   5
ENDBRANCH   3   4
ENDBRANCH   2   3
ENDBRANCH   1   2
BRANCH   1  13
HETATM   13  N2  UNL     1       7.442 -14.074 -22.728  1.00  0.00    -0.354 N 
HETATM   14  C10 UNL     1       8.161 -13.795 -23.906  1.00  0.00     0.248 C 
HETATM   15  O2  UNL     1       8.557 -14.735 -24.637  1.00  0.00    -0.271 OA
ATOM     16  H2  UNL     1       7.124 -13.306 -22.137  1.00  0.00     0.162 HD
BRANCH  14  17
HETATM   17  C11 UNL     1       8.461 -12.414 -24.294  1.00  0.00     0.275 C 
BRANCH  17  18
HETATM   18  N3  UNL     1       8.918 -11.712 -23.090  1.00  0.00    -0.066 N 
ATOM     19  H33 UNL     1       8.536 -12.105 -22.230  1.00  0.00     0.275 HD
ATOM     20  H32 UNL     1       9.903 -11.875 -22.883  1.00  0.00     0.275 HD
ATOM     21  H31 UNL     1       8.694 -10.725 -23.211  1.00  0.00     0.275 HD
ENDBRANCH  17  18
BRANCH  17  22
HETATM   22  C12 UNL     1       7.223 -11.695 -24.800  1.00  0.00     0.048 C 
BRANCH  22  23
HETATM   23  C13 UNL     1       7.313 -11.522 -26.302  1.00  0.00     0.002 C 
HETATM   24  C14 UNL     1       6.843 -10.134 -26.636  1.00  0.00     0.007 C 
HETATM   25  C15 UNL     1       5.502 -10.140 -27.340  1.00  0.00     0.016 C 
HETATM   26  C16 UNL     1       5.725 -10.956 -28.594  1.00  0.00     0.109 C 
HETATM   27  N4  UNL     1       5.933 -12.304 -28.222  1.00  0.00    -0.193 NA
HETATM   28  C17 UNL     1       6.557 -12.603 -27.004  1.00  0.00     0.113 C 
BRANCH  27  29
HETATM   29  S1  UNL     1       4.451 -13.168 -28.401  1.00  0.00     0.296 S 
HETATM   30  O3  UNL     1       4.050 -13.819 -27.110  1.00  0.00    -0.189 OA
HETATM   31  O4  UNL     1       4.642 -14.292 -29.406  1.00  0.00    -0.189 OA
BRANCH  29  32
HETATM   32  N5  UNL     1       3.160 -12.206 -28.959  1.00  0.00    -0.316 N 
ATOM     33  H52 UNL     1       3.292 -11.241 -29.262  1.00  0.00     0.170 HD
ATOM     34  H51 UNL     1       2.260 -12.686 -28.959  1.00  0.00     0.170 HD
ENDBRANCH  29  32
ENDBRANCH  27  29
ENDBRANCH  22  23
ENDBRANCH  17  22
ENDBRANCH  14  17
ENDBRANCH   1  13
BRANCH   1  35
HETATM   35  C18 UNL     1       7.819 -15.641 -21.036  1.00  0.00     0.042 C 
HETATM   36  C19 UNL     1       7.906 -14.221 -20.397  1.00  0.00     0.036 C 
HETATM   37  C20 UNL     1       8.273 -14.447 -18.948  1.00  0.00     0.233 C 
HETATM   38  N6  UNL     1       9.535 -15.156 -18.831  1.00  0.00    -0.073 N 
HETATM   39  C21 UNL     1       9.474 -16.448 -19.471  1.00  0.00     0.265 C 
ATOM     40  H62 UNL     1      10.311 -14.599 -19.186  1.00  0.00     0.277 HD
ATOM     41  H61 UNL     1       9.830 -15.235 -17.858  1.00  0.00     0.277 HD
HETATM   42  C22 UNL     1       9.212 -16.143 -20.976  1.00  0.00     0.215 C 
BRANCH  42  43
HETATM   43  N7  UNL     1      10.219 -15.098 -21.254  1.00  0.00    -0.073 N 
ATOM     44  H73 UNL     1      10.025 -14.254 -20.714  1.00  0.00     0.274 HD
ATOM     45  H72 UNL     1      11.123 -15.349 -20.853  1.00  0.00     0.274 HD
ATOM     46  H71 UNL     1      10.309 -14.882 -22.246  1.00  0.00     0.274 HD
ENDBRANCH  42  43
ENDBRANCH   1  35
TORSDOF 16
ENDMDL
MODEL 4
REMARK VINA RESULT: -8.488145292      1.720      2.131
REMARK  16 active torsions:
REMARK  status: ('A' for Active; 'I' for Inactive)
REMARK    1  A    between atoms: C2_2  and  C3_3 
REMARK    2  A    between atoms: C3_3  and  C4_4 
REMARK    3  A    between atoms: C4_4  and  C5_5 
REMARK       I    between atoms: C5_5  and  N1_7 
REMARK    4  A    between atoms: N1_7  and  C6_9 
REMARK    5  A    between atoms: C6_9  and  C7_10 
REMARK    6  A    between atoms: C7_10  and  C8_11 
REMARK    7  A    between atoms: C8_11  and  C9_12 
REMARK    8  A    between atoms: C9_12  and  N2_13 
REMARK    9  A    between atoms: C9_12  and  C18_35 
REMARK       I    between atoms: N2_13  and  C10_15 
REMARK   10  A    between atoms: C10_15  and  C11_17 
REMARK   11  A    between atoms: C11_17  and  N3_18 
REMARK   12  A    between atoms: C11_17  and  C12_22 
REMARK   13  A    between atoms: C12_22  and  C13_23 
REMARK   14  A    between atoms: N4_27  and  S1_28 
REMARK   15  A    between atoms: S1_28  and  N5_29 
REMARK   16  A    between atoms: C22_42  and  N7_43 
ROOT
HETATM    1  C9  UNL     1       6.771 -15.534 -23.356  1.00  0.00     0.090 C 
ENDROOT
BRANCH   1   2
HETATM    2  C8  UNL     1       5.341 -15.281 -23.151  1.00  0.00     0.027 C 
BRANCH   2   3
HETATM    3  C7  UNL     1       4.292 -16.220 -23.575  1.00  0.00     0.022 C 
BRANCH   3   4
HETATM    4  C6  UNL     1       3.893 -17.192 -22.474  1.00  0.00     0.122 C 
BRANCH   4   5
HETATM    5  N1  UNL     1       4.086 -16.650 -21.164  1.00  0.00    -0.361 N 
HETATM    6  C5  UNL     1       4.744 -17.268 -20.082  1.00  0.00     0.217 C 
HETATM    7  O1  UNL     1       5.261 -18.406 -20.139  1.00  0.00    -0.274 OA
ATOM      8  H1  UNL     1       3.706 -15.718 -20.995  1.00  0.00     0.162 HD
BRANCH   6   9
HETATM    9  C4  UNL     1       4.822 -16.500 -18.788  1.00  0.00     0.103 C 
BRANCH   9  10
HETATM   10  C3  UNL     1       4.897 -15.050 -19.114  1.00  0.00     0.009 C 
BRANCH  10  11
HETATM   11  C2  UNL     1       3.710 -14.362 -18.448  1.00  0.00    -0.004 C 
HETATM   12  C1  UNL     1       2.852 -13.811 -19.567  1.00  0.00     0.005 C 
ENDBRANCH  10  11
ENDBRANCH   9  10
ENDBRANCH   6   9
ENDBRANCH   4   5
ENDBRANCH   3   4
ENDBRANCH   2   3
ENDBRANCH   1   2
BRANCH   1  13
HETATM   13  N2  UNL     1       7.411 -14.179 -23.595  1.00  0.00    -0.354 N 
HETATM   14  C10 UNL     1       7.751 -13.765 -24.897  1.00  0.00     0.248 C 
HETATM   15  O2  UNL     1       7.529 -14.520 -25.874  1.00  0.00    -0.271 OA
ATOM     16  H2  UNL     1       7.597 -13.562 -22.804  1.00  0.00     0.162 HD
BRANCH  14  17
HETATM   17  C11 UNL     1       8.369 -12.457 -25.132  1.00  0.00     0.275 C 
BRANCH  17  18
HETATM   18  N3  UNL     1       9.822 -12.655 -25.141  1.00  0.00    -0.066 N 
ATOM     19  H33 UNL     1      10.231 -12.653 -24.206  1.00  0.00     0.275 HD
ATOM     20  H32 UNL     1      10.093 -13.603 -25.401  1.00  0.00     0.275 HD
ATOM     21  H31 UNL     1      10.222 -11.944 -25.753  1.00  0.00     0.275 HD
ENDBRANCH  17  18
BRANCH  17  22
HETATM   22  C12 UNL     1       8.048 -11.479 -24.015  1.00  0.00     0.048 C 
BRANCH  22  23
HETATM   23  C13 UNL     1       6.995 -10.497 -24.485  1.00  0.00     0.002 C 
HETATM   24  C14 UNL     1       5.686 -10.888 -23.858  1.00  0.00     0.007 C 
HETATM   25  C15 UNL     1       4.717 -11.460 -24.873  1.00  0.00     0.016 C 
HETATM   26  C16 UNL     1       4.526 -10.358 -25.891  1.00  0.00     0.109 C 
HETATM   27  N4  UNL     1       5.732 -10.196 -26.610  1.00  0.00    -0.193 NA
HETATM   28  C17 UNL     1       6.959 -10.436 -25.978  1.00  0.00     0.113 C 
BRANCH  27  29
HETATM   29  S1  UNL     1       5.613 -11.052 -28.102  1.00  0.00     0.296 S 
HETATM   30  O3  UNL     1       6.289 -12.389 -28.009  1.00  0.00    -0.189 OA
HETATM   31  O4  UNL     1       6.344 -10.277 -29.187  1.00  0.00    -0.189 OA
BRANCH  29  32
HETATM   32  N5  UNL     1       4.011 -11.278 -28.637  1.00  0.00    -0.316 N 
ATOM     33  H52 UNL     1       3.301 -10.552 -28.549  1.00  0.00     0.170 HD
ATOM     34  H51 UNL     1       3.840 -12.197 -29.045  1.00  0.00     0.170 HD
ENDBRANCH  29  32
ENDBRANCH  27  29
ENDBRANCH  22  23
ENDBRANCH  17  22
ENDBRANCH  14  17
ENDBRANCH   1  13
BRANCH   1  35
HETATM   35  C18 UNL     1       7.602 -16.105 -22.284  1.00  0.00     0.042 C 
HETATM   36  C19 UNL     1       8.951 -15.323 -22.266  1.00  0.00     0.036 C 
HETATM   37  C20 UNL     1       9.611 -15.676 -20.954  1.00  0.00     0.233 C 
HETATM   38  N6  UNL     1       9.830 -17.108 -20.846  1.00  0.00    -0.073 N 
HETATM   39  C21 UNL     1       8.588 -17.838 -20.919  1.00  0.00     0.265 C 
ATOM     40  H62 UNL     1      10.499 -17.437 -21.542  1.00  0.00     0.277 HD
ATOM     41  H61 UNL     1      10.353 -17.344 -20.002  1.00  0.00     0.277 HD
HETATM   42  C22 UNL     1       8.017 -17.527 -22.335  1.00  0.00     0.215 C 
BRANCH  42  43
HETATM   43  N7  UNL     1       9.196 -17.757 -23.195  1.00  0.00    -0.073 N 
ATOM     44  H73 UNL     1       8.945 -17.692 -24.181  1.00  0.00     0.274 HD
ATOM     45  H72 UNL     1       9.848 -16.975 -23.135  1.00  0.00     0.274 HD
ATOM     46  H71 UNL     1       9.670 -18.639 -22.999  1.00  0.00     0.274 HD
ENDBRANCH  42  43
ENDBRANCH   1  35
TORSDOF 16
ENDMDL
MODEL 5
REMARK VINA RESULT: -8.434379914      1.648      1.992
REMARK  16 active torsions:
REMARK  status: ('A' for Active; 'I' for Inactive)
REMARK    1  A    between atoms: C2_2  and  C3_3 
REMARK    2  A    between atoms: C3_3  and  C4_4 
REMARK    3  A    between atoms: C4_4  and  C5_5 
REMARK       I    between atoms: C5_5  and  N1_7 
REMARK    4  A    between atoms: N1_7  and  C6_9 
REMARK    5  A    between atoms: C6_9  and  C7_10 
REMARK    6  A    between atoms: C7_10  and  C8_11 
REMARK    7  A    between atoms: C8_11  and  C9_12 
REMARK    8  A    between atoms: C9_12  and  N2_13 
REMARK    9  A    between atoms: C9_12  and  C18_35 
REMARK       I    between atoms: N2_13  and  C10_15 
REMARK   10  A    between atoms: C10_15  and  C11_17 
REMARK   11  A    between atoms: C11_17  and  N3_18 
REMARK   12  A    between atoms: C11_17  and  C12_22 
REMARK   13  A    between atoms: C12_22  and  C13_23 
REMARK   14  A    between atoms: N4_27  and  S1_28 
REMARK   15  A    between atoms: S1_28  and  N5_29 
REMARK   16  A    between atoms: C22_42  and  N7_43 
ROOT
HETATM    1  C9  UNL     1       5.920 -16.998 -22.509  1.00  0.00     0.090 C 
ENDROOT
BRANCH   1   2
HETATM    2  C8  UNL     1       4.553 -16.969 -21.978  1.00  0.00     0.027 C 
BRANCH   2   3
HETATM    3  C7  UNL     1       3.363 -16.874 -22.837  1.00  0.00     0.022 C 
BRANCH   3   4
HETATM    4  C6  UNL     1       2.105 -16.513 -22.061  1.00  0.00     0.122 C 
BRANCH   4   5
HETATM    5  N1  UNL     1       2.385 -15.777 -20.866  1.00  0.00    -0.361 N 
HETATM    6  C5  UNL     1       2.406 -14.376 -20.721  1.00  0.00     0.217 C 
HETATM    7  O1  UNL     1       2.171 -13.575 -21.653  1.00  0.00    -0.274 OA
ATOM      8  H1  UNL     1       2.592 -16.325 -20.031  1.00  0.00     0.162 HD
BRANCH   6   9
HETATM    9  C4  UNL     1       2.732 -13.825 -19.357  1.00  0.00     0.103 C 
BRANCH   9  10
HETATM   10  C3  UNL     1       3.757 -14.706 -18.734  1.00  0.00     0.009 C 
BRANCH  10  11
HETATM   11  C2  UNL     1       5.095 -14.406 -19.400  1.00  0.00    -0.004 C 
HETATM   12  C1  UNL     1       6.143 -15.167 -18.616  1.00  0.00     0.005 C 
ENDBRANCH  10  11
ENDBRANCH   9  10
ENDBRANCH   6   9
ENDBRANCH   4   5
ENDBRANCH   3   4
ENDBRANCH   2   3
ENDBRANCH   1   2
BRANCH   1  13
HETATM   13  N2  UNL     1       6.410 -15.562 -22.492  1.00  0.00    -0.354 N 
HETATM   14  C10 UNL     1       6.324 -14.760 -23.646  1.00  0.00     0.248 C 
HETATM   15  O2  UNL     1       5.840 -15.231 -24.704  1.00  0.00    -0.271 OA
ATOM     16  H2  UNL     1       6.807 -15.173 -21.636  1.00  0.00     0.162 HD
BRANCH  14  17
HETATM   17  C11 UNL     1       6.796 -13.372 -23.633  1.00  0.00     0.275 C 
BRANCH  17  18
HETATM   18  N3  UNL     1       7.441 -13.142 -22.336  1.00  0.00    -0.066 N 
ATOM     19  H33 UNL     1       6.782 -13.146 -21.557  1.00  0.00     0.275 HD
ATOM     20  H32 UNL     1       8.012 -13.929 -22.030  1.00  0.00     0.275 HD
ATOM     21  H31 UNL     1       7.967 -12.272 -22.408  1.00  0.00     0.275 HD
ENDBRANCH  17  18
BRANCH  17  22
HETATM   22  C12 UNL     1       5.645 -12.389 -23.752  1.00  0.00     0.048 C 
BRANCH  22  23
HETATM   23  C13 UNL     1       5.906 -11.436 -24.900  1.00  0.00     0.002 C 
HETATM   24  C14 UNL     1       4.803 -10.415 -24.913  1.00  0.00     0.007 C 
HETATM   25  C15 UNL     1       3.870 -10.599 -26.092  1.00  0.00     0.016 C 
HETATM   26  C16 UNL     1       4.754 -10.461 -27.312  1.00  0.00     0.109 C 
HETATM   27  N4  UNL     1       5.618 -11.578 -27.370  1.00  0.00    -0.193 NA
HETATM   28  C17 UNL     1       6.054 -12.185 -26.185  1.00  0.00     0.113 C 
BRANCH  27  29
HETATM   29  S1  UNL     1       4.961 -12.735 -28.467  1.00  0.00     0.296 S 
HETATM   30  O3  UNL     1       4.880 -14.092 -27.831  1.00  0.00    -0.189 OA
HETATM   31  O4  UNL     1       5.890 -12.878 -29.663  1.00  0.00    -0.189 OA
BRANCH  29  32
HETATM   32  N5  UNL     1       3.425 -12.314 -29.070  1.00  0.00    -0.316 N 
ATOM     33  H52 UNL     1       3.205 -11.370 -29.388  1.00  0.00     0.170 HD
ATOM     34  H51 UNL     1       2.760 -13.088 -29.079  1.00  0.00     0.170 HD
ENDBRANCH  29  32
ENDBRANCH  27  29
ENDBRANCH  22  23
ENDBRANCH  17  22
ENDBRANCH  14  17
ENDBRANCH   1  13
BRANCH   1  35
HETATM   35  C18 UNL     1       6.992 -17.719 -21.805  1.00  0.00     0.042 C 
HETATM   36  C19 UNL     1       7.945 -16.654 -21.181  1.00  0.00     0.036 C 
HETATM   37  C20 UNL     1       8.800 -17.404 -20.185  1.00  0.00     0.233 C 
HETATM   38  N6  UNL     1       9.548 -18.468 -20.832  1.00  0.00    -0.073 N 
HETATM   39  C21 UNL     1       8.668 -19.424 -21.460  1.00  0.00     0.265 C 
ATOM     40  H62 UNL     1      10.230 -18.096 -21.493  1.00  0.00     0.277 HD
ATOM     41  H61 UNL     1      10.191 -18.921 -20.183  1.00  0.00     0.277 HD
HETATM   42  C22 UNL     1       7.905 -18.618 -22.552  1.00  0.00     0.215 C 
BRANCH  42  43
HETATM   43  N7  UNL     1       9.006 -17.899 -23.225  1.00  0.00    -0.073 N 
ATOM     44  H73 UNL     1       8.908 -16.891 -23.107  1.00  0.00     0.274 HD
ATOM     45  H72 UNL     1       9.887 -18.041 -22.730  1.00  0.00     0.274 HD
ATOM     46  H71 UNL     1       9.100 -18.142 -24.211  1.00  0.00     0.274 HD
ENDBRANCH  42  43
ENDBRANCH   1  35
TORSDOF 16
ENDMDL
