MODEL 1
REMARK VINA RESULT: -4.295775279      0.000      0.000
REMARK  2 active torsions:
REMARK  status: ('A' for Active; 'I' for Inactive)
REMARK    1  A    between atoms: C4_5  and  C5_6 
REMARK    2  A    between atoms: C5_6  and  O2_9 
ROOT
HETATM    1  C1  UNL     1      24.690  -3.780 -18.823  1.00  0.00     0.045 C 
HETATM    2  C2  UNL     1      23.985  -2.589 -19.419  1.00  0.00     0.180 C 
HETATM    3  C3  UNL     1      24.945  -1.758 -20.274  1.00  0.00     0.205 C 
HETATM    4  O1  UNL     1      24.635  -2.049 -21.625  1.00  0.00    -0.353 OA
HETATM    5  C4  UNL     1      23.414  -1.464 -21.881  1.00  0.00     0.330 C 
HETATM    6  O3  UNL     1      22.524  -1.887 -20.894  1.00  0.00    -0.204 OA
HETATM    7  O4  UNL     1      22.944  -2.961 -20.270  1.00  0.00    -0.231 OA
ENDROOT
BRANCH   5   8
HETATM    8  C5  UNL     1      22.829  -1.813 -23.209  1.00  0.00     0.103 C 
HETATM    9  C6  UNL     1      22.980  -0.673 -24.189  1.00  0.00     0.051 C 
HETATM   10  C7  UNL     1      21.389  -2.207 -23.163  1.00  0.00     0.051 C 
BRANCH   8  11
HETATM   11  O2  UNL     1      23.560  -2.892 -23.723  1.00  0.00    -0.386 OA
ATOM     12  H2  UNL     1      23.082  -3.231 -24.472  1.00  0.00     0.210 HD
ENDBRANCH   8  11
ENDBRANCH   5   8
TORSDOF 2
ENDMDL
MODEL 2
REMARK VINA RESULT: -3.997777143      0.842      1.303
REMARK  2 active torsions:
REMARK  status: ('A' for Active; 'I' for Inactive)
REMARK    1  A    between atoms: C4_5  and  C5_6 
REMARK    2  A    between atoms: C5_6  and  O2_9 
ROOT
HETATM    1  C1  UNL     1      24.696  -3.855 -18.780  1.00  0.00     0.045 C 
HETATM    2  C2  UNL     1      23.997  -2.637 -19.327  1.00  0.00     0.180 C 
HETATM    3  C3  UNL     1      24.902  -1.881 -20.303  1.00  0.00     0.205 C 
HETATM    4  O1  UNL     1      24.429  -2.179 -21.604  1.00  0.00    -0.353 OA
HETATM    5  C4  UNL     1      23.223  -1.528 -21.741  1.00  0.00     0.330 C 
HETATM    6  O3  UNL     1      22.425  -1.878 -20.651  1.00  0.00    -0.204 OA
HETATM    7  O4  UNL     1      22.849  -2.963 -20.050  1.00  0.00    -0.231 OA
ENDROOT
BRANCH   5   8
HETATM    8  C5  UNL     1      22.475  -1.868 -22.987  1.00  0.00     0.103 C 
HETATM    9  C6  UNL     1      22.984  -3.155 -23.595  1.00  0.00     0.051 C 
HETATM   10  C7  UNL     1      22.511  -0.806 -24.035  1.00  0.00     0.051 C 
BRANCH   8  11
HETATM   11  O2  UNL     1      21.138  -2.085 -22.632  1.00  0.00    -0.386 OA
ATOM     12  H2  UNL     1      20.769  -2.693 -23.263  1.00  0.00     0.210 HD
ENDBRANCH   8  11
ENDBRANCH   5   8
TORSDOF 2
ENDMDL
MODEL 3
REMARK VINA RESULT: -3.979666119      0.923      1.164
REMARK  2 active torsions:
REMARK  status: ('A' for Active; 'I' for Inactive)
REMARK    1  A    between atoms: C4_5  and  C5_6 
REMARK    2  A    between atoms: C5_6  and  O2_9 
ROOT
HETATM    1  C1  UNL     1      24.517  -3.511 -19.069  1.00  0.00     0.045 C 
HETATM    2  C2  UNL     1      23.906  -2.352 -19.814  1.00  0.00     0.180 C 
HETATM    3  C3  UNL     1      24.888  -1.783 -20.840  1.00  0.00     0.205 C 
HETATM    4  O1  UNL     1      24.455  -2.241 -22.108  1.00  0.00    -0.353 OA
HETATM    5  C4  UNL     1      23.290  -1.562 -22.393  1.00  0.00     0.330 C 
HETATM    6  O3  UNL     1      22.431  -1.718 -21.305  1.00  0.00    -0.204 OA
HETATM    7  O4  UNL     1      22.774  -2.725 -20.538  1.00  0.00    -0.231 OA
ENDROOT
BRANCH   5   8
HETATM    8  C5  UNL     1      22.579  -2.041 -23.614  1.00  0.00     0.103 C 
HETATM    9  C6  UNL     1      21.097  -1.759 -23.529  1.00  0.00     0.051 C 
HETATM   10  C7  UNL     1      22.766  -3.492 -23.906  1.00  0.00     0.051 C 
BRANCH   8  11
HETATM   11  O2  UNL     1      23.071  -1.309 -24.703  1.00  0.00    -0.386 OA
ATOM     12  H2  UNL     1      22.771  -1.739 -25.496  1.00  0.00     0.210 HD
ENDBRANCH   8  11
ENDBRANCH   5   8
TORSDOF 2
ENDMDL
MODEL 4
REMARK VINA RESULT: -3.334869046      1.244      4.225
REMARK  2 active torsions:
REMARK  status: ('A' for Active; 'I' for Inactive)
REMARK    1  A    between atoms: C4_5  and  C5_6 
REMARK    2  A    between atoms: C5_6  and  O2_9 
ROOT
HETATM    1  C1  UNL     1      22.468  -2.730 -24.001  1.00  0.00     0.045 C 
HETATM    2  C2  UNL     1      23.028  -1.916 -22.862  1.00  0.00     0.180 C 
HETATM    3  C3  UNL     1      22.041  -1.863 -21.693  1.00  0.00     0.205 C 
HETATM    4  O1  UNL     1      22.537  -2.750 -20.707  1.00  0.00    -0.353 OA
HETATM    5  C4  UNL     1      23.666  -2.160 -20.181  1.00  0.00     0.330 C 
HETATM    6  O3  UNL     1      24.502  -1.819 -21.244  1.00  0.00    -0.204 OA
HETATM    7  O4  UNL     1      24.201  -2.466 -22.344  1.00  0.00    -0.231 OA
ENDROOT
BRANCH   5   8
HETATM    8  C5  UNL     1      24.439  -3.029 -19.247  1.00  0.00     0.103 C 
HETATM    9  C6  UNL     1      23.518  -3.791 -18.321  1.00  0.00     0.051 C 
HETATM   10  C7  UNL     1      25.443  -2.301 -18.417  1.00  0.00     0.051 C 
BRANCH   8  11
HETATM   11  O2  UNL     1      25.119  -3.981 -20.019  1.00  0.00    -0.386 OA
ATOM     12  H2  UNL     1      24.978  -4.830 -19.616  1.00  0.00     0.210 HD
ENDBRANCH   8  11
ENDBRANCH   5   8
TORSDOF 2
ENDMDL
MODEL 5
REMARK VINA RESULT: -2.778893122      1.167      2.177
REMARK  2 active torsions:
REMARK  status: ('A' for Active; 'I' for Inactive)
REMARK    1  A    between atoms: C4_5  and  C5_6 
REMARK    2  A    between atoms: C5_6  and  O2_9 
ROOT
HETATM    1  C1  UNL     1      25.289  -2.111 -18.738  1.00  0.00     0.045 C 
HETATM    2  C2  UNL     1      24.609  -2.863 -19.853  1.00  0.00     0.180 C 
HETATM    3  C3  UNL     1      23.133  -3.103 -19.528  1.00  0.00     0.205 C 
HETATM    4  O1  UNL     1      22.393  -2.181 -20.307  1.00  0.00    -0.353 OA
HETATM    5  C4  UNL     1      22.491  -2.606 -21.614  1.00  0.00     0.330 C 
HETATM    6  O3  UNL     1      23.843  -2.781 -21.905  1.00  0.00    -0.204 OA
HETATM    7  O4  UNL     1      24.622  -2.155 -21.055  1.00  0.00    -0.231 OA
ENDROOT
BRANCH   5   8
HETATM    8  C5  UNL     1      21.923  -1.656 -22.616  1.00  0.00     0.103 C 
HETATM    9  C6  UNL     1      21.169  -2.392 -23.699  1.00  0.00     0.051 C 
HETATM   10  C7  UNL     1      22.933  -0.770 -23.265  1.00  0.00     0.051 C 
BRANCH   8  11
HETATM   11  O2  UNL     1      20.993  -0.846 -21.951  1.00  0.00    -0.386 OA
ATOM     12  H2  UNL     1      20.127  -1.109 -22.238  1.00  0.00     0.210 HD
ENDBRANCH   8  11
ENDBRANCH   5   8
TORSDOF 2
ENDMDL
