MODEL 1
REMARK VINA RESULT: -4.310655685      0.000      0.000
REMARK  2 active torsions:
REMARK  status: ('A' for Active; 'I' for Inactive)
REMARK    1  A    between atoms: O1_2  and  C2_3 
REMARK    2  A    between atoms: C6_8  and  O2_9 
ROOT
HETATM    1  C2  UNL     1      23.846  -2.514 -21.273  1.00  0.00     0.263 C 
HETATM    2  C3  UNL     1      22.498  -1.983 -20.990  1.00  0.00     0.061 C 
HETATM    3  C4  UNL     1      21.502  -2.070 -22.078  1.00  0.00     0.015 C 
HETATM    4  C5  UNL     1      22.035  -2.409 -23.423  1.00  0.00     0.079 C 
HETATM    5  S1  UNL     1      22.990  -0.946 -23.984  1.00  0.00    -0.110 SA
HETATM    6  C6  UNL     1      24.183  -0.648 -22.622  1.00  0.00     0.325 C 
HETATM    7  O3  UNL     1      24.606  -1.853 -22.176  1.00  0.00    -0.323 OA
ENDROOT
BRANCH   1   8
HETATM    8  O1  UNL     1      24.567  -2.540 -20.064  1.00  0.00    -0.366 OA
HETATM    9  C1  UNL     1      23.874  -3.194 -19.059  1.00  0.00     0.204 C 
ENDBRANCH   1   8
BRANCH   6  10
HETATM   10  O2  UNL     1      25.286  -0.011 -23.240  1.00  0.00    -0.362 OA
ATOM     11  H2  UNL     1      25.891   0.170 -22.530  1.00  0.00     0.213 HD
ENDBRANCH   6  10
TORSDOF 2
ENDMDL
MODEL 2
REMARK VINA RESULT: -4.148077289      1.879      2.737
REMARK  2 active torsions:
REMARK  status: ('A' for Active; 'I' for Inactive)
REMARK    1  A    between atoms: O1_2  and  C2_3 
REMARK    2  A    between atoms: C6_8  and  O2_9 
ROOT
HETATM    1  C2  UNL     1      22.655  -2.045 -20.880  1.00  0.00     0.263 C 
HETATM    2  C3  UNL     1      23.987  -2.529 -21.295  1.00  0.00     0.061 C 
HETATM    3  C4  UNL     1      24.779  -1.641 -22.171  1.00  0.00     0.015 C 
HETATM    4  C5  UNL     1      24.045  -0.499 -22.777  1.00  0.00     0.079 C 
HETATM    5  S1  UNL     1      22.895  -1.223 -24.012  1.00  0.00    -0.110 SA
HETATM    6  C6  UNL     1      21.942  -2.465 -23.056  1.00  0.00     0.325 C 
HETATM    7  O3  UNL     1      21.699  -1.942 -21.831  1.00  0.00    -0.323 OA
ENDROOT
BRANCH   1   8
HETATM    8  O1  UNL     1      22.164  -2.917 -19.890  1.00  0.00    -0.366 OA
HETATM    9  C1  UNL     1      23.151  -3.297 -18.995  1.00  0.00     0.204 C 
ENDBRANCH   1   8
BRANCH   6  10
HETATM   10  O2  UNL     1      20.702  -2.568 -23.730  1.00  0.00    -0.362 OA
ATOM     11  H2  UNL     1      20.088  -2.091 -23.183  1.00  0.00     0.213 HD
ENDBRANCH   6  10
TORSDOF 2
ENDMDL
MODEL 3
REMARK VINA RESULT: -3.255729978      2.157      3.690
REMARK  2 active torsions:
REMARK  status: ('A' for Active; 'I' for Inactive)
REMARK    1  A    between atoms: O1_2  and  C2_3 
REMARK    2  A    between atoms: C6_8  and  O2_9 
ROOT
HETATM    1  C2  UNL     1      24.588  -1.419 -21.064  1.00  0.00     0.263 C 
HETATM    2  C3  UNL     1      23.791  -2.302 -21.939  1.00  0.00     0.061 C 
HETATM    3  C4  UNL     1      22.396  -2.567 -21.529  1.00  0.00     0.015 C 
HETATM    4  C5  UNL     1      22.035  -2.162 -20.145  1.00  0.00     0.079 C 
HETATM    5  S1  UNL     1      22.920  -3.315 -19.023  1.00  0.00    -0.110 SA
HETATM    6  C6  UNL     1      24.674  -3.178 -19.543  1.00  0.00     0.325 C 
HETATM    7  O3  UNL     1      24.916  -1.879 -19.836  1.00  0.00    -0.323 OA
ENDROOT
BRANCH   1   8
HETATM    8  O1  UNL     1      25.792  -1.118 -21.730  1.00  0.00    -0.366 OA
HETATM    9  C1  UNL     1      25.680   0.012 -22.523  1.00  0.00     0.204 C 
ENDBRANCH   1   8
BRANCH   6  10
HETATM   10  O2  UNL     1      25.422  -3.501 -18.385  1.00  0.00    -0.362 OA
ATOM     11  H2  UNL     1      25.302  -2.759 -17.803  1.00  0.00     0.213 HD
ENDBRANCH   6  10
TORSDOF 2
ENDMDL
MODEL 4
REMARK VINA RESULT: -3.238402677      2.410      4.060
REMARK  2 active torsions:
REMARK  status: ('A' for Active; 'I' for Inactive)
REMARK    1  A    between atoms: O1_2  and  C2_3 
REMARK    2  A    between atoms: C6_8  and  O2_9 
ROOT
HETATM    1  C2  UNL     1      23.467  -1.999 -23.165  1.00  0.00     0.263 C 
HETATM    2  C3  UNL     1      24.229  -0.923 -22.501  1.00  0.00     0.061 C 
HETATM    3  C4  UNL     1      25.093  -1.315 -21.368  1.00  0.00     0.015 C 
HETATM    4  C5  UNL     1      24.883  -2.686 -20.833  1.00  0.00     0.079 C 
HETATM    5  S1  UNL     1      23.249  -2.668 -19.995  1.00  0.00    -0.110 SA
HETATM    6  C6  UNL     1      22.099  -2.048 -21.283  1.00  0.00     0.325 C 
HETATM    7  O3  UNL     1      22.473  -2.591 -22.464  1.00  0.00    -0.323 OA
ENDROOT
BRANCH   1   8
HETATM    8  O1  UNL     1      22.889  -1.467 -24.334  1.00  0.00    -0.366 OA
HETATM    9  C1  UNL     1      23.172  -0.119 -24.486  1.00  0.00     0.204 C 
ENDBRANCH   1   8
BRANCH   6  10
HETATM   10  O2  UNL     1      20.840  -2.598 -20.940  1.00  0.00    -0.362 OA
ATOM     11  H2  UNL     1      20.234  -1.869 -20.991  1.00  0.00     0.213 HD
ENDBRANCH   6  10
TORSDOF 2
ENDMDL
MODEL 5
REMARK VINA RESULT: -3.177181512      1.954      3.499
REMARK  2 active torsions:
REMARK  status: ('A' for Active; 'I' for Inactive)
REMARK    1  A    between atoms: O1_2  and  C2_3 
REMARK    2  A    between atoms: C6_8  and  O2_9 
ROOT
HETATM    1  C2  UNL     1      22.805  -0.988 -23.562  1.00  0.00     0.263 C 
HETATM    2  C3  UNL     1      22.216  -2.342 -23.551  1.00  0.00     0.061 C 
HETATM    3  C4  UNL     1      21.660  -2.820 -22.268  1.00  0.00     0.015 C 
HETATM    4  C5  UNL     1      22.012  -2.018 -21.066  1.00  0.00     0.079 C 
HETATM    5  S1  UNL     1      23.800  -2.300 -20.764  1.00  0.00    -0.110 SA
HETATM    6  C6  UNL     1      24.593  -1.872 -22.362  1.00  0.00     0.325 C 
HETATM    7  O3  UNL     1      23.948  -0.794 -22.865  1.00  0.00    -0.323 OA
ENDROOT
BRANCH   1   8
HETATM    8  O1  UNL     1      23.072  -0.640 -24.900  1.00  0.00    -0.366 OA
HETATM    9  C1  UNL     1      23.457   0.685 -25.025  1.00  0.00     0.204 C 
ENDBRANCH   1   8
BRANCH   6  10
HETATM   10  O2  UNL     1      25.904  -1.462 -22.018  1.00  0.00    -0.362 OA
ATOM     11  H2  UNL     1      26.062  -0.686 -22.544  1.00  0.00     0.213 HD
ENDBRANCH   6  10
TORSDOF 2
ENDMDL
