MODEL 1
REMARK VINA RESULT: -7.186457724      0.000      0.000
REMARK  6 active torsions:
REMARK  status: ('A' for Active; 'I' for Inactive)
REMARK    1  A    between atoms: C2_2  and  O1_3 
REMARK    2  A    between atoms: O1_3  and  N1_4 
REMARK    3  A    between atoms: N1_4  and  C3_6 
REMARK    4  A    between atoms: C3_6  and  N2_8 
REMARK    5  A    between atoms: N2_8  and  C4_10 
REMARK    6  A    between atoms: C5_15  and  C6_16 
ROOT
HETATM    1  C4  UNL     1      58.914 -21.838  86.619  1.00  0.00     0.167 A 
HETATM    2  N3  UNL     1      59.477 -21.048  87.533  1.00  0.00    -0.279 N 
ATOM      3  H3  UNL     1      60.492 -20.982  87.610  1.00  0.00     0.189 HD
HETATM    4  N4  UNL     1      58.721 -20.377  88.310  1.00  0.00    -0.295 N 
ATOM      5  H4  UNL     1      59.130 -19.766  89.016  1.00  0.00     0.187 HD
HETATM    6  C5  UNL     1      57.412 -20.471  88.200  1.00  0.00     0.082 A 
HETATM    7  S2  UNL     1      57.244 -21.576  86.921  1.00  0.00    -0.037 SA
ENDROOT
BRANCH   1   8
HETATM    8  N2  UNL     1      59.518 -22.602  85.735  1.00  0.00    -0.311 N 
ATOM      9  H2  UNL     1      59.254 -23.582  85.631  1.00  0.00     0.170 HD
BRANCH   8  10
HETATM   10  C3  UNL     1      60.544 -22.040  84.928  1.00  0.00     0.197 C 
HETATM   11  S1  UNL     1      60.211 -21.153  83.601  1.00  0.00    -0.039 SA
BRANCH  10  12
HETATM   12  N1  UNL     1      61.885 -22.259  85.288  1.00  0.00    -0.241 N 
ATOM     13  H1  UNL     1      62.451 -22.930  84.770  1.00  0.00     0.197 HD
BRANCH  12  14
HETATM   14  O1  UNL     1      62.416 -21.579  86.318  1.00  0.00    -0.279 OA
BRANCH  14  15
HETATM   15  C2  UNL     1      62.605 -20.232  86.043  1.00  0.00     0.197 C 
HETATM   16  C1  UNL     1      63.915 -19.820  86.668  1.00  0.00     0.036 C 
ENDBRANCH  14  15
ENDBRANCH  12  14
ENDBRANCH  10  12
ENDBRANCH   8  10
ENDBRANCH   1   8
BRANCH   6  17
HETATM   17  C6  UNL     1      56.314 -19.788  88.987  1.00  0.00     0.028 A 
HETATM   18  C7  UNL     1      56.901 -18.427  89.379  1.00  0.00     0.027 C 
HETATM   19  C8  UNL     1      55.150 -19.537  88.153  1.00  0.00    -0.010 A 
HETATM   20  C9  UNL     1      53.935 -19.964  88.411  1.00  0.00    -0.003 A 
HETATM   21  C10 UNL     1      53.636 -20.756  89.601  1.00  0.00    -0.004 A 
HETATM   22  C11 UNL     1      54.655 -21.009  90.389  1.00  0.00    -0.025 A 
HETATM   23  C12 UNL     1      56.040 -20.591  90.204  1.00  0.00     0.047 A 
ENDBRANCH   6  17
TORSDOF 6
ENDMDL
MODEL 2
REMARK VINA RESULT: -7.070701392      1.201      1.777
REMARK  6 active torsions:
REMARK  status: ('A' for Active; 'I' for Inactive)
REMARK    1  A    between atoms: C2_2  and  O1_3 
REMARK    2  A    between atoms: O1_3  and  N1_4 
REMARK    3  A    between atoms: N1_4  and  C3_6 
REMARK    4  A    between atoms: C3_6  and  N2_8 
REMARK    5  A    between atoms: N2_8  and  C4_10 
REMARK    6  A    between atoms: C5_15  and  C6_16 
ROOT
HETATM    1  C4  UNL     1      59.501 -21.554  86.968  1.00  0.00     0.167 A 
HETATM    2  N3  UNL     1      59.468 -20.682  87.976  1.00  0.00    -0.279 N 
ATOM      3  H3  UNL     1      60.330 -20.276  88.340  1.00  0.00     0.189 HD
HETATM    4  N4  UNL     1      58.338 -20.367  88.474  1.00  0.00    -0.295 N 
ATOM      5  H4  UNL     1      58.290 -19.702  89.246  1.00  0.00     0.187 HD
HETATM    6  C5  UNL     1      57.233 -20.898  87.994  1.00  0.00     0.082 A 
HETATM    7  S2  UNL     1      57.832 -21.904  86.763  1.00  0.00    -0.037 SA
ENDROOT
BRANCH   1   8
HETATM    8  N2  UNL     1      60.557 -22.002  86.326  1.00  0.00    -0.311 N 
ATOM      9  H2  UNL     1      61.102 -22.778  86.701  1.00  0.00     0.170 HD
BRANCH   8  10
HETATM   10  C3  UNL     1      60.928 -21.385  85.099  1.00  0.00     0.197 C 
HETATM   11  S1  UNL     1      60.549 -22.037  83.654  1.00  0.00    -0.039 SA
BRANCH  10  12
HETATM   12  N1  UNL     1      61.645 -20.176  85.140  1.00  0.00    -0.241 N 
ATOM     13  H1  UNL     1      61.794 -19.640  84.285  1.00  0.00     0.197 HD
BRANCH  12  14
HETATM   14  O1  UNL     1      62.133 -19.731  86.310  1.00  0.00    -0.279 OA
BRANCH  14  15
HETATM   15  C2  UNL     1      63.500 -19.929  86.442  1.00  0.00     0.197 C 
HETATM   16  C1  UNL     1      64.002 -18.955  87.479  1.00  0.00     0.036 C 
ENDBRANCH  14  15
ENDBRANCH  12  14
ENDBRANCH  10  12
ENDBRANCH   8  10
ENDBRANCH   1   8
BRANCH   6  17
HETATM   17  C6  UNL     1      55.791 -20.691  88.403  1.00  0.00     0.028 A 
HETATM   18  C7  UNL     1      54.970 -21.176  87.202  1.00  0.00     0.027 C 
HETATM   19  C8  UNL     1      55.441 -21.529  89.538  1.00  0.00    -0.010 A 
HETATM   20  C9  UNL     1      54.964 -21.089  90.678  1.00  0.00    -0.003 A 
HETATM   21  C10 UNL     1      54.734 -19.666  90.916  1.00  0.00    -0.004 A 
HETATM   22  C11 UNL     1      55.034 -18.865  89.920  1.00  0.00    -0.025 A 
HETATM   23  C12 UNL     1      55.567 -19.239  88.615  1.00  0.00     0.047 A 
ENDBRANCH   6  17
TORSDOF 6
ENDMDL
MODEL 3
REMARK VINA RESULT: -7.052969912      6.665      9.378
REMARK  6 active torsions:
REMARK  status: ('A' for Active; 'I' for Inactive)
REMARK    1  A    between atoms: C2_2  and  O1_3 
REMARK    2  A    between atoms: O1_3  and  N1_4 
REMARK    3  A    between atoms: N1_4  and  C3_6 
REMARK    4  A    between atoms: C3_6  and  N2_8 
REMARK    5  A    between atoms: N2_8  and  C4_10 
REMARK    6  A    between atoms: C5_15  and  C6_16 
ROOT
HETATM    1  C4  UNL     1      50.695 -17.780  88.110  1.00  0.00     0.167 A 
HETATM    2  N3  UNL     1      51.872 -17.832  87.487  1.00  0.00    -0.279 N 
ATOM      3  H3  UNL     1      51.956 -17.549  86.510  1.00  0.00     0.189 HD
HETATM    4  N4  UNL     1      52.890 -18.242  88.135  1.00  0.00    -0.295 N 
ATOM      5  H4  UNL     1      53.800 -18.290  87.678  1.00  0.00     0.187 HD
HETATM    6  C5  UNL     1      52.768 -18.604  89.396  1.00  0.00     0.082 A 
HETATM    7  S2  UNL     1      51.112 -18.347  89.677  1.00  0.00    -0.037 SA
ENDROOT
BRANCH   1   8
HETATM    8  N2  UNL     1      49.540 -17.389  87.618  1.00  0.00    -0.311 N 
ATOM      9  H2  UNL     1      49.135 -16.495  87.894  1.00  0.00     0.170 HD
BRANCH   8  10
HETATM   10  C3  UNL     1      48.866 -18.235  86.695  1.00  0.00     0.197 C 
HETATM   11  S1  UNL     1      48.113 -19.602  87.165  1.00  0.00    -0.039 SA
BRANCH  10  12
HETATM   12  N1  UNL     1      48.851 -17.876  85.336  1.00  0.00    -0.241 N 
ATOM     13  H1  UNL     1      48.697 -16.906  85.063  1.00  0.00     0.197 HD
BRANCH  12  14
HETATM   14  O1  UNL     1      49.042 -18.820  84.397  1.00  0.00    -0.279 OA
BRANCH  14  15
HETATM   15  C2  UNL     1      47.969 -18.948  83.526  1.00  0.00     0.197 C 
HETATM   16  C1  UNL     1      47.286 -17.605  83.446  1.00  0.00     0.036 C 
ENDBRANCH  14  15
ENDBRANCH  12  14
ENDBRANCH  10  12
ENDBRANCH   8  10
ENDBRANCH   1   8
BRANCH   6  17
HETATM   17  C6  UNL     1      53.806 -19.117  90.370  1.00  0.00     0.028 A 
HETATM   18  C7  UNL     1      53.387 -18.540  91.728  1.00  0.00     0.027 C 
HETATM   19  C8  UNL     1      53.754 -20.565  90.478  1.00  0.00    -0.010 A 
HETATM   20  C9  UNL     1      54.766 -21.371  90.254  1.00  0.00    -0.003 A 
HETATM   21  C10 UNL     1      56.080 -20.865  89.865  1.00  0.00    -0.004 A 
HETATM   22  C11 UNL     1      56.179 -19.561  89.755  1.00  0.00    -0.025 A 
HETATM   23  C12 UNL     1      55.129 -18.573  89.976  1.00  0.00     0.047 A 
ENDBRANCH   6  17
TORSDOF 6
ENDMDL
MODEL 4
REMARK VINA RESULT: -7.051231529      6.563      8.718
REMARK  6 active torsions:
REMARK  status: ('A' for Active; 'I' for Inactive)
REMARK    1  A    between atoms: C2_2  and  O1_3 
REMARK    2  A    between atoms: O1_3  and  N1_4 
REMARK    3  A    between atoms: N1_4  and  C3_6 
REMARK    4  A    between atoms: C3_6  and  N2_8 
REMARK    5  A    between atoms: N2_8  and  C4_10 
REMARK    6  A    between atoms: C5_15  and  C6_16 
ROOT
HETATM    1  C4  UNL     1      50.662 -17.792  88.073  1.00  0.00     0.167 A 
HETATM    2  N3  UNL     1      51.848 -17.832  87.468  1.00  0.00    -0.279 N 
ATOM      3  H3  UNL     1      51.946 -17.545  86.494  1.00  0.00     0.189 HD
HETATM    4  N4  UNL     1      52.859 -18.236  88.131  1.00  0.00    -0.295 N 
ATOM      5  H4  UNL     1      53.777 -18.275  87.688  1.00  0.00     0.187 HD
HETATM    6  C5  UNL     1      52.720 -18.604  89.388  1.00  0.00     0.082 A 
HETATM    7  S2  UNL     1      51.058 -18.362  89.643  1.00  0.00    -0.037 SA
ENDROOT
BRANCH   1   8
HETATM    8  N2  UNL     1      49.512 -17.409  87.563  1.00  0.00    -0.311 N 
ATOM      9  H2  UNL     1      49.180 -16.453  87.692  1.00  0.00     0.170 HD
BRANCH   8  10
HETATM   10  C3  UNL     1      48.737 -18.350  86.830  1.00  0.00     0.197 C 
HETATM   11  S1  UNL     1      47.577 -19.251  87.535  1.00  0.00    -0.039 SA
BRANCH  10  12
HETATM   12  N1  UNL     1      48.985 -18.504  85.455  1.00  0.00    -0.241 N 
ATOM     13  H1  UNL     1      48.265 -18.263  84.774  1.00  0.00     0.197 HD
BRANCH  12  14
HETATM   14  O1  UNL     1      50.176 -18.971  85.042  1.00  0.00    -0.279 OA
BRANCH  14  15
HETATM   15  C2  UNL     1      50.266 -20.355  85.090  1.00  0.00     0.197 C 
HETATM   16  C1  UNL     1      51.721 -20.711  85.265  1.00  0.00     0.036 C 
ENDBRANCH  14  15
ENDBRANCH  12  14
ENDBRANCH  10  12
ENDBRANCH   8  10
ENDBRANCH   1   8
BRANCH   6  17
HETATM   17  C6  UNL     1      53.746 -19.112  90.377  1.00  0.00     0.028 A 
HETATM   18  C7  UNL     1      53.304 -18.540  91.729  1.00  0.00     0.027 C 
HETATM   19  C8  UNL     1      53.701 -20.561  90.482  1.00  0.00    -0.010 A 
HETATM   20  C9  UNL     1      54.721 -21.361  90.273  1.00  0.00    -0.003 A 
HETATM   21  C10 UNL     1      56.038 -20.846  89.904  1.00  0.00    -0.004 A 
HETATM   22  C11 UNL     1      56.131 -19.542  89.797  1.00  0.00    -0.025 A 
HETATM   23  C12 UNL     1      55.072 -18.560  90.004  1.00  0.00     0.047 A 
ENDBRANCH   6  17
TORSDOF 6
ENDMDL
MODEL 5
REMARK VINA RESULT: -6.869590101      6.416      8.493
REMARK  6 active torsions:
REMARK  status: ('A' for Active; 'I' for Inactive)
REMARK    1  A    between atoms: C2_2  and  O1_3 
REMARK    2  A    between atoms: O1_3  and  N1_4 
REMARK    3  A    between atoms: N1_4  and  C3_6 
REMARK    4  A    between atoms: C3_6  and  N2_8 
REMARK    5  A    between atoms: N2_8  and  C4_10 
REMARK    6  A    between atoms: C5_15  and  C6_16 
ROOT
HETATM    1  C4  UNL     1      51.381 -18.417  87.200  1.00  0.00     0.167 A 
HETATM    2  N3  UNL     1      51.592 -17.416  88.053  1.00  0.00    -0.279 N 
ATOM      3  H3  UNL     1      51.125 -16.518  87.929  1.00  0.00     0.189 HD
HETATM    4  N4  UNL     1      52.391 -17.603  89.030  1.00  0.00    -0.295 N 
ATOM      5  H4  UNL     1      52.567 -16.851  89.695  1.00  0.00     0.187 HD
HETATM    6  C5  UNL     1      52.988 -18.767  89.180  1.00  0.00     0.082 A 
HETATM    7  S2  UNL     1      52.380 -19.648  87.860  1.00  0.00    -0.037 SA
ENDROOT
BRANCH   1   8
HETATM    8  N2  UNL     1      50.601 -18.421  86.141  1.00  0.00    -0.311 N 
ATOM      9  H2  UNL     1      50.644 -17.661  85.462  1.00  0.00     0.170 HD
BRANCH   8  10
HETATM   10  C3  UNL     1      49.694 -19.501  85.959  1.00  0.00     0.197 C 
HETATM   11  S1  UNL     1      48.321 -19.634  86.828  1.00  0.00    -0.039 SA
BRANCH  10  12
HETATM   12  N1  UNL     1      49.996 -20.483  85.000  1.00  0.00    -0.241 N 
ATOM     13  H1  UNL     1      49.720 -21.452  85.154  1.00  0.00     0.197 HD
BRANCH  12  14
HETATM   14  O1  UNL     1      50.650 -20.137  83.877  1.00  0.00    -0.279 OA
BRANCH  14  15
HETATM   15  C2  UNL     1      50.240 -20.858  82.764  1.00  0.00     0.197 C 
HETATM   16  C1  UNL     1      49.076 -20.122  82.149  1.00  0.00     0.036 C 
ENDBRANCH  14  15
ENDBRANCH  12  14
ENDBRANCH  10  12
ENDBRANCH   8  10
ENDBRANCH   1   8
BRANCH   6  17
HETATM   17  C6  UNL     1      53.962 -19.237  90.238  1.00  0.00     0.028 A 
HETATM   18  C7  UNL     1      53.530 -18.511  91.518  1.00  0.00     0.027 C 
HETATM   19  C8  UNL     1      53.828 -20.664  90.479  1.00  0.00    -0.010 A 
HETATM   20  C9  UNL     1      54.801 -21.538  90.372  1.00  0.00    -0.003 A 
HETATM   21  C10 UNL     1      56.153 -21.139  89.988  1.00  0.00    -0.004 A 
HETATM   22  C11 UNL     1      56.327 -19.859  89.760  1.00  0.00    -0.025 A 
HETATM   23  C12 UNL     1      55.326 -18.802  89.847  1.00  0.00     0.047 A 
ENDBRANCH   6  17
TORSDOF 6
ENDMDL
