MODEL 1
REMARK VINA RESULT: -7.504286362      0.000      0.000
REMARK  5 active torsions:
REMARK  status: ('A' for Active; 'I' for Inactive)
REMARK    1  A    between atoms: C2_2  and  C3_3 
REMARK    2  A    between atoms: C3_3  and  C4_4 
REMARK    3  A    between atoms: C7_11  and  N3_12 
REMARK    4  A    between atoms: N3_12  and  C8_14 
REMARK    5  A    between atoms: C14_22  and  N5_23 
ROOT
HETATM    1  C8  UNL     1      54.175 -19.629  87.249  1.00  0.00     0.134 A 
HETATM    2  N4  UNL     1      53.906 -20.623  86.392  1.00  0.00    -0.344 N 
ATOM      3  H4  UNL     1      53.001 -20.632  85.923  1.00  0.00     0.167 HD
HETATM    4  C9  UNL     1      54.777 -21.605  86.126  1.00  0.00     0.014 A 
HETATM    5  C10 UNL     1      54.385 -22.682  85.151  1.00  0.00     0.068 C 
HETATM    6  C11 UNL     1      56.044 -21.698  86.706  1.00  0.00    -0.023 A 
HETATM    7  C12 UNL     1      56.952 -22.801  86.373  1.00  0.00     0.051 C 
HETATM    8  C13 UNL     1      56.348 -20.683  87.594  1.00  0.00     0.046 A 
HETATM    9  C14 UNL     1      57.561 -20.669  88.222  1.00  0.00     0.113 A 
HETATM   10  N6  UNL     1      57.827 -19.669  89.079  1.00  0.00    -0.338 N 
ATOM     11  H6  UNL     1      58.729 -19.644  89.555  1.00  0.00     0.168 HD
HETATM   12  C15 UNL     1      56.922 -18.699  89.319  1.00  0.00     0.182 A 
HETATM   13  N7  UNL     1      55.726 -18.687  88.719  1.00  0.00    -0.348 N 
ATOM     14  H7  UNL     1      55.057 -17.943  88.917  1.00  0.00     0.167 HD
HETATM   15  C16 UNL     1      55.413 -19.670  87.850  1.00  0.00     0.092 A 
ENDROOT
BRANCH   1  16
HETATM   16  N3  UNL     1      53.373 -18.682  87.524  1.00  0.00    -0.338 N 
ATOM     17  H3  UNL     1      53.786 -17.763  87.685  1.00  0.00     0.167 HD
BRANCH  16  18
HETATM   18  C7  UNL     1      51.969 -18.774  87.630  1.00  0.00     0.072 A 
HETATM   19  C4  UNL     1      51.304 -19.148  88.774  1.00  0.00     0.038 A 
HETATM   20  N1  UNL     1      49.946 -19.169  88.691  1.00  0.00    -0.354 N 
HETATM   21  C5  UNL     1      49.265 -18.858  87.603  1.00  0.00     0.180 A 
ATOM     22  H1  UNL     1      49.421 -19.442  89.523  1.00  0.00     0.166 HD
HETATM   23  N2  UNL     1      49.898 -18.497  86.494  1.00  0.00    -0.360 N 
HETATM   24  C6  UNL     1      51.236 -18.447  86.482  1.00  0.00     0.120 A 
ATOM     25  H2  UNL     1      49.368 -18.258  85.656  1.00  0.00     0.166 HD
BRANCH  19  26
HETATM   26  C3  UNL     1      52.010 -19.514  90.019  1.00  0.00     0.059 C 
BRANCH  26  27
HETATM   27  C2  UNL     1      52.433 -18.375  90.874  1.00  0.00     0.002 C 
HETATM   28  C1  UNL     1      53.746 -18.654  91.605  1.00  0.00     0.005 C 
ENDBRANCH  26  27
ENDBRANCH  19  26
ENDBRANCH  16  18
ENDBRANCH   1  16
BRANCH   9  29
HETATM   29  N5  UNL     1      58.408 -21.571  88.001  1.00  0.00    -0.385 N 
ATOM     30  H52 UNL     1      58.122 -22.546  87.912  1.00  0.00     0.157 HD
ATOM     31  H51 UNL     1      59.398 -21.344  87.909  1.00  0.00     0.157 HD
ENDBRANCH   9  29
TORSDOF 5
ENDMDL
MODEL 2
REMARK VINA RESULT: -7.413043964      1.302      2.945
REMARK  5 active torsions:
REMARK  status: ('A' for Active; 'I' for Inactive)
REMARK    1  A    between atoms: C2_2  and  C3_3 
REMARK    2  A    between atoms: C3_3  and  C4_4 
REMARK    3  A    between atoms: C7_11  and  N3_12 
REMARK    4  A    between atoms: N3_12  and  C8_14 
REMARK    5  A    between atoms: C14_22  and  N5_23 
ROOT
HETATM    1  C8  UNL     1      54.869 -19.715  88.100  1.00  0.00     0.134 A 
HETATM    2  N4  UNL     1      55.200 -18.582  88.734  1.00  0.00    -0.344 N 
ATOM      3  H4  UNL     1      54.485 -17.867  88.863  1.00  0.00     0.167 HD
HETATM    4  C9  UNL     1      56.433 -18.350  89.205  1.00  0.00     0.014 A 
HETATM    5  C10 UNL     1      56.712 -17.046  89.901  1.00  0.00     0.068 C 
HETATM    6  C11 UNL     1      57.492 -19.252  89.088  1.00  0.00    -0.023 A 
HETATM    7  C12 UNL     1      58.820 -18.937  89.625  1.00  0.00     0.051 C 
HETATM    8  C13 UNL     1      57.177 -20.431  88.438  1.00  0.00     0.046 A 
HETATM    9  C14 UNL     1      58.134 -21.390  88.266  1.00  0.00     0.113 A 
HETATM   10  N6  UNL     1      57.797 -22.525  87.632  1.00  0.00    -0.338 N 
ATOM     11  H6  UNL     1      58.500 -23.252  87.495  1.00  0.00     0.168 HD
HETATM   12  C15 UNL     1      56.544 -22.719  87.172  1.00  0.00     0.182 A 
HETATM   13  N7  UNL     1      55.586 -21.798  87.326  1.00  0.00    -0.348 N 
ATOM     14  H7  UNL     1      54.646 -21.968  86.969  1.00  0.00     0.167 HD
HETATM   15  C16 UNL     1      55.877 -20.643  87.957  1.00  0.00     0.092 A 
ENDROOT
BRANCH   1  16
HETATM   16  N3  UNL     1      53.711 -19.968  87.641  1.00  0.00    -0.338 N 
ATOM     17  H3  UNL     1      53.643 -20.724  86.960  1.00  0.00     0.167 HD
BRANCH  16  18
HETATM   18  C7  UNL     1      52.510 -19.307  87.978  1.00  0.00     0.072 A 
HETATM   19  C4  UNL     1      51.860 -19.454  89.180  1.00  0.00     0.038 A 
HETATM   20  N1  UNL     1      50.719 -18.728  89.331  1.00  0.00    -0.354 N 
HETATM   21  C5  UNL     1      50.228 -17.920  88.408  1.00  0.00     0.180 A 
ATOM     22  H1  UNL     1      50.211 -18.813  90.212  1.00  0.00     0.166 HD
HETATM   23  N2  UNL     1      50.849 -17.772  87.245  1.00  0.00    -0.360 N 
HETATM   24  C6  UNL     1      51.981 -18.447  87.008  1.00  0.00     0.120 A 
ATOM     25  H2  UNL     1      50.466 -17.147  86.536  1.00  0.00     0.166 HD
BRANCH  19  26
HETATM   26  C3  UNL     1      52.356 -20.348  90.247  1.00  0.00     0.059 C 
BRANCH  26  27
HETATM   27  C2  UNL     1      53.311 -19.734  91.205  1.00  0.00     0.002 C 
HETATM   28  C1  UNL     1      52.973 -18.274  91.507  1.00  0.00     0.005 C 
ENDBRANCH  26  27
ENDBRANCH  19  26
ENDBRANCH  16  18
ENDBRANCH   1  16
BRANCH   9  29
HETATM   29  N5  UNL     1      59.303 -21.213  88.692  1.00  0.00    -0.385 N 
ATOM     30  H52 UNL     1      59.764 -20.309  88.594  1.00  0.00     0.157 HD
ATOM     31  H51 UNL     1      59.812 -21.973  89.145  1.00  0.00     0.157 HD
ENDBRANCH   9  29
TORSDOF 5
ENDMDL
MODEL 3
REMARK VINA RESULT: -7.401589505      1.556      2.737
REMARK  5 active torsions:
REMARK  status: ('A' for Active; 'I' for Inactive)
REMARK    1  A    between atoms: C2_2  and  C3_3 
REMARK    2  A    between atoms: C3_3  and  C4_4 
REMARK    3  A    between atoms: C7_11  and  N3_12 
REMARK    4  A    between atoms: N3_12  and  C8_14 
REMARK    5  A    between atoms: C14_22  and  N5_23 
ROOT
HETATM    1  C8  UNL     1      54.048 -19.450  87.092  1.00  0.00     0.134 A 
HETATM    2  N4  UNL     1      54.363 -19.613  88.384  1.00  0.00    -0.344 N 
ATOM      3  H4  UNL     1      53.828 -19.100  89.085  1.00  0.00     0.167 HD
HETATM    4  C9  UNL     1      55.351 -20.419  88.793  1.00  0.00     0.014 A 
HETATM    5  C10 UNL     1      55.633 -20.536  90.266  1.00  0.00     0.068 C 
HETATM    6  C11 UNL     1      56.149 -21.170  87.927  1.00  0.00    -0.023 A 
HETATM    7  C12 UNL     1      57.217 -22.035  88.439  1.00  0.00     0.051 C 
HETATM    8  C13 UNL     1      55.845 -21.022  86.587  1.00  0.00     0.046 A 
HETATM    9  C14 UNL     1      56.559 -21.708  85.647  1.00  0.00     0.113 A 
HETATM   10  N6  UNL     1      56.239 -21.544  84.352  1.00  0.00    -0.338 N 
ATOM     11  H6  UNL     1      56.763 -22.050  83.638  1.00  0.00     0.168 HD
HETATM   12  C15 UNL     1      55.237 -20.720  83.983  1.00  0.00     0.182 A 
HETATM   13  N7  UNL     1      54.520 -20.035  84.881  1.00  0.00    -0.348 N 
ATOM     14  H7  UNL     1      53.767 -19.418  84.577  1.00  0.00     0.167 HD
HETATM   15  C16 UNL     1      54.804 -20.168  86.192  1.00  0.00     0.092 A 
ENDROOT
BRANCH   1  16
HETATM   16  N3  UNL     1      53.118 -18.693  86.670  1.00  0.00    -0.338 N 
ATOM     17  H3  UNL     1      53.404 -17.847  86.177  1.00  0.00     0.167 HD
BRANCH  16  18
HETATM   18  C7  UNL     1      51.730 -18.906  86.813  1.00  0.00     0.072 A 
HETATM   19  C4  UNL     1      50.971 -18.381  87.833  1.00  0.00     0.038 A 
HETATM   20  N1  UNL     1      49.645 -18.685  87.802  1.00  0.00    -0.354 N 
HETATM   21  C5  UNL     1      49.077 -19.433  86.872  1.00  0.00     0.180 A 
ATOM     22  H1  UNL     1      49.052 -18.312  88.544  1.00  0.00     0.166 HD
HETATM   23  N2  UNL     1      49.802 -19.943  85.885  1.00  0.00    -0.360 N 
HETATM   24  C6  UNL     1      51.118 -19.697  85.834  1.00  0.00     0.120 A 
ATOM     25  H2  UNL     1      49.360 -20.520  85.170  1.00  0.00     0.166 HD
BRANCH  19  26
HETATM   26  C3  UNL     1      51.550 -17.544  88.905  1.00  0.00     0.059 C 
BRANCH  26  27
HETATM   27  C2  UNL     1      51.355 -18.050  90.287  1.00  0.00     0.002 C 
HETATM   28  C1  UNL     1      52.673 -18.166  91.054  1.00  0.00     0.005 C 
ENDBRANCH  26  27
ENDBRANCH  19  26
ENDBRANCH  16  18
ENDBRANCH   1  16
BRANCH   9  29
HETATM   29  N5  UNL     1      57.494 -22.476  85.986  1.00  0.00    -0.385 N 
ATOM     30  H52 UNL     1      58.043 -22.972  85.284  1.00  0.00     0.157 HD
ATOM     31  H51 UNL     1      57.720 -22.618  86.971  1.00  0.00     0.157 HD
ENDBRANCH   9  29
TORSDOF 5
ENDMDL
MODEL 4
REMARK VINA RESULT: -7.390338891      1.620      5.529
REMARK  5 active torsions:
REMARK  status: ('A' for Active; 'I' for Inactive)
REMARK    1  A    between atoms: C2_2  and  C3_3 
REMARK    2  A    between atoms: C3_3  and  C4_4 
REMARK    3  A    between atoms: C7_11  and  N3_12 
REMARK    4  A    between atoms: N3_12  and  C8_14 
REMARK    5  A    between atoms: C14_22  and  N5_23 
ROOT
HETATM    1  C8  UNL     1      53.270 -19.358  86.574  1.00  0.00     0.134 A 
HETATM    2  N4  UNL     1      53.134 -20.265  85.598  1.00  0.00    -0.344 N 
ATOM      3  H4  UNL     1      53.972 -20.709  85.223  1.00  0.00     0.167 HD
HETATM    4  C9  UNL     1      51.942 -20.615  85.095  1.00  0.00     0.014 A 
HETATM    5  C10 UNL     1      51.888 -21.642  83.998  1.00  0.00     0.068 C 
HETATM    6  C11 UNL     1      50.729 -20.077  85.529  1.00  0.00    -0.023 A 
HETATM    7  C12 UNL     1      49.456 -20.501  84.936  1.00  0.00     0.051 C 
HETATM    8  C13 UNL     1      50.840 -19.138  86.537  1.00  0.00     0.046 A 
HETATM    9  C14 UNL     1      49.719 -18.544  87.041  1.00  0.00     0.113 A 
HETATM   10  N6  UNL     1      49.860 -17.636  88.021  1.00  0.00    -0.338 N 
ATOM     11  H6  UNL     1      49.032 -17.184  88.410  1.00  0.00     0.168 HD
HETATM   12  C15 UNL     1      51.079 -17.312  88.500  1.00  0.00     0.182 A 
HETATM   13  N7  UNL     1      52.195 -17.876  88.024  1.00  0.00    -0.348 N 
ATOM     14  H7  UNL     1      53.106 -17.615  88.402  1.00  0.00     0.167 HD
HETATM   15  C16 UNL     1      52.103 -18.794  87.041  1.00  0.00     0.092 A 
ENDROOT
BRANCH   1  16
HETATM   16  N3  UNL     1      54.384 -19.003  87.073  1.00  0.00    -0.338 N 
ATOM     17  H3  UNL     1      54.649 -18.025  86.956  1.00  0.00     0.167 HD
BRANCH  16  18
HETATM   18  C7  UNL     1      55.292 -19.826  87.773  1.00  0.00     0.072 A 
HETATM   19  C4  UNL     1      55.549 -19.720  89.120  1.00  0.00     0.038 A 
HETATM   20  N1  UNL     1      56.448 -20.608  89.625  1.00  0.00    -0.354 N 
HETATM   21  C5  UNL     1      57.060 -21.532  88.906  1.00  0.00     0.180 A 
ATOM     22  H1  UNL     1      56.662 -20.557  90.621  1.00  0.00     0.166 HD
HETATM   23  N2  UNL     1      56.819 -21.642  87.605  1.00  0.00    -0.360 N 
HETATM   24  C6  UNL     1      55.946 -20.809  87.022  1.00  0.00     0.120 A 
ATOM     25  H2  UNL     1      57.294 -22.356  87.054  1.00  0.00     0.166 HD
BRANCH  19  26
HETATM   26  C3  UNL     1      54.901 -18.703  89.975  1.00  0.00     0.059 C 
BRANCH  26  27
HETATM   27  C2  UNL     1      54.072 -19.235  91.087  1.00  0.00     0.002 C 
HETATM   28  C1  UNL     1      52.985 -18.253  91.522  1.00  0.00     0.005 C 
ENDBRANCH  26  27
ENDBRANCH  19  26
ENDBRANCH  16  18
ENDBRANCH   1  16
BRANCH   9  29
HETATM   29  N5  UNL     1      48.581 -18.842  86.599  1.00  0.00    -0.385 N 
ATOM     30  H52 UNL     1      48.179 -19.764  86.770  1.00  0.00     0.157 HD
ATOM     31  H51 UNL     1      48.039 -18.167  86.061  1.00  0.00     0.157 HD
ENDBRANCH   9  29
TORSDOF 5
ENDMDL
MODEL 5
REMARK VINA RESULT: -7.335190626      1.616      2.029
REMARK  5 active torsions:
REMARK  status: ('A' for Active; 'I' for Inactive)
REMARK    1  A    between atoms: C2_2  and  C3_3 
REMARK    2  A    between atoms: C3_3  and  C4_4 
REMARK    3  A    between atoms: C7_11  and  N3_12 
REMARK    4  A    between atoms: N3_12  and  C8_14 
REMARK    5  A    between atoms: C14_22  and  N5_23 
ROOT
HETATM    1  C8  UNL     1      55.253 -19.436  88.405  1.00  0.00     0.134 A 
HETATM    2  N4  UNL     1      55.354 -20.700  87.975  1.00  0.00    -0.344 N 
ATOM      3  H4  UNL     1      54.528 -21.150  87.581  1.00  0.00     0.167 HD
HETATM    4  C9  UNL     1      56.496 -21.398  88.040  1.00  0.00     0.014 A 
HETATM    5  C10 UNL     1      56.513 -22.815  87.535  1.00  0.00     0.068 C 
HETATM    6  C11 UNL     1      57.689 -20.889  88.557  1.00  0.00    -0.023 A 
HETATM    7  C12 UNL     1      58.906 -21.706  88.602  1.00  0.00     0.051 C 
HETATM    8  C13 UNL     1      57.613 -19.584  89.007  1.00  0.00     0.046 A 
HETATM    9  C14 UNL     1      58.719 -18.980  89.533  1.00  0.00     0.113 A 
HETATM   10  N6  UNL     1      58.614 -17.711  89.961  1.00  0.00    -0.338 N 
ATOM     11  H6  UNL     1      59.431 -17.245  90.356  1.00  0.00     0.168 HD
HETATM   12  C15 UNL     1      57.444 -17.043  89.877  1.00  0.00     0.182 A 
HETATM   13  N7  UNL     1      56.344 -17.609  89.368  1.00  0.00    -0.348 N 
ATOM     14  H7  UNL     1      55.472 -17.084  89.316  1.00  0.00     0.167 HD
HETATM   15  C16 UNL     1      56.402 -18.881  88.924  1.00  0.00     0.092 A 
ENDROOT
BRANCH   1  16
HETATM   16  N3  UNL     1      54.187 -18.745  88.358  1.00  0.00    -0.338 N 
ATOM     17  H3  UNL     1      54.196 -17.852  88.852  1.00  0.00     0.167 HD
BRANCH  16  18
HETATM   18  C7  UNL     1      52.991 -19.088  87.691  1.00  0.00     0.072 A 
HETATM   19  C4  UNL     1      51.820 -19.422  88.330  1.00  0.00     0.038 A 
HETATM   20  N1  UNL     1      50.765 -19.713  87.521  1.00  0.00    -0.354 N 
HETATM   21  C5  UNL     1      50.815 -19.691  86.201  1.00  0.00     0.180 A 
ATOM     22  H1  UNL     1      49.880 -19.965  87.962  1.00  0.00     0.166 HD
HETATM   23  N2  UNL     1      51.941 -19.370  85.576  1.00  0.00    -0.360 N 
HETATM   24  C6  UNL     1      53.032 -19.067  86.291  1.00  0.00     0.120 A 
ATOM     25  H2  UNL     1      51.975 -19.354  84.557  1.00  0.00     0.166 HD
BRANCH  19  26
HETATM   26  C3  UNL     1      51.705 -19.471  89.802  1.00  0.00     0.059 C 
BRANCH  26  27
HETATM   27  C2  UNL     1      51.833 -18.166  90.499  1.00  0.00     0.002 C 
HETATM   28  C1  UNL     1      52.945 -18.174  91.548  1.00  0.00     0.005 C 
ENDBRANCH  26  27
ENDBRANCH  19  26
ENDBRANCH  16  18
ENDBRANCH   1  16
BRANCH   9  29
HETATM   29  N5  UNL     1      59.810 -19.598  89.613  1.00  0.00    -0.385 N 
ATOM     30  H52 UNL     1      60.470 -19.596  88.835  1.00  0.00     0.157 HD
ATOM     31  H51 UNL     1      60.056 -20.113  90.458  1.00  0.00     0.157 HD
ENDBRANCH   9  29
TORSDOF 5
ENDMDL
