MODEL 1
REMARK VINA RESULT: -7.183435520      0.000      0.000
REMARK  11 active torsions:
REMARK  status: ('A' for Active; 'I' for Inactive)
REMARK    1  A    between atoms: C2_2  and  C3_4 
REMARK    2  A    between atoms: C3_4  and  C4_5 
REMARK    3  A    between atoms: C4_5  and  C5_6 
REMARK    4  A    between atoms: C5_6  and  C6_7 
REMARK    5  A    between atoms: C6_7  and  C7_8 
REMARK    6  A    between atoms: C6_7  and  O2_12 
REMARK    7  A    between atoms: O2_12  and  C11_13 
REMARK    8  A    between atoms: C18_20  and  O3_21 
REMARK    9  A    between atoms: C26_30  and  C27_31 
REMARK   10  A    between atoms: C29_34  and  O5_35 
REMARK   11  A    between atoms: C33_40  and  O6_41 
ROOT
HETATM    1  C11 UNL     1      29.837   1.758  -2.003  1.00  0.00     0.261 C 
HETATM    2  C12 UNL     1      30.052   3.066  -2.720  1.00  0.00     0.061 C 
HETATM    3  C13 UNL     1      30.796   4.096  -1.927  1.00  0.00     0.017 C 
HETATM    4  C14 UNL     1      30.459   4.101  -0.450  1.00  0.00    -0.010 C 
HETATM    5  C15 UNL     1      31.656   3.474   0.232  1.00  0.00     0.018 C 
HETATM    6  C16 UNL     1      29.306   3.127  -0.190  1.00  0.00     0.136 C 
HETATM    7  C17 UNL     1      29.227   2.970   1.313  1.00  0.00     0.065 C 
HETATM    8  C18 UNL     1      29.256   4.217   2.096  1.00  0.00     0.128 C 
HETATM    9  C19 UNL     1      29.231   5.494   1.276  1.00  0.00     0.058 C 
HETATM   10  C20 UNL     1      30.104   5.478   0.070  1.00  0.00    -0.025 C 
HETATM   11  C21 UNL     1      29.289   6.114  -1.081  1.00  0.00     0.016 C 
HETATM   12  C22 UNL     1      31.367   6.261   0.161  1.00  0.00     0.011 C 
HETATM   13  C23 UNL     1      31.294   7.554   0.913  1.00  0.00     0.014 C 
HETATM   14  C24 UNL     1      30.753   7.262   2.285  1.00  0.00    -0.005 C 
HETATM   15  C25 UNL     1      31.721   6.484   3.069  1.00  0.00     0.019 C 
HETATM   16  C26 UNL     1      30.388   8.532   3.063  1.00  0.00     0.032 C 
HETATM   17  C31 UNL     1      29.190   8.141   3.901  1.00  0.00     0.013 C 
HETATM   18  C32 UNL     1      28.881   6.680   3.505  1.00  0.00     0.040 C 
HETATM   19  C33 UNL     1      29.386   6.701   2.099  1.00  0.00     0.072 C 
HETATM   20  O7  UNL     1      29.745   1.870  -0.649  1.00  0.00    -0.355 OA
ENDROOT
BRANCH   1  21
HETATM   21  O2  UNL     1      28.718   1.125  -2.492  1.00  0.00    -0.352 OA
BRANCH  21  22
HETATM   22  C6  UNL     1      27.627   1.990  -2.691  1.00  0.00     0.147 C 
BRANCH  22  23
HETATM   23  C5  UNL     1      26.576   1.594  -1.739  1.00  0.00     0.036 C 
BRANCH  23  24
HETATM   24  C4  UNL     1      25.474   2.550  -1.523  1.00  0.00     0.010 C 
BRANCH  24  25
HETATM   25  C3  UNL     1      25.793   3.743  -0.704  1.00  0.00     0.078 C 
BRANCH  25  26
HETATM   26  C2  UNL     1      25.299   3.424   0.702  1.00  0.00     0.123 C 
HETATM   27  C1  UNL     1      24.867   4.548   1.563  1.00  0.00     0.091 C 
HETATM   28  O1  UNL     1      25.257   2.280   1.106  1.00  0.00    -0.298 OA
ENDBRANCH  25  26
ENDBRANCH  24  25
ENDBRANCH  23  24
ENDBRANCH  22  23
BRANCH  22  29
HETATM   29  C7  UNL     1      27.289   2.132  -4.104  1.00  0.00     0.007 C 
HETATM   30  C8  UNL     1      27.183   3.225  -4.808  1.00  0.00    -0.089 C 
HETATM   31  C9  UNL     1      27.412   4.554  -4.205  1.00  0.00     0.042 C 
HETATM   32  C10 UNL     1      26.825   3.170  -6.245  1.00  0.00     0.042 C 
ENDBRANCH  22  29
ENDBRANCH  21  22
ENDBRANCH   1  21
BRANCH   8  33
HETATM   33  O3  UNL     1      28.064   4.222   2.871  1.00  0.00    -0.395 OA
ATOM     34  H3  UNL     1      27.731   5.111   2.833  1.00  0.00     0.210 HD
ENDBRANCH   8  33
BRANCH  19  35
HETATM   35  O6  UNL     1      28.652   7.751   1.477  1.00  0.00    -0.389 OA
ATOM     36  H6  UNL     1      28.972   8.575   1.824  1.00  0.00     0.210 HD
ENDBRANCH  19  35
BRANCH  16  37
HETATM   37  C27 UNL     1      31.494   9.058   3.859  1.00  0.00    -0.026 A 
HETATM   38  C28 UNL     1      32.632   9.668   3.311  1.00  0.00     0.152 A 
HETATM   39  O4  UNL     1      33.392  10.025   4.316  1.00  0.00    -0.300 OA
HETATM   40  C29 UNL     1      32.869   9.711   5.464  1.00  0.00     0.183 A 
HETATM   41  C30 UNL     1      31.656   9.091   5.215  1.00  0.00     0.073 A 
BRANCH  40  42
HETATM   42  O5  UNL     1      33.423   9.954   6.704  1.00  0.00    -0.341 OA
ATOM     43  H5  UNL     1      33.163  10.638   7.309  1.00  0.00     0.220 HD
ENDBRANCH  40  42
ENDBRANCH  16  37
TORSDOF 11
ENDMDL
MODEL 2
REMARK VINA RESULT: -6.911481408      3.119      8.998
REMARK  11 active torsions:
REMARK  status: ('A' for Active; 'I' for Inactive)
REMARK    1  A    between atoms: C2_2  and  C3_4 
REMARK    2  A    between atoms: C3_4  and  C4_5 
REMARK    3  A    between atoms: C4_5  and  C5_6 
REMARK    4  A    between atoms: C5_6  and  C6_7 
REMARK    5  A    between atoms: C6_7  and  C7_8 
REMARK    6  A    between atoms: C6_7  and  O2_12 
REMARK    7  A    between atoms: O2_12  and  C11_13 
REMARK    8  A    between atoms: C18_20  and  O3_21 
REMARK    9  A    between atoms: C26_30  and  C27_31 
REMARK   10  A    between atoms: C29_34  and  O5_35 
REMARK   11  A    between atoms: C33_40  and  O6_41 
ROOT
HETATM    1  C11 UNL     1      31.100   4.669   2.383  1.00  0.00     0.261 C 
HETATM    2  C12 UNL     1      32.257   4.584   1.422  1.00  0.00     0.061 C 
HETATM    3  C13 UNL     1      31.910   4.899  -0.000  1.00  0.00     0.017 C 
HETATM    4  C14 UNL     1      30.546   4.399  -0.429  1.00  0.00    -0.010 C 
HETATM    5  C15 UNL     1      29.673   5.633  -0.495  1.00  0.00     0.018 C 
HETATM    6  C16 UNL     1      29.942   3.551   0.695  1.00  0.00     0.136 C 
HETATM    7  C17 UNL     1      28.491   3.339   0.319  1.00  0.00     0.065 C 
HETATM    8  C18 UNL     1      28.238   2.913  -1.068  1.00  0.00     0.128 C 
HETATM    9  C19 UNL     1      29.480   2.621  -1.890  1.00  0.00     0.058 C 
HETATM   10  C20 UNL     1      30.586   3.602  -1.716  1.00  0.00    -0.025 C 
HETATM   11  C21 UNL     1      31.896   2.785  -1.609  1.00  0.00     0.016 C 
HETATM   12  C22 UNL     1      30.794   4.566  -2.832  1.00  0.00     0.011 C 
HETATM   13  C23 UNL     1      30.587   4.034  -4.216  1.00  0.00     0.014 C 
HETATM   14  C24 UNL     1      29.209   3.437  -4.282  1.00  0.00    -0.005 C 
HETATM   15  C25 UNL     1      28.186   4.486  -4.181  1.00  0.00     0.019 C 
HETATM   16  C26 UNL     1      28.971   2.632  -5.565  1.00  0.00     0.032 C 
HETATM   17  C31 UNL     1      28.051   1.504  -5.148  1.00  0.00     0.013 C 
HETATM   18  C32 UNL     1      27.867   1.678  -3.623  1.00  0.00     0.040 C 
HETATM   19  C33 UNL     1      29.174   2.322  -3.295  1.00  0.00     0.072 C 
HETATM   20  O7  UNL     1      29.889   4.385   1.828  1.00  0.00    -0.355 OA
ENDROOT
BRANCH   1  21
HETATM   21  O2  UNL     1      31.316   3.848   3.464  1.00  0.00    -0.352 OA
BRANCH  21  22
HETATM   22  C6  UNL     1      32.452   3.029   3.327  1.00  0.00     0.147 C 
BRANCH  22  23
HETATM   23  C5  UNL     1      31.976   1.647   3.154  1.00  0.00     0.036 C 
BRANCH  23  24
HETATM   24  C4  UNL     1      32.195   1.024   1.835  1.00  0.00     0.010 C 
BRANCH  24  25
HETATM   25  C3  UNL     1      33.562   1.138   1.276  1.00  0.00     0.078 C 
BRANCH  25  26
HETATM   26  C2  UNL     1      33.615   0.161   0.108  1.00  0.00     0.123 C 
HETATM   27  C1  UNL     1      32.414  -0.659  -0.173  1.00  0.00     0.091 C 
HETATM   28  O1  UNL     1      34.611   0.058  -0.577  1.00  0.00    -0.298 OA
ENDBRANCH  25  26
ENDBRANCH  24  25
ENDBRANCH  23  24
ENDBRANCH  22  23
BRANCH  22  29
HETATM   29  C7  UNL     1      33.460   3.311   4.345  1.00  0.00     0.007 C 
HETATM   30  C8  UNL     1      33.549   2.830   5.555  1.00  0.00    -0.089 C 
HETATM   31  C9  UNL     1      32.558   1.866   6.075  1.00  0.00     0.042 C 
HETATM   32  C10 UNL     1      34.654   3.240   6.454  1.00  0.00     0.042 C 
ENDBRANCH  22  29
ENDBRANCH  21  22
ENDBRANCH   1  21
BRANCH   8  33
HETATM   33  O3  UNL     1      27.527   1.685  -0.978  1.00  0.00    -0.395 OA
ATOM     34  H3  UNL     1      26.744   1.796  -1.503  1.00  0.00     0.210 HD
ENDBRANCH   8  33
BRANCH  19  35
HETATM   35  O6  UNL     1      30.150   1.398  -3.767  1.00  0.00    -0.389 OA
ATOM     36  H6  UNL     1      29.927   1.170  -4.662  1.00  0.00     0.210 HD
ENDBRANCH  19  35
BRANCH  16  37
HETATM   37  C27 UNL     1      28.429   3.435  -6.658  1.00  0.00    -0.026 A 
HETATM   38  C28 UNL     1      27.068   3.485  -6.991  1.00  0.00     0.152 A 
HETATM   39  O4  UNL     1      26.955   4.311  -8.001  1.00  0.00    -0.300 OA
HETATM   40  C29 UNL     1      28.102   4.805  -8.362  1.00  0.00     0.183 A 
HETATM   41  C30 UNL     1      29.070   4.270  -7.529  1.00  0.00     0.073 A 
BRANCH  40  42
HETATM   42  O5  UNL     1      28.314   5.702  -9.390  1.00  0.00    -0.341 OA
ATOM     43  H5  UNL     1      29.120   6.173  -9.564  1.00  0.00     0.220 HD
ENDBRANCH  40  42
ENDBRANCH  16  37
TORSDOF 11
ENDMDL
MODEL 3
REMARK VINA RESULT: -6.869299047      3.309      9.347
REMARK  11 active torsions:
REMARK  status: ('A' for Active; 'I' for Inactive)
REMARK    1  A    between atoms: C2_2  and  C3_4 
REMARK    2  A    between atoms: C3_4  and  C4_5 
REMARK    3  A    between atoms: C4_5  and  C5_6 
REMARK    4  A    between atoms: C5_6  and  C6_7 
REMARK    5  A    between atoms: C6_7  and  C7_8 
REMARK    6  A    between atoms: C6_7  and  O2_12 
REMARK    7  A    between atoms: O2_12  and  C11_13 
REMARK    8  A    between atoms: C18_20  and  O3_21 
REMARK    9  A    between atoms: C26_30  and  C27_31 
REMARK   10  A    between atoms: C29_34  and  O5_35 
REMARK   11  A    between atoms: C33_40  and  O6_41 
ROOT
HETATM    1  C11 UNL     1      32.064   3.279   2.572  1.00  0.00     0.261 C 
HETATM    2  C12 UNL     1      32.895   2.600   1.514  1.00  0.00     0.061 C 
HETATM    3  C13 UNL     1      32.521   2.952   0.107  1.00  0.00     0.017 C 
HETATM    4  C14 UNL     1      31.033   3.128  -0.111  1.00  0.00    -0.010 C 
HETATM    5  C15 UNL     1      30.824   4.621  -0.240  1.00  0.00     0.018 C 
HETATM    6  C16 UNL     1      30.284   2.736   1.166  1.00  0.00     0.136 C 
HETATM    7  C17 UNL     1      28.859   3.209   0.973  1.00  0.00     0.065 C 
HETATM    8  C18 UNL     1      28.234   2.868  -0.317  1.00  0.00     0.128 C 
HETATM    9  C19 UNL     1      29.066   1.975  -1.220  1.00  0.00     0.058 C 
HETATM   10  C20 UNL     1      30.510   2.328  -1.286  1.00  0.00    -0.025 C 
HETATM   11  C21 UNL     1      31.299   0.999  -1.214  1.00  0.00     0.016 C 
HETATM   12  C22 UNL     1      30.966   3.010  -2.529  1.00  0.00     0.011 C 
HETATM   13  C23 UNL     1      30.333   2.554  -3.807  1.00  0.00     0.014 C 
HETATM   14  C24 UNL     1      28.842   2.673  -3.655  1.00  0.00    -0.005 C 
HETATM   15  C25 UNL     1      28.441   4.084  -3.579  1.00  0.00     0.019 C 
HETATM   16  C26 UNL     1      28.072   1.997  -4.795  1.00  0.00     0.032 C 
HETATM   17  C31 UNL     1      26.812   1.463  -4.147  1.00  0.00     0.013 C 
HETATM   18  C32 UNL     1      26.959   1.797  -2.645  1.00  0.00     0.040 C 
HETATM   19  C33 UNL     1      28.449   1.769  -2.538  1.00  0.00     0.072 C 
HETATM   20  O7  UNL     1      30.790   3.564   2.186  1.00  0.00    -0.355 OA
ENDROOT
BRANCH   1  21
HETATM   21  O2  UNL     1      32.040   2.520   3.719  1.00  0.00    -0.352 OA
BRANCH  21  22
HETATM   22  C6  UNL     1      33.039   2.872   4.644  1.00  0.00     0.147 C 
BRANCH  22  23
HETATM   23  C5  UNL     1      32.768   2.129   5.885  1.00  0.00     0.036 C 
BRANCH  23  24
HETATM   24  C4  UNL     1      33.714   2.320   7.000  1.00  0.00     0.010 C 
BRANCH  24  25
HETATM   25  C3  UNL     1      33.216   3.106   8.153  1.00  0.00     0.078 C 
BRANCH  25  26
HETATM   26  C2  UNL     1      34.088   4.355   8.209  1.00  0.00     0.123 C 
HETATM   27  C1  UNL     1      35.556   4.188   8.116  1.00  0.00     0.091 C 
HETATM   28  O1  UNL     1      33.595   5.458   8.325  1.00  0.00    -0.298 OA
ENDBRANCH  25  26
ENDBRANCH  24  25
ENDBRANCH  23  24
ENDBRANCH  22  23
BRANCH  22  29
HETATM   29  C7  UNL     1      33.243   4.317   4.711  1.00  0.00     0.007 C 
HETATM   30  C8  UNL     1      34.319   4.999   4.433  1.00  0.00    -0.089 C 
HETATM   31  C9  UNL     1      35.558   4.333   3.982  1.00  0.00     0.042 C 
HETATM   32  C10 UNL     1      34.337   6.476   4.564  1.00  0.00     0.042 C 
ENDBRANCH  22  29
ENDBRANCH  21  22
ENDBRANCH   1  21
BRANCH   8  33
HETATM   33  O3  UNL     1      27.062   2.127  -0.001  1.00  0.00    -0.395 OA
ATOM     34  H3  UNL     1      27.362   1.334   0.427  1.00  0.00     0.210 HD
ENDBRANCH   8  33
BRANCH  19  35
HETATM   35  O6  UNL     1      28.810   0.468  -2.990  1.00  0.00    -0.389 OA
ATOM     36  H6  UNL     1      28.361   0.310  -3.812  1.00  0.00     0.210 HD
ENDBRANCH  19  35
BRANCH  16  37
HETATM   37  C27 UNL     1      27.801   2.892  -5.917  1.00  0.00    -0.026 A 
HETATM   38  C28 UNL     1      26.512   3.226  -6.357  1.00  0.00     0.152 A 
HETATM   39  O4  UNL     1      26.657   4.053  -7.362  1.00  0.00    -0.300 OA
HETATM   40  C29 UNL     1      27.908   4.293  -7.625  1.00  0.00     0.183 A 
HETATM   41  C30 UNL     1      28.671   3.569  -6.723  1.00  0.00     0.073 A 
BRANCH  40  42
HETATM   42  O5  UNL     1      28.385   5.121  -8.620  1.00  0.00    -0.341 OA
ATOM     43  H5  UNL     1      28.002   5.945  -8.895  1.00  0.00     0.220 HD
ENDBRANCH  40  42
ENDBRANCH  16  37
TORSDOF 11
ENDMDL
MODEL 4
REMARK VINA RESULT: -6.766741692      2.251      3.208
REMARK  11 active torsions:
REMARK  status: ('A' for Active; 'I' for Inactive)
REMARK    1  A    between atoms: C2_2  and  C3_4 
REMARK    2  A    between atoms: C3_4  and  C4_5 
REMARK    3  A    between atoms: C4_5  and  C5_6 
REMARK    4  A    between atoms: C5_6  and  C6_7 
REMARK    5  A    between atoms: C6_7  and  C7_8 
REMARK    6  A    between atoms: C6_7  and  O2_12 
REMARK    7  A    between atoms: O2_12  and  C11_13 
REMARK    8  A    between atoms: C18_20  and  O3_21 
REMARK    9  A    between atoms: C26_30  and  C27_31 
REMARK   10  A    between atoms: C29_34  and  O5_35 
REMARK   11  A    between atoms: C33_40  and  O6_41 
ROOT
HETATM    1  C11 UNL     1      30.651   4.452  -4.773  1.00  0.00     0.261 C 
HETATM    2  C12 UNL     1      29.917   5.767  -4.814  1.00  0.00     0.061 C 
HETATM    3  C13 UNL     1      30.273   6.713  -3.709  1.00  0.00     0.017 C 
HETATM    4  C14 UNL     1      30.525   6.040  -2.376  1.00  0.00    -0.010 C 
HETATM    5  C15 UNL     1      32.026   6.083  -2.185  1.00  0.00     0.018 C 
HETATM    6  C16 UNL     1      30.187   4.550  -2.489  1.00  0.00     0.136 C 
HETATM    7  C17 UNL     1      30.732   3.904  -1.234  1.00  0.00     0.065 C 
HETATM    8  C18 UNL     1      30.411   4.582   0.034  1.00  0.00     0.128 C 
HETATM    9  C19 UNL     1      29.466   5.763  -0.088  1.00  0.00     0.058 C 
HETATM   10  C20 UNL     1      29.741   6.664  -1.240  1.00  0.00    -0.025 C 
HETATM   11  C21 UNL     1      28.373   7.009  -1.876  1.00  0.00     0.016 C 
HETATM   12  C22 UNL     1      30.384   7.968  -0.918  1.00  0.00     0.011 C 
HETATM   13  C23 UNL     1      29.948   8.628   0.353  1.00  0.00     0.014 C 
HETATM   14  C24 UNL     1      30.147   7.648   1.476  1.00  0.00    -0.005 C 
HETATM   15  C25 UNL     1      31.578   7.411   1.707  1.00  0.00     0.019 C 
HETATM   16  C26 UNL     1      29.501   8.107   2.788  1.00  0.00     0.032 C 
HETATM   17  C31 UNL     1      29.041   6.830   3.460  1.00  0.00     0.013 C 
HETATM   18  C32 UNL     1      29.384   5.703   2.459  1.00  0.00     0.040 C 
HETATM   19  C33 UNL     1      29.278   6.474   1.184  1.00  0.00     0.072 C 
HETATM   20  O7  UNL     1      30.999   4.043  -3.522  1.00  0.00    -0.355 OA
ENDROOT
BRANCH   1  21
HETATM   21  O2  UNL     1      29.907   3.472  -5.389  1.00  0.00    -0.352 OA
BRANCH  21  22
HETATM   22  C6  UNL     1      29.116   3.952  -6.448  1.00  0.00     0.147 C 
BRANCH  22  23
HETATM   23  C5  UNL     1      27.794   3.315  -6.330  1.00  0.00     0.036 C 
BRANCH  23  24
HETATM   24  C4  UNL     1      27.275   3.097  -4.967  1.00  0.00     0.010 C 
BRANCH  24  25
HETATM   25  C3  UNL     1      26.971   1.695  -4.598  1.00  0.00     0.078 C 
BRANCH  25  26
HETATM   26  C2  UNL     1      25.770   1.763  -3.664  1.00  0.00     0.123 C 
HETATM   27  C1  UNL     1      26.003   2.134  -2.250  1.00  0.00     0.091 C 
HETATM   28  O1  UNL     1      24.650   1.524  -4.066  1.00  0.00    -0.298 OA
ENDBRANCH  25  26
ENDBRANCH  24  25
ENDBRANCH  23  24
ENDBRANCH  22  23
BRANCH  22  29
HETATM   29  C7  UNL     1      29.818   3.900  -7.727  1.00  0.00     0.007 C 
HETATM   30  C8  UNL     1      29.858   4.802  -8.669  1.00  0.00    -0.089 C 
HETATM   31  C9  UNL     1      29.137   6.085  -8.537  1.00  0.00     0.042 C 
HETATM   32  C10 UNL     1      30.632   4.568  -9.911  1.00  0.00     0.042 C 
ENDBRANCH  22  29
ENDBRANCH  21  22
ENDBRANCH   1  21
BRANCH   8  33
HETATM   33  O3  UNL     1      29.736   3.619   0.834  1.00  0.00    -0.395 OA
ATOM     34  H3  UNL     1      29.348   3.001   0.227  1.00  0.00     0.210 HD
ENDBRANCH   8  33
BRANCH  19  35
HETATM   35  O6  UNL     1      27.955   7.000   1.199  1.00  0.00    -0.389 OA
ATOM     36  H6  UNL     1      27.775   7.362   0.340  1.00  0.00     0.210 HD
ENDBRANCH  19  35
BRANCH  16  37
HETATM   37  C27 UNL     1      30.396   8.901   3.625  1.00  0.00    -0.026 A 
HETATM   38  C28 UNL     1      30.820  10.199   3.305  1.00  0.00     0.152 A 
HETATM   39  O4  UNL     1      31.592  10.598   4.285  1.00  0.00    -0.300 OA
HETATM   40  C29 UNL     1      31.717   9.695   5.211  1.00  0.00     0.183 A 
HETATM   41  C30 UNL     1      30.968   8.595   4.827  1.00  0.00     0.073 A 
BRANCH  40  42
HETATM   42  O5  UNL     1      32.461   9.813   6.368  1.00  0.00    -0.341 OA
ATOM     43  H5  UNL     1      33.406   9.737   6.436  1.00  0.00     0.220 HD
ENDBRANCH  40  42
ENDBRANCH  16  37
TORSDOF 11
ENDMDL
MODEL 5
REMARK VINA RESULT: -6.761149508      1.040      1.165
REMARK  11 active torsions:
REMARK  status: ('A' for Active; 'I' for Inactive)
REMARK    1  A    between atoms: C2_2  and  C3_4 
REMARK    2  A    between atoms: C3_4  and  C4_5 
REMARK    3  A    between atoms: C4_5  and  C5_6 
REMARK    4  A    between atoms: C5_6  and  C6_7 
REMARK    5  A    between atoms: C6_7  and  C7_8 
REMARK    6  A    between atoms: C6_7  and  O2_12 
REMARK    7  A    between atoms: O2_12  and  C11_13 
REMARK    8  A    between atoms: C18_20  and  O3_21 
REMARK    9  A    between atoms: C26_30  and  C27_31 
REMARK   10  A    between atoms: C29_34  and  O5_35 
REMARK   11  A    between atoms: C33_40  and  O6_41 
ROOT
HETATM    1  C11 UNL     1      30.101   1.467  -2.460  1.00  0.00     0.261 C 
HETATM    2  C12 UNL     1      30.679   2.704  -3.098  1.00  0.00     0.061 C 
HETATM    3  C13 UNL     1      31.281   3.678  -2.133  1.00  0.00     0.017 C 
HETATM    4  C14 UNL     1      30.529   3.796  -0.824  1.00  0.00    -0.010 C 
HETATM    5  C15 UNL     1      31.385   3.069   0.192  1.00  0.00     0.018 C 
HETATM    6  C16 UNL     1      29.238   2.977  -0.905  1.00  0.00     0.136 C 
HETATM    7  C17 UNL     1      28.702   2.904   0.508  1.00  0.00     0.065 C 
HETATM    8  C18 UNL     1      28.657   4.177   1.249  1.00  0.00     0.128 C 
HETATM    9  C19 UNL     1      29.034   5.406   0.441  1.00  0.00     0.058 C 
HETATM   10  C20 UNL     1      30.213   5.228  -0.450  1.00  0.00    -0.025 C 
HETATM   11  C21 UNL     1      29.858   5.897  -1.800  1.00  0.00     0.016 C 
HETATM   12  C22 UNL     1      31.481   5.864   0.002  1.00  0.00     0.011 C 
HETATM   13  C23 UNL     1      31.354   7.192   0.681  1.00  0.00     0.014 C 
HETATM   14  C24 UNL     1      30.402   7.034   1.834  1.00  0.00    -0.005 C 
HETATM   15  C25 UNL     1      30.993   6.189   2.880  1.00  0.00     0.019 C 
HETATM   16  C26 UNL     1      29.988   8.374   2.451  1.00  0.00     0.032 C 
HETATM   17  C31 UNL     1      28.558   8.167   2.901  1.00  0.00     0.013 C 
HETATM   18  C32 UNL     1      28.197   6.734   2.450  1.00  0.00     0.040 C 
HETATM   19  C33 UNL     1      29.091   6.626   1.257  1.00  0.00     0.072 C 
HETATM   20  O7  UNL     1      29.630   1.656  -1.197  1.00  0.00    -0.355 OA
ENDROOT
BRANCH   1  21
HETATM   21  O2  UNL     1      29.104   0.944  -3.251  1.00  0.00    -0.352 OA
BRANCH  21  22
HETATM   22  C6  UNL     1      28.159   1.899  -3.665  1.00  0.00     0.147 C 
BRANCH  22  23
HETATM   23  C5  UNL     1      26.827   1.373  -3.325  1.00  0.00     0.036 C 
BRANCH  23  24
HETATM   24  C4  UNL     1      26.315   1.671  -1.975  1.00  0.00     0.010 C 
BRANCH  24  25
HETATM   25  C3  UNL     1      25.645   2.981  -1.803  1.00  0.00     0.078 C 
BRANCH  25  26
HETATM   26  C2  UNL     1      25.064   2.968  -0.395  1.00  0.00     0.123 C 
HETATM   27  C1  UNL     1      25.152   1.713   0.386  1.00  0.00     0.091 C 
HETATM   28  O1  UNL     1      24.546   3.958   0.078  1.00  0.00    -0.298 OA
ENDBRANCH  25  26
ENDBRANCH  24  25
ENDBRANCH  23  24
ENDBRANCH  22  23
BRANCH  22  29
HETATM   29  C7  UNL     1      28.412   2.369  -5.025  1.00  0.00     0.007 C 
HETATM   30  C8  UNL     1      28.311   3.581  -5.497  1.00  0.00    -0.089 C 
HETATM   31  C9  UNL     1      27.896   4.709  -4.639  1.00  0.00     0.042 C 
HETATM   32  C10 UNL     1      28.611   3.868  -6.920  1.00  0.00     0.042 C 
ENDBRANCH  22  29
ENDBRANCH  21  22
ENDBRANCH   1  21
BRANCH   8  33
HETATM   33  O3  UNL     1      27.300   4.359   1.633  1.00  0.00    -0.395 OA
ATOM     34  H3  UNL     1      26.997   3.511   1.933  1.00  0.00     0.210 HD
ENDBRANCH   8  33
BRANCH  19  35
HETATM   35  O6  UNL     1      28.709   7.722   0.432  1.00  0.00    -0.389 OA
ATOM     36  H6  UNL     1      27.761   7.741   0.392  1.00  0.00     0.210 HD
ENDBRANCH  19  35
BRANCH  16  37
HETATM   37  C27 UNL     1      30.869   8.807   3.533  1.00  0.00    -0.026 A 
HETATM   38  C28 UNL     1      32.151   9.339   3.333  1.00  0.00     0.152 A 
HETATM   39  O4  UNL     1      32.632   9.626   4.517  1.00  0.00    -0.300 OA
HETATM   40  C29 UNL     1      31.796   9.337   5.470  1.00  0.00     0.183 A 
HETATM   41  C30 UNL     1      30.658   8.811   4.883  1.00  0.00     0.073 A 
BRANCH  40  42
HETATM   42  O5  UNL     1      32.008   9.522   6.821  1.00  0.00    -0.341 OA
ATOM     43  H5  UNL     1      32.479   8.934   7.400  1.00  0.00     0.220 HD
ENDBRANCH  40  42
ENDBRANCH  16  37
TORSDOF 11
ENDMDL
