MODEL 1
REMARK VINA RESULT: -8.867870639      0.000      0.000
REMARK  14 active torsions:
REMARK  status: ('A' for Active; 'I' for Inactive)
REMARK    1  A    between atoms: C3_3  and  C4_4 
REMARK    2  A    between atoms: N1_6  and  S1_8 
REMARK    3  A    between atoms: S1_8  and  C6_11 
REMARK    4  A    between atoms: C6_11  and  C7_12 
REMARK    5  A    between atoms: C7_12  and  O3_13 
REMARK    6  A    between atoms: O3_13  and  C8_14 
REMARK    7  A    between atoms: C8_14  and  C9_15 
REMARK    8  A    between atoms: C9_15  and  N2_16 
REMARK    9  A    between atoms: C11_23  and  C12_24 
REMARK   10  A    between atoms: C12_24  and  C13_25 
REMARK   11  A    between atoms: C13_25  and  C14_26 
REMARK   12  A    between atoms: C14_26  and  C15_27 
REMARK   13  A    between atoms: C15_27  and  C16_28 
REMARK       I    between atoms: N7_34  and  C18_36 
REMARK   14  A    between atoms: C18_36  and  C19_38 
ROOT
HETATM    1  C1  UNL     1      18.567  31.318  16.753  1.00  0.00     0.112 C 
HETATM    2  C2  UNL     1      17.849  32.542  16.392  1.00  0.00    -0.104 C 
HETATM    3  C3  UNL     1      17.233  33.557  16.109  1.00  0.00    -0.053 C 
ENDROOT
BRANCH   3   4
HETATM    4  C4  UNL     1      16.529  34.742  15.750  1.00  0.00     0.069 C 
HETATM    5  C5  UNL     1      16.398  35.124  14.303  1.00  0.00     0.079 C 
HETATM    6  N1  UNL     1      15.965  35.548  16.578  1.00  0.00    -0.281 N 
ATOM      7  H1  UNL     1      15.479  36.376  16.235  1.00  0.00     0.179 HD
BRANCH   6   8
HETATM    8  S1  UNL     1      16.030  35.228  18.258  1.00  0.00     0.233 S 
HETATM    9  O1  UNL     1      17.450  34.965  18.665  1.00  0.00    -0.206 OA
HETATM   10  O2  UNL     1      15.240  33.969  18.567  1.00  0.00    -0.206 OA
BRANCH   8  11
HETATM   11  C6  UNL     1      15.367  36.540  19.243  1.00  0.00     0.189 C 
BRANCH  11  12
HETATM   12  C7  UNL     1      16.301  37.740  19.208  1.00  0.00     0.184 C 
BRANCH  12  13
HETATM   13  O3  UNL     1      16.341  38.282  17.929  1.00  0.00    -0.385 OA
BRANCH  13  14
HETATM   14  C8  UNL     1      16.844  39.572  18.006  1.00  0.00     0.212 C 
BRANCH  14  15
HETATM   15  C9  UNL     1      17.985  39.783  17.039  1.00  0.00     0.089 C 
BRANCH  15  16
HETATM   16  N2  UNL     1      19.231  39.303  17.479  1.00  0.00    -0.347 N 
HETATM   17  C10 UNL     1      19.682  38.096  17.517  1.00  0.00     0.164 A 
HETATM   18  N3  UNL     1      19.139  36.931  17.163  1.00  0.00    -0.279 N 
HETATM   19  S3  UNL     1      21.235  37.565  18.082  1.00  0.00    -0.038 SA
HETATM   20  N4  UNL     1      19.807  35.862  17.310  1.00  0.00    -0.296 N 
ATOM     21  H3  UNL     1      18.196  36.899  16.777  1.00  0.00     0.189 HD
HETATM   22  C11 UNL     1      21.028  35.894  17.808  1.00  0.00     0.069 A 
ATOM     23  H4  UNL     1      19.395  34.969  17.041  1.00  0.00     0.187 HD
ATOM     24  H2  UNL     1      19.875  40.017  17.820  1.00  0.00     0.167 HD
BRANCH  22  25
HETATM   25  C12 UNL     1      21.969  34.743  18.071  1.00  0.00     0.066 C 
BRANCH  25  26
HETATM   26  C13 UNL     1      21.789  33.742  16.969  1.00  0.00     0.007 C 
BRANCH  26  27
HETATM   27  C14 UNL     1      23.103  33.348  16.329  1.00  0.00     0.007 C 
BRANCH  27  28
HETATM   28  C15 UNL     1      22.892  33.170  14.826  1.00  0.00     0.066 C 
BRANCH  28  29
HETATM   29  C16 UNL     1      22.151  31.876  14.648  1.00  0.00     0.069 A 
HETATM   30  N5  UNL     1      22.358  30.705  15.236  1.00  0.00    -0.296 N 
HETATM   31  N6  UNL     1      21.623  29.713  14.969  1.00  0.00    -0.279 N 
ATOM     32  H5  UNL     1      23.118  30.605  15.910  1.00  0.00     0.187 HD
HETATM   33  C17 UNL     1      20.630  29.862  14.085  1.00  0.00     0.167 A 
ATOM     34  H6  UNL     1      21.784  28.813  15.420  1.00  0.00     0.189 HD
HETATM   35  N7  UNL     1      19.770  28.952  13.682  1.00  0.00    -0.306 N 
HETATM   36  S2  UNL     1      20.805  31.508  13.650  1.00  0.00    -0.038 SA
HETATM   37  C18 UNL     1      18.807  29.353  12.737  1.00  0.00     0.227 C 
ATOM     38  H7  UNL     1      19.800  27.996  14.038  1.00  0.00     0.171 HD
HETATM   39  O4  UNL     1      19.064  30.269  11.936  1.00  0.00    -0.273 OA
BRANCH  37  40
HETATM   40  C19 UNL     1      17.491  28.689  12.694  1.00  0.00     0.078 C 
HETATM   41  C20 UNL     1      17.667  27.216  12.985  1.00  0.00     0.014 C 
HETATM   42  C21 UNL     1      18.620  26.662  11.949  1.00  0.00     0.001 C 
HETATM   43  C22 UNL     1      17.972  26.780  10.614  1.00  0.00     0.000 C 
HETATM   44  C23 UNL     1      17.520  28.147  10.243  1.00  0.00     0.001 C 
HETATM   45  C24 UNL     1      16.864  28.883  11.357  1.00  0.00     0.014 C 
ENDBRANCH  37  40
ENDBRANCH  28  29
ENDBRANCH  27  28
ENDBRANCH  26  27
ENDBRANCH  25  26
ENDBRANCH  22  25
ENDBRANCH  15  16
ENDBRANCH  14  15
ENDBRANCH  13  14
ENDBRANCH  12  13
ENDBRANCH  11  12
ENDBRANCH   8  11
ENDBRANCH   6   8
ENDBRANCH   3   4
TORSDOF 14
ENDMDL
MODEL 2
REMARK VINA RESULT: -8.613710373      2.629      9.364
REMARK  14 active torsions:
REMARK  status: ('A' for Active; 'I' for Inactive)
REMARK    1  A    between atoms: C3_3  and  C4_4 
REMARK    2  A    between atoms: N1_6  and  S1_8 
REMARK    3  A    between atoms: S1_8  and  C6_11 
REMARK    4  A    between atoms: C6_11  and  C7_12 
REMARK    5  A    between atoms: C7_12  and  O3_13 
REMARK    6  A    between atoms: O3_13  and  C8_14 
REMARK    7  A    between atoms: C8_14  and  C9_15 
REMARK    8  A    between atoms: C9_15  and  N2_16 
REMARK    9  A    between atoms: C11_23  and  C12_24 
REMARK   10  A    between atoms: C12_24  and  C13_25 
REMARK   11  A    between atoms: C13_25  and  C14_26 
REMARK   12  A    between atoms: C14_26  and  C15_27 
REMARK   13  A    between atoms: C15_27  and  C16_28 
REMARK       I    between atoms: N7_34  and  C18_36 
REMARK   14  A    between atoms: C18_36  and  C19_38 
ROOT
HETATM    1  C1  UNL     1      18.487  32.087  13.862  1.00  0.00     0.112 C 
HETATM    2  C2  UNL     1      18.215  30.652  13.762  1.00  0.00    -0.104 C 
HETATM    3  C3  UNL     1      17.995  29.453  13.703  1.00  0.00    -0.053 C 
ENDROOT
BRANCH   3   4
HETATM    4  C4  UNL     1      17.740  28.055  13.602  1.00  0.00     0.069 C 
HETATM    5  C5  UNL     1      17.477  27.253  14.845  1.00  0.00     0.079 C 
HETATM    6  N1  UNL     1      17.708  27.385  12.506  1.00  0.00    -0.281 N 
ATOM      7  H1  UNL     1      17.517  26.383  12.525  1.00  0.00     0.179 HD
BRANCH   6   8
HETATM    8  S1  UNL     1      17.983  28.176  11.014  1.00  0.00     0.233 S 
HETATM    9  O1  UNL     1      19.240  28.992  11.102  1.00  0.00    -0.206 OA
HETATM   10  O2  UNL     1      16.847  29.144  10.734  1.00  0.00    -0.206 OA
BRANCH   8  11
HETATM   11  C6  UNL     1      18.098  27.061   9.644  1.00  0.00     0.189 C 
BRANCH  11  12
HETATM   12  C7  UNL     1      17.875  25.633  10.117  1.00  0.00     0.184 C 
BRANCH  12  13
HETATM   13  O3  UNL     1      19.082  25.057  10.496  1.00  0.00    -0.385 OA
BRANCH  13  14
HETATM   14  C8  UNL     1      20.000  25.229   9.470  1.00  0.00     0.212 C 
BRANCH  14  15
HETATM   15  C9  UNL     1      21.416  25.015   9.950  1.00  0.00     0.089 C 
BRANCH  15  16
HETATM   16  N2  UNL     1      22.076  26.177  10.385  1.00  0.00    -0.347 N 
HETATM   17  C10 UNL     1      21.886  26.884  11.445  1.00  0.00     0.164 A 
HETATM   18  N3  UNL     1      21.027  26.759  12.457  1.00  0.00    -0.279 N 
HETATM   19  S3  UNL     1      22.735  28.322  11.924  1.00  0.00    -0.038 SA
HETATM   20  N4  UNL     1      21.041  27.613  13.396  1.00  0.00    -0.296 N 
ATOM     21  H3  UNL     1      20.365  25.984  12.477  1.00  0.00     0.189 HD
HETATM   22  C11 UNL     1      21.895  28.619  13.379  1.00  0.00     0.069 A 
ATOM     23  H4  UNL     1      20.386  27.521  14.171  1.00  0.00     0.187 HD
ATOM     24  H2  UNL     1      22.818  26.510   9.769  1.00  0.00     0.167 HD
BRANCH  22  25
HETATM   25  C12 UNL     1      22.058  29.733  14.384  1.00  0.00     0.066 C 
BRANCH  25  26
HETATM   26  C13 UNL     1      21.985  31.034  13.643  1.00  0.00     0.007 C 
BRANCH  26  27
HETATM   27  C14 UNL     1      22.969  32.055  14.175  1.00  0.00     0.007 C 
BRANCH  27  28
HETATM   28  C15 UNL     1      22.868  32.097  15.699  1.00  0.00     0.066 C 
BRANCH  28  29
HETATM   29  C16 UNL     1      21.916  33.209  16.035  1.00  0.00     0.069 A 
HETATM   30  N5  UNL     1      22.053  34.514  15.846  1.00  0.00    -0.296 N 
HETATM   31  N6  UNL     1      21.135  35.312  16.186  1.00  0.00    -0.279 N 
ATOM     32  H5  UNL     1      22.908  34.876  15.422  1.00  0.00     0.187 HD
HETATM   33  C17 UNL     1      20.021  34.821  16.738  1.00  0.00     0.167 A 
ATOM     34  H6  UNL     1      21.243  36.316  16.042  1.00  0.00     0.189 HD
HETATM   35  N7  UNL     1      18.968  35.490  17.155  1.00  0.00    -0.306 N 
HETATM   36  S2  UNL     1      20.356  33.143  16.748  1.00  0.00    -0.038 SA
HETATM   37  C18 UNL     1      17.908  34.743  17.704  1.00  0.00     0.227 C 
ATOM     38  H7  UNL     1      18.920  36.507  17.083  1.00  0.00     0.171 HD
HETATM   39  O4  UNL     1      18.138  33.660  18.269  1.00  0.00    -0.273 OA
BRANCH  37  40
HETATM   40  C19 UNL     1      16.523  35.243  17.610  1.00  0.00     0.078 C 
HETATM   41  C20 UNL     1      15.564  34.086  17.766  1.00  0.00     0.014 C 
HETATM   42  C21 UNL     1      15.885  33.084  16.680  1.00  0.00     0.001 C 
HETATM   43  C22 UNL     1      15.604  33.721  15.365  1.00  0.00     0.000 C 
HETATM   44  C23 UNL     1      16.303  35.011  15.119  1.00  0.00     0.001 C 
HETATM   45  C24 UNL     1      16.313  35.918  16.298  1.00  0.00     0.014 C 
ENDBRANCH  37  40
ENDBRANCH  28  29
ENDBRANCH  27  28
ENDBRANCH  26  27
ENDBRANCH  25  26
ENDBRANCH  22  25
ENDBRANCH  15  16
ENDBRANCH  14  15
ENDBRANCH  13  14
ENDBRANCH  12  13
ENDBRANCH  11  12
ENDBRANCH   8  11
ENDBRANCH   6   8
ENDBRANCH   3   4
TORSDOF 14
ENDMDL
MODEL 3
REMARK VINA RESULT: -8.286839244      1.966      2.915
REMARK  14 active torsions:
REMARK  status: ('A' for Active; 'I' for Inactive)
REMARK    1  A    between atoms: C3_3  and  C4_4 
REMARK    2  A    between atoms: N1_6  and  S1_8 
REMARK    3  A    between atoms: S1_8  and  C6_11 
REMARK    4  A    between atoms: C6_11  and  C7_12 
REMARK    5  A    between atoms: C7_12  and  O3_13 
REMARK    6  A    between atoms: O3_13  and  C8_14 
REMARK    7  A    between atoms: C8_14  and  C9_15 
REMARK    8  A    between atoms: C9_15  and  N2_16 
REMARK    9  A    between atoms: C11_23  and  C12_24 
REMARK   10  A    between atoms: C12_24  and  C13_25 
REMARK   11  A    between atoms: C13_25  and  C14_26 
REMARK   12  A    between atoms: C14_26  and  C15_27 
REMARK   13  A    between atoms: C15_27  and  C16_28 
REMARK       I    between atoms: N7_34  and  C18_36 
REMARK   14  A    between atoms: C18_36  and  C19_38 
ROOT
HETATM    1  C1  UNL     1      18.486  31.288  16.812  1.00  0.00     0.112 C 
HETATM    2  C2  UNL     1      17.797  32.528  16.451  1.00  0.00    -0.104 C 
HETATM    3  C3  UNL     1      17.217  33.566  16.173  1.00  0.00    -0.053 C 
ENDROOT
BRANCH   3   4
HETATM    4  C4  UNL     1      16.537  34.767  15.820  1.00  0.00     0.069 C 
HETATM    5  C5  UNL     1      16.400  35.150  14.374  1.00  0.00     0.079 C 
HETATM    6  N1  UNL     1      16.001  35.587  16.653  1.00  0.00    -0.281 N 
ATOM      7  H1  UNL     1      15.532  36.426  16.313  1.00  0.00     0.179 HD
BRANCH   6   8
HETATM    8  S1  UNL     1      16.076  35.268  18.332  1.00  0.00     0.233 S 
HETATM    9  O1  UNL     1      17.500  35.012  18.733  1.00  0.00    -0.206 OA
HETATM   10  O2  UNL     1      15.295  34.005  18.646  1.00  0.00    -0.206 OA
BRANCH   8  11
HETATM   11  C6  UNL     1      15.412  36.577  19.321  1.00  0.00     0.189 C 
BRANCH  11  12
HETATM   12  C7  UNL     1      16.211  37.852  19.101  1.00  0.00     0.184 C 
BRANCH  12  13
HETATM   13  O3  UNL     1      15.816  38.470  17.921  1.00  0.00    -0.385 OA
BRANCH  13  14
HETATM   14  C8  UNL     1      15.416  39.767  18.208  1.00  0.00     0.212 C 
BRANCH  14  15
HETATM   15  C9  UNL     1      16.170  40.779  17.377  1.00  0.00     0.089 C 
BRANCH  15  16
HETATM   16  N2  UNL     1      17.512  40.969  17.749  1.00  0.00    -0.347 N 
HETATM   17  C10 UNL     1      18.550  40.255  17.481  1.00  0.00     0.164 A 
HETATM   18  N3  UNL     1      18.701  39.129  16.783  1.00  0.00    -0.279 N 
HETATM   19  S3  UNL     1      20.189  40.541  17.980  1.00  0.00    -0.038 SA
HETATM   20  N4  UNL     1      19.855  38.613  16.673  1.00  0.00    -0.296 N 
ATOM     21  H3  UNL     1      17.895  38.686  16.341  1.00  0.00     0.189 HD
HETATM   22  C11 UNL     1      20.903  39.180  17.241  1.00  0.00     0.069 A 
ATOM     23  H4  UNL     1      19.974  37.752  16.141  1.00  0.00     0.187 HD
ATOM     24  H2  UNL     1      17.690  41.798  18.316  1.00  0.00     0.167 HD
BRANCH  22  25
HETATM   25  C12 UNL     1      22.340  38.720  17.237  1.00  0.00     0.066 C 
BRANCH  25  26
HETATM   26  C13 UNL     1      22.434  37.500  18.104  1.00  0.00     0.007 C 
BRANCH  26  27
HETATM   27  C14 UNL     1      22.446  36.219  17.298  1.00  0.00     0.007 C 
BRANCH  27  28
HETATM   28  C15 UNL     1      21.268  35.348  17.730  1.00  0.00     0.066 C 
BRANCH  28  29
HETATM   29  C16 UNL     1      21.557  33.960  17.235  1.00  0.00     0.069 A 
HETATM   30  N5  UNL     1      21.856  32.870  17.928  1.00  0.00    -0.296 N 
HETATM   31  N6  UNL     1      22.063  31.771  17.340  1.00  0.00    -0.279 N 
ATOM     32  H5  UNL     1      21.921  32.919  18.945  1.00  0.00     0.187 HD
HETATM   33  C17 UNL     1      21.972  31.723  16.007  1.00  0.00     0.167 A 
ATOM     34  H6  UNL     1      22.295  30.934  17.874  1.00  0.00     0.189 HD
HETATM   35  N7  UNL     1      22.153  30.680  15.226  1.00  0.00    -0.306 N 
HETATM   36  S2  UNL     1      21.575  33.345  15.633  1.00  0.00    -0.038 SA
HETATM   37  C18 UNL     1      22.000  30.880  13.841  1.00  0.00     0.227 C 
ATOM     38  H7  UNL     1      22.395  29.765  15.607  1.00  0.00     0.171 HD
HETATM   39  O4  UNL     1      22.236  31.994  13.344  1.00  0.00    -0.273 OA
BRANCH  37  40
HETATM   40  C19 UNL     1      21.559  29.769  12.977  1.00  0.00     0.078 C 
HETATM   41  C20 UNL     1      20.375  30.220  12.152  1.00  0.00     0.014 C 
HETATM   42  C21 UNL     1      19.294  30.658  13.116  1.00  0.00     0.001 C 
HETATM   43  C22 UNL     1      18.865  29.469  13.902  1.00  0.00     0.000 C 
HETATM   44  C23 UNL     1      19.953  28.750  14.617  1.00  0.00     0.001 C 
HETATM   45  C24 UNL     1      21.193  28.589  13.810  1.00  0.00     0.014 C 
ENDBRANCH  37  40
ENDBRANCH  28  29
ENDBRANCH  27  28
ENDBRANCH  26  27
ENDBRANCH  25  26
ENDBRANCH  22  25
ENDBRANCH  15  16
ENDBRANCH  14  15
ENDBRANCH  13  14
ENDBRANCH  12  13
ENDBRANCH  11  12
ENDBRANCH   8  11
ENDBRANCH   6   8
ENDBRANCH   3   4
TORSDOF 14
ENDMDL
MODEL 4
REMARK VINA RESULT: -8.207662598      2.091      3.251
REMARK  14 active torsions:
REMARK  status: ('A' for Active; 'I' for Inactive)
REMARK    1  A    between atoms: C3_3  and  C4_4 
REMARK    2  A    between atoms: N1_6  and  S1_8 
REMARK    3  A    between atoms: S1_8  and  C6_11 
REMARK    4  A    between atoms: C6_11  and  C7_12 
REMARK    5  A    between atoms: C7_12  and  O3_13 
REMARK    6  A    between atoms: O3_13  and  C8_14 
REMARK    7  A    between atoms: C8_14  and  C9_15 
REMARK    8  A    between atoms: C9_15  and  N2_16 
REMARK    9  A    between atoms: C11_23  and  C12_24 
REMARK   10  A    between atoms: C12_24  and  C13_25 
REMARK   11  A    between atoms: C13_25  and  C14_26 
REMARK   12  A    between atoms: C14_26  and  C15_27 
REMARK   13  A    between atoms: C15_27  and  C16_28 
REMARK       I    between atoms: N7_34  and  C18_36 
REMARK   14  A    between atoms: C18_36  and  C19_38 
ROOT
HETATM    1  C1  UNL     1      17.709  29.854  12.488  1.00  0.00     0.112 C 
HETATM    2  C2  UNL     1      18.033  30.362  13.822  1.00  0.00    -0.104 C 
HETATM    3  C3  UNL     1      18.280  30.793  14.937  1.00  0.00    -0.053 C 
ENDROOT
BRANCH   3   4
HETATM    4  C4  UNL     1      18.599  31.297  16.231  1.00  0.00     0.069 C 
HETATM    5  C5  UNL     1      19.588  30.567  17.094  1.00  0.00     0.079 C 
HETATM    6  N1  UNL     1      18.107  32.364  16.752  1.00  0.00    -0.281 N 
ATOM      7  H1  UNL     1      18.391  32.654  17.688  1.00  0.00     0.179 HD
BRANCH   6   8
HETATM    8  S1  UNL     1      16.973  33.298  15.874  1.00  0.00     0.233 S 
HETATM    9  O1  UNL     1      15.751  32.472  15.593  1.00  0.00    -0.206 OA
HETATM   10  O2  UNL     1      17.565  33.684  14.530  1.00  0.00    -0.206 OA
BRANCH   8  11
HETATM   11  C6  UNL     1      16.502  34.786  16.707  1.00  0.00     0.189 C 
BRANCH  11  12
HETATM   12  C7  UNL     1      16.310  34.513  18.191  1.00  0.00     0.184 C 
BRANCH  12  13
HETATM   13  O3  UNL     1      16.972  35.473  18.947  1.00  0.00    -0.385 OA
BRANCH  13  14
HETATM   14  C8  UNL     1      16.998  36.663  18.234  1.00  0.00     0.212 C 
BRANCH  14  15
HETATM   15  C9  UNL     1      18.286  37.418  18.459  1.00  0.00     0.089 C 
BRANCH  15  16
HETATM   16  N2  UNL     1      19.358  37.019  17.641  1.00  0.00    -0.347 N 
HETATM   17  C10 UNL     1      20.076  35.950  17.688  1.00  0.00     0.164 A 
HETATM   18  N3  UNL     1      20.048  34.894  18.500  1.00  0.00    -0.279 N 
HETATM   19  S3  UNL     1      21.398  35.518  16.648  1.00  0.00    -0.038 SA
HETATM   20  N4  UNL     1      20.888  33.957  18.333  1.00  0.00    -0.296 N 
ATOM     21  H3  UNL     1      19.358  34.838  19.249  1.00  0.00     0.189 HD
HETATM   22  C11 UNL     1      21.784  34.019  17.366  1.00  0.00     0.069 A 
ATOM     23  H4  UNL     1      20.870  33.147  18.953  1.00  0.00     0.187 HD
ATOM     24  H2  UNL     1      19.604  37.675  16.899  1.00  0.00     0.167 HD
BRANCH  22  25
HETATM   25  C12 UNL     1      22.863  33.025  17.017  1.00  0.00     0.066 C 
BRANCH  25  26
HETATM   26  C13 UNL     1      22.966  32.964  15.522  1.00  0.00     0.007 C 
BRANCH  26  27
HETATM   27  C14 UNL     1      21.790  32.247  14.894  1.00  0.00     0.007 C 
BRANCH  27  28
HETATM   28  C15 UNL     1      22.200  31.732  13.514  1.00  0.00     0.066 C 
BRANCH  28  29
HETATM   29  C16 UNL     1      21.857  30.270  13.483  1.00  0.00     0.069 A 
HETATM   30  N5  UNL     1      21.642  29.440  14.493  1.00  0.00    -0.296 N 
HETATM   31  N6  UNL     1      21.351  28.229  14.279  1.00  0.00    -0.279 N 
ATOM     32  H5  UNL     1      21.711  29.781  15.453  1.00  0.00     0.187 HD
HETATM   33  C17 UNL     1      21.262  27.798  13.017  1.00  0.00     0.167 A 
ATOM     34  H6  UNL     1      21.188  27.590  15.058  1.00  0.00     0.189 HD
HETATM   35  N7  UNL     1      20.976  26.583  12.600  1.00  0.00    -0.306 N 
HETATM   36  S2  UNL     1      21.620  29.225  12.143  1.00  0.00    -0.038 SA
HETATM   37  C18 UNL     1      20.939  26.373  11.208  1.00  0.00     0.227 C 
ATOM     38  H7  UNL     1      20.788  25.826  13.257  1.00  0.00     0.171 HD
HETATM   39  O4  UNL     1      21.645  27.067  10.456  1.00  0.00    -0.273 OA
BRANCH  37  40
HETATM   40  C19 UNL     1      20.064  25.331  10.640  1.00  0.00     0.078 C 
HETATM   41  C20 UNL     1      19.537  25.799   9.303  1.00  0.00     0.014 C 
HETATM   42  C21 UNL     1      18.798  27.098   9.539  1.00  0.00     0.001 C 
HETATM   43  C22 UNL     1      17.625  26.812  10.407  1.00  0.00     0.000 C 
HETATM   44  C23 UNL     1      17.934  26.137  11.696  1.00  0.00     0.001 C 
HETATM   45  C24 UNL     1      18.938  25.046  11.573  1.00  0.00     0.014 C 
ENDBRANCH  37  40
ENDBRANCH  28  29
ENDBRANCH  27  28
ENDBRANCH  26  27
ENDBRANCH  25  26
ENDBRANCH  22  25
ENDBRANCH  15  16
ENDBRANCH  14  15
ENDBRANCH  13  14
ENDBRANCH  12  13
ENDBRANCH  11  12
ENDBRANCH   8  11
ENDBRANCH   6   8
ENDBRANCH   3   4
TORSDOF 14
ENDMDL
MODEL 5
REMARK VINA RESULT: -8.157408580      1.470      1.956
REMARK  14 active torsions:
REMARK  status: ('A' for Active; 'I' for Inactive)
REMARK    1  A    between atoms: C3_3  and  C4_4 
REMARK    2  A    between atoms: N1_6  and  S1_8 
REMARK    3  A    between atoms: S1_8  and  C6_11 
REMARK    4  A    between atoms: C6_11  and  C7_12 
REMARK    5  A    between atoms: C7_12  and  O3_13 
REMARK    6  A    between atoms: O3_13  and  C8_14 
REMARK    7  A    between atoms: C8_14  and  C9_15 
REMARK    8  A    between atoms: C9_15  and  N2_16 
REMARK    9  A    between atoms: C11_23  and  C12_24 
REMARK   10  A    between atoms: C12_24  and  C13_25 
REMARK   11  A    between atoms: C13_25  and  C14_26 
REMARK   12  A    between atoms: C14_26  and  C15_27 
REMARK   13  A    between atoms: C15_27  and  C16_28 
REMARK       I    between atoms: N7_34  and  C18_36 
REMARK   14  A    between atoms: C18_36  and  C19_38 
ROOT
HETATM    1  C1  UNL     1      18.112  30.563  14.756  1.00  0.00     0.112 C 
HETATM    2  C2  UNL     1      17.560  31.919  14.789  1.00  0.00    -0.104 C 
HETATM    3  C3  UNL     1      17.111  33.053  14.839  1.00  0.00    -0.053 C 
ENDROOT
BRANCH   3   4
HETATM    4  C4  UNL     1      16.565  34.369  14.877  1.00  0.00     0.069 C 
HETATM    5  C5  UNL     1      16.520  35.195  13.623  1.00  0.00     0.079 C 
HETATM    6  N1  UNL     1      16.082  34.940  15.922  1.00  0.00    -0.281 N 
ATOM      7  H1  UNL     1      15.709  35.887  15.860  1.00  0.00     0.179 HD
BRANCH   6   8
HETATM    8  S1  UNL     1      16.063  34.109  17.417  1.00  0.00     0.233 S 
HETATM    9  O1  UNL     1      17.456  33.672  17.768  1.00  0.00    -0.206 OA
HETATM   10  O2  UNL     1      15.225  32.849  17.289  1.00  0.00    -0.206 OA
BRANCH   8  11
HETATM   11  C6  UNL     1      15.395  35.073  18.742  1.00  0.00     0.189 C 
BRANCH  11  12
HETATM   12  C7  UNL     1      14.958  36.435  18.225  1.00  0.00     0.184 C 
BRANCH  12  13
HETATM   13  O3  UNL     1      16.067  37.189  17.860  1.00  0.00    -0.385 OA
BRANCH  13  14
HETATM   14  C8  UNL     1      16.535  37.866  18.976  1.00  0.00     0.212 C 
BRANCH  14  15
HETATM   15  C9  UNL     1      17.907  38.450  18.737  1.00  0.00     0.089 C 
BRANCH  15  16
HETATM   16  N2  UNL     1      18.977  37.579  19.005  1.00  0.00    -0.347 N 
HETATM   17  C10 UNL     1      19.452  36.615  18.294  1.00  0.00     0.164 A 
HETATM   18  N3  UNL     1      19.102  36.132  17.102  1.00  0.00    -0.279 N 
HETATM   19  S3  UNL     1      20.778  35.565  18.686  1.00  0.00    -0.038 SA
HETATM   20  N4  UNL     1      19.743  35.151  16.615  1.00  0.00    -0.296 N 
ATOM     21  H3  UNL     1      18.328  36.548  16.585  1.00  0.00     0.189 HD
HETATM   22  C11 UNL     1      20.747  34.607  17.275  1.00  0.00     0.069 A 
ATOM     23  H4  UNL     1      19.478  34.778  15.703  1.00  0.00     0.187 HD
ATOM     24  H2  UNL     1      19.448  37.733  19.897  1.00  0.00     0.167 HD
BRANCH  22  25
HETATM   25  C12 UNL     1      21.614  33.438  16.876  1.00  0.00     0.066 C 
BRANCH  25  26
HETATM   26  C13 UNL     1      20.977  32.776  15.691  1.00  0.00     0.007 C 
BRANCH  26  27
HETATM   27  C14 UNL     1      21.775  32.979  14.420  1.00  0.00     0.007 C 
BRANCH  27  28
HETATM   28  C15 UNL     1      22.904  31.949  14.372  1.00  0.00     0.066 C 
BRANCH  28  29
HETATM   29  C16 UNL     1      22.252  30.607  14.204  1.00  0.00     0.069 A 
HETATM   30  N5  UNL     1      21.997  29.681  15.118  1.00  0.00    -0.296 N 
HETATM   31  N6  UNL     1      21.427  28.600  14.795  1.00  0.00    -0.279 N 
ATOM     32  H5  UNL     1      22.262  29.842  16.089  1.00  0.00     0.187 HD
HETATM   33  C17 UNL     1      21.083  28.406  13.518  1.00  0.00     0.167 A 
ATOM     34  H6  UNL     1      21.232  27.888  15.499  1.00  0.00     0.189 HD
HETATM   35  N7  UNL     1      20.490  27.353  12.997  1.00  0.00    -0.306 N 
HETATM   36  S2  UNL     1      21.623  29.859  12.793  1.00  0.00    -0.038 SA
HETATM   37  C18 UNL     1      20.228  27.383  11.613  1.00  0.00     0.227 C 
ATOM     38  H7  UNL     1      20.230  26.550  13.569  1.00  0.00     0.171 HD
HETATM   39  O4  UNL     1      20.962  28.040  10.855  1.00  0.00    -0.273 OA
BRANCH  37  40
HETATM   40  C19 UNL     1      19.082  26.636  11.061  1.00  0.00     0.078 C 
HETATM   41  C20 UNL     1      18.247  27.564  10.209  1.00  0.00     0.014 C 
HETATM   42  C21 UNL     1      17.808  28.713  11.091  1.00  0.00     0.001 C 
HETATM   43  C22 UNL     1      16.924  28.168  12.156  1.00  0.00     0.000 C 
HETATM   44  C23 UNL     1      17.509  27.069  12.970  1.00  0.00     0.001 C 
HETATM   45  C24 UNL     1      18.263  26.068  12.168  1.00  0.00     0.014 C 
ENDBRANCH  37  40
ENDBRANCH  28  29
ENDBRANCH  27  28
ENDBRANCH  26  27
ENDBRANCH  25  26
ENDBRANCH  22  25
ENDBRANCH  15  16
ENDBRANCH  14  15
ENDBRANCH  13  14
ENDBRANCH  12  13
ENDBRANCH  11  12
ENDBRANCH   8  11
ENDBRANCH   6   8
ENDBRANCH   3   4
TORSDOF 14
ENDMDL
