MODEL 1
REMARK VINA RESULT: -8.500785077      0.000      0.000
REMARK  16 active torsions:
REMARK  status: ('A' for Active; 'I' for Inactive)
REMARK    1  A    between atoms: C2_2  and  O1_3 
REMARK    2  A    between atoms: O1_3  and  C3_4 
REMARK    3  A    between atoms: C3_4  and  C4_6 
REMARK    4  A    between atoms: C4_6  and  C5_7 
REMARK    5  A    between atoms: C5_7  and  C6_8 
REMARK       I    between atoms: N1_9  and  C7_11 
REMARK    6  A    between atoms: C7_11  and  C8_13 
REMARK    7  A    between atoms: C8_13  and  C11_19 
REMARK       I    between atoms: N2_14  and  C9_16 
REMARK       I    between atoms: N3_23  and  C15_24 
REMARK    8  A    between atoms: C15_24  and  C16_26 
REMARK    9  A    between atoms: C16_26  and  C17_27 
REMARK   10  A    between atoms: C16_26  and  N5_36 
REMARK   11  A    between atoms: C17_27  and  C18_28 
REMARK   12  A    between atoms: C18_28  and  C19_29 
REMARK   13  A    between atoms: C19_29  and  C20_30 
REMARK   14  A    between atoms: C20_30  and  N4_31 
REMARK       I    between atoms: N4_31  and  C21_33 
REMARK       I    between atoms: N5_36  and  C23_38 
REMARK   15  A    between atoms: C23_38  and  O8_40 
REMARK   16  A    between atoms: O8_40  and  C24_41 
ROOT
HETATM    1  C11 UNL     1      19.289  31.200  15.347  1.00  0.00     0.059 C 
HETATM    2  C12 UNL     1      20.134  30.246  16.141  1.00  0.00     0.014 C 
HETATM    3  C13 UNL     1      19.968  28.800  15.658  1.00  0.00     0.021 C 
HETATM    4  C14 UNL     1      20.491  28.822  14.222  1.00  0.00     0.126 C 
HETATM    5  N3  UNL     1      19.511  29.549  13.471  1.00  0.00    -0.350 N 
HETATM    6  C15 UNL     1      18.850  29.018  12.333  1.00  0.00     0.242 C 
HETATM    7  O5  UNL     1      18.042  29.819  11.729  1.00  0.00    -0.271 OA
HETATM    8  C28 UNL     1      19.153  30.893  13.898  1.00  0.00     0.137 C 
ENDROOT
BRANCH   6   9
HETATM    9  C16 UNL     1      19.017  27.656  11.807  1.00  0.00     0.179 C 
BRANCH   9  10
HETATM   10  C17 UNL     1      17.888  27.206  10.896  1.00  0.00     0.035 C 
BRANCH  10  11
HETATM   11  C18 UNL     1      17.852  25.727  10.718  1.00  0.00     0.004 C 
BRANCH  11  12
HETATM   12  C19 UNL     1      17.720  25.377   9.264  1.00  0.00     0.020 C 
BRANCH  12  13
HETATM   13  C20 UNL     1      18.916  25.684   8.425  1.00  0.00     0.122 C 
BRANCH  13  14
HETATM   14  N4  UNL     1      18.700  26.876   7.608  1.00  0.00    -0.361 N 
HETATM   15  C21 UNL     1      18.558  26.696   6.207  1.00  0.00     0.213 C 
HETATM   16  C22 UNL     1      18.330  27.874   5.315  1.00  0.00     0.117 C 
HETATM   17  O6  UNL     1      18.618  25.566   5.686  1.00  0.00    -0.274 OA
ATOM     18  H4  UNL     1      18.652  27.803   8.029  1.00  0.00     0.162 HD
ENDBRANCH  13  14
ENDBRANCH  12  13
ENDBRANCH  11  12
ENDBRANCH  10  11
ENDBRANCH   9  10
BRANCH   9  19
HETATM   19  N5  UNL     1      20.275  27.592  11.033  1.00  0.00    -0.324 N 
HETATM   20  C23 UNL     1      21.202  26.563  11.272  1.00  0.00     0.362 C 
HETATM   21  O7  UNL     1      20.999  25.660  12.156  1.00  0.00    -0.238 OA
ATOM     22  H5  UNL     1      20.471  28.297  10.324  1.00  0.00     0.165 HD
BRANCH  20  23
HETATM   23  O8  UNL     1      22.402  26.426  10.591  1.00  0.00    -0.294 OA
BRANCH  23  24
HETATM   24  C24 UNL     1      23.621  26.897  11.065  1.00  0.00     0.061 C 
HETATM   25  C25 UNL     1      24.564  25.768  11.298  1.00  0.00     0.046 C 
HETATM   26  C26 UNL     1      24.211  27.769   9.947  1.00  0.00     0.046 C 
HETATM   27  C27 UNL     1      23.521  27.789  12.270  1.00  0.00     0.046 C 
ENDBRANCH  23  24
ENDBRANCH  20  23
ENDBRANCH   9  19
ENDBRANCH   6   9
BRANCH   1  28
HETATM   28  C8  UNL     1      19.762  32.595  15.521  1.00  0.00     0.086 C 
HETATM   29  N2  UNL     1      20.890  33.009  15.290  1.00  0.00    -0.326 N 
HETATM   30  C9  UNL     1      22.150  32.837  14.895  1.00  0.00     0.218 C 
ATOM     31  H2  UNL     1      20.838  34.002  15.516  1.00  0.00     0.168 HD
HETATM   32  C10 UNL     1      23.257  32.241  15.724  1.00  0.00     0.117 C 
HETATM   33  O4  UNL     1      22.531  33.183  13.721  1.00  0.00    -0.274 OA
BRANCH  28  34
HETATM   34  C7  UNL     1      18.773  33.587  16.016  1.00  0.00     0.268 C 
HETATM   35  N1  UNL     1      17.848  34.215  15.195  1.00  0.00    -0.336 N 
HETATM   36  C6  UNL     1      16.596  34.007  15.258  1.00  0.00     0.064 C 
ATOM     37  H1  UNL     1      18.192  34.880  14.502  1.00  0.00     0.168 HD
HETATM   38  O3  UNL     1      18.768  33.877  17.256  1.00  0.00    -0.266 OA
BRANCH  36  39
HETATM   39  C5  UNL     1      16.005  33.064  16.225  1.00  0.00     0.054 C 
BRANCH  39  40
HETATM   40  C4  UNL     1      14.780  33.674  16.901  1.00  0.00     0.116 C 
BRANCH  40  41
HETATM   41  C3  UNL     1      15.166  34.726  17.861  1.00  0.00     0.259 C 
HETATM   42  O2  UNL     1      15.689  34.450  18.991  1.00  0.00    -0.265 OA
BRANCH  41  43
HETATM   43  O1  UNL     1      14.983  36.067  17.593  1.00  0.00    -0.322 OA
BRANCH  43  44
HETATM   44  C2  UNL     1      15.873  37.065  18.049  1.00  0.00     0.174 C 
HETATM   45  C1  UNL     1      16.938  37.344  17.027  1.00  0.00     0.034 C 
ENDBRANCH  43  44
ENDBRANCH  41  43
ENDBRANCH  40  41
ENDBRANCH  39  40
ENDBRANCH  36  39
ENDBRANCH  28  34
ENDBRANCH   1  28
TORSDOF 16
ENDMDL
MODEL 2
REMARK VINA RESULT: -8.464308747      0.918      1.006
REMARK  16 active torsions:
REMARK  status: ('A' for Active; 'I' for Inactive)
REMARK    1  A    between atoms: C2_2  and  O1_3 
REMARK    2  A    between atoms: O1_3  and  C3_4 
REMARK    3  A    between atoms: C3_4  and  C4_6 
REMARK    4  A    between atoms: C4_6  and  C5_7 
REMARK    5  A    between atoms: C5_7  and  C6_8 
REMARK       I    between atoms: N1_9  and  C7_11 
REMARK    6  A    between atoms: C7_11  and  C8_13 
REMARK    7  A    between atoms: C8_13  and  C11_19 
REMARK       I    between atoms: N2_14  and  C9_16 
REMARK       I    between atoms: N3_23  and  C15_24 
REMARK    8  A    between atoms: C15_24  and  C16_26 
REMARK    9  A    between atoms: C16_26  and  C17_27 
REMARK   10  A    between atoms: C16_26  and  N5_36 
REMARK   11  A    between atoms: C17_27  and  C18_28 
REMARK   12  A    between atoms: C18_28  and  C19_29 
REMARK   13  A    between atoms: C19_29  and  C20_30 
REMARK   14  A    between atoms: C20_30  and  N4_31 
REMARK       I    between atoms: N4_31  and  C21_33 
REMARK       I    between atoms: N5_36  and  C23_38 
REMARK   15  A    between atoms: C23_38  and  O8_40 
REMARK   16  A    between atoms: O8_40  and  C24_41 
ROOT
HETATM    1  C11 UNL     1      19.243  31.473  15.431  1.00  0.00     0.059 C 
HETATM    2  C12 UNL     1      19.873  30.615  16.490  1.00  0.00     0.014 C 
HETATM    3  C13 UNL     1      19.739  29.121  16.168  1.00  0.00     0.021 C 
HETATM    4  C14 UNL     1      20.531  28.945  14.872  1.00  0.00     0.126 C 
HETATM    5  N3  UNL     1      19.750  29.586  13.858  1.00  0.00    -0.350 N 
HETATM    6  C15 UNL     1      19.299  28.924  12.686  1.00  0.00     0.242 C 
HETATM    7  O5  UNL     1      18.662  29.655  11.838  1.00  0.00    -0.271 OA
HETATM    8  C28 UNL     1      19.377  30.982  14.035  1.00  0.00     0.137 C 
ENDROOT
BRANCH   6   9
HETATM    9  C16 UNL     1      19.504  27.502  12.377  1.00  0.00     0.179 C 
BRANCH   9  10
HETATM   10  C17 UNL     1      18.242  26.782  11.934  1.00  0.00     0.035 C 
BRANCH  10  11
HETATM   11  C18 UNL     1      18.466  25.919  10.740  1.00  0.00     0.004 C 
BRANCH  11  12
HETATM   12  C19 UNL     1      17.584  26.354   9.605  1.00  0.00     0.020 C 
BRANCH  12  13
HETATM   13  C20 UNL     1      18.221  27.284   8.626  1.00  0.00     0.122 C 
BRANCH  13  14
HETATM   14  N4  UNL     1      18.940  26.550   7.588  1.00  0.00    -0.361 N 
HETATM   15  C21 UNL     1      18.609  26.830   6.236  1.00  0.00     0.213 C 
HETATM   16  C22 UNL     1      19.311  26.117   5.125  1.00  0.00     0.117 C 
HETATM   17  O6  UNL     1      17.737  27.668   5.939  1.00  0.00    -0.274 OA
ATOM     18  H4  UNL     1      19.654  25.862   7.825  1.00  0.00     0.162 HD
ENDBRANCH  13  14
ENDBRANCH  12  13
ENDBRANCH  11  12
ENDBRANCH  10  11
ENDBRANCH   9  10
BRANCH   9  19
HETATM   19  N5  UNL     1      20.497  27.385  11.288  1.00  0.00    -0.324 N 
HETATM   20  C23 UNL     1      21.871  27.381  11.580  1.00  0.00     0.362 C 
HETATM   21  O7  UNL     1      22.309  27.482  12.778  1.00  0.00    -0.238 OA
ATOM     22  H5  UNL     1      20.182  27.308  10.321  1.00  0.00     0.165 HD
BRANCH  20  23
HETATM   23  O8  UNL     1      22.868  27.273  10.623  1.00  0.00    -0.294 OA
BRANCH  23  24
HETATM   24  C24 UNL     1      23.709  26.174  10.500  1.00  0.00     0.061 C 
HETATM   25  C25 UNL     1      22.958  24.910  10.743  1.00  0.00     0.046 C 
HETATM   26  C26 UNL     1      24.186  26.155   9.040  1.00  0.00     0.046 C 
HETATM   27  C27 UNL     1      24.956  26.243  11.335  1.00  0.00     0.046 C 
ENDBRANCH  23  24
ENDBRANCH  20  23
ENDBRANCH   9  19
ENDBRANCH   6   9
BRANCH   1  28
HETATM   28  C8  UNL     1      19.736  32.869  15.521  1.00  0.00     0.086 C 
HETATM   29  N2  UNL     1      20.878  33.248  15.296  1.00  0.00    -0.326 N 
HETATM   30  C9  UNL     1      22.146  33.027  14.954  1.00  0.00     0.218 C 
ATOM     31  H2  UNL     1      20.837  34.255  15.451  1.00  0.00     0.168 HD
HETATM   32  C10 UNL     1      23.216  32.474  15.856  1.00  0.00     0.117 C 
HETATM   33  O4  UNL     1      22.567  33.283  13.771  1.00  0.00    -0.274 OA
BRANCH  28  34
HETATM   34  C7  UNL     1      18.751  33.909  15.914  1.00  0.00     0.268 C 
HETATM   35  N1  UNL     1      17.737  34.352  15.078  1.00  0.00    -0.336 N 
HETATM   36  C6  UNL     1      16.503  34.128  15.288  1.00  0.00     0.064 C 
ATOM     37  H1  UNL     1      17.994  34.887  14.249  1.00  0.00     0.168 HD
HETATM   38  O3  UNL     1      18.836  34.422  17.077  1.00  0.00    -0.266 OA
BRANCH  36  39
HETATM   39  C5  UNL     1      16.033  33.364  16.458  1.00  0.00     0.054 C 
BRANCH  39  40
HETATM   40  C4  UNL     1      14.866  34.073  17.138  1.00  0.00     0.116 C 
BRANCH  40  41
HETATM   41  C3  UNL     1      15.341  35.107  18.077  1.00  0.00     0.259 C 
HETATM   42  O2  UNL     1      16.072  34.822  19.082  1.00  0.00    -0.265 OA
BRANCH  41  43
HETATM   43  O1  UNL     1      15.021  36.440  17.923  1.00  0.00    -0.322 OA
BRANCH  43  44
HETATM   44  C2  UNL     1      15.947  37.480  18.163  1.00  0.00     0.174 C 
HETATM   45  C1  UNL     1      16.942  37.585  17.043  1.00  0.00     0.034 C 
ENDBRANCH  43  44
ENDBRANCH  41  43
ENDBRANCH  40  41
ENDBRANCH  39  40
ENDBRANCH  36  39
ENDBRANCH  28  34
ENDBRANCH   1  28
TORSDOF 16
ENDMDL
MODEL 3
REMARK VINA RESULT: -8.366316437      1.149      1.518
REMARK  16 active torsions:
REMARK  status: ('A' for Active; 'I' for Inactive)
REMARK    1  A    between atoms: C2_2  and  O1_3 
REMARK    2  A    between atoms: O1_3  and  C3_4 
REMARK    3  A    between atoms: C3_4  and  C4_6 
REMARK    4  A    between atoms: C4_6  and  C5_7 
REMARK    5  A    between atoms: C5_7  and  C6_8 
REMARK       I    between atoms: N1_9  and  C7_11 
REMARK    6  A    between atoms: C7_11  and  C8_13 
REMARK    7  A    between atoms: C8_13  and  C11_19 
REMARK       I    between atoms: N2_14  and  C9_16 
REMARK       I    between atoms: N3_23  and  C15_24 
REMARK    8  A    between atoms: C15_24  and  C16_26 
REMARK    9  A    between atoms: C16_26  and  C17_27 
REMARK   10  A    between atoms: C16_26  and  N5_36 
REMARK   11  A    between atoms: C17_27  and  C18_28 
REMARK   12  A    between atoms: C18_28  and  C19_29 
REMARK   13  A    between atoms: C19_29  and  C20_30 
REMARK   14  A    between atoms: C20_30  and  N4_31 
REMARK       I    between atoms: N4_31  and  C21_33 
REMARK       I    between atoms: N5_36  and  C23_38 
REMARK   15  A    between atoms: C23_38  and  O8_40 
REMARK   16  A    between atoms: O8_40  and  C24_41 
ROOT
HETATM    1  C11 UNL     1      19.311  31.109  15.202  1.00  0.00     0.059 C 
HETATM    2  C12 UNL     1      20.147  30.176  16.030  1.00  0.00     0.014 C 
HETATM    3  C13 UNL     1      20.023  28.724  15.554  1.00  0.00     0.021 C 
HETATM    4  C14 UNL     1      20.590  28.744  14.135  1.00  0.00     0.126 C 
HETATM    5  N3  UNL     1      19.621  29.448  13.348  1.00  0.00    -0.350 N 
HETATM    6  C15 UNL     1      19.006  28.896  12.194  1.00  0.00     0.242 C 
HETATM    7  O5  UNL     1      18.203  29.678  11.558  1.00  0.00    -0.271 OA
HETATM    8  C28 UNL     1      19.227  30.789  13.753  1.00  0.00     0.137 C 
ENDROOT
BRANCH   6   9
HETATM    9  C16 UNL     1      19.214  27.534  11.685  1.00  0.00     0.179 C 
BRANCH   9  10
HETATM   10  C17 UNL     1      18.099  27.039  10.779  1.00  0.00     0.035 C 
BRANCH  10  11
HETATM   11  C18 UNL     1      18.514  26.967   9.350  1.00  0.00     0.004 C 
BRANCH  11  12
HETATM   12  C19 UNL     1      18.373  25.563   8.834  1.00  0.00     0.020 C 
BRANCH  12  13
HETATM   13  C20 UNL     1      19.276  25.208   7.700  1.00  0.00     0.122 C 
BRANCH  13  14
HETATM   14  N4  UNL     1      20.676  25.213   8.114  1.00  0.00    -0.361 N 
HETATM   15  C21 UNL     1      21.457  24.067   7.809  1.00  0.00     0.213 C 
HETATM   16  C22 UNL     1      22.898  24.010   8.202  1.00  0.00     0.117 C 
HETATM   17  O6  UNL     1      20.971  23.088   7.212  1.00  0.00    -0.274 OA
ATOM     18  H4  UNL     1      21.079  26.011   8.605  1.00  0.00     0.162 HD
ENDBRANCH  13  14
ENDBRANCH  12  13
ENDBRANCH  11  12
ENDBRANCH  10  11
ENDBRANCH   9  10
BRANCH   9  19
HETATM   19  N5  UNL     1      20.473  27.498  10.911  1.00  0.00    -0.324 N 
HETATM   20  C23 UNL     1      21.429  26.498  11.160  1.00  0.00     0.362 C 
HETATM   21  O7  UNL     1      21.252  25.599  12.054  1.00  0.00    -0.238 OA
ATOM     22  H5  UNL     1      20.649  28.201  10.194  1.00  0.00     0.165 HD
BRANCH  20  23
HETATM   23  O8  UNL     1      22.633  26.388  10.481  1.00  0.00    -0.294 OA
BRANCH  23  24
HETATM   24  C24 UNL     1      23.793  27.062  10.845  1.00  0.00     0.061 C 
HETATM   25  C25 UNL     1      24.982  26.176  10.697  1.00  0.00     0.046 C 
HETATM   26  C26 UNL     1      23.951  28.219   9.847  1.00  0.00     0.046 C 
HETATM   27  C27 UNL     1      23.746  27.700  12.205  1.00  0.00     0.046 C 
ENDBRANCH  23  24
ENDBRANCH  20  23
ENDBRANCH   9  19
ENDBRANCH   6   9
BRANCH   1  28
HETATM   28  C8  UNL     1      19.754  32.514  15.380  1.00  0.00     0.086 C 
HETATM   29  N2  UNL     1      20.875  32.951  15.158  1.00  0.00    -0.326 N 
HETATM   30  C9  UNL     1      22.142  32.804  14.775  1.00  0.00     0.218 C 
ATOM     31  H2  UNL     1      20.800  33.943  15.384  1.00  0.00     0.168 HD
HETATM   32  C10 UNL     1      23.253  32.231  15.613  1.00  0.00     0.117 C 
HETATM   33  O4  UNL     1      22.526  33.158  13.604  1.00  0.00    -0.274 OA
BRANCH  28  34
HETATM   34  C7  UNL     1      18.740  33.485  15.865  1.00  0.00     0.268 C 
HETATM   35  N1  UNL     1      17.747  34.017  15.057  1.00  0.00    -0.336 N 
HETATM   36  C6  UNL     1      16.511  33.754  15.194  1.00  0.00     0.064 C 
ATOM     37  H1  UNL     1      18.024  34.655  14.310  1.00  0.00     0.168 HD
HETATM   38  O3  UNL     1      18.779  33.848  17.086  1.00  0.00    -0.266 OA
BRANCH  36  39
HETATM   39  C5  UNL     1      16.015  32.844  16.242  1.00  0.00     0.054 C 
BRANCH  39  40
HETATM   40  C4  UNL     1      14.885  33.492  17.036  1.00  0.00     0.116 C 
BRANCH  40  41
HETATM   41  C3  UNL     1      15.369  34.651  17.811  1.00  0.00     0.259 C 
HETATM   42  O2  UNL     1      15.873  34.522  18.975  1.00  0.00    -0.265 OA
BRANCH  41  43
HETATM   43  O1  UNL     1      15.306  35.939  17.322  1.00  0.00    -0.322 OA
BRANCH  43  44
HETATM   44  C2  UNL     1      16.381  36.851  17.429  1.00  0.00     0.174 C 
HETATM   45  C1  UNL     1      16.021  38.005  18.320  1.00  0.00     0.034 C 
ENDBRANCH  43  44
ENDBRANCH  41  43
ENDBRANCH  40  41
ENDBRANCH  39  40
ENDBRANCH  36  39
ENDBRANCH  28  34
ENDBRANCH   1  28
TORSDOF 16
ENDMDL
MODEL 4
REMARK VINA RESULT: -8.364560698      2.521     11.190
REMARK  16 active torsions:
REMARK  status: ('A' for Active; 'I' for Inactive)
REMARK    1  A    between atoms: C2_2  and  O1_3 
REMARK    2  A    between atoms: O1_3  and  C3_4 
REMARK    3  A    between atoms: C3_4  and  C4_6 
REMARK    4  A    between atoms: C4_6  and  C5_7 
REMARK    5  A    between atoms: C5_7  and  C6_8 
REMARK       I    between atoms: N1_9  and  C7_11 
REMARK    6  A    between atoms: C7_11  and  C8_13 
REMARK    7  A    between atoms: C8_13  and  C11_19 
REMARK       I    between atoms: N2_14  and  C9_16 
REMARK       I    between atoms: N3_23  and  C15_24 
REMARK    8  A    between atoms: C15_24  and  C16_26 
REMARK    9  A    between atoms: C16_26  and  C17_27 
REMARK   10  A    between atoms: C16_26  and  N5_36 
REMARK   11  A    between atoms: C17_27  and  C18_28 
REMARK   12  A    between atoms: C18_28  and  C19_29 
REMARK   13  A    between atoms: C19_29  and  C20_30 
REMARK   14  A    between atoms: C20_30  and  N4_31 
REMARK       I    between atoms: N4_31  and  C21_33 
REMARK       I    between atoms: N5_36  and  C23_38 
REMARK   15  A    between atoms: C23_38  and  O8_40 
REMARK   16  A    between atoms: O8_40  and  C24_41 
ROOT
HETATM    1  C11 UNL     1      19.197  30.438  14.344  1.00  0.00     0.059 C 
HETATM    2  C12 UNL     1      18.044  31.301  13.917  1.00  0.00     0.014 C 
HETATM    3  C13 UNL     1      17.754  32.410  14.936  1.00  0.00     0.021 C 
HETATM    4  C14 UNL     1      19.022  33.265  14.930  1.00  0.00     0.126 C 
HETATM    5  N3  UNL     1      20.024  32.465  15.569  1.00  0.00    -0.350 N 
HETATM    6  C15 UNL     1      20.750  32.891  16.712  1.00  0.00     0.242 C 
HETATM    7  O5  UNL     1      21.662  32.084  17.130  1.00  0.00    -0.271 OA
HETATM    8  C28 UNL     1      20.308  31.139  15.040  1.00  0.00     0.137 C 
ENDROOT
BRANCH   6   9
HETATM    9  C16 UNL     1      20.542  34.155  17.432  1.00  0.00     0.179 C 
BRANCH   9  10
HETATM   10  C17 UNL     1      20.995  35.383  16.661  1.00  0.00     0.035 C 
BRANCH  10  11
HETATM   11  C18 UNL     1      22.305  35.908  17.141  1.00  0.00     0.004 C 
BRANCH  11  12
HETATM   12  C19 UNL     1      22.126  37.255  17.781  1.00  0.00     0.020 C 
BRANCH  12  13
HETATM   13  C20 UNL     1      21.000  38.071  17.240  1.00  0.00     0.122 C 
BRANCH  13  14
HETATM   14  N4  UNL     1      20.025  38.385  18.282  1.00  0.00    -0.361 N 
HETATM   15  C21 UNL     1      18.770  38.910  17.872  1.00  0.00     0.213 C 
HETATM   16  C22 UNL     1      17.727  39.248  18.887  1.00  0.00     0.117 C 
HETATM   17  O6  UNL     1      18.506  39.100  16.670  1.00  0.00    -0.274 OA
ATOM     18  H4  UNL     1      20.237  38.233  19.268  1.00  0.00     0.162 HD
ENDBRANCH  13  14
ENDBRANCH  12  13
ENDBRANCH  11  12
ENDBRANCH  10  11
ENDBRANCH   9  10
BRANCH   9  19
HETATM   19  N5  UNL     1      19.100  34.311  17.721  1.00  0.00    -0.324 N 
HETATM   20  C23 UNL     1      18.677  35.095  18.807  1.00  0.00     0.362 C 
HETATM   21  O7  UNL     1      19.508  35.690  19.578  1.00  0.00    -0.238 OA
ATOM     22  H5  UNL     1      18.411  33.848  17.129  1.00  0.00     0.165 HD
BRANCH  20  23
HETATM   23  O8  UNL     1      17.348  35.297  19.148  1.00  0.00    -0.294 OA
BRANCH  23  24
HETATM   24  C24 UNL     1      16.320  35.425  18.220  1.00  0.00     0.061 C 
HETATM   25  C25 UNL     1      15.633  34.118  18.017  1.00  0.00     0.046 C 
HETATM   26  C26 UNL     1      15.300  36.393  18.838  1.00  0.00     0.046 C 
HETATM   27  C27 UNL     1      16.730  36.041  16.913  1.00  0.00     0.046 C 
ENDBRANCH  23  24
ENDBRANCH  20  23
ENDBRANCH   9  19
ENDBRANCH   6   9
BRANCH   1  28
HETATM   28  C8  UNL     1      19.733  29.668  13.194  1.00  0.00     0.086 C 
HETATM   29  N2  UNL     1      19.122  28.839  12.533  1.00  0.00    -0.326 N 
HETATM   30  C9  UNL     1      18.032  28.129  12.250  1.00  0.00     0.218 C 
ATOM     31  H2  UNL     1      19.802  28.533  11.836  1.00  0.00     0.168 HD
HETATM   32  C10 UNL     1      17.562  26.907  12.992  1.00  0.00     0.117 C 
HETATM   33  O4  UNL     1      17.264  28.454  11.276  1.00  0.00    -0.274 OA
BRANCH  28  34
HETATM   34  C7  UNL     1      21.142  29.932  12.803  1.00  0.00     0.268 C 
HETATM   35  N1  UNL     1      22.219  29.218  13.307  1.00  0.00    -0.336 N 
HETATM   36  C6  UNL     1      22.928  28.428  12.608  1.00  0.00     0.064 C 
ATOM     37  H1  UNL     1      22.455  29.333  14.293  1.00  0.00     0.168 HD
HETATM   38  O3  UNL     1      21.377  30.858  11.961  1.00  0.00    -0.266 OA
BRANCH  36  39
HETATM   39  C5  UNL     1      22.665  28.196  11.177  1.00  0.00     0.054 C 
BRANCH  39  40
HETATM   40  C4  UNL     1      23.600  27.128  10.617  1.00  0.00     0.116 C 
BRANCH  40  41
HETATM   41  C3  UNL     1      23.566  25.901  11.438  1.00  0.00     0.259 C 
HETATM   42  O2  UNL     1      24.611  25.437  12.002  1.00  0.00    -0.265 OA
BRANCH  41  43
HETATM   43  O1  UNL     1      22.403  25.187  11.642  1.00  0.00    -0.322 OA
BRANCH  43  44
HETATM   44  C2  UNL     1      21.564  24.775  10.582  1.00  0.00     0.174 C 
HETATM   45  C1  UNL     1      20.184  25.346  10.735  1.00  0.00     0.034 C 
ENDBRANCH  43  44
ENDBRANCH  41  43
ENDBRANCH  40  41
ENDBRANCH  39  40
ENDBRANCH  36  39
ENDBRANCH  28  34
ENDBRANCH   1  28
TORSDOF 16
ENDMDL
MODEL 5
REMARK VINA RESULT: -8.250882737      2.229     10.693
REMARK  16 active torsions:
REMARK  status: ('A' for Active; 'I' for Inactive)
REMARK    1  A    between atoms: C2_2  and  O1_3 
REMARK    2  A    between atoms: O1_3  and  C3_4 
REMARK    3  A    between atoms: C3_4  and  C4_6 
REMARK    4  A    between atoms: C4_6  and  C5_7 
REMARK    5  A    between atoms: C5_7  and  C6_8 
REMARK       I    between atoms: N1_9  and  C7_11 
REMARK    6  A    between atoms: C7_11  and  C8_13 
REMARK    7  A    between atoms: C8_13  and  C11_19 
REMARK       I    between atoms: N2_14  and  C9_16 
REMARK       I    between atoms: N3_23  and  C15_24 
REMARK    8  A    between atoms: C15_24  and  C16_26 
REMARK    9  A    between atoms: C16_26  and  C17_27 
REMARK   10  A    between atoms: C16_26  and  N5_36 
REMARK   11  A    between atoms: C17_27  and  C18_28 
REMARK   12  A    between atoms: C18_28  and  C19_29 
REMARK   13  A    between atoms: C19_29  and  C20_30 
REMARK   14  A    between atoms: C20_30  and  N4_31 
REMARK       I    between atoms: N4_31  and  C21_33 
REMARK       I    between atoms: N5_36  and  C23_38 
REMARK   15  A    between atoms: C23_38  and  O8_40 
REMARK   16  A    between atoms: O8_40  and  C24_41 
ROOT
HETATM    1  C11 UNL     1      21.242  29.357  13.981  1.00  0.00     0.059 C 
HETATM    2  C12 UNL     1      20.242  28.880  14.996  1.00  0.00     0.014 C 
HETATM    3  C13 UNL     1      20.175  29.813  16.212  1.00  0.00     0.021 C 
HETATM    4  C14 UNL     1      19.680  31.141  15.638  1.00  0.00     0.126 C 
HETATM    5  N3  UNL     1      20.775  31.656  14.871  1.00  0.00    -0.350 N 
HETATM    6  C15 UNL     1      21.353  32.932  15.098  1.00  0.00     0.242 C 
HETATM    7  O5  UNL     1      22.289  33.277  14.282  1.00  0.00    -0.271 OA
HETATM    8  C28 UNL     1      21.343  30.831  13.815  1.00  0.00     0.137 C 
ENDROOT
BRANCH   6   9
HETATM    9  C16 UNL     1      20.971  33.864  16.168  1.00  0.00     0.179 C 
BRANCH   9  10
HETATM   10  C17 UNL     1      21.924  35.036  16.331  1.00  0.00     0.035 C 
BRANCH  10  11
HETATM   11  C18 UNL     1      22.287  35.283  17.754  1.00  0.00     0.004 C 
BRANCH  11  12
HETATM   12  C19 UNL     1      22.386  36.758  18.021  1.00  0.00     0.020 C 
BRANCH  12  13
HETATM   13  C20 UNL     1      21.274  37.581  17.461  1.00  0.00     0.122 C 
BRANCH  13  14
HETATM   14  N4  UNL     1      20.063  37.457  18.270  1.00  0.00    -0.361 N 
HETATM   15  C21 UNL     1      18.947  38.258  17.910  1.00  0.00     0.213 C 
HETATM   16  C22 UNL     1      17.677  38.175  18.694  1.00  0.00     0.117 C 
HETATM   17  O6  UNL     1      18.993  39.042  16.944  1.00  0.00    -0.274 OA
ATOM     18  H4  UNL     1      20.021  36.818  19.063  1.00  0.00     0.162 HD
ENDBRANCH  13  14
ENDBRANCH  12  13
ENDBRANCH  11  12
ENDBRANCH  10  11
ENDBRANCH   9  10
BRANCH   9  19
HETATM   19  N5  UNL     1      19.630  34.409  15.873  1.00  0.00    -0.324 N 
HETATM   20  C23 UNL     1      18.726  34.670  16.916  1.00  0.00     0.362 C 
HETATM   21  O7  UNL     1      19.022  34.444  18.141  1.00  0.00    -0.238 OA
ATOM     22  H5  UNL     1      19.360  34.597  14.907  1.00  0.00     0.165 HD
BRANCH  20  23
HETATM   23  O8  UNL     1      17.452  35.184  16.729  1.00  0.00    -0.294 OA
BRANCH  23  24
HETATM   24  C24 UNL     1      16.374  34.437  16.268  1.00  0.00     0.061 C 
HETATM   25  C25 UNL     1      15.107  34.900  16.901  1.00  0.00     0.046 C 
HETATM   26  C26 UNL     1      16.268  34.716  14.762  1.00  0.00     0.046 C 
HETATM   27  C27 UNL     1      16.543  32.950  16.397  1.00  0.00     0.046 C 
ENDBRANCH  23  24
ENDBRANCH  20  23
ENDBRANCH   9  19
ENDBRANCH   6   9
BRANCH   1  28
HETATM   28  C8  UNL     1      21.001  28.719  12.664  1.00  0.00     0.086 C 
HETATM   29  N2  UNL     1      19.909  28.491  12.161  1.00  0.00    -0.326 N 
HETATM   30  C9  UNL     1      18.578  28.513  12.175  1.00  0.00     0.218 C 
ATOM     31  H2  UNL     1      20.138  28.061  11.265  1.00  0.00     0.168 HD
HETATM   32  C10 UNL     1      17.691  27.556  12.925  1.00  0.00     0.117 C 
HETATM   33  O4  UNL     1      17.922  29.398  11.519  1.00  0.00    -0.274 OA
BRANCH  28  34
HETATM   34  C7  UNL     1      22.197  28.326  11.875  1.00  0.00     0.268 C 
HETATM   35  N1  UNL     1      23.155  27.436  12.337  1.00  0.00    -0.336 N 
HETATM   36  C6  UNL     1      23.338  26.279  11.841  1.00  0.00     0.064 C 
ATOM     37  H1  UNL     1      23.745  27.723  13.118  1.00  0.00     0.168 HD
HETATM   38  O3  UNL     1      22.355  28.828  10.716  1.00  0.00    -0.266 OA
BRANCH  36  39
HETATM   39  C5  UNL     1      22.536  25.774  10.713  1.00  0.00     0.054 C 
BRANCH  39  40
HETATM   40  C4  UNL     1      21.532  24.727  11.185  1.00  0.00     0.116 C 
BRANCH  40  41
HETATM   41  C3  UNL     1      20.144  25.162  10.934  1.00  0.00     0.259 C 
HETATM   42  O2  UNL     1      19.150  24.619  11.520  1.00  0.00    -0.265 OA
BRANCH  41  43
HETATM   43  O1  UNL     1      19.842  26.180  10.053  1.00  0.00    -0.322 OA
BRANCH  43  44
HETATM   44  C2  UNL     1      18.979  26.002   8.948  1.00  0.00     0.174 C 
HETATM   45  C1  UNL     1      18.220  27.264   8.650  1.00  0.00     0.034 C 
ENDBRANCH  43  44
ENDBRANCH  41  43
ENDBRANCH  40  41
ENDBRANCH  39  40
ENDBRANCH  36  39
ENDBRANCH  28  34
ENDBRANCH   1  28
TORSDOF 16
ENDMDL
