MODEL 1
REMARK VINA RESULT: -8.983316154      0.000      0.000
REMARK  16 active torsions:
REMARK  status: ('A' for Active; 'I' for Inactive)
REMARK    1  A    between atoms: O1_2  and  C2_3 
REMARK    2  A    between atoms: C2_3  and  C3_5 
REMARK    3  A    between atoms: C3_5  and  C4_6 
REMARK    4  A    between atoms: C4_6  and  C5_7 
REMARK    5  A    between atoms: C5_7  and  C6_8 
REMARK    6  A    between atoms: C6_8  and  C7_9 
REMARK    7  A    between atoms: C7_9  and  O4_11 
REMARK    8  A    between atoms: O4_11  and  C8_12 
REMARK    9  A    between atoms: C18_23  and  C19_24 
REMARK   10  A    between atoms: C19_24  and  C21_26 
REMARK       I    between atoms: C21_26  and  N1_28 
REMARK   11  A    between atoms: N1_28  and  C22_30 
REMARK   12  A    between atoms: C22_30  and  C23_31 
REMARK   13  A    between atoms: C23_31  and  C24_32 
REMARK   14  A    between atoms: C24_32  and  O7_33 
REMARK   15  A    between atoms: O7_33  and  C25_34 
REMARK   16  A    between atoms: C33_43  and  O9_45 
ROOT
HETATM    1  C8  UNL     1      21.232  27.366  11.759  1.00  0.00     0.166 C 
HETATM    2  C9  UNL     1      22.087  28.532  11.508  1.00  0.00     0.036 C 
HETATM    3  C10 UNL     1      21.513  29.877  11.774  1.00  0.00     0.013 C 
HETATM    4  C11 UNL     1      20.430  29.781  12.787  1.00  0.00    -0.027 C 
HETATM    5  C12 UNL     1      20.911  29.143  14.047  1.00  0.00     0.016 C 
HETATM    6  C13 UNL     1      19.672  31.067  13.032  1.00  0.00     0.068 C 
HETATM    7  C14 UNL     1      20.246  31.863  14.126  1.00  0.00     0.133 C 
HETATM    8  O5  UNL     1      21.415  32.185  14.048  1.00  0.00    -0.298 OA
HETATM    9  C15 UNL     1      19.493  32.302  15.325  1.00  0.00     0.088 C 
HETATM   10  C16 UNL     1      17.998  32.397  15.040  1.00  0.00    -0.029 C 
HETATM   11  C17 UNL     1      17.807  33.567  14.107  1.00  0.00     0.016 C 
HETATM   12  C18 UNL     1      17.285  32.451  16.332  1.00  0.00     0.007 C 
HETATM   13  C27 UNL     1      16.897  31.059  16.665  1.00  0.00     0.007 C 
HETATM   14  C28 UNL     1      17.515  30.168  15.575  1.00  0.00     0.006 C 
HETATM   15  C29 UNL     1      17.533  31.116  14.401  1.00  0.00    -0.001 C 
HETATM   16  C30 UNL     1      18.254  30.669  13.215  1.00  0.00     0.003 C 
HETATM   17  C31 UNL     1      18.210  29.136  13.045  1.00  0.00     0.014 C 
HETATM   18  C32 UNL     1      19.327  28.974  12.088  1.00  0.00     0.031 C 
HETATM   19  C33 UNL     1      19.747  27.619  11.737  1.00  0.00     0.085 C 
HETATM   20  C34 UNL     1      19.244  27.319  10.319  1.00  0.00     0.049 C 
ENDROOT
BRANCH  12  21
HETATM   21  C19 UNL     1      16.174  33.442  16.478  1.00  0.00     0.078 C 
HETATM   22  C20 UNL     1      14.924  32.715  17.068  1.00  0.00     0.020 C 
BRANCH  21  23
HETATM   23  C21 UNL     1      16.456  34.471  17.555  1.00  0.00     0.221 C 
HETATM   24  O6  UNL     1      15.831  34.419  18.633  1.00  0.00    -0.273 OA
HETATM   25  N1  UNL     1      17.408  35.483  17.350  1.00  0.00    -0.361 N 
ATOM     26  H1  UNL     1      17.902  35.486  16.457  1.00  0.00     0.162 HD
BRANCH  25  27
HETATM   27  C22 UNL     1      17.752  36.531  18.309  1.00  0.00     0.125 C 
BRANCH  27  28
HETATM   28  C23 UNL     1      19.206  36.602  18.562  1.00  0.00     0.046 C 
BRANCH  28  29
HETATM   29  C24 UNL     1      19.881  35.319  18.888  1.00  0.00     0.180 C 
BRANCH  29  30
HETATM   30  O7  UNL     1      20.417  34.604  17.873  1.00  0.00    -0.322 OA
BRANCH  30  31
HETATM   31  C25 UNL     1      21.662  34.445  17.401  1.00  0.00     0.254 C 
HETATM   32  C26 UNL     1      22.374  33.111  17.387  1.00  0.00     0.126 C 
HETATM   33  O8  UNL     1      22.306  35.405  16.942  1.00  0.00    -0.266 OA
ENDBRANCH  30  31
ENDBRANCH  29  30
ENDBRANCH  28  29
ENDBRANCH  27  28
ENDBRANCH  25  27
ENDBRANCH  21  23
ENDBRANCH  12  21
BRANCH  19  34
HETATM   34  O9  UNL     1      19.090  26.694  12.573  1.00  0.00    -0.387 OA
ATOM     35  H9  UNL     1      18.546  26.115  12.051  1.00  0.00     0.210 HD
ENDBRANCH  19  34
BRANCH   1  36
HETATM   36  O4  UNL     1      21.508  26.367  10.793  1.00  0.00    -0.313 OA
BRANCH  36  37
HETATM   37  C7  UNL     1      22.163  25.199  11.070  1.00  0.00     0.259 C 
HETATM   38  O3  UNL     1      21.615  24.349  11.811  1.00  0.00    -0.265 OA
BRANCH  37  39
HETATM   39  C6  UNL     1      23.532  24.850  10.533  1.00  0.00     0.111 C 
BRANCH  39  40
HETATM   40  C5  UNL     1      23.757  25.518   9.245  1.00  0.00     0.010 C 
BRANCH  40  41
HETATM   41  C4  UNL     1      23.755  24.743   7.999  1.00  0.00     0.010 C 
BRANCH  41  42
HETATM   42  C3  UNL     1      22.574  24.726   7.127  1.00  0.00     0.111 C 
BRANCH  42  43
HETATM   43  C2  UNL     1      21.458  23.910   7.610  1.00  0.00     0.258 C 
HETATM   44  O2  UNL     1      21.488  22.659   7.522  1.00  0.00    -0.265 OA
BRANCH  43  45
HETATM   45  O1  UNL     1      20.315  24.479   8.187  1.00  0.00    -0.326 OA
HETATM   46  C1  UNL     1      19.229  24.902   7.381  1.00  0.00     0.213 C 
ENDBRANCH  43  45
ENDBRANCH  42  43
ENDBRANCH  41  42
ENDBRANCH  40  41
ENDBRANCH  39  40
ENDBRANCH  37  39
ENDBRANCH  36  37
ENDBRANCH   1  36
TORSDOF 16
ENDMDL
MODEL 2
REMARK VINA RESULT: -8.867745904      2.642     11.114
REMARK  16 active torsions:
REMARK  status: ('A' for Active; 'I' for Inactive)
REMARK    1  A    between atoms: O1_2  and  C2_3 
REMARK    2  A    between atoms: C2_3  and  C3_5 
REMARK    3  A    between atoms: C3_5  and  C4_6 
REMARK    4  A    between atoms: C4_6  and  C5_7 
REMARK    5  A    between atoms: C5_7  and  C6_8 
REMARK    6  A    between atoms: C6_8  and  C7_9 
REMARK    7  A    between atoms: C7_9  and  O4_11 
REMARK    8  A    between atoms: O4_11  and  C8_12 
REMARK    9  A    between atoms: C18_23  and  C19_24 
REMARK   10  A    between atoms: C19_24  and  C21_26 
REMARK       I    between atoms: C21_26  and  N1_28 
REMARK   11  A    between atoms: N1_28  and  C22_30 
REMARK   12  A    between atoms: C22_30  and  C23_31 
REMARK   13  A    between atoms: C23_31  and  C24_32 
REMARK   14  A    between atoms: C24_32  and  O7_33 
REMARK   15  A    between atoms: O7_33  and  C25_34 
REMARK   16  A    between atoms: C33_43  and  O9_45 
ROOT
HETATM    1  C8  UNL     1      16.634  33.328  16.479  1.00  0.00     0.166 C 
HETATM    2  C9  UNL     1      15.707  32.201  16.326  1.00  0.00     0.036 C 
HETATM    3  C10 UNL     1      16.016  31.193  15.278  1.00  0.00     0.013 C 
HETATM    4  C11 UNL     1      17.474  31.178  14.995  1.00  0.00    -0.027 C 
HETATM    5  C12 UNL     1      18.272  30.930  16.232  1.00  0.00     0.016 C 
HETATM    6  C13 UNL     1      17.890  30.292  13.841  1.00  0.00     0.068 C 
HETATM    7  C14 UNL     1      18.240  28.931  14.270  1.00  0.00     0.133 C 
HETATM    8  O5  UNL     1      17.410  28.292  14.886  1.00  0.00    -0.298 OA
HETATM    9  C15 UNL     1      19.544  28.280  14.001  1.00  0.00     0.088 C 
HETATM   10  C16 UNL     1      20.216  28.867  12.764  1.00  0.00    -0.029 C 
HETATM   11  C17 UNL     1      19.398  28.428  11.575  1.00  0.00     0.016 C 
HETATM   12  C18 UNL     1      21.638  28.468  12.779  1.00  0.00     0.007 C 
HETATM   13  C27 UNL     1      22.385  29.575  13.425  1.00  0.00     0.007 C 
HETATM   14  C28 UNL     1      21.330  30.587  13.899  1.00  0.00     0.006 C 
HETATM   15  C29 UNL     1      20.240  30.368  12.879  1.00  0.00    -0.001 C 
HETATM   16  C30 UNL     1      18.966  31.031  13.136  1.00  0.00     0.003 C 
HETATM   17  C31 UNL     1      19.141  32.365  13.890  1.00  0.00     0.014 C 
HETATM   18  C32 UNL     1      17.753  32.550  14.366  1.00  0.00     0.031 C 
HETATM   19  C33 UNL     1      17.473  33.661  15.274  1.00  0.00     0.085 C 
HETATM   20  C34 UNL     1      16.739  34.749  14.480  1.00  0.00     0.049 C 
ENDROOT
BRANCH  12  21
HETATM   21  C19 UNL     1      22.246  27.994  11.497  1.00  0.00     0.078 C 
HETATM   22  C20 UNL     1      23.798  27.956  11.658  1.00  0.00     0.020 C 
BRANCH  21  23
HETATM   23  C21 UNL     1      21.940  26.535  11.219  1.00  0.00     0.221 C 
HETATM   24  O6  UNL     1      21.705  25.764  12.171  1.00  0.00    -0.273 OA
HETATM   25  N1  UNL     1      21.923  26.043   9.904  1.00  0.00    -0.361 N 
ATOM     26  H1  UNL     1      22.115  26.708   9.153  1.00  0.00     0.162 HD
BRANCH  25  27
HETATM   27  C22 UNL     1      21.654  24.658   9.519  1.00  0.00     0.125 C 
BRANCH  27  28
HETATM   28  C23 UNL     1      20.780  24.567   8.332  1.00  0.00     0.046 C 
BRANCH  28  29
HETATM   29  C24 UNL     1      19.487  25.295   8.408  1.00  0.00     0.180 C 
BRANCH  29  30
HETATM   30  O7  UNL     1      18.981  25.573   9.632  1.00  0.00    -0.322 OA
BRANCH  30  31
HETATM   31  C25 UNL     1      17.974  25.070  10.360  1.00  0.00     0.254 C 
HETATM   32  C26 UNL     1      17.958  25.095  11.872  1.00  0.00     0.126 C 
HETATM   33  O8  UNL     1      16.984  24.547   9.818  1.00  0.00    -0.266 OA
ENDBRANCH  30  31
ENDBRANCH  29  30
ENDBRANCH  28  29
ENDBRANCH  27  28
ENDBRANCH  25  27
ENDBRANCH  21  23
ENDBRANCH  12  21
BRANCH  19  34
HETATM   34  O9  UNL     1      18.688  34.249  15.682  1.00  0.00    -0.387 OA
ATOM     35  H9  UNL     1      18.521  35.096  16.077  1.00  0.00     0.210 HD
ENDBRANCH  19  34
BRANCH   1  36
HETATM   36  O4  UNL     1      15.902  34.492  16.823  1.00  0.00    -0.313 OA
BRANCH  36  37
HETATM   37  C7  UNL     1      15.788  34.972  18.098  1.00  0.00     0.259 C 
HETATM   38  O3  UNL     1      15.295  34.240  18.987  1.00  0.00    -0.265 OA
BRANCH  37  39
HETATM   39  C6  UNL     1      16.226  36.356  18.522  1.00  0.00     0.111 C 
BRANCH  39  40
HETATM   40  C5  UNL     1      16.595  37.154  17.346  1.00  0.00     0.010 C 
BRANCH  40  41
HETATM   41  C4  UNL     1      17.947  37.712  17.225  1.00  0.00     0.010 C 
BRANCH  41  42
HETATM   42  C3  UNL     1      18.804  37.865  18.407  1.00  0.00     0.111 C 
BRANCH  42  43
HETATM   43  C2  UNL     1      19.775  36.789  18.612  1.00  0.00     0.258 C 
HETATM   44  O2  UNL     1      19.926  35.883  17.757  1.00  0.00    -0.265 OA
BRANCH  43  45
HETATM   45  O1  UNL     1      20.577  36.717  19.760  1.00  0.00    -0.326 OA
HETATM   46  C1  UNL     1      21.126  35.482  20.186  1.00  0.00     0.213 C 
ENDBRANCH  43  45
ENDBRANCH  42  43
ENDBRANCH  41  42
ENDBRANCH  40  41
ENDBRANCH  39  40
ENDBRANCH  37  39
ENDBRANCH  36  37
ENDBRANCH   1  36
TORSDOF 16
ENDMDL
MODEL 3
REMARK VINA RESULT: -8.860435834      2.635     10.723
REMARK  16 active torsions:
REMARK  status: ('A' for Active; 'I' for Inactive)
REMARK    1  A    between atoms: O1_2  and  C2_3 
REMARK    2  A    between atoms: C2_3  and  C3_5 
REMARK    3  A    between atoms: C3_5  and  C4_6 
REMARK    4  A    between atoms: C4_6  and  C5_7 
REMARK    5  A    between atoms: C5_7  and  C6_8 
REMARK    6  A    between atoms: C6_8  and  C7_9 
REMARK    7  A    between atoms: C7_9  and  O4_11 
REMARK    8  A    between atoms: O4_11  and  C8_12 
REMARK    9  A    between atoms: C18_23  and  C19_24 
REMARK   10  A    between atoms: C19_24  and  C21_26 
REMARK       I    between atoms: C21_26  and  N1_28 
REMARK   11  A    between atoms: N1_28  and  C22_30 
REMARK   12  A    between atoms: C22_30  and  C23_31 
REMARK   13  A    between atoms: C23_31  and  C24_32 
REMARK   14  A    between atoms: C24_32  and  O7_33 
REMARK   15  A    between atoms: O7_33  and  C25_34 
REMARK   16  A    between atoms: C33_43  and  O9_45 
ROOT
HETATM    1  C8  UNL     1      20.594  35.629  17.262  1.00  0.00     0.166 C 
HETATM    2  C9  UNL     1      21.934  35.051  17.413  1.00  0.00     0.036 C 
HETATM    3  C10 UNL     1      22.075  33.583  17.226  1.00  0.00     0.013 C 
HETATM    4  C11 UNL     1      20.988  33.070  16.353  1.00  0.00    -0.027 C 
HETATM    5  C12 UNL     1      20.957  33.778  15.040  1.00  0.00     0.016 C 
HETATM    6  C13 UNL     1      20.943  31.565  16.210  1.00  0.00     0.068 C 
HETATM    7  C14 UNL     1      21.718  31.082  15.059  1.00  0.00     0.133 C 
HETATM    8  O5  UNL     1      22.895  31.379  14.994  1.00  0.00    -0.298 OA
HETATM    9  C15 UNL     1      21.160  30.254  13.963  1.00  0.00     0.088 C 
HETATM   10  C16 UNL     1      19.946  29.457  14.430  1.00  0.00    -0.029 C 
HETATM   11  C17 UNL     1      20.456  28.407  15.386  1.00  0.00     0.016 C 
HETATM   12  C18 UNL     1      19.223  28.977  13.236  1.00  0.00     0.007 C 
HETATM   13  C27 UNL     1      18.165  29.976  12.945  1.00  0.00     0.007 C 
HETATM   14  C28 UNL     1      18.373  31.124  13.946  1.00  0.00     0.006 C 
HETATM   15  C29 UNL     1      18.978  30.385  15.114  1.00  0.00    -0.001 C 
HETATM   16  C30 UNL     1      19.503  31.205  16.200  1.00  0.00     0.003 C 
HETATM   17  C31 UNL     1      18.726  32.526  16.367  1.00  0.00     0.014 C 
HETATM   18  C32 UNL     1      19.709  33.277  17.178  1.00  0.00     0.031 C 
HETATM   19  C33 UNL     1      19.439  34.684  17.468  1.00  0.00     0.085 C 
HETATM   20  C34 UNL     1      19.004  34.791  18.935  1.00  0.00     0.049 C 
ENDROOT
BRANCH  12  21
HETATM   21  C19 UNL     1      18.738  27.562  13.232  1.00  0.00     0.078 C 
HETATM   22  C20 UNL     1      17.214  27.549  13.574  1.00  0.00     0.020 C 
BRANCH  21  23
HETATM   23  C21 UNL     1      18.736  26.956  11.842  1.00  0.00     0.221 C 
HETATM   24  O6  UNL     1      17.662  26.862  11.215  1.00  0.00    -0.273 OA
HETATM   25  N1  UNL     1      19.927  26.496  11.258  1.00  0.00    -0.361 N 
ATOM     26  H1  UNL     1      20.784  26.597  11.802  1.00  0.00     0.162 HD
BRANCH  25  27
HETATM   27  C22 UNL     1      20.042  25.885   9.934  1.00  0.00     0.125 C 
BRANCH  27  28
HETATM   28  C23 UNL     1      21.216  24.997   9.828  1.00  0.00     0.046 C 
BRANCH  28  29
HETATM   29  C24 UNL     1      21.844  24.578  11.109  1.00  0.00     0.180 C 
BRANCH  29  30
HETATM   30  O7  UNL     1      23.041  25.114  11.439  1.00  0.00    -0.322 OA
BRANCH  30  31
HETATM   31  C25 UNL     1      23.436  26.324  11.861  1.00  0.00     0.254 C 
HETATM   32  C26 UNL     1      24.878  26.777  11.830  1.00  0.00     0.126 C 
HETATM   33  O8  UNL     1      22.620  27.149  12.309  1.00  0.00    -0.266 OA
ENDBRANCH  30  31
ENDBRANCH  29  30
ENDBRANCH  28  29
ENDBRANCH  27  28
ENDBRANCH  25  27
ENDBRANCH  21  23
ENDBRANCH  12  21
BRANCH  19  34
HETATM   34  O9  UNL     1      18.328  35.112  16.714  1.00  0.00    -0.387 OA
ATOM     35  H9  UNL     1      17.926  34.369  16.279  1.00  0.00     0.210 HD
ENDBRANCH  19  34
BRANCH   1  36
HETATM   36  O4  UNL     1      20.439  36.697  18.182  1.00  0.00    -0.313 OA
BRANCH  36  37
HETATM   37  C7  UNL     1      20.060  37.961  17.825  1.00  0.00     0.259 C 
HETATM   38  O3  UNL     1      20.806  38.638  17.079  1.00  0.00    -0.265 OA
BRANCH  37  39
HETATM   39  C6  UNL     1      18.774  38.617  18.275  1.00  0.00     0.111 C 
BRANCH  39  40
HETATM   40  C5  UNL     1      17.761  38.525  17.216  1.00  0.00     0.010 C 
BRANCH  40  41
HETATM   41  C4  UNL     1      16.406  38.053  17.528  1.00  0.00     0.010 C 
BRANCH  41  42
HETATM   42  C3  UNL     1      16.171  37.136  18.650  1.00  0.00     0.111 C 
BRANCH  42  43
HETATM   43  C2  UNL     1      15.335  35.976  18.338  1.00  0.00     0.258 C 
HETATM   44  O2  UNL     1      14.242  36.111  17.737  1.00  0.00    -0.265 OA
BRANCH  43  45
HETATM   45  O1  UNL     1      15.709  34.671  18.691  1.00  0.00    -0.326 OA
HETATM   46  C1  UNL     1      15.413  33.577  17.841  1.00  0.00     0.213 C 
ENDBRANCH  43  45
ENDBRANCH  42  43
ENDBRANCH  41  42
ENDBRANCH  40  41
ENDBRANCH  39  40
ENDBRANCH  37  39
ENDBRANCH  36  37
ENDBRANCH   1  36
TORSDOF 16
ENDMDL
MODEL 4
REMARK VINA RESULT: -8.766511186      1.029      1.451
REMARK  16 active torsions:
REMARK  status: ('A' for Active; 'I' for Inactive)
REMARK    1  A    between atoms: O1_2  and  C2_3 
REMARK    2  A    between atoms: C2_3  and  C3_5 
REMARK    3  A    between atoms: C3_5  and  C4_6 
REMARK    4  A    between atoms: C4_6  and  C5_7 
REMARK    5  A    between atoms: C5_7  and  C6_8 
REMARK    6  A    between atoms: C6_8  and  C7_9 
REMARK    7  A    between atoms: C7_9  and  O4_11 
REMARK    8  A    between atoms: O4_11  and  C8_12 
REMARK    9  A    between atoms: C18_23  and  C19_24 
REMARK   10  A    between atoms: C19_24  and  C21_26 
REMARK       I    between atoms: C21_26  and  N1_28 
REMARK   11  A    between atoms: N1_28  and  C22_30 
REMARK   12  A    between atoms: C22_30  and  C23_31 
REMARK   13  A    between atoms: C23_31  and  C24_32 
REMARK   14  A    between atoms: C24_32  and  O7_33 
REMARK   15  A    between atoms: O7_33  and  C25_34 
REMARK   16  A    between atoms: C33_43  and  O9_45 
ROOT
HETATM    1  C8  UNL     1      21.285  27.410  11.826  1.00  0.00     0.166 C 
HETATM    2  C9  UNL     1      22.124  28.584  11.558  1.00  0.00     0.036 C 
HETATM    3  C10 UNL     1      21.534  29.924  11.813  1.00  0.00     0.013 C 
HETATM    4  C11 UNL     1      20.457  29.825  12.832  1.00  0.00    -0.027 C 
HETATM    5  C12 UNL     1      20.953  29.206  14.096  1.00  0.00     0.016 C 
HETATM    6  C13 UNL     1      19.684  31.103  13.067  1.00  0.00     0.068 C 
HETATM    7  C14 UNL     1      20.253  31.918  14.150  1.00  0.00     0.133 C 
HETATM    8  O5  UNL     1      21.417  32.255  14.063  1.00  0.00    -0.298 OA
HETATM    9  C15 UNL     1      19.500  32.360  15.348  1.00  0.00     0.088 C 
HETATM   10  C16 UNL     1      18.002  32.433  15.069  1.00  0.00    -0.029 C 
HETATM   11  C17 UNL     1      17.792  33.591  14.125  1.00  0.00     0.016 C 
HETATM   12  C18 UNL     1      17.295  32.492  16.364  1.00  0.00     0.007 C 
HETATM   13  C27 UNL     1      16.926  31.098  16.713  1.00  0.00     0.007 C 
HETATM   14  C28 UNL     1      17.551  30.204  15.630  1.00  0.00     0.006 C 
HETATM   15  C29 UNL     1      17.551  31.139  14.446  1.00  0.00    -0.001 C 
HETATM   16  C30 UNL     1      18.272  30.689  13.261  1.00  0.00     0.003 C 
HETATM   17  C31 UNL     1      18.247  29.154  13.107  1.00  0.00     0.014 C 
HETATM   18  C32 UNL     1      19.361  28.996  12.147  1.00  0.00     0.031 C 
HETATM   19  C33 UNL     1      19.798  27.643  11.808  1.00  0.00     0.085 C 
HETATM   20  C34 UNL     1      19.292  27.321  10.395  1.00  0.00     0.049 C 
ENDROOT
BRANCH  12  21
HETATM   21  C19 UNL     1      16.172  33.469  16.505  1.00  0.00     0.078 C 
HETATM   22  C20 UNL     1      14.940  32.737  17.126  1.00  0.00     0.020 C 
BRANCH  21  23
HETATM   23  C21 UNL     1      16.453  34.524  17.557  1.00  0.00     0.221 C 
HETATM   24  O6  UNL     1      15.867  34.466  18.657  1.00  0.00    -0.273 OA
HETATM   25  N1  UNL     1      17.361  35.565  17.305  1.00  0.00    -0.361 N 
ATOM     26  H1  UNL     1      17.824  35.572  16.396  1.00  0.00     0.162 HD
BRANCH  25  27
HETATM   27  C22 UNL     1      17.700  36.640  18.238  1.00  0.00     0.125 C 
BRANCH  27  28
HETATM   28  C23 UNL     1      19.152  36.716  18.499  1.00  0.00     0.046 C 
BRANCH  28  29
HETATM   29  C24 UNL     1      19.815  35.452  18.910  1.00  0.00     0.180 C 
BRANCH  29  30
HETATM   30  O7  UNL     1      20.351  34.669  17.946  1.00  0.00    -0.322 OA
BRANCH  30  31
HETATM   31  C25 UNL     1      21.588  34.512  17.453  1.00  0.00     0.254 C 
HETATM   32  C26 UNL     1      22.308  33.183  17.443  1.00  0.00     0.126 C 
HETATM   33  O8  UNL     1      22.217  35.471  16.972  1.00  0.00    -0.266 OA
ENDBRANCH  30  31
ENDBRANCH  29  30
ENDBRANCH  28  29
ENDBRANCH  27  28
ENDBRANCH  25  27
ENDBRANCH  21  23
ENDBRANCH  12  21
BRANCH  19  34
HETATM   34  O9  UNL     1      19.156  26.718  12.657  1.00  0.00    -0.387 OA
ATOM     35  H9  UNL     1      19.699  25.946  12.763  1.00  0.00     0.210 HD
ENDBRANCH  19  34
BRANCH   1  36
HETATM   36  O4  UNL     1      21.570  26.404  10.869  1.00  0.00    -0.313 OA
BRANCH  36  37
HETATM   37  C7  UNL     1      22.188  25.221  11.167  1.00  0.00     0.259 C 
HETATM   38  O3  UNL     1      21.542  24.323  11.758  1.00  0.00    -0.265 OA
BRANCH  37  39
HETATM   39  C6  UNL     1      23.627  24.910  10.825  1.00  0.00     0.111 C 
BRANCH  39  40
HETATM   40  C5  UNL     1      24.135  25.876   9.842  1.00  0.00     0.010 C 
BRANCH  40  41
HETATM   41  C4  UNL     1      23.929  25.647   8.406  1.00  0.00     0.010 C 
BRANCH  41  42
HETATM   42  C3  UNL     1      23.584  24.312   7.901  1.00  0.00     0.111 C 
BRANCH  42  43
HETATM   43  C2  UNL     1      23.706  24.147   6.452  1.00  0.00     0.258 C 
HETATM   44  O2  UNL     1      23.187  24.973   5.662  1.00  0.00    -0.265 OA
BRANCH  43  45
HETATM   45  O1  UNL     1      24.401  23.072   5.880  1.00  0.00    -0.326 OA
HETATM   46  C1  UNL     1      25.371  23.289   4.871  1.00  0.00     0.213 C 
ENDBRANCH  43  45
ENDBRANCH  42  43
ENDBRANCH  41  42
ENDBRANCH  40  41
ENDBRANCH  39  40
ENDBRANCH  37  39
ENDBRANCH  36  37
ENDBRANCH   1  36
TORSDOF 16
ENDMDL
MODEL 5
REMARK VINA RESULT: -8.688073171      2.437     10.806
REMARK  16 active torsions:
REMARK  status: ('A' for Active; 'I' for Inactive)
REMARK    1  A    between atoms: O1_2  and  C2_3 
REMARK    2  A    between atoms: C2_3  and  C3_5 
REMARK    3  A    between atoms: C3_5  and  C4_6 
REMARK    4  A    between atoms: C4_6  and  C5_7 
REMARK    5  A    between atoms: C5_7  and  C6_8 
REMARK    6  A    between atoms: C6_8  and  C7_9 
REMARK    7  A    between atoms: C7_9  and  O4_11 
REMARK    8  A    between atoms: O4_11  and  C8_12 
REMARK    9  A    between atoms: C18_23  and  C19_24 
REMARK   10  A    between atoms: C19_24  and  C21_26 
REMARK       I    between atoms: C21_26  and  N1_28 
REMARK   11  A    between atoms: N1_28  and  C22_30 
REMARK   12  A    between atoms: C22_30  and  C23_31 
REMARK   13  A    between atoms: C23_31  and  C24_32 
REMARK   14  A    between atoms: C24_32  and  O7_33 
REMARK   15  A    between atoms: O7_33  and  C25_34 
REMARK   16  A    between atoms: C33_43  and  O9_45 
ROOT
HETATM    1  C8  UNL     1      17.139  32.854  16.465  1.00  0.00     0.166 C 
HETATM    2  C9  UNL     1      16.212  31.723  16.350  1.00  0.00     0.036 C 
HETATM    3  C10 UNL     1      16.454  30.741  15.260  1.00  0.00     0.013 C 
HETATM    4  C11 UNL     1      17.889  30.745  14.877  1.00  0.00    -0.027 C 
HETATM    5  C12 UNL     1      18.772  30.476  16.049  1.00  0.00     0.016 C 
HETATM    6  C13 UNL     1      18.230  29.890  13.676  1.00  0.00     0.068 C 
HETATM    7  C14 UNL     1      18.618  28.522  14.047  1.00  0.00     0.133 C 
HETATM    8  O5  UNL     1      17.837  27.863  14.704  1.00  0.00    -0.298 OA
HETATM    9  C15 UNL     1      19.905  27.888  13.674  1.00  0.00     0.088 C 
HETATM   10  C16 UNL     1      20.486  28.509  12.408  1.00  0.00    -0.029 C 
HETATM   11  C17 UNL     1      19.590  28.091  11.268  1.00  0.00     0.016 C 
HETATM   12  C18 UNL     1      21.908  28.122  12.315  1.00  0.00     0.007 C 
HETATM   13  C27 UNL     1      22.691  29.220  12.934  1.00  0.00     0.007 C 
HETATM   14  C28 UNL     1      21.664  30.213  13.503  1.00  0.00     0.006 C 
HETATM   15  C29 UNL     1      20.507  30.007  12.556  1.00  0.00    -0.001 C 
HETATM   16  C30 UNL     1      19.250  30.654  12.915  1.00  0.00     0.003 C 
HETATM   17  C31 UNL     1      19.468  31.972  13.687  1.00  0.00     0.014 C 
HETATM   18  C32 UNL     1      18.115  32.134  14.262  1.00  0.00     0.031 C 
HETATM   19  C33 UNL     1      17.891  33.221  15.212  1.00  0.00     0.085 C 
HETATM   20  C34 UNL     1      17.096  34.321  14.497  1.00  0.00     0.049 C 
ENDROOT
BRANCH  12  21
HETATM   21  C19 UNL     1      22.429  27.682  10.984  1.00  0.00     0.078 C 
HETATM   22  C20 UNL     1      23.970  27.928  10.938  1.00  0.00     0.020 C 
BRANCH  21  23
HETATM   23  C21 UNL     1      22.362  26.177  10.807  1.00  0.00     0.221 C 
HETATM   24  O6  UNL     1      22.074  25.456  11.782  1.00  0.00    -0.273 OA
HETATM   25  N1  UNL     1      22.626  25.589   9.559  1.00  0.00    -0.361 N 
ATOM     26  H1  UNL     1      22.852  26.215   8.785  1.00  0.00     0.162 HD
BRANCH  25  27
HETATM   27  C22 UNL     1      22.604  24.155   9.276  1.00  0.00     0.125 C 
BRANCH  27  28
HETATM   28  C23 UNL     1      22.066  23.859   7.933  1.00  0.00     0.046 C 
BRANCH  28  29
HETATM   29  C24 UNL     1      20.762  24.486   7.592  1.00  0.00     0.180 C 
BRANCH  29  30
HETATM   30  O7  UNL     1      19.943  24.848   8.606  1.00  0.00    -0.322 OA
BRANCH  30  31
HETATM   31  C25 UNL     1      18.657  25.220   8.677  1.00  0.00     0.254 C 
HETATM   32  C26 UNL     1      18.160  26.562   8.191  1.00  0.00     0.126 C 
HETATM   33  O8  UNL     1      17.792  24.465   9.156  1.00  0.00    -0.266 OA
ENDBRANCH  30  31
ENDBRANCH  29  30
ENDBRANCH  28  29
ENDBRANCH  27  28
ENDBRANCH  25  27
ENDBRANCH  21  23
ENDBRANCH  12  21
BRANCH  19  34
HETATM   34  O9  UNL     1      19.127  33.810  15.549  1.00  0.00    -0.387 OA
ATOM     35  H9  UNL     1      19.007  34.735  15.728  1.00  0.00     0.210 HD
ENDBRANCH  19  34
BRANCH   1  36
HETATM   36  O4  UNL     1      16.425  34.004  16.885  1.00  0.00    -0.313 OA
BRANCH  36  37
HETATM   37  C7  UNL     1      16.588  34.598  18.106  1.00  0.00     0.259 C 
HETATM   38  O3  UNL     1      15.586  34.789  18.834  1.00  0.00    -0.265 OA
BRANCH  37  39
HETATM   39  C6  UNL     1      17.922  35.050  18.654  1.00  0.00     0.111 C 
BRANCH  39  40
HETATM   40  C5  UNL     1      18.387  36.244  17.936  1.00  0.00     0.010 C 
BRANCH  40  41
HETATM   41  C4  UNL     1      19.810  36.602  17.938  1.00  0.00     0.010 C 
BRANCH  41  42
HETATM   42  C3  UNL     1      20.806  35.714  18.553  1.00  0.00     0.111 C 
BRANCH  42  43
HETATM   43  C2  UNL     1      21.571  34.895  17.611  1.00  0.00     0.258 C 
HETATM   44  O2  UNL     1      22.445  35.409  16.871  1.00  0.00    -0.265 OA
BRANCH  43  45
HETATM   45  O1  UNL     1      21.369  33.513  17.491  1.00  0.00    -0.326 OA
HETATM   46  C1  UNL     1      22.429  32.656  17.104  1.00  0.00     0.213 C 
ENDBRANCH  43  45
ENDBRANCH  42  43
ENDBRANCH  41  42
ENDBRANCH  40  41
ENDBRANCH  39  40
ENDBRANCH  37  39
ENDBRANCH  36  37
ENDBRANCH   1  36
TORSDOF 16
ENDMDL
