MODEL 1
REMARK VINA RESULT: -8.042644899      0.000      0.000
REMARK  14 active torsions:
REMARK  status: ('A' for Active; 'I' for Inactive)
REMARK    1  A    between atoms: C2_2  and  C3_3 
REMARK    2  A    between atoms: C2_2  and  N4_15 
REMARK    3  A    between atoms: N1_4  and  C4_6 
REMARK    4  A    between atoms: C4_6  and  C5_10 
REMARK    5  A    between atoms: C5_10  and  C6_11 
REMARK    6  A    between atoms: N4_15  and  C7_17 
REMARK    7  A    between atoms: C7_17  and  C8_18 
REMARK    8  A    between atoms: C8_18  and  C9_19 
REMARK    9  A    between atoms: C9_19  and  N5_20 
REMARK       I    between atoms: N5_20  and  C10_22 
REMARK   10  A    between atoms: C10_22  and  C11_24 
REMARK   11  A    between atoms: C13_29  and  O3_30 
REMARK   12  A    between atoms: O3_30  and  C14_31 
REMARK   13  A    between atoms: C14_31  and  C15_32 
REMARK   14  A    between atoms: N7_33  and  N8_35 
ROOT
HETATM    1  N5  UNL     1      14.363  63.913  38.938  1.00  0.00    -0.359 N 
ATOM      2  H5  UNL     1      15.004  63.131  38.798  1.00  0.00     0.162 HD
HETATM    3  C10 UNL     1      14.038  64.341  40.243  1.00  0.00     0.243 C 
HETATM    4  O1  UNL     1      13.248  65.304  40.395  1.00  0.00    -0.271 OA
ENDROOT
BRANCH   1   5
HETATM    5  C9  UNL     1      13.782  64.588  37.801  1.00  0.00     0.124 C 
BRANCH   5   6
HETATM    6  C8  UNL     1      13.996  63.742  36.563  1.00  0.00     0.039 C 
BRANCH   6   7
HETATM    7  C7  UNL     1      15.133  64.323  35.786  1.00  0.00     0.121 C 
BRANCH   7   8
HETATM    8  N4  UNL     1      14.677  65.152  34.688  1.00  0.00    -0.389 N 
ATOM      9  H4  UNL     1      13.915  64.858  34.077  1.00  0.00     0.159 HD
BRANCH   8  10
HETATM   10  C2  UNL     1      15.338  66.386  34.505  1.00  0.00     0.034 C 
HETATM   11  C1  UNL     1      16.505  66.413  33.919  1.00  0.00     0.044 C 
BRANCH  10  12
HETATM   12  C3  UNL     1      14.719  67.598  34.969  1.00  0.00     0.117 C 
HETATM   13  N1  UNL     1      14.647  67.841  36.227  1.00  0.00    -0.354 N 
ATOM     14  H1  UNL     1      15.025  67.183  36.908  1.00  0.00     0.166 HD
BRANCH  13  15
HETATM   15  C4  UNL     1      14.032  69.040  36.646  1.00  0.00     0.079 C 
HETATM   16  N2  UNL     1      13.715  69.916  35.765  1.00  0.00    -0.389 N 
ATOM     17  H22 UNL     1      13.901  69.757  34.775  1.00  0.00     0.157 HD
ATOM     18  H21 UNL     1      13.270  70.783  36.068  1.00  0.00     0.157 HD
BRANCH  15  19
HETATM   19  C5  UNL     1      13.765  69.270  38.072  1.00  0.00     0.119 C 
BRANCH  19  20
HETATM   20  C6  UNL     1      14.401  70.534  38.492  1.00  0.00     0.060 C 
HETATM   21  N3  UNL     1      14.739  70.790  39.690  1.00  0.00    -0.411 N 
ATOM     22  H32 UNL     1      14.553  70.070  40.388  1.00  0.00     0.155 HD
ATOM     23  H31 UNL     1      15.178  71.663  39.980  1.00  0.00     0.155 HD
ENDBRANCH  19  20
ENDBRANCH  15  19
ENDBRANCH  13  15
ENDBRANCH  10  12
ENDBRANCH   8  10
ENDBRANCH   7   8
ENDBRANCH   6   7
ENDBRANCH   5   6
ENDBRANCH   1   5
BRANCH   3  24
HETATM   24  C11 UNL     1      14.627  63.656  41.406  1.00  0.00     0.214 C 
HETATM   25  N6  UNL     1      13.973  64.067  42.658  1.00  0.00    -0.343 N 
HETATM   26  C12 UNL     1      12.941  63.119  42.316  1.00  0.00     0.250 C 
ATOM     27  H6  UNL     1      14.163  64.720  43.418  1.00  0.00     0.163 HD
HETATM   28  O2  UNL     1      11.717  63.106  42.522  1.00  0.00    -0.271 OA
HETATM   29  C13 UNL     1      14.015  62.305  41.681  1.00  0.00     0.245 C 
BRANCH  29  30
HETATM   30  O3  UNL     1      13.638  61.567  40.588  1.00  0.00    -0.369 OA
BRANCH  30  31
HETATM   31  C14 UNL     1      13.824  60.209  40.836  1.00  0.00     0.215 C 
BRANCH  31  32
HETATM   32  C15 UNL     1      12.591  59.428  40.640  1.00  0.00     0.107 C 
HETATM   33  N7  UNL     1      11.777  59.280  41.613  1.00  0.00    -0.300 N 
ATOM     34  H7  UNL     1      10.928  58.736  41.463  1.00  0.00     0.187 HD
BRANCH  33  35
HETATM   35  N8  UNL     1      12.005  59.829  42.872  1.00  0.00    -0.250 N 
HETATM   36  N9  UNL     1      11.010  60.324  43.497  1.00  0.00    -0.331 N 
ATOM     37  H92 UNL     1      10.082  60.310  43.074  1.00  0.00     0.178 HD
ATOM     38  H91 UNL     1      11.176  60.728  44.419  1.00  0.00     0.178 HD
ATOM     39  H8  UNL     1      12.939  59.836  43.281  1.00  0.00     0.207 HD
ENDBRANCH  33  35
ENDBRANCH  31  32
ENDBRANCH  30  31
ENDBRANCH  29  30
ENDBRANCH   3  24
TORSDOF 14
ENDMDL
MODEL 2
REMARK VINA RESULT: -8.031536601      0.968      1.154
REMARK  14 active torsions:
REMARK  status: ('A' for Active; 'I' for Inactive)
REMARK    1  A    between atoms: C2_2  and  C3_3 
REMARK    2  A    between atoms: C2_2  and  N4_15 
REMARK    3  A    between atoms: N1_4  and  C4_6 
REMARK    4  A    between atoms: C4_6  and  C5_10 
REMARK    5  A    between atoms: C5_10  and  C6_11 
REMARK    6  A    between atoms: N4_15  and  C7_17 
REMARK    7  A    between atoms: C7_17  and  C8_18 
REMARK    8  A    between atoms: C8_18  and  C9_19 
REMARK    9  A    between atoms: C9_19  and  N5_20 
REMARK       I    between atoms: N5_20  and  C10_22 
REMARK   10  A    between atoms: C10_22  and  C11_24 
REMARK   11  A    between atoms: C13_29  and  O3_30 
REMARK   12  A    between atoms: O3_30  and  C14_31 
REMARK   13  A    between atoms: C14_31  and  C15_32 
REMARK   14  A    between atoms: N7_33  and  N8_35 
ROOT
HETATM    1  N5  UNL     1      14.360  63.862  39.259  1.00  0.00    -0.359 N 
ATOM      2  H5  UNL     1      14.854  62.985  39.090  1.00  0.00     0.162 HD
HETATM    3  C10 UNL     1      14.123  64.301  40.579  1.00  0.00     0.243 C 
HETATM    4  O1  UNL     1      13.514  65.382  40.767  1.00  0.00    -0.271 OA
ENDROOT
BRANCH   1   5
HETATM    5  C9  UNL     1      13.900  64.663  38.148  1.00  0.00     0.124 C 
BRANCH   5   6
HETATM    6  C8  UNL     1      13.586  63.750  36.980  1.00  0.00     0.039 C 
BRANCH   6   7
HETATM    7  C7  UNL     1      14.728  63.807  36.017  1.00  0.00     0.121 C 
BRANCH   7   8
HETATM    8  N4  UNL     1      14.496  64.760  34.951  1.00  0.00    -0.389 N 
ATOM      9  H4  UNL     1      13.627  64.765  34.418  1.00  0.00     0.159 HD
BRANCH   8  10
HETATM   10  C2  UNL     1      15.532  65.684  34.687  1.00  0.00     0.034 C 
HETATM   11  C1  UNL     1      16.706  65.248  34.317  1.00  0.00     0.044 C 
BRANCH  10  12
HETATM   12  C3  UNL     1      15.280  67.091  34.831  1.00  0.00     0.117 C 
HETATM   13  N1  UNL     1      14.187  67.597  34.389  1.00  0.00    -0.354 N 
ATOM     14  H1  UNL     1      13.488  67.010  33.933  1.00  0.00     0.166 HD
BRANCH  13  15
HETATM   15  C4  UNL     1      13.974  68.983  34.548  1.00  0.00     0.079 C 
HETATM   16  N2  UNL     1      14.667  69.802  33.846  1.00  0.00    -0.389 N 
ATOM     17  H22 UNL     1      15.364  69.466  33.181  1.00  0.00     0.157 HD
ATOM     18  H21 UNL     1      14.512  70.804  33.960  1.00  0.00     0.157 HD
BRANCH  15  19
HETATM   19  C5  UNL     1      12.970  69.467  35.504  1.00  0.00     0.119 C 
BRANCH  19  20
HETATM   20  C6  UNL     1      13.618  69.722  36.806  1.00  0.00     0.060 C 
HETATM   21  N3  UNL     1      13.941  70.880  37.219  1.00  0.00    -0.411 N 
ATOM     22  H32 UNL     1      13.733  71.667  36.605  1.00  0.00     0.155 HD
ATOM     23  H31 UNL     1      14.389  71.056  38.118  1.00  0.00     0.155 HD
ENDBRANCH  19  20
ENDBRANCH  15  19
ENDBRANCH  13  15
ENDBRANCH  10  12
ENDBRANCH   8  10
ENDBRANCH   7   8
ENDBRANCH   6   7
ENDBRANCH   5   6
ENDBRANCH   1   5
BRANCH   3  24
HETATM   24  C11 UNL     1      14.589  63.490  41.715  1.00  0.00     0.214 C 
HETATM   25  N6  UNL     1      13.891  63.853  42.957  1.00  0.00    -0.343 N 
HETATM   26  C12 UNL     1      12.816  63.014  42.485  1.00  0.00     0.250 C 
ATOM     27  H6  UNL     1      14.079  64.432  43.776  1.00  0.00     0.163 HD
HETATM   28  O2  UNL     1      11.584  63.078  42.621  1.00  0.00    -0.271 OA
HETATM   29  C13 UNL     1      13.868  62.171  41.849  1.00  0.00     0.245 C 
BRANCH  29  30
HETATM   30  O3  UNL     1      13.507  61.547  40.682  1.00  0.00    -0.369 OA
BRANCH  30  31
HETATM   31  C14 UNL     1      13.676  60.170  40.800  1.00  0.00     0.215 C 
BRANCH  31  32
HETATM   32  C15 UNL     1      12.440  59.425  40.509  1.00  0.00     0.107 C 
HETATM   33  N7  UNL     1      11.662  59.094  41.467  1.00  0.00    -0.300 N 
ATOM     34  H7  UNL     1      10.809  58.579  41.250  1.00  0.00     0.187 HD
BRANCH  33  35
HETATM   35  N8  UNL     1      11.933  59.410  42.796  1.00  0.00    -0.250 N 
HETATM   36  N9  UNL     1      11.100  60.148  43.417  1.00  0.00    -0.331 N 
ATOM     37  H92 UNL     1      10.265  60.489  42.941  1.00  0.00     0.178 HD
ATOM     38  H91 UNL     1      11.298  60.379  44.391  1.00  0.00     0.178 HD
ATOM     39  H8  UNL     1      12.772  59.060  43.258  1.00  0.00     0.207 HD
ENDBRANCH  33  35
ENDBRANCH  31  32
ENDBRANCH  30  31
ENDBRANCH  29  30
ENDBRANCH   3  24
TORSDOF 14
ENDMDL
MODEL 3
REMARK VINA RESULT: -7.875754211      1.396      1.796
REMARK  14 active torsions:
REMARK  status: ('A' for Active; 'I' for Inactive)
REMARK    1  A    between atoms: C2_2  and  C3_3 
REMARK    2  A    between atoms: C2_2  and  N4_15 
REMARK    3  A    between atoms: N1_4  and  C4_6 
REMARK    4  A    between atoms: C4_6  and  C5_10 
REMARK    5  A    between atoms: C5_10  and  C6_11 
REMARK    6  A    between atoms: N4_15  and  C7_17 
REMARK    7  A    between atoms: C7_17  and  C8_18 
REMARK    8  A    between atoms: C8_18  and  C9_19 
REMARK    9  A    between atoms: C9_19  and  N5_20 
REMARK       I    between atoms: N5_20  and  C10_22 
REMARK   10  A    between atoms: C10_22  and  C11_24 
REMARK   11  A    between atoms: C13_29  and  O3_30 
REMARK   12  A    between atoms: O3_30  and  C14_31 
REMARK   13  A    between atoms: C14_31  and  C15_32 
REMARK   14  A    between atoms: N7_33  and  N8_35 
ROOT
HETATM    1  N5  UNL     1      13.894  63.075  39.058  1.00  0.00    -0.359 N 
ATOM      2  H5  UNL     1      14.466  62.234  38.985  1.00  0.00     0.162 HD
HETATM    3  C10 UNL     1      13.681  63.682  40.314  1.00  0.00     0.243 C 
HETATM    4  O1  UNL     1      12.974  64.717  40.385  1.00  0.00    -0.271 OA
ENDROOT
BRANCH   1   5
HETATM    5  C9  UNL     1      13.297  63.654  37.876  1.00  0.00     0.124 C 
BRANCH   5   6
HETATM    6  C8  UNL     1      14.331  64.505  37.169  1.00  0.00     0.039 C 
BRANCH   6   7
HETATM    7  C7  UNL     1      14.628  63.883  35.843  1.00  0.00     0.121 C 
BRANCH   7   8
HETATM    8  N4  UNL     1      14.517  64.834  34.756  1.00  0.00    -0.389 N 
ATOM      9  H4  UNL     1      13.704  64.851  34.141  1.00  0.00     0.159 HD
BRANCH   8  10
HETATM   10  C2  UNL     1      15.589  65.738  34.591  1.00  0.00     0.034 C 
HETATM   11  C1  UNL     1      16.788  65.280  34.345  1.00  0.00     0.044 C 
BRANCH  10  12
HETATM   12  C3  UNL     1      15.348  67.151  34.697  1.00  0.00     0.117 C 
HETATM   13  N1  UNL     1      14.182  67.624  34.448  1.00  0.00    -0.354 N 
ATOM     14  H1  UNL     1      13.417  67.007  34.174  1.00  0.00     0.166 HD
BRANCH  13  15
HETATM   15  C4  UNL     1      13.981  69.016  34.562  1.00  0.00     0.079 C 
HETATM   16  N2  UNL     1      14.675  69.806  33.828  1.00  0.00    -0.389 N 
ATOM     17  H22 UNL     1      15.364  69.441  33.170  1.00  0.00     0.157 HD
ATOM     18  H21 UNL     1      14.530  70.812  33.910  1.00  0.00     0.157 HD
BRANCH  15  19
HETATM   19  C5  UNL     1      12.989  69.540  35.510  1.00  0.00     0.119 C 
BRANCH  19  20
HETATM   20  C6  UNL     1      13.632  69.755  36.821  1.00  0.00     0.060 C 
HETATM   21  N3  UNL     1      13.983  70.897  37.257  1.00  0.00    -0.411 N 
ATOM     22  H32 UNL     1      13.803  71.699  36.654  1.00  0.00     0.155 HD
ATOM     23  H31 UNL     1      14.427  71.045  38.163  1.00  0.00     0.155 HD
ENDBRANCH  19  20
ENDBRANCH  15  19
ENDBRANCH  13  15
ENDBRANCH  10  12
ENDBRANCH   8  10
ENDBRANCH   7   8
ENDBRANCH   6   7
ENDBRANCH   5   6
ENDBRANCH   1   5
BRANCH   3  24
HETATM   24  C11 UNL     1      14.286  63.097  41.522  1.00  0.00     0.214 C 
HETATM   25  N6  UNL     1      13.732  63.698  42.745  1.00  0.00    -0.343 N 
HETATM   26  C12 UNL     1      12.621  62.795  42.570  1.00  0.00     0.250 C 
ATOM     27  H6  UNL     1      14.007  64.420  43.410  1.00  0.00     0.163 HD
HETATM   28  O2  UNL     1      11.412  62.896  42.833  1.00  0.00    -0.271 OA
HETATM   29  C13 UNL     1      13.601  61.836  41.987  1.00  0.00     0.245 C 
BRANCH  29  30
HETATM   30  O3  UNL     1      13.114  61.004  41.010  1.00  0.00    -0.369 OA
BRANCH  30  31
HETATM   31  C14 UNL     1      13.561  59.702  41.220  1.00  0.00     0.215 C 
BRANCH  31  32
HETATM   32  C15 UNL     1      12.813  59.018  42.289  1.00  0.00     0.107 C 
HETATM   33  N7  UNL     1      12.512  57.784  42.157  1.00  0.00    -0.300 N 
ATOM     34  H7  UNL     1      11.994  57.323  42.905  1.00  0.00     0.187 HD
BRANCH  33  35
HETATM   35  N8  UNL     1      12.862  57.042  41.032  1.00  0.00    -0.250 N 
HETATM   36  N9  UNL     1      12.477  55.828  40.972  1.00  0.00    -0.331 N 
ATOM     37  H92 UNL     1      11.931  55.427  41.734  1.00  0.00     0.178 HD
ATOM     38  H91 UNL     1      12.734  55.284  40.148  1.00  0.00     0.178 HD
ATOM     39  H8  UNL     1      13.409  57.458  40.278  1.00  0.00     0.207 HD
ENDBRANCH  33  35
ENDBRANCH  31  32
ENDBRANCH  30  31
ENDBRANCH  29  30
ENDBRANCH   3  24
TORSDOF 14
ENDMDL
MODEL 4
REMARK VINA RESULT: -7.810549747      1.660      2.164
REMARK  14 active torsions:
REMARK  status: ('A' for Active; 'I' for Inactive)
REMARK    1  A    between atoms: C2_2  and  C3_3 
REMARK    2  A    between atoms: C2_2  and  N4_15 
REMARK    3  A    between atoms: N1_4  and  C4_6 
REMARK    4  A    between atoms: C4_6  and  C5_10 
REMARK    5  A    between atoms: C5_10  and  C6_11 
REMARK    6  A    between atoms: N4_15  and  C7_17 
REMARK    7  A    between atoms: C7_17  and  C8_18 
REMARK    8  A    between atoms: C8_18  and  C9_19 
REMARK    9  A    between atoms: C9_19  and  N5_20 
REMARK       I    between atoms: N5_20  and  C10_22 
REMARK   10  A    between atoms: C10_22  and  C11_24 
REMARK   11  A    between atoms: C13_29  and  O3_30 
REMARK   12  A    between atoms: O3_30  and  C14_31 
REMARK   13  A    between atoms: C14_31  and  C15_32 
REMARK   14  A    between atoms: N7_33  and  N8_35 
ROOT
HETATM    1  N5  UNL     1      13.845  63.775  39.890  1.00  0.00    -0.359 N 
ATOM      2  H5  UNL     1      13.068  63.706  40.548  1.00  0.00     0.162 HD
HETATM    3  C10 UNL     1      15.113  63.260  40.230  1.00  0.00     0.243 C 
HETATM    4  O1  UNL     1      16.056  63.354  39.407  1.00  0.00    -0.271 OA
ENDROOT
BRANCH   1   5
HETATM    5  C9  UNL     1      13.651  64.401  38.602  1.00  0.00     0.124 C 
BRANCH   5   6
HETATM    6  C8  UNL     1      13.153  63.362  37.619  1.00  0.00     0.039 C 
BRANCH   6   7
HETATM    7  C7  UNL     1      13.800  63.615  36.296  1.00  0.00     0.121 C 
BRANCH   7   8
HETATM    8  N4  UNL     1      15.236  63.771  36.412  1.00  0.00    -0.389 N 
ATOM      9  H4  UNL     1      15.785  63.203  37.056  1.00  0.00     0.159 HD
BRANCH   8  10
HETATM   10  C2  UNL     1      15.838  64.749  35.589  1.00  0.00     0.034 C 
HETATM   11  C1  UNL     1      16.678  64.382  34.659  1.00  0.00     0.044 C 
BRANCH  10  12
HETATM   12  C3  UNL     1      15.519  66.136  35.788  1.00  0.00     0.117 C 
HETATM   13  N1  UNL     1      14.843  66.773  34.902  1.00  0.00    -0.354 N 
ATOM     14  H1  UNL     1      14.527  66.306  34.053  1.00  0.00     0.166 HD
BRANCH  13  15
HETATM   15  C4  UNL     1      14.548  68.134  35.130  1.00  0.00     0.079 C 
HETATM   16  N2  UNL     1      14.389  68.912  34.124  1.00  0.00    -0.389 N 
ATOM     17  H22 UNL     1      14.474  68.561  33.170  1.00  0.00     0.157 HD
ATOM     18  H21 UNL     1      14.176  69.896  34.288  1.00  0.00     0.157 HD
BRANCH  15  19
HETATM   19  C5  UNL     1      14.426  68.639  36.504  1.00  0.00     0.119 C 
BRANCH  19  20
HETATM   20  C6  UNL     1      13.483  69.775  36.525  1.00  0.00     0.060 C 
HETATM   21  N3  UNL     1      13.762  70.914  37.014  1.00  0.00    -0.411 N 
ATOM     22  H32 UNL     1      14.694  71.035  37.410  1.00  0.00     0.155 HD
ATOM     23  H31 UNL     1      13.110  71.699  37.029  1.00  0.00     0.155 HD
ENDBRANCH  19  20
ENDBRANCH  15  19
ENDBRANCH  13  15
ENDBRANCH  10  12
ENDBRANCH   8  10
ENDBRANCH   7   8
ENDBRANCH   6   7
ENDBRANCH   5   6
ENDBRANCH   1   5
BRANCH   3  24
HETATM   24  C11 UNL     1      15.316  62.621  41.541  1.00  0.00     0.214 C 
HETATM   25  N6  UNL     1      15.850  63.573  42.526  1.00  0.00    -0.343 N 
HETATM   26  C12 UNL     1      14.488  64.023  42.685  1.00  0.00     0.250 C 
ATOM     27  H6  UNL     1      16.762  63.808  42.917  1.00  0.00     0.163 HD
HETATM   28  O2  UNL     1      14.000  65.135  42.942  1.00  0.00    -0.271 OA
HETATM   29  C13 UNL     1      14.081  62.617  42.406  1.00  0.00     0.245 C 
BRANCH  29  30
HETATM   30  O3  UNL     1      12.880  62.460  41.762  1.00  0.00    -0.369 OA
BRANCH  30  31
HETATM   31  C14 UNL     1      11.975  61.795  42.586  1.00  0.00     0.215 C 
BRANCH  31  32
HETATM   32  C15 UNL     1      12.286  60.362  42.719  1.00  0.00     0.107 C 
HETATM   33  N7  UNL     1      12.231  59.606  41.692  1.00  0.00    -0.300 N 
ATOM     34  H7  UNL     1      12.449  58.616  41.799  1.00  0.00     0.187 HD
BRANCH  33  35
HETATM   35  N8  UNL     1      11.884  60.080  40.430  1.00  0.00    -0.250 N 
HETATM   36  N9  UNL     1      12.825  60.414  39.636  1.00  0.00    -0.331 N 
ATOM     37  H92 UNL     1      13.797  60.330  39.933  1.00  0.00     0.178 HD
ATOM     38  H91 UNL     1      12.571  60.762  38.711  1.00  0.00     0.178 HD
ATOM     39  H8  UNL     1      10.907  60.158  40.148  1.00  0.00     0.207 HD
ENDBRANCH  33  35
ENDBRANCH  31  32
ENDBRANCH  30  31
ENDBRANCH  29  30
ENDBRANCH   3  24
TORSDOF 14
ENDMDL
MODEL 5
REMARK VINA RESULT: -7.794223818      1.093      1.433
REMARK  14 active torsions:
REMARK  status: ('A' for Active; 'I' for Inactive)
REMARK    1  A    between atoms: C2_2  and  C3_3 
REMARK    2  A    between atoms: C2_2  and  N4_15 
REMARK    3  A    between atoms: N1_4  and  C4_6 
REMARK    4  A    between atoms: C4_6  and  C5_10 
REMARK    5  A    between atoms: C5_10  and  C6_11 
REMARK    6  A    between atoms: N4_15  and  C7_17 
REMARK    7  A    between atoms: C7_17  and  C8_18 
REMARK    8  A    between atoms: C8_18  and  C9_19 
REMARK    9  A    between atoms: C9_19  and  N5_20 
REMARK       I    between atoms: N5_20  and  C10_22 
REMARK   10  A    between atoms: C10_22  and  C11_24 
REMARK   11  A    between atoms: C13_29  and  O3_30 
REMARK   12  A    between atoms: O3_30  and  C14_31 
REMARK   13  A    between atoms: C14_31  and  C15_32 
REMARK   14  A    between atoms: N7_33  and  N8_35 
ROOT
HETATM    1  N5  UNL     1      13.821  63.040  38.877  1.00  0.00    -0.359 N 
ATOM      2  H5  UNL     1      14.393  62.195  38.859  1.00  0.00     0.162 HD
HETATM    3  C10 UNL     1      13.677  63.774  40.073  1.00  0.00     0.243 C 
HETATM    4  O1  UNL     1      12.969  64.810  40.077  1.00  0.00    -0.271 OA
ENDROOT
BRANCH   1   5
HETATM    5  C9  UNL     1      13.154  63.492  37.678  1.00  0.00     0.124 C 
BRANCH   5   6
HETATM    6  C8  UNL     1      14.195  63.808  36.625  1.00  0.00     0.039 C 
BRANCH   6   7
HETATM    7  C7  UNL     1      14.746  65.170  36.899  1.00  0.00     0.121 C 
BRANCH   7   8
HETATM    8  N4  UNL     1      15.547  65.666  35.798  1.00  0.00    -0.389 N 
ATOM      9  H4  UNL     1      16.188  65.060  35.288  1.00  0.00     0.159 HD
BRANCH   8  10
HETATM   10  C2  UNL     1      15.396  67.031  35.467  1.00  0.00     0.034 C 
HETATM   11  C1  UNL     1      16.016  67.514  34.423  1.00  0.00     0.044 C 
BRANCH  10  12
HETATM   12  C3  UNL     1      14.564  67.871  36.284  1.00  0.00     0.117 C 
HETATM   13  N1  UNL     1      14.352  69.090  35.944  1.00  0.00    -0.354 N 
ATOM     14  H1  UNL     1      14.768  69.475  35.096  1.00  0.00     0.166 HD
BRANCH  13  15
HETATM   15  C4  UNL     1      13.530  69.886  36.770  1.00  0.00     0.079 C 
HETATM   16  N2  UNL     1      12.257  69.781  36.664  1.00  0.00    -0.389 N 
ATOM     17  H22 UNL     1      11.837  69.135  35.996  1.00  0.00     0.157 HD
ATOM     18  H21 UNL     1      11.662  70.355  37.262  1.00  0.00     0.157 HD
BRANCH  15  19
HETATM   19  C5  UNL     1      14.135  70.815  37.733  1.00  0.00     0.119 C 
BRANCH  19  20
HETATM   20  C6  UNL     1      14.095  70.217  39.082  1.00  0.00     0.060 C 
HETATM   21  N3  UNL     1      14.697  70.705  40.089  1.00  0.00    -0.411 N 
ATOM     22  H32 UNL     1      15.233  71.560  39.940  1.00  0.00     0.155 HD
ATOM     23  H31 UNL     1      14.668  70.291  41.021  1.00  0.00     0.155 HD
ENDBRANCH  19  20
ENDBRANCH  15  19
ENDBRANCH  13  15
ENDBRANCH  10  12
ENDBRANCH   8  10
ENDBRANCH   7   8
ENDBRANCH   6   7
ENDBRANCH   5   6
ENDBRANCH   1   5
BRANCH   3  24
HETATM   24  C11 UNL     1      14.354  63.318  41.298  1.00  0.00     0.214 C 
HETATM   25  N6  UNL     1      13.825  63.999  42.490  1.00  0.00    -0.343 N 
HETATM   26  C12 UNL     1      12.746  63.043  42.440  1.00  0.00     0.250 C 
ATOM     27  H6  UNL     1      14.097  64.786  43.080  1.00  0.00     0.163 HD
HETATM   28  O2  UNL     1      11.546  63.120  42.746  1.00  0.00    -0.271 OA
HETATM   29  C13 UNL     1      13.741  62.076  41.897  1.00  0.00     0.245 C 
BRANCH  29  30
HETATM   30  O3  UNL     1      13.251  61.146  41.016  1.00  0.00    -0.369 OA
BRANCH  30  31
HETATM   31  C14 UNL     1      13.615  59.863  41.417  1.00  0.00     0.215 C 
BRANCH  31  32
HETATM   32  C15 UNL     1      12.672  59.292  42.395  1.00  0.00     0.107 C 
HETATM   33  N7  UNL     1      11.659  58.634  41.983  1.00  0.00    -0.300 N 
ATOM     34  H7  UNL     1      11.015  58.244  42.671  1.00  0.00     0.187 HD
BRANCH  33  35
HETATM   35  N8  UNL     1      11.398  58.426  40.631  1.00  0.00    -0.250 N 
HETATM   36  N9  UNL     1      11.627  57.269  40.148  1.00  0.00    -0.331 N 
ATOM     37  H92 UNL     1      11.991  56.528  40.747  1.00  0.00     0.178 HD
ATOM     38  H91 UNL     1      11.436  57.116  39.158  1.00  0.00     0.178 HD
ATOM     39  H8  UNL     1      11.033  59.177  40.045  1.00  0.00     0.207 HD
ENDBRANCH  33  35
ENDBRANCH  31  32
ENDBRANCH  30  31
ENDBRANCH  29  30
ENDBRANCH   3  24
TORSDOF 14
ENDMDL
