MODEL 1
REMARK VINA RESULT: -7.602078281      0.000      0.000
REMARK  15 active torsions:
REMARK  status: ('A' for Active; 'I' for Inactive)
REMARK    1  A    between atoms: C3_3  and  S1_4 
REMARK    2  A    between atoms: S1_4  and  C4_5 
REMARK    3  A    between atoms: C4_5  and  C5_6 
REMARK    4  A    between atoms: C5_6  and  C6_7 
REMARK    5  A    between atoms: C5_6  and  N5_20 
REMARK    6  A    between atoms: C6_7  and  N1_8 
REMARK       I    between atoms: N1_8  and  C7_10 
REMARK    7  A    between atoms: C7_10  and  C8_12 
REMARK    8  A    between atoms: C8_12  and  N2_13 
REMARK    9  A    between atoms: N2_13  and  N3_15 
REMARK   10  A    between atoms: N5_20  and  C9_22 
REMARK   11  A    between atoms: C9_22  and  C10_23 
REMARK   12  A    between atoms: C10_23  and  C11_24 
REMARK   13  A    between atoms: C11_24  and  N6_25 
REMARK   14  A    between atoms: N6_25  and  C12_27 
REMARK   15  A    between atoms: C15_32  and  N8_33 
ROOT
HETATM    1  C1  UNL     1      13.899  60.326  40.376  1.00  0.00     0.098 C 
HETATM    2  C2  UNL     1      14.337  61.279  40.998  1.00  0.00    -0.177 C 
HETATM    3  C3  UNL     1      14.883  62.423  41.732  1.00  0.00     0.153 C 
ENDROOT
BRANCH   3   4
HETATM    4  S1  UNL     1      13.585  63.658  42.004  1.00  0.00    -0.156 SA
BRANCH   4   5
HETATM    5  C4  UNL     1      14.175  65.264  41.466  1.00  0.00     0.101 C 
BRANCH   5   6
HETATM    6  C5  UNL     1      13.955  65.515  39.991  1.00  0.00     0.103 C 
BRANCH   6   7
HETATM    7  C6  UNL     1      13.128  66.735  39.846  1.00  0.00     0.148 C 
BRANCH   7   8
HETATM    8  N1  UNL     1      13.654  67.597  38.825  1.00  0.00    -0.358 N 
HETATM    9  C7  UNL     1      12.955  68.712  38.316  1.00  0.00     0.236 C 
HETATM   10  O1  UNL     1      11.794  69.033  38.750  1.00  0.00    -0.272 OA
ATOM     11  H1  UNL     1      14.579  67.392  38.448  1.00  0.00     0.162 HD
BRANCH   9  12
HETATM   12  C8  UNL     1      13.476  69.613  37.251  1.00  0.00     0.243 C 
BRANCH  12  13
HETATM   13  N2  UNL     1      13.961  70.873  37.698  1.00  0.00    -0.314 N 
ATOM     14  H2  UNL     1      13.480  71.731  37.426  1.00  0.00     0.182 HD
BRANCH  13  15
HETATM   15  N3  UNL     1      15.091  70.935  38.508  1.00  0.00    -0.253 N 
HETATM   16  N4  UNL     1      14.956  71.042  39.755  1.00  0.00    -0.331 N 
ATOM     17  H42 UNL     1      14.018  71.081  40.153  1.00  0.00     0.178 HD
ATOM     18  H41 UNL     1      15.784  71.088  40.349  1.00  0.00     0.178 HD
ATOM     19  H3  UNL     1      16.022  70.895  38.094  1.00  0.00     0.207 HD
ENDBRANCH  13  15
ENDBRANCH  12  13
ENDBRANCH   9  12
ENDBRANCH   7   8
ENDBRANCH   6   7
BRANCH   6  20
HETATM   20  N5  UNL     1      13.396  64.357  39.325  1.00  0.00    -0.415 N 
ATOM     21  H5  UNL     1      12.484  63.970  39.568  1.00  0.00     0.153 HD
BRANCH  20  22
HETATM   22  C9  UNL     1      14.220  63.797  38.305  1.00  0.00     0.115 C 
BRANCH  22  23
HETATM   23  C10 UNL     1      13.323  63.577  37.090  1.00  0.00     0.039 C 
BRANCH  23  24
HETATM   24  C11 UNL     1      14.066  63.882  35.808  1.00  0.00     0.123 C 
BRANCH  24  25
HETATM   25  N6  UNL     1      15.222  64.665  36.115  1.00  0.00    -0.376 N 
ATOM     26  H6  UNL     1      15.790  64.429  36.929  1.00  0.00     0.161 HD
BRANCH  25  27
HETATM   27  C12 UNL     1      15.550  65.657  35.378  1.00  0.00     0.118 A 
HETATM   28  C13 UNL     1      14.794  66.798  35.405  1.00  0.00     0.066 A 
HETATM   29  C14 UNL     1      15.184  67.856  34.588  1.00  0.00     0.110 A 
HETATM   30  N7  UNL     1      16.277  67.683  33.829  1.00  0.00    -0.202 N 
HETATM   31  C15 UNL     1      17.008  66.569  33.809  1.00  0.00     0.677 A 
ATOM     32  H7  UNL     1      16.566  68.455  33.229  1.00  0.00     0.183 HD
HETATM   33  N9  UNL     1      16.634  65.531  34.605  1.00  0.00    -0.177 N 
ATOM     34  H9  UNL     1      17.174  64.666  34.611  1.00  0.00     0.185 HD
BRANCH  31  35
HETATM   35  N8  UNL     1      18.041  66.483  33.055  1.00  0.00    -0.234 N 
ATOM     36  H82 UNL     1      17.949  66.452  32.040  1.00  0.00     0.174 HD
ATOM     37  H81 UNL     1      18.975  66.445  33.461  1.00  0.00     0.174 HD
ENDBRANCH  31  35
ENDBRANCH  25  27
ENDBRANCH  24  25
ENDBRANCH  23  24
ENDBRANCH  22  23
ENDBRANCH  20  22
ENDBRANCH   6  20
ENDBRANCH   5   6
ENDBRANCH   4   5
ENDBRANCH   3   4
TORSDOF 15
ENDMDL
MODEL 2
REMARK VINA RESULT: -7.465054192      4.065      7.740
REMARK  15 active torsions:
REMARK  status: ('A' for Active; 'I' for Inactive)
REMARK    1  A    between atoms: C3_3  and  S1_4 
REMARK    2  A    between atoms: S1_4  and  C4_5 
REMARK    3  A    between atoms: C4_5  and  C5_6 
REMARK    4  A    between atoms: C5_6  and  C6_7 
REMARK    5  A    between atoms: C5_6  and  N5_20 
REMARK    6  A    between atoms: C6_7  and  N1_8 
REMARK       I    between atoms: N1_8  and  C7_10 
REMARK    7  A    between atoms: C7_10  and  C8_12 
REMARK    8  A    between atoms: C8_12  and  N2_13 
REMARK    9  A    between atoms: N2_13  and  N3_15 
REMARK   10  A    between atoms: N5_20  and  C9_22 
REMARK   11  A    between atoms: C9_22  and  C10_23 
REMARK   12  A    between atoms: C10_23  and  C11_24 
REMARK   13  A    between atoms: C11_24  and  N6_25 
REMARK   14  A    between atoms: N6_25  and  C12_27 
REMARK   15  A    between atoms: C15_32  and  N8_33 
ROOT
HETATM    1  C1  UNL     1      12.154  62.429  42.948  1.00  0.00     0.098 C 
HETATM    2  C2  UNL     1      13.175  63.072  42.765  1.00  0.00    -0.177 C 
HETATM    3  C3  UNL     1      14.413  63.821  42.545  1.00  0.00     0.153 C 
ENDROOT
BRANCH   3   4
HETATM    4  S1  UNL     1      14.108  65.194  41.402  1.00  0.00    -0.156 SA
BRANCH   4   5
HETATM    5  C4  UNL     1      13.471  64.545  39.856  1.00  0.00     0.101 C 
BRANCH   5   6
HETATM    6  C5  UNL     1      14.559  64.107  38.901  1.00  0.00     0.103 C 
BRANCH   6   7
HETATM    7  C6  UNL     1      14.098  64.369  37.519  1.00  0.00     0.148 C 
BRANCH   7   8
HETATM    8  N1  UNL     1      14.994  63.791  36.557  1.00  0.00    -0.358 N 
HETATM    9  C7  UNL     1      16.020  64.519  35.918  1.00  0.00     0.236 C 
HETATM   10  O1  UNL     1      16.224  65.757  36.171  1.00  0.00    -0.272 OA
ATOM     11  H1  UNL     1      14.882  62.805  36.323  1.00  0.00     0.162 HD
BRANCH   9  12
HETATM   12  C8  UNL     1      16.954  63.943  34.911  1.00  0.00     0.243 C 
BRANCH  12  13
HETATM   13  N2  UNL     1      16.750  64.374  33.570  1.00  0.00    -0.314 N 
ATOM     14  H2  UNL     1      16.826  63.707  32.803  1.00  0.00     0.182 HD
BRANCH  13  15
HETATM   15  N3  UNL     1      16.446  65.706  33.308  1.00  0.00    -0.253 N 
HETATM   16  N4  UNL     1      17.374  66.555  33.249  1.00  0.00    -0.331 N 
ATOM     17  H42 UNL     1      18.336  66.252  33.395  1.00  0.00     0.178 HD
ATOM     18  H41 UNL     1      17.151  67.532  33.056  1.00  0.00     0.178 HD
ATOM     19  H3  UNL     1      15.478  65.993  33.164  1.00  0.00     0.207 HD
ENDBRANCH  13  15
ENDBRANCH  12  13
ENDBRANCH   9  12
ENDBRANCH   7   8
ENDBRANCH   6   7
BRANCH   6  20
HETATM   20  N5  UNL     1      14.950  62.731  39.127  1.00  0.00    -0.415 N 
ATOM     21  H5  UNL     1      15.926  62.444  39.215  1.00  0.00     0.153 HD
BRANCH  20  22
HETATM   22  C9  UNL     1      13.868  61.806  39.217  1.00  0.00     0.115 C 
BRANCH  22  23
HETATM   23  C10 UNL     1      14.289  60.736  40.220  1.00  0.00     0.039 C 
BRANCH  23  24
HETATM   24  C11 UNL     1      13.186  59.721  40.422  1.00  0.00     0.123 C 
BRANCH  24  25
HETATM   25  N6  UNL     1      13.764  58.479  40.829  1.00  0.00    -0.376 N 
ATOM     26  H6  UNL     1      14.473  58.469  41.563  1.00  0.00     0.161 HD
BRANCH  25  27
HETATM   27  C12 UNL     1      13.403  57.382  40.282  1.00  0.00     0.118 A 
HETATM   28  C13 UNL     1      12.141  56.899  40.504  1.00  0.00     0.066 A 
HETATM   29  C14 UNL     1      11.785  55.702  39.891  1.00  0.00     0.110 A 
HETATM   30  N7  UNL     1      12.706  55.100  39.123  1.00  0.00    -0.202 N 
HETATM   31  C15 UNL     1      13.934  55.577  38.911  1.00  0.00     0.677 A 
ATOM     32  H7  UNL     1      12.451  54.222  38.672  1.00  0.00     0.183 HD
HETATM   33  N9  UNL     1      14.288  56.747  39.506  1.00  0.00    -0.177 N 
ATOM     34  H9  UNL     1      15.220  57.136  39.363  1.00  0.00     0.185 HD
BRANCH  31  35
HETATM   35  N8  UNL     1      14.756  54.942  38.162  1.00  0.00    -0.234 N 
ATOM     36  H82 UNL     1      14.445  54.163  37.581  1.00  0.00     0.174 HD
ATOM     37  H81 UNL     1      15.740  55.207  38.134  1.00  0.00     0.174 HD
ENDBRANCH  31  35
ENDBRANCH  25  27
ENDBRANCH  24  25
ENDBRANCH  23  24
ENDBRANCH  22  23
ENDBRANCH  20  22
ENDBRANCH   6  20
ENDBRANCH   5   6
ENDBRANCH   4   5
ENDBRANCH   3   4
TORSDOF 15
ENDMDL
MODEL 3
REMARK VINA RESULT: -7.418009001      3.663      8.054
REMARK  15 active torsions:
REMARK  status: ('A' for Active; 'I' for Inactive)
REMARK    1  A    between atoms: C3_3  and  S1_4 
REMARK    2  A    between atoms: S1_4  and  C4_5 
REMARK    3  A    between atoms: C4_5  and  C5_6 
REMARK    4  A    between atoms: C5_6  and  C6_7 
REMARK    5  A    between atoms: C5_6  and  N5_20 
REMARK    6  A    between atoms: C6_7  and  N1_8 
REMARK       I    between atoms: N1_8  and  C7_10 
REMARK    7  A    between atoms: C7_10  and  C8_12 
REMARK    8  A    between atoms: C8_12  and  N2_13 
REMARK    9  A    between atoms: N2_13  and  N3_15 
REMARK   10  A    between atoms: N5_20  and  C9_22 
REMARK   11  A    between atoms: C9_22  and  C10_23 
REMARK   12  A    between atoms: C10_23  and  C11_24 
REMARK   13  A    between atoms: C11_24  and  N6_25 
REMARK   14  A    between atoms: N6_25  and  C12_27 
REMARK   15  A    between atoms: C15_32  and  N8_33 
ROOT
HETATM    1  C1  UNL     1      16.648  64.192  43.293  1.00  0.00     0.098 C 
HETATM    2  C2  UNL     1      15.493  64.358  42.937  1.00  0.00    -0.177 C 
HETATM    3  C3  UNL     1      14.101  64.561  42.533  1.00  0.00     0.153 C 
ENDROOT
BRANCH   3   4
HETATM    4  S1  UNL     1      14.035  65.576  41.033  1.00  0.00    -0.156 SA
BRANCH   4   5
HETATM    5  C4  UNL     1      13.407  64.586  39.676  1.00  0.00     0.101 C 
BRANCH   5   6
HETATM    6  C5  UNL     1      14.493  64.093  38.746  1.00  0.00     0.103 C 
BRANCH   6   7
HETATM    7  C6  UNL     1      13.955  64.083  37.367  1.00  0.00     0.148 C 
BRANCH   7   8
HETATM    8  N1  UNL     1      14.891  63.490  36.452  1.00  0.00    -0.358 N 
HETATM    9  C7  UNL     1      15.880  64.228  35.768  1.00  0.00     0.236 C 
HETATM   10  O1  UNL     1      16.012  65.490  35.935  1.00  0.00    -0.272 OA
ATOM     11  H1  UNL     1      14.836  62.485  36.288  1.00  0.00     0.162 HD
BRANCH   9  12
HETATM   12  C8  UNL     1      16.853  63.637  34.808  1.00  0.00     0.243 C 
BRANCH  12  13
HETATM   13  N2  UNL     1      17.015  64.346  33.586  1.00  0.00    -0.314 N 
ATOM     14  H2  UNL     1      16.573  64.001  32.734  1.00  0.00     0.182 HD
BRANCH  13  15
HETATM   15  N3  UNL     1      17.776  65.511  33.554  1.00  0.00    -0.253 N 
HETATM   16  N4  UNL     1      17.239  66.593  33.202  1.00  0.00    -0.331 N 
ATOM     17  H42 UNL     1      16.252  66.600  32.946  1.00  0.00     0.178 HD
ATOM     18  H41 UNL     1      17.797  67.447  33.178  1.00  0.00     0.178 HD
ATOM     19  H3  UNL     1      18.762  65.487  33.813  1.00  0.00     0.207 HD
ENDBRANCH  13  15
ENDBRANCH  12  13
ENDBRANCH   9  12
ENDBRANCH   7   8
ENDBRANCH   6   7
BRANCH   6  20
HETATM   20  N5  UNL     1      15.023  62.812  39.168  1.00  0.00    -0.415 N 
ATOM     21  H5  UNL     1      16.024  62.621  39.219  1.00  0.00     0.153 HD
BRANCH  20  22
HETATM   22  C9  UNL     1      14.038  61.839  39.509  1.00  0.00     0.115 C 
BRANCH  22  23
HETATM   23  C10 UNL     1      14.493  61.194  40.815  1.00  0.00     0.039 C 
BRANCH  23  24
HETATM   24  C11 UNL     1      13.418  61.302  41.874  1.00  0.00     0.123 C 
BRANCH  24  25
HETATM   25  N6  UNL     1      12.304  60.491  41.490  1.00  0.00    -0.376 N 
ATOM     26  H6  UNL     1      11.609  60.862  40.842  1.00  0.00     0.161 HD
BRANCH  25  27
HETATM   27  C12 UNL     1      12.172  59.306  41.952  1.00  0.00     0.118 A 
HETATM   28  C13 UNL     1      11.911  59.125  43.283  1.00  0.00     0.066 A 
HETATM   29  C14 UNL     1      11.775  57.820  43.748  1.00  0.00     0.110 A 
HETATM   30  N7  UNL     1      11.909  56.827  42.855  1.00  0.00    -0.202 N 
HETATM   31  C15 UNL     1      12.162  57.012  41.559  1.00  0.00     0.677 A 
ATOM     32  H7  UNL     1      11.810  55.869  43.190  1.00  0.00     0.183 HD
HETATM   33  N9  UNL     1      12.296  58.284  41.098  1.00  0.00    -0.177 N 
ATOM     34  H9  UNL     1      12.491  58.457  40.112  1.00  0.00     0.185 HD
BRANCH  31  35
HETATM   35  N8  UNL     1      12.275  56.008  40.771  1.00  0.00    -0.234 N 
ATOM     36  H82 UNL     1      11.642  55.211  40.839  1.00  0.00     0.174 HD
ATOM     37  H81 UNL     1      13.004  55.992  40.058  1.00  0.00     0.174 HD
ENDBRANCH  31  35
ENDBRANCH  25  27
ENDBRANCH  24  25
ENDBRANCH  23  24
ENDBRANCH  22  23
ENDBRANCH  20  22
ENDBRANCH   6  20
ENDBRANCH   5   6
ENDBRANCH   4   5
ENDBRANCH   3   4
TORSDOF 15
ENDMDL
MODEL 4
REMARK VINA RESULT: -7.357907754      3.020      5.921
REMARK  15 active torsions:
REMARK  status: ('A' for Active; 'I' for Inactive)
REMARK    1  A    between atoms: C3_3  and  S1_4 
REMARK    2  A    between atoms: S1_4  and  C4_5 
REMARK    3  A    between atoms: C4_5  and  C5_6 
REMARK    4  A    between atoms: C5_6  and  C6_7 
REMARK    5  A    between atoms: C5_6  and  N5_20 
REMARK    6  A    between atoms: C6_7  and  N1_8 
REMARK       I    between atoms: N1_8  and  C7_10 
REMARK    7  A    between atoms: C7_10  and  C8_12 
REMARK    8  A    between atoms: C8_12  and  N2_13 
REMARK    9  A    between atoms: N2_13  and  N3_15 
REMARK   10  A    between atoms: N5_20  and  C9_22 
REMARK   11  A    between atoms: C9_22  and  C10_23 
REMARK   12  A    between atoms: C10_23  and  C11_24 
REMARK   13  A    between atoms: C11_24  and  N6_25 
REMARK   14  A    between atoms: N6_25  and  C12_27 
REMARK   15  A    between atoms: C15_32  and  N8_33 
ROOT
HETATM    1  C1  UNL     1      16.500  64.197  43.309  1.00  0.00     0.098 C 
HETATM    2  C2  UNL     1      15.705  64.831  42.635  1.00  0.00    -0.177 C 
HETATM    3  C3  UNL     1      14.770  65.607  41.818  1.00  0.00     0.153 C 
ENDROOT
BRANCH   3   4
HETATM    4  S1  UNL     1      13.623  64.491  40.966  1.00  0.00    -0.156 SA
BRANCH   4   5
HETATM    5  C4  UNL     1      13.678  64.820  39.204  1.00  0.00     0.101 C 
BRANCH   5   6
HETATM    6  C5  UNL     1      13.636  63.564  38.363  1.00  0.00     0.103 C 
BRANCH   6   7
HETATM    7  C6  UNL     1      14.431  62.520  39.047  1.00  0.00     0.148 C 
BRANCH   7   8
HETATM    8  N1  UNL     1      13.616  61.384  39.379  1.00  0.00    -0.358 N 
HETATM    9  C7  UNL     1      13.834  60.580  40.518  1.00  0.00     0.236 C 
HETATM   10  O1  UNL     1      14.781  60.827  41.344  1.00  0.00    -0.272 OA
ATOM     11  H1  UNL     1      12.842  61.147  38.760  1.00  0.00     0.162 HD
BRANCH   9  12
HETATM   12  C8  UNL     1      13.009  59.394  40.877  1.00  0.00     0.243 C 
BRANCH  12  13
HETATM   13  N2  UNL     1      11.995  59.624  41.847  1.00  0.00    -0.314 N 
ATOM     14  H2  UNL     1      11.418  58.850  42.176  1.00  0.00     0.182 HD
BRANCH  13  15
HETATM   15  N3  UNL     1      11.791  60.906  42.349  1.00  0.00    -0.253 N 
HETATM   16  N4  UNL     1      11.235  61.053  43.468  1.00  0.00    -0.331 N 
ATOM     17  H42 UNL     1      10.941  60.229  43.992  1.00  0.00     0.178 HD
ATOM     18  H41 UNL     1      11.085  61.992  43.837  1.00  0.00     0.178 HD
ATOM     19  H3  UNL     1      12.091  61.720  41.814  1.00  0.00     0.207 HD
ENDBRANCH  13  15
ENDBRANCH  12  13
ENDBRANCH   9  12
ENDBRANCH   7   8
ENDBRANCH   6   7
BRANCH   6  20
HETATM   20  N5  UNL     1      14.061  63.814  37.001  1.00  0.00    -0.415 N 
ATOM     21  H5  UNL     1      13.431  63.724  36.203  1.00  0.00     0.153 HD
BRANCH  20  22
HETATM   22  C9  UNL     1      15.428  64.195  36.860  1.00  0.00     0.115 C 
BRANCH  22  23
HETATM   23  C10 UNL     1      15.777  64.035  35.383  1.00  0.00     0.039 C 
BRANCH  23  24
HETATM   24  C11 UNL     1      15.575  65.335  34.637  1.00  0.00     0.123 C 
BRANCH  24  25
HETATM   25  N6  UNL     1      15.879  66.425  35.511  1.00  0.00    -0.376 N 
ATOM     26  H6  UNL     1      16.661  66.348  36.161  1.00  0.00     0.161 HD
BRANCH  25  27
HETATM   27  C12 UNL     1      15.179  67.495  35.484  1.00  0.00     0.118 A 
HETATM   28  C13 UNL     1      14.679  68.005  36.652  1.00  0.00     0.066 A 
HETATM   29  C14 UNL     1      13.922  69.170  36.582  1.00  0.00     0.110 A 
HETATM   30  N7  UNL     1      13.734  69.716  35.370  1.00  0.00    -0.202 N 
HETATM   31  C15 UNL     1      14.225  69.214  34.237  1.00  0.00     0.677 A 
ATOM     32  H7  UNL     1      13.179  70.569  35.313  1.00  0.00     0.183 HD
HETATM   33  N9  UNL     1      14.966  68.075  34.298  1.00  0.00    -0.177 N 
ATOM     34  H9  UNL     1      15.354  67.667  33.448  1.00  0.00     0.185 HD
BRANCH  31  35
HETATM   35  N8  UNL     1      14.000  69.796  33.118  1.00  0.00    -0.234 N 
ATOM     36  H82 UNL     1      13.054  70.055  32.842  1.00  0.00     0.174 HD
ATOM     37  H81 UNL     1      14.770  70.010  32.484  1.00  0.00     0.174 HD
ENDBRANCH  31  35
ENDBRANCH  25  27
ENDBRANCH  24  25
ENDBRANCH  23  24
ENDBRANCH  22  23
ENDBRANCH  20  22
ENDBRANCH   6  20
ENDBRANCH   5   6
ENDBRANCH   4   5
ENDBRANCH   3   4
TORSDOF 15
ENDMDL
MODEL 5
REMARK VINA RESULT: -7.251066740      3.825      6.925
REMARK  15 active torsions:
REMARK  status: ('A' for Active; 'I' for Inactive)
REMARK    1  A    between atoms: C3_3  and  S1_4 
REMARK    2  A    between atoms: S1_4  and  C4_5 
REMARK    3  A    between atoms: C4_5  and  C5_6 
REMARK    4  A    between atoms: C5_6  and  C6_7 
REMARK    5  A    between atoms: C5_6  and  N5_20 
REMARK    6  A    between atoms: C6_7  and  N1_8 
REMARK       I    between atoms: N1_8  and  C7_10 
REMARK    7  A    between atoms: C7_10  and  C8_12 
REMARK    8  A    between atoms: C8_12  and  N2_13 
REMARK    9  A    between atoms: N2_13  and  N3_15 
REMARK   10  A    between atoms: N5_20  and  C9_22 
REMARK   11  A    between atoms: C9_22  and  C10_23 
REMARK   12  A    between atoms: C10_23  and  C11_24 
REMARK   13  A    between atoms: C11_24  and  N6_25 
REMARK   14  A    between atoms: N6_25  and  C12_27 
REMARK   15  A    between atoms: C15_32  and  N8_33 
ROOT
HETATM    1  C1  UNL     1      17.017  64.572  42.428  1.00  0.00     0.098 C 
HETATM    2  C2  UNL     1      15.812  64.746  42.348  1.00  0.00    -0.177 C 
HETATM    3  C3  UNL     1      14.370  64.970  42.234  1.00  0.00     0.153 C 
ENDROOT
BRANCH   3   4
HETATM    4  S1  UNL     1      13.486  63.395  42.383  1.00  0.00    -0.156 SA
BRANCH   4   5
HETATM    5  C4  UNL     1      14.368  62.133  41.463  1.00  0.00     0.101 C 
BRANCH   5   6
HETATM    6  C5  UNL     1      13.947  62.051  40.013  1.00  0.00     0.103 C 
BRANCH   6   7
HETATM    7  C6  UNL     1      13.942  60.626  39.610  1.00  0.00     0.148 C 
BRANCH   7   8
HETATM    8  N1  UNL     1      13.710  59.771  40.741  1.00  0.00    -0.358 N 
HETATM    9  C7  UNL     1      12.575  58.943  40.867  1.00  0.00     0.236 C 
HETATM   10  O1  UNL     1      11.673  58.897  39.960  1.00  0.00    -0.272 OA
ATOM     11  H1  UNL     1      14.402  59.762  41.490  1.00  0.00     0.162 HD
BRANCH   9  12
HETATM   12  C8  UNL     1      12.309  58.056  42.033  1.00  0.00     0.243 C 
BRANCH  12  13
HETATM   13  N2  UNL     1      12.104  56.683  41.725  1.00  0.00    -0.314 N 
ATOM     14  H2  UNL     1      11.578  56.089  42.365  1.00  0.00     0.182 HD
BRANCH  13  15
HETATM   15  N3  UNL     1      12.620  56.151  40.547  1.00  0.00    -0.253 N 
HETATM   16  N4  UNL     1      11.835  55.762  39.644  1.00  0.00    -0.331 N 
ATOM     17  H42 UNL     1      10.829  55.842  39.791  1.00  0.00     0.178 HD
ATOM     18  H41 UNL     1      12.213  55.372  38.781  1.00  0.00     0.178 HD
ATOM     19  H3  UNL     1      13.629  56.077  40.416  1.00  0.00     0.207 HD
ENDBRANCH  13  15
ENDBRANCH  12  13
ENDBRANCH   9  12
ENDBRANCH   7   8
ENDBRANCH   6   7
BRANCH   6  20
HETATM   20  N5  UNL     1      14.771  62.887  39.165  1.00  0.00    -0.415 N 
ATOM     21  H5  UNL     1      15.755  62.685  38.982  1.00  0.00     0.153 HD
BRANCH  20  22
HETATM   22  C9  UNL     1      14.104  64.016  38.604  1.00  0.00     0.115 C 
BRANCH  22  23
HETATM   23  C10 UNL     1      13.516  63.559  37.272  1.00  0.00     0.039 C 
BRANCH  23  24
HETATM   24  C11 UNL     1      14.580  63.527  36.196  1.00  0.00     0.123 C 
BRANCH  24  25
HETATM   25  N6  UNL     1      14.247  64.481  35.185  1.00  0.00    -0.376 N 
ATOM     26  H6  UNL     1      13.422  64.335  34.604  1.00  0.00     0.161 HD
BRANCH  25  27
HETATM   27  C12 UNL     1      14.976  65.516  35.002  1.00  0.00     0.118 A 
HETATM   28  C13 UNL     1      14.713  66.661  35.705  1.00  0.00     0.066 A 
HETATM   29  C14 UNL     1      15.527  67.766  35.477  1.00  0.00     0.110 A 
HETATM   30  N7  UNL     1      16.518  67.633  34.582  1.00  0.00    -0.202 N 
HETATM   31  C15 UNL     1      16.768  66.514  33.902  1.00  0.00     0.677 A 
ATOM     32  H7  UNL     1      17.117  68.439  34.411  1.00  0.00     0.183 HD
HETATM   33  N9  UNL     1      15.977  65.430  34.119  1.00  0.00    -0.177 N 
ATOM     34  H9  UNL     1      16.144  64.560  33.613  1.00  0.00     0.185 HD
BRANCH  31  35
HETATM   35  N8  UNL     1      17.736  66.467  33.063  1.00  0.00    -0.234 N 
ATOM     36  H82 UNL     1      18.318  67.286  32.886  1.00  0.00     0.174 HD
ATOM     37  H81 UNL     1      17.939  65.605  32.557  1.00  0.00     0.174 HD
ENDBRANCH  31  35
ENDBRANCH  25  27
ENDBRANCH  24  25
ENDBRANCH  23  24
ENDBRANCH  22  23
ENDBRANCH  20  22
ENDBRANCH   6  20
ENDBRANCH   5   6
ENDBRANCH   4   5
ENDBRANCH   3   4
TORSDOF 15
ENDMDL
