MODEL 1
REMARK VINA RESULT: -7.480057638      0.000      0.000
REMARK  8 active torsions:
REMARK  status: ('A' for Active; 'I' for Inactive)
REMARK    1  A    between atoms: C4_7  and  S2_8 
REMARK    2  A    between atoms: S2_8  and  C5_9 
REMARK    3  A    between atoms: C5_9  and  C6_10 
REMARK    4  A    between atoms: C6_10  and  C7_11 
REMARK    5  A    between atoms: N2_13  and  C9_14 
REMARK    6  A    between atoms: C10_20  and  N5_21 
REMARK    7  A    between atoms: C13_35  and  S3_36 
REMARK    8  A    between atoms: S3_36  and  N10_37 
ROOT
HETATM    1  C1  UNL     1      26.987 -35.617   7.941  1.00  0.00     0.058 C 
HETATM    2  C2  UNL     1      26.275 -35.102   9.148  1.00  0.00     0.005 A 
HETATM    3  S1  UNL     1      24.634 -35.292   9.524  1.00  0.00    -0.075 SA
HETATM    4  C3  UNL     1      24.592 -34.457  11.014  1.00  0.00     0.092 A 
HETATM    5  N1  UNL     1      23.605 -34.197  11.927  1.00  0.00    -0.330 N 
ATOM      6  H1  UNL     1      22.658 -34.530  11.748  1.00  0.00     0.168 HD
HETATM    7  C4  UNL     1      23.858 -33.515  13.051  1.00  0.00     0.146 A 
HETATM    8  N8  UNL     1      25.097 -33.106  13.240  1.00  0.00    -0.323 N 
ATOM      9  H8  UNL     1      25.304 -32.586  14.093  1.00  0.00     0.169 HD
HETATM   10  C11 UNL     1      26.105 -33.331  12.379  1.00  0.00     0.115 A 
HETATM   11  N9  UNL     1      27.238 -32.887  12.733  1.00  0.00    -0.385 N 
ATOM     12  H91 UNL     1      28.003 -33.058  12.080  1.00  0.00     0.157 HD
ATOM     13  H92 UNL     1      27.402 -32.372  13.598  1.00  0.00     0.157 HD
HETATM   14  C12 UNL     1      25.878 -34.045  11.180  1.00  0.00     0.066 A 
HETATM   15  C13 UNL     1      26.770 -34.377  10.207  1.00  0.00     0.108 A 
ENDROOT
BRANCH   7  16
HETATM   16  S2  UNL     1      22.591 -33.163  14.264  1.00  0.00    -0.093 SA
BRANCH  16  17
HETATM   17  C5  UNL     1      21.222 -32.256  13.475  1.00  0.00     0.088 C 
BRANCH  17  18
HETATM   18  C6  UNL     1      20.869 -31.014  14.278  1.00  0.00     0.071 C 
BRANCH  18  19
HETATM   19  C7  UNL     1      20.695 -29.926  13.254  1.00  0.00     0.045 A 
HETATM   20  C8  UNL     1      21.523 -29.691  12.177  1.00  0.00     0.146 A 
HETATM   21  N2  UNL     1      21.029 -28.628  11.498  1.00  0.00    -0.230 N 
HETATM   22  N6  UNL     1      19.951 -28.252  12.151  1.00  0.00    -0.234 N 
HETATM   23  N7  UNL     1      19.727 -29.005  13.200  1.00  0.00    -0.289 N 
ATOM     24  H6  UNL     1      19.361 -27.468  11.874  1.00  0.00     0.209 HD
ATOM     25  H7  UNL     1      18.953 -28.906  13.857  1.00  0.00     0.188 HD
BRANCH  21  26
HETATM   26  C9  UNL     1      21.556 -28.034  10.322  1.00  0.00     0.195 A 
HETATM   27  N3  UNL     1      21.377 -28.471   9.066  1.00  0.00    -0.220 N 
HETATM   28  O1  UNL     1      22.017 -27.663   8.254  1.00  0.00    -0.153 OA
ATOM     29  H3  UNL     1      20.836 -29.291   8.790  1.00  0.00     0.198 HD
HETATM   30  N4  UNL     1      22.611 -26.713   8.900  1.00  0.00    -0.222 N 
HETATM   31  C10 UNL     1      22.345 -26.912  10.203  1.00  0.00     0.169 A 
ATOM     32  H4  UNL     1      23.171 -25.960   8.500  1.00  0.00     0.198 HD
BRANCH  31  33
HETATM   33  N5  UNL     1      22.766 -26.166  11.167  1.00  0.00    -0.381 N 
ATOM     34  H52 UNL     1      22.168 -25.669  11.827  1.00  0.00     0.157 HD
ATOM     35  H51 UNL     1      23.739 -25.974  11.402  1.00  0.00     0.157 HD
ENDBRANCH  31  33
ENDBRANCH  21  26
ENDBRANCH  18  19
ENDBRANCH  17  18
ENDBRANCH  16  17
ENDBRANCH   7  16
BRANCH  15  36
HETATM   36  S3  UNL     1      28.506 -33.952  10.223  1.00  0.00     0.258 S 
HETATM   37  O2  UNL     1      28.628 -32.417  10.335  1.00  0.00    -0.201 OA
HETATM   38  O3  UNL     1      29.205 -34.427  11.447  1.00  0.00    -0.201 OA
BRANCH  36  39
HETATM   39  N10 UNL     1      29.264 -34.330   8.745  1.00  0.00    -0.324 N 
ATOM     40 2H10 UNL     1      29.236 -33.719   7.929  1.00  0.00     0.169 HD
ATOM     41 1H10 UNL     1      29.740 -35.232   8.783  1.00  0.00     0.169 HD
ENDBRANCH  36  39
ENDBRANCH  15  36
TORSDOF 8
ENDMDL
MODEL 2
REMARK VINA RESULT: -7.330207359      5.273      7.392
REMARK  8 active torsions:
REMARK  status: ('A' for Active; 'I' for Inactive)
REMARK    1  A    between atoms: C4_7  and  S2_8 
REMARK    2  A    between atoms: S2_8  and  C5_9 
REMARK    3  A    between atoms: C5_9  and  C6_10 
REMARK    4  A    between atoms: C6_10  and  C7_11 
REMARK    5  A    between atoms: N2_13  and  C9_14 
REMARK    6  A    between atoms: C10_20  and  N5_21 
REMARK    7  A    between atoms: C13_35  and  S3_36 
REMARK    8  A    between atoms: S3_36  and  N10_37 
ROOT
HETATM    1  C1  UNL     1      24.591 -28.217   5.329  1.00  0.00     0.058 C 
HETATM    2  C2  UNL     1      23.617 -28.557   6.408  1.00  0.00     0.005 A 
HETATM    3  S1  UNL     1      23.040 -27.526   7.623  1.00  0.00    -0.075 SA
HETATM    4  C3  UNL     1      21.997 -28.611   8.434  1.00  0.00     0.092 A 
HETATM    5  N1  UNL     1      21.167 -28.497   9.517  1.00  0.00    -0.330 N 
ATOM      6  H1  UNL     1      21.109 -27.606  10.010  1.00  0.00     0.168 HD
HETATM    7  C4  UNL     1      20.428 -29.530   9.940  1.00  0.00     0.146 A 
HETATM    8  N8  UNL     1      20.535 -30.660   9.270  1.00  0.00    -0.323 N 
ATOM      9  H8  UNL     1      19.977 -31.454   9.582  1.00  0.00     0.169 HD
HETATM   10  C11 UNL     1      21.333 -30.830   8.202  1.00  0.00     0.115 A 
HETATM   11  N9  UNL     1      21.292 -31.977   7.664  1.00  0.00    -0.385 N 
ATOM     12  H91 UNL     1      21.898 -32.107   6.854  1.00  0.00     0.157 HD
ATOM     13  H92 UNL     1      20.717 -32.746   8.008  1.00  0.00     0.157 HD
HETATM   14  C12 UNL     1      22.130 -29.765   7.725  1.00  0.00     0.066 A 
HETATM   15  C13 UNL     1      22.979 -29.748   6.661  1.00  0.00     0.108 A 
ENDROOT
BRANCH   7  16
HETATM   16  S2  UNL     1      19.331 -29.409  11.349  1.00  0.00    -0.093 SA
BRANCH  16  17
HETATM   17  C5  UNL     1      20.018 -30.360  12.743  1.00  0.00     0.088 C 
BRANCH  17  18
HETATM   18  C6  UNL     1      19.227 -31.641  12.959  1.00  0.00     0.071 C 
BRANCH  18  19
HETATM   19  C7  UNL     1      17.801 -31.193  13.133  1.00  0.00     0.045 A 
HETATM   20  C8  UNL     1      16.699 -31.750  12.520  1.00  0.00     0.146 A 
HETATM   21  N2  UNL     1      15.605 -31.067  12.934  1.00  0.00    -0.230 N 
HETATM   22  N6  UNL     1      16.047 -30.143  13.758  1.00  0.00    -0.234 N 
HETATM   23  N7  UNL     1      17.349 -30.194  13.897  1.00  0.00    -0.289 N 
ATOM     24  H6  UNL     1      15.448 -29.468  14.233  1.00  0.00     0.209 HD
ATOM     25  H7  UNL     1      17.916 -29.580  14.482  1.00  0.00     0.188 HD
BRANCH  21  26
HETATM   26  C9  UNL     1      14.255 -31.293  12.561  1.00  0.00     0.195 A 
HETATM   27  N3  UNL     1      13.209 -31.386  13.397  1.00  0.00    -0.220 N 
HETATM   28  O1  UNL     1      12.128 -31.597  12.682  1.00  0.00    -0.153 OA
ATOM     29  H3  UNL     1      13.248 -31.307  14.414  1.00  0.00     0.198 HD
HETATM   30  N4  UNL     1      12.397 -31.648  11.418  1.00  0.00    -0.222 N 
HETATM   31  C10 UNL     1      13.724 -31.461  11.302  1.00  0.00     0.169 A 
ATOM     32  H4  UNL     1      11.734 -31.800  10.658  1.00  0.00     0.198 HD
BRANCH  31  33
HETATM   33  N5  UNL     1      14.375 -31.445  10.189  1.00  0.00    -0.381 N 
ATOM     34  H52 UNL     1      15.372 -31.642  10.090  1.00  0.00     0.157 HD
ATOM     35  H51 UNL     1      13.992 -31.238   9.267  1.00  0.00     0.157 HD
ENDBRANCH  31  33
ENDBRANCH  21  26
ENDBRANCH  18  19
ENDBRANCH  17  18
ENDBRANCH  16  17
ENDBRANCH   7  16
BRANCH  15  36
HETATM   36  S3  UNL     1      23.298 -31.141   5.587  1.00  0.00     0.258 S 
HETATM   37  O2  UNL     1      24.572 -30.839   4.768  1.00  0.00    -0.201 OA
HETATM   38  O3  UNL     1      23.671 -32.372   6.333  1.00  0.00    -0.201 OA
BRANCH  36  39
HETATM   39  N10 UNL     1      22.076 -31.329   4.415  1.00  0.00    -0.324 N 
ATOM     40 2H10 UNL     1      21.615 -32.219   4.226  1.00  0.00     0.169 HD
ATOM     41 1H10 UNL     1      21.869 -30.452   3.938  1.00  0.00     0.169 HD
ENDBRANCH  36  39
ENDBRANCH  15  36
TORSDOF 8
ENDMDL
MODEL 3
REMARK VINA RESULT: -7.324381212      2.234      2.883
REMARK  8 active torsions:
REMARK  status: ('A' for Active; 'I' for Inactive)
REMARK    1  A    between atoms: C4_7  and  S2_8 
REMARK    2  A    between atoms: S2_8  and  C5_9 
REMARK    3  A    between atoms: C5_9  and  C6_10 
REMARK    4  A    between atoms: C6_10  and  C7_11 
REMARK    5  A    between atoms: N2_13  and  C9_14 
REMARK    6  A    between atoms: C10_20  and  N5_21 
REMARK    7  A    between atoms: C13_35  and  S3_36 
REMARK    8  A    between atoms: S3_36  and  N10_37 
ROOT
HETATM    1  C1  UNL     1      28.050 -35.895  14.906  1.00  0.00     0.058 C 
HETATM    2  C2  UNL     1      26.637 -35.470  14.682  1.00  0.00     0.005 A 
HETATM    3  S1  UNL     1      25.314 -35.742  15.706  1.00  0.00    -0.075 SA
HETATM    4  C3  UNL     1      24.092 -34.975  14.789  1.00  0.00     0.092 A 
HETATM    5  N1  UNL     1      22.751 -34.773  14.979  1.00  0.00    -0.330 N 
ATOM      6  H1  UNL     1      22.305 -35.137  15.821  1.00  0.00     0.168 HD
HETATM    7  C4  UNL     1      22.013 -34.105  14.083  1.00  0.00     0.146 A 
HETATM    8  N8  UNL     1      22.633 -33.652  13.012  1.00  0.00    -0.323 N 
ATOM      9  H8  UNL     1      22.083 -33.141  12.322  1.00  0.00     0.169 HD
HETATM   10  C11 UNL     1      23.945 -33.821  12.773  1.00  0.00     0.115 A 
HETATM   11  N9  UNL     1      24.380 -33.297  11.703  1.00  0.00    -0.385 N 
ATOM     12  H91 UNL     1      25.375 -33.426  11.521  1.00  0.00     0.157 HD
ATOM     13  H92 UNL     1      23.794 -32.791  11.039  1.00  0.00     0.157 HD
HETATM   14  C12 UNL     1      24.758 -34.523  13.692  1.00  0.00     0.066 A 
HETATM   15  C13 UNL     1      26.093 -34.777  13.625  1.00  0.00     0.108 A 
ENDROOT
BRANCH   7  16
HETATM   16  S2  UNL     1      20.261 -33.822  14.307  1.00  0.00    -0.093 SA
BRANCH  16  17
HETATM   17  C5  UNL     1      19.820 -32.175  13.664  1.00  0.00     0.088 C 
BRANCH  17  18
HETATM   18  C6  UNL     1      20.784 -31.120  14.184  1.00  0.00     0.071 C 
BRANCH  18  19
HETATM   19  C7  UNL     1      20.662 -29.972  13.219  1.00  0.00     0.045 A 
HETATM   20  C8  UNL     1      21.476 -29.742  12.131  1.00  0.00     0.146 A 
HETATM   21  N2  UNL     1      21.042 -28.615  11.518  1.00  0.00    -0.230 N 
HETATM   22  N6  UNL     1      20.010 -28.199  12.220  1.00  0.00    -0.234 N 
HETATM   23  N7  UNL     1      19.760 -28.986  13.237  1.00  0.00    -0.289 N 
ATOM     24  H6  UNL     1      19.469 -27.362  11.998  1.00  0.00     0.209 HD
ATOM     25  H7  UNL     1      19.012 -28.867  13.920  1.00  0.00     0.188 HD
BRANCH  21  26
HETATM   26  C9  UNL     1      21.579 -28.000  10.358  1.00  0.00     0.195 A 
HETATM   27  N3  UNL     1      21.413 -28.417   9.093  1.00  0.00    -0.220 N 
HETATM   28  O1  UNL     1      22.060 -27.594   8.301  1.00  0.00    -0.153 OA
ATOM     29  H3  UNL     1      20.876 -29.232   8.798  1.00  0.00     0.198 HD
HETATM   30  N4  UNL     1      22.646 -26.654   8.969  1.00  0.00    -0.222 N 
HETATM   31  C10 UNL     1      22.368 -26.875  10.265  1.00  0.00     0.169 A 
ATOM     32  H4  UNL     1      23.209 -25.893   8.587  1.00  0.00     0.198 HD
BRANCH  31  33
HETATM   33  N5  UNL     1      22.778 -26.146  11.246  1.00  0.00    -0.381 N 
ATOM     34  H52 UNL     1      22.178 -25.730  11.959  1.00  0.00     0.157 HD
ATOM     35  H51 UNL     1      23.745 -25.888  11.445  1.00  0.00     0.157 HD
ENDBRANCH  31  33
ENDBRANCH  21  26
ENDBRANCH  18  19
ENDBRANCH  17  18
ENDBRANCH  16  17
ENDBRANCH   7  16
BRANCH  15  36
HETATM   36  S3  UNL     1      27.164 -34.269  12.287  1.00  0.00     0.258 S 
HETATM   37  O2  UNL     1      28.542 -34.935  12.489  1.00  0.00    -0.201 OA
HETATM   38  O3  UNL     1      26.732 -34.801  10.967  1.00  0.00    -0.201 OA
BRANCH  36  39
HETATM   39  N10 UNL     1      27.491 -32.597  12.339  1.00  0.00    -0.324 N 
ATOM     40 2H10 UNL     1      28.133 -32.173  13.007  1.00  0.00     0.169 HD
ATOM     41 1H10 UNL     1      26.969 -32.087  11.625  1.00  0.00     0.169 HD
ENDBRANCH  36  39
ENDBRANCH  15  36
TORSDOF 8
ENDMDL
MODEL 4
REMARK VINA RESULT: -7.279753455      5.343      6.846
REMARK  8 active torsions:
REMARK  status: ('A' for Active; 'I' for Inactive)
REMARK    1  A    between atoms: C4_7  and  S2_8 
REMARK    2  A    between atoms: S2_8  and  C5_9 
REMARK    3  A    between atoms: C5_9  and  C6_10 
REMARK    4  A    between atoms: C6_10  and  C7_11 
REMARK    5  A    between atoms: N2_13  and  C9_14 
REMARK    6  A    between atoms: C10_20  and  N5_21 
REMARK    7  A    between atoms: C13_35  and  S3_36 
REMARK    8  A    between atoms: S3_36  and  N10_37 
ROOT
HETATM    1  C1  UNL     1      26.428 -27.644   4.485  1.00  0.00     0.058 C 
HETATM    2  C2  UNL     1      25.362 -28.368   5.239  1.00  0.00     0.005 A 
HETATM    3  S1  UNL     1      24.115 -27.681   6.157  1.00  0.00    -0.075 SA
HETATM    4  C3  UNL     1      23.336 -29.110   6.680  1.00  0.00     0.092 A 
HETATM    5  N1  UNL     1      22.233 -29.360   7.452  1.00  0.00    -0.330 N 
ATOM      6  H1  UNL     1      21.714 -28.578   7.850  1.00  0.00     0.168 HD
HETATM    7  C4  UNL     1      21.822 -30.611   7.696  1.00  0.00     0.146 A 
HETATM    8  N8  UNL     1      22.524 -31.589   7.159  1.00  0.00    -0.323 N 
ATOM      9  H8  UNL     1      22.222 -32.547   7.336  1.00  0.00     0.169 HD
HETATM   10  C11 UNL     1      23.614 -31.404   6.395  1.00  0.00     0.115 A 
HETATM   11  N9  UNL     1      24.152 -32.458   5.941  1.00  0.00    -0.385 N 
ATOM     12  H91 UNL     1      24.979 -32.318   5.361  1.00  0.00     0.157 HD
ATOM     13  H92 UNL     1      23.815 -33.400   6.142  1.00  0.00     0.157 HD
HETATM   14  C12 UNL     1      24.082 -30.099   6.116  1.00  0.00     0.066 A 
HETATM   15  C13 UNL     1      25.148 -29.722   5.359  1.00  0.00     0.108 A 
ENDROOT
BRANCH   7  16
HETATM   16  S2  UNL     1      20.383 -30.969   8.697  1.00  0.00    -0.093 SA
BRANCH  16  17
HETATM   17  C5  UNL     1      20.367 -29.879  10.157  1.00  0.00     0.088 C 
BRANCH  17  18
HETATM   18  C6  UNL     1      20.664 -30.671  11.420  1.00  0.00     0.071 C 
BRANCH  18  19
HETATM   19  C7  UNL     1      19.363 -30.700  12.176  1.00  0.00     0.045 A 
HETATM   20  C8  UNL     1      18.104 -30.724  11.615  1.00  0.00     0.146 A 
HETATM   21  N2  UNL     1      17.200 -30.745  12.623  1.00  0.00    -0.230 N 
HETATM   22  N6  UNL     1      17.902 -30.733  13.736  1.00  0.00    -0.234 N 
HETATM   23  N7  UNL     1      19.191 -30.707  13.501  1.00  0.00    -0.289 N 
ATOM     24  H6  UNL     1      17.491 -30.744  14.669  1.00  0.00     0.209 HD
ATOM     25  H7  UNL     1      19.929 -30.694  14.204  1.00  0.00     0.188 HD
BRANCH  21  26
HETATM   26  C9  UNL     1      15.786 -30.773  12.515  1.00  0.00     0.195 A 
HETATM   27  N3  UNL     1      15.074 -31.509  11.647  1.00  0.00    -0.220 N 
HETATM   28  O1  UNL     1      13.800 -31.267  11.851  1.00  0.00    -0.153 OA
ATOM     29  H3  UNL     1      15.457 -32.146  10.948  1.00  0.00     0.198 HD
HETATM   30  N4  UNL     1      13.626 -30.413  12.806  1.00  0.00    -0.222 N 
HETATM   31  C10 UNL     1      14.851 -30.079  13.249  1.00  0.00     0.169 A 
ATOM     32  H4  UNL     1      12.734 -30.061  13.156  1.00  0.00     0.198 HD
BRANCH  31  33
HETATM   33  N5  UNL     1      15.092 -29.246  14.203  1.00  0.00    -0.381 N 
ATOM     34  H52 UNL     1      15.240 -29.501  15.180  1.00  0.00     0.157 HD
ATOM     35  H51 UNL     1      15.170 -28.233  14.116  1.00  0.00     0.157 HD
ENDBRANCH  31  33
ENDBRANCH  21  26
ENDBRANCH  18  19
ENDBRANCH  17  18
ENDBRANCH  16  17
ENDBRANCH   7  16
BRANCH  15  36
HETATM   36  S3  UNL     1      26.255 -30.847   4.519  1.00  0.00     0.258 S 
HETATM   37  O2  UNL     1      26.924 -31.749   5.578  1.00  0.00    -0.201 OA
HETATM   38  O3  UNL     1      25.539 -31.826   3.658  1.00  0.00    -0.201 OA
BRANCH  36  39
HETATM   39  N10 UNL     1      27.552 -30.024   3.782  1.00  0.00    -0.324 N 
ATOM     40 2H10 UNL     1      27.536 -29.710   2.812  1.00  0.00     0.169 HD
ATOM     41 1H10 UNL     1      28.331 -29.890   4.426  1.00  0.00     0.169 HD
ENDBRANCH  36  39
ENDBRANCH  15  36
TORSDOF 8
ENDMDL
MODEL 5
REMARK VINA RESULT: -7.254681689      3.328      4.410
REMARK  8 active torsions:
REMARK  status: ('A' for Active; 'I' for Inactive)
REMARK    1  A    between atoms: C4_7  and  S2_8 
REMARK    2  A    between atoms: S2_8  and  C5_9 
REMARK    3  A    between atoms: C5_9  and  C6_10 
REMARK    4  A    between atoms: C6_10  and  C7_11 
REMARK    5  A    between atoms: N2_13  and  C9_14 
REMARK    6  A    between atoms: C10_20  and  N5_21 
REMARK    7  A    between atoms: C13_35  and  S3_36 
REMARK    8  A    between atoms: S3_36  and  N10_37 
ROOT
HETATM    1  C1  UNL     1      27.075 -36.264   8.493  1.00  0.00     0.058 C 
HETATM    2  C2  UNL     1      26.215 -35.514   9.456  1.00  0.00     0.005 A 
HETATM    3  S1  UNL     1      24.530 -35.606   9.604  1.00  0.00    -0.075 SA
HETATM    4  C3  UNL     1      24.304 -34.495  10.883  1.00  0.00     0.092 A 
HETATM    5  N1  UNL     1      23.204 -34.048  11.567  1.00  0.00    -0.330 N 
ATOM      6  H1  UNL     1      22.281 -34.397  11.311  1.00  0.00     0.168 HD
HETATM    7  C4  UNL     1      23.317 -33.163  12.565  1.00  0.00     0.146 A 
HETATM    8  N8  UNL     1      24.531 -32.742  12.861  1.00  0.00    -0.323 N 
ATOM      9  H8  UNL     1      24.631 -32.068  13.620  1.00  0.00     0.169 HD
HETATM   10  C11 UNL     1      25.644 -33.144  12.224  1.00  0.00     0.115 A 
HETATM   11  N9  UNL     1      26.731 -32.655  12.656  1.00  0.00    -0.385 N 
ATOM     12  H91 UNL     1      27.576 -32.960  12.173  1.00  0.00     0.157 HD
ATOM     13  H92 UNL     1      26.787 -31.983  13.421  1.00  0.00     0.157 HD
HETATM   14  C12 UNL     1      25.567 -34.075  11.163  1.00  0.00     0.066 A 
HETATM   15  C13 UNL     1      26.578 -34.603  10.420  1.00  0.00     0.108 A 
ENDROOT
BRANCH   7  16
HETATM   16  S2  UNL     1      21.900 -32.565  13.479  1.00  0.00    -0.093 SA
BRANCH  16  17
HETATM   17  C5  UNL     1      21.372 -30.957  12.807  1.00  0.00     0.088 C 
BRANCH  17  18
HETATM   18  C6  UNL     1      20.340 -31.149  11.706  1.00  0.00     0.071 C 
BRANCH  18  19
HETATM   19  C7  UNL     1      19.010 -30.956  12.384  1.00  0.00     0.045 A 
HETATM   20  C8  UNL     1      17.776 -31.016  11.772  1.00  0.00     0.146 A 
HETATM   21  N2  UNL     1      16.833 -30.789  12.718  1.00  0.00    -0.230 N 
HETATM   22  N6  UNL     1      17.488 -30.603  13.843  1.00  0.00    -0.234 N 
HETATM   23  N7  UNL     1      18.784 -30.696  13.675  1.00  0.00    -0.289 N 
ATOM     24  H6  UNL     1      17.040 -30.408  14.738  1.00  0.00     0.209 HD
ATOM     25  H7  UNL     1      19.493 -30.589  14.401  1.00  0.00     0.188 HD
BRANCH  21  26
HETATM   26  C9  UNL     1      15.425 -30.757  12.543  1.00  0.00     0.195 A 
HETATM   27  N3  UNL     1      14.720 -31.492  11.669  1.00  0.00    -0.220 N 
HETATM   28  O1  UNL     1      13.451 -31.185  11.803  1.00  0.00    -0.153 OA
ATOM     29  H3  UNL     1      15.104 -32.173  11.014  1.00  0.00     0.198 HD
HETATM   30  N4  UNL     1      13.273 -30.287  12.717  1.00  0.00    -0.222 N 
HETATM   31  C10 UNL     1      14.491 -29.993  13.205  1.00  0.00     0.169 A 
ATOM     32  H4  UNL     1      12.384 -29.882  13.010  1.00  0.00     0.198 HD
BRANCH  31  33
HETATM   33  N5  UNL     1      14.728 -29.135  14.138  1.00  0.00    -0.381 N 
ATOM     34  H52 UNL     1      14.907 -29.367  15.116  1.00  0.00     0.157 HD
ATOM     35  H51 UNL     1      14.769 -28.121  14.032  1.00  0.00     0.157 HD
ENDBRANCH  31  33
ENDBRANCH  21  26
ENDBRANCH  18  19
ENDBRANCH  17  18
ENDBRANCH  16  17
ENDBRANCH   7  16
BRANCH  15  36
HETATM   36  S3  UNL     1      28.309 -34.206  10.621  1.00  0.00     0.258 S 
HETATM   37  O2  UNL     1      28.479 -32.680  10.455  1.00  0.00    -0.201 OA
HETATM   38  O3  UNL     1      28.799 -34.441  12.006  1.00  0.00    -0.201 OA
BRANCH  36  39
HETATM   39  N10 UNL     1      29.261 -34.876   9.377  1.00  0.00    -0.324 N 
ATOM     40 2H10 UNL     1      29.819 -35.722   9.493  1.00  0.00     0.169 HD
ATOM     41 1H10 UNL     1      29.200 -34.331   8.517  1.00  0.00     0.169 HD
ENDBRANCH  36  39
ENDBRANCH  15  36
TORSDOF 8
ENDMDL
