MODEL 1
REMARK VINA RESULT: -8.083418075      0.000      0.000
REMARK  10 active torsions:
REMARK  status: ('A' for Active; 'I' for Inactive)
REMARK    1  A    between atoms: C4_4  and  C5_5 
REMARK    2  A    between atoms: C5_5  and  C6_7 
REMARK    3  A    between atoms: C6_7  and  C7_9 
REMARK    4  A    between atoms: C7_9  and  O3_10 
REMARK    5  A    between atoms: C7_9  and  N1_12 
REMARK    6  A    between atoms: N1_12  and  C8_14 
REMARK    7  A    between atoms: C8_14  and  C9_18 
REMARK    8  A    between atoms: C9_18  and  O4_19 
REMARK    9  A    between atoms: N3_21  and  O5_23 
REMARK   10  A    between atoms: C10_27  and  C11_28 
ROOT
HETATM    1  C7  UNL     1      12.214   1.799  15.767  1.00  0.00     0.197 C 
ENDROOT
BRANCH   1   2
HETATM    2  C6  UNL     1      12.595   3.168  15.418  1.00  0.00     0.274 C 
HETATM    3  O2  UNL     1      13.750   3.472  15.101  1.00  0.00    -0.279 OA
BRANCH   2   4
HETATM    4  C5  UNL     1      11.537   4.228  15.434  1.00  0.00     0.248 C 
HETATM    5  O1  UNL     1      10.882   4.383  16.484  1.00  0.00    -0.282 OA
BRANCH   4   6
HETATM    6  C4  UNL     1      11.277   5.014  14.252  1.00  0.00     0.065 C 
HETATM    7  C3  UNL     1      11.356   6.450  14.101  1.00  0.00     0.092 C 
HETATM    8  C2  UNL     1      11.354   6.903  12.633  1.00  0.00     0.126 C 
HETATM    9  C1  UNL     1      10.260   7.934  12.426  1.00  0.00     0.040 C 
HETATM   10  O8  UNL     1      11.207   5.964  11.699  1.00  0.00    -0.351 OA
HETATM   11  C10 UNL     1      10.818   4.702  11.999  1.00  0.00     0.324 C 
HETATM   12  N4  UNL     1      11.725   4.238  13.049  1.00  0.00    -0.355 N 
ATOM     13  H4  UNL     1      12.479   3.554  12.980  1.00  0.00     0.162 HD
BRANCH  11  14
HETATM   14  C11 UNL     1      10.979   3.818  10.820  1.00  0.00     0.224 C 
HETATM   15  O6  UNL     1      11.974   3.908  10.096  1.00  0.00    -0.645 OA
HETATM   16  O7  UNL     1       9.967   2.859  10.561  1.00  0.00    -0.645 OA
ENDBRANCH  11  14
ENDBRANCH   4   6
ENDBRANCH   2   4
ENDBRANCH   1   2
BRANCH   1  17
HETATM   17  O3  UNL     1      11.040   1.717  16.498  1.00  0.00    -0.343 OA
ATOM     18  H3  UNL     1      10.611   0.871  16.438  1.00  0.00     0.219 HD
ENDBRANCH   1  17
BRANCH   1  19
HETATM   19  N1  UNL     1      13.164   0.812  16.010  1.00  0.00    -0.317 N 
ATOM     20  H1  UNL     1      13.414   0.302  15.163  1.00  0.00     0.169 HD
BRANCH  19  21
HETATM   21  C8  UNL     1      13.868   0.342  17.141  1.00  0.00     0.154 C 
HETATM   22  N2  UNL     1      13.258   0.018  18.205  1.00  0.00    -0.382 N 
ATOM     23  H22 UNL     1      12.246   0.140  18.157  1.00  0.00     0.157 HD
ATOM     24  H21 UNL     1      13.766  -0.322  19.022  1.00  0.00     0.157 HD
BRANCH  21  25
HETATM   25  C9  UNL     1      15.309   0.168  17.211  1.00  0.00     0.204 C 
HETATM   26  N3  UNL     1      16.108   1.139  17.183  1.00  0.00    -0.244 N 
ATOM     27  H3  UNL     1      15.710   2.077  17.117  1.00  0.00     0.196 HD
BRANCH  25  28
HETATM   28  O4  UNL     1      15.810  -1.136  17.323  1.00  0.00    -0.342 OA
ATOM     29  H4  UNL     1      16.722  -1.244  17.565  1.00  0.00     0.219 HD
ENDBRANCH  25  28
BRANCH  26  30
HETATM   30  O5  UNL     1      17.480   1.032  17.236  1.00  0.00    -0.288 OA
ATOM     31  H5  UNL     1      18.063   1.691  17.595  1.00  0.00     0.244 HD
ENDBRANCH  26  30
ENDBRANCH  21  25
ENDBRANCH  19  21
ENDBRANCH   1  19
TORSDOF 10
ENDMDL
MODEL 2
REMARK VINA RESULT: -7.842392376      2.011      3.431
REMARK  10 active torsions:
REMARK  status: ('A' for Active; 'I' for Inactive)
REMARK    1  A    between atoms: C4_4  and  C5_5 
REMARK    2  A    between atoms: C5_5  and  C6_7 
REMARK    3  A    between atoms: C6_7  and  C7_9 
REMARK    4  A    between atoms: C7_9  and  O3_10 
REMARK    5  A    between atoms: C7_9  and  N1_12 
REMARK    6  A    between atoms: N1_12  and  C8_14 
REMARK    7  A    between atoms: C8_14  and  C9_18 
REMARK    8  A    between atoms: C9_18  and  O4_19 
REMARK    9  A    between atoms: N3_21  and  O5_23 
REMARK   10  A    between atoms: C10_27  and  C11_28 
ROOT
HETATM    1  C7  UNL     1      11.930   1.654  15.869  1.00  0.00     0.197 C 
ENDROOT
BRANCH   1   2
HETATM    2  C6  UNL     1      11.437   3.032  15.871  1.00  0.00     0.274 C 
HETATM    3  O2  UNL     1      10.986   3.572  16.887  1.00  0.00    -0.279 OA
BRANCH   2   4
HETATM    4  C5  UNL     1      11.500   3.812  14.593  1.00  0.00     0.248 C 
HETATM    5  O1  UNL     1      10.736   3.476  13.666  1.00  0.00    -0.282 OA
BRANCH   4   6
HETATM    6  C4  UNL     1      12.441   4.896  14.449  1.00  0.00     0.065 C 
HETATM    7  C3  UNL     1      12.165   6.282  14.143  1.00  0.00     0.092 C 
HETATM    8  C2  UNL     1      13.362   7.208  14.409  1.00  0.00     0.126 C 
HETATM    9  C1  UNL     1      13.658   8.020  13.162  1.00  0.00     0.040 C 
HETATM   10  O8  UNL     1      14.502   6.642  14.804  1.00  0.00    -0.351 OA
HETATM   11  C10 UNL     1      14.707   5.306  14.734  1.00  0.00     0.324 C 
HETATM   12  N4  UNL     1      13.570   4.686  15.414  1.00  0.00    -0.355 N 
ATOM     13  H4  UNL     1      13.549   4.224  16.323  1.00  0.00     0.162 HD
BRANCH  11  14
HETATM   14  C11 UNL     1      15.944   4.934  15.462  1.00  0.00     0.224 C 
HETATM   15  O6  UNL     1      16.713   5.802  15.884  1.00  0.00    -0.645 OA
HETATM   16  O7  UNL     1      16.208   3.557  15.671  1.00  0.00    -0.645 OA
ENDBRANCH  11  14
ENDBRANCH   4   6
ENDBRANCH   2   4
ENDBRANCH   1   2
BRANCH   1  17
HETATM   17  O3  UNL     1      10.974   0.720  16.232  1.00  0.00    -0.343 OA
ATOM     18  H3  UNL     1      11.322  -0.155  16.354  1.00  0.00     0.219 HD
ENDBRANCH   1  17
BRANCH   1  19
HETATM   19  N1  UNL     1      13.248   1.346  16.190  1.00  0.00    -0.317 N 
ATOM     20  H1  UNL     1      13.914   1.841  15.597  1.00  0.00     0.169 HD
BRANCH  19  21
HETATM   21  C8  UNL     1      13.891   0.517  17.136  1.00  0.00     0.154 C 
HETATM   22  N2  UNL     1      13.229  -0.110  18.017  1.00  0.00    -0.382 N 
ATOM     23  H22 UNL     1      12.223   0.055  17.974  1.00  0.00     0.157 HD
ATOM     24  H21 UNL     1      13.693  -0.709  18.699  1.00  0.00     0.157 HD
BRANCH  21  25
HETATM   25  C9  UNL     1      15.325   0.283  17.197  1.00  0.00     0.204 C 
HETATM   26  N3  UNL     1      16.161   1.222  17.217  1.00  0.00    -0.244 N 
ATOM     27  H3  UNL     1      15.801   2.176  17.196  1.00  0.00     0.196 HD
BRANCH  25  28
HETATM   28  O4  UNL     1      15.773  -1.044  17.246  1.00  0.00    -0.342 OA
ATOM     29  H4  UNL     1      16.702  -1.206  17.125  1.00  0.00     0.219 HD
ENDBRANCH  25  28
BRANCH  26  30
HETATM   30  O5  UNL     1      17.528   1.058  17.265  1.00  0.00    -0.288 OA
ATOM     31  H5  UNL     1      18.129   1.304  16.572  1.00  0.00     0.244 HD
ENDBRANCH  26  30
ENDBRANCH  21  25
ENDBRANCH  19  21
ENDBRANCH   1  19
TORSDOF 10
ENDMDL
MODEL 3
REMARK VINA RESULT: -7.819274982      2.319      3.799
REMARK  10 active torsions:
REMARK  status: ('A' for Active; 'I' for Inactive)
REMARK    1  A    between atoms: C4_4  and  C5_5 
REMARK    2  A    between atoms: C5_5  and  C6_7 
REMARK    3  A    between atoms: C6_7  and  C7_9 
REMARK    4  A    between atoms: C7_9  and  O3_10 
REMARK    5  A    between atoms: C7_9  and  N1_12 
REMARK    6  A    between atoms: N1_12  and  C8_14 
REMARK    7  A    between atoms: C8_14  and  C9_18 
REMARK    8  A    between atoms: C9_18  and  O4_19 
REMARK    9  A    between atoms: N3_21  and  O5_23 
REMARK   10  A    between atoms: C10_27  and  C11_28 
ROOT
HETATM    1  C7  UNL     1      15.600   2.345  16.219  1.00  0.00     0.197 C 
ENDROOT
BRANCH   1   2
HETATM    2  C6  UNL     1      15.852   3.273  15.116  1.00  0.00     0.274 C 
HETATM    3  O2  UNL     1      16.200   2.889  13.995  1.00  0.00    -0.279 OA
BRANCH   2   4
HETATM    4  C5  UNL     1      15.662   4.739  15.362  1.00  0.00     0.248 C 
HETATM    5  O1  UNL     1      16.661   5.408  15.695  1.00  0.00    -0.282 OA
BRANCH   4   6
HETATM    6  C4  UNL     1      14.354   5.333  15.240  1.00  0.00     0.065 C 
HETATM    7  C3  UNL     1      14.022   6.729  15.059  1.00  0.00     0.092 C 
HETATM    8  C2  UNL     1      12.565   6.951  14.625  1.00  0.00     0.126 C 
HETATM    9  C1  UNL     1      11.903   7.938  15.569  1.00  0.00     0.040 C 
HETATM   10  O8  UNL     1      11.777   5.879  14.543  1.00  0.00    -0.351 OA
HETATM   11  C10 UNL     1      12.135   4.679  15.056  1.00  0.00     0.324 C 
HETATM   12  N4  UNL     1      13.458   4.382  14.505  1.00  0.00    -0.355 N 
ATOM     13  H4  UNL     1      13.710   3.695  13.794  1.00  0.00     0.162 HD
BRANCH  11  14
HETATM   14  C11 UNL     1      11.196   3.623  14.606  1.00  0.00     0.224 C 
HETATM   15  O6  UNL     1      11.046   2.590  15.265  1.00  0.00    -0.645 OA
HETATM   16  O7  UNL     1      10.467   3.842  13.410  1.00  0.00    -0.645 OA
ENDBRANCH  11  14
ENDBRANCH   4   6
ENDBRANCH   2   4
ENDBRANCH   1   2
BRANCH   1  17
HETATM   17  O3  UNL     1      16.748   1.940  16.879  1.00  0.00    -0.343 OA
ATOM     18  H3  UNL     1      16.600   1.253  17.519  1.00  0.00     0.219 HD
ENDBRANCH   1  17
BRANCH   1  19
HETATM   19  N1  UNL     1      14.552   1.431  16.184  1.00  0.00    -0.317 N 
ATOM     20  H1  UNL     1      14.052   1.454  15.296  1.00  0.00     0.169 HD
BRANCH  19  21
HETATM   21  C8  UNL     1      14.010   0.480  17.077  1.00  0.00     0.154 C 
HETATM   22  N2  UNL     1      14.730  -0.437  17.576  1.00  0.00    -0.382 N 
ATOM     23  H22 UNL     1      15.701  -0.418  17.263  1.00  0.00     0.157 HD
ATOM     24  H21 UNL     1      14.339  -1.124  18.220  1.00  0.00     0.157 HD
BRANCH  21  25
HETATM   25  C9  UNL     1      12.626   0.451  17.522  1.00  0.00     0.204 C 
HETATM   26  N3  UNL     1      11.666   0.278  16.728  1.00  0.00    -0.244 N 
ATOM     27  H3  UNL     1      11.888   0.147  15.740  1.00  0.00     0.196 HD
BRANCH  25  28
HETATM   28  O4  UNL     1      12.371   0.613  18.889  1.00  0.00    -0.342 OA
ATOM     29  H4  UNL     1      11.526   0.962  19.148  1.00  0.00     0.219 HD
ENDBRANCH  25  28
BRANCH  26  30
HETATM   30  O5  UNL     1      10.338   0.251  17.092  1.00  0.00    -0.288 OA
ATOM     31  H5  UNL     1       9.779  -0.516  17.052  1.00  0.00     0.244 HD
ENDBRANCH  26  30
ENDBRANCH  21  25
ENDBRANCH  19  21
ENDBRANCH   1  19
TORSDOF 10
ENDMDL
MODEL 4
REMARK VINA RESULT: -7.811296090      1.798      2.698
REMARK  10 active torsions:
REMARK  status: ('A' for Active; 'I' for Inactive)
REMARK    1  A    between atoms: C4_4  and  C5_5 
REMARK    2  A    between atoms: C5_5  and  C6_7 
REMARK    3  A    between atoms: C6_7  and  C7_9 
REMARK    4  A    between atoms: C7_9  and  O3_10 
REMARK    5  A    between atoms: C7_9  and  N1_12 
REMARK    6  A    between atoms: N1_12  and  C8_14 
REMARK    7  A    between atoms: C8_14  and  C9_18 
REMARK    8  A    between atoms: C9_18  and  O4_19 
REMARK    9  A    between atoms: N3_21  and  O5_23 
REMARK   10  A    between atoms: C10_27  and  C11_28 
ROOT
HETATM    1  C7  UNL     1      12.001   1.823  16.061  1.00  0.00     0.197 C 
ENDROOT
BRANCH   1   2
HETATM    2  C6  UNL     1      11.775   2.970  15.181  1.00  0.00     0.274 C 
HETATM    3  O2  UNL     1      10.726   3.118  14.545  1.00  0.00    -0.279 OA
BRANCH   2   4
HETATM    4  C5  UNL     1      12.853   4.004  15.066  1.00  0.00     0.248 C 
HETATM    5  O1  UNL     1      14.024   3.609  14.900  1.00  0.00    -0.282 OA
BRANCH   4   6
HETATM    6  C4  UNL     1      12.531   5.406  15.177  1.00  0.00     0.065 C 
HETATM    7  C3  UNL     1      13.220   6.420  15.943  1.00  0.00     0.092 C 
HETATM    8  C2  UNL     1      12.812   7.850  15.554  1.00  0.00     0.126 C 
HETATM    9  C1  UNL     1      12.383   8.607  16.797  1.00  0.00     0.040 C 
HETATM   10  O8  UNL     1      11.849   7.989  14.643  1.00  0.00    -0.351 OA
HETATM   11  C10 UNL     1      11.071   6.953  14.252  1.00  0.00     0.324 C 
HETATM   12  N4  UNL     1      11.988   5.882  13.863  1.00  0.00    -0.355 N 
ATOM     13  H4  UNL     1      12.206   5.541  12.926  1.00  0.00     0.162 HD
BRANCH  11  14
HETATM   14  C11 UNL     1      10.266   7.331  13.065  1.00  0.00     0.224 C 
HETATM   15  O6  UNL     1       9.327   8.125  13.166  1.00  0.00    -0.645 OA
HETATM   16  O7  UNL     1      10.617   6.766  11.813  1.00  0.00    -0.645 OA
ENDBRANCH  11  14
ENDBRANCH   4   6
ENDBRANCH   2   4
ENDBRANCH   1   2
BRANCH   1  17
HETATM   17  O3  UNL     1      11.204   1.824  17.194  1.00  0.00    -0.343 OA
ATOM     18  H3  UNL     1      10.970   2.694  17.495  1.00  0.00     0.219 HD
ENDBRANCH   1  17
BRANCH   1  19
HETATM   19  N1  UNL     1      13.253   1.230  16.187  1.00  0.00    -0.317 N 
ATOM     20  H1  UNL     1      13.839   1.391  15.367  1.00  0.00     0.169 HD
BRANCH  19  21
HETATM   21  C8  UNL     1      13.914   0.461  17.170  1.00  0.00     0.154 C 
HETATM   22  N2  UNL     1      13.267  -0.115  18.097  1.00  0.00    -0.382 N 
ATOM     23  H22 UNL     1      12.260   0.043  18.059  1.00  0.00     0.157 HD
ATOM     24  H21 UNL     1      13.744  -0.671  18.806  1.00  0.00     0.157 HD
BRANCH  21  25
HETATM   25  C9  UNL     1      15.349   0.236  17.224  1.00  0.00     0.204 C 
HETATM   26  N3  UNL     1      16.180   1.181  17.221  1.00  0.00    -0.244 N 
ATOM     27  H3  UNL     1      15.814   2.132  17.187  1.00  0.00     0.196 HD
BRANCH  25  28
HETATM   28  O4  UNL     1      15.806  -1.086  17.293  1.00  0.00    -0.342 OA
ATOM     29  H4  UNL     1      16.193  -1.466  16.513  1.00  0.00     0.219 HD
ENDBRANCH  25  28
BRANCH  26  30
HETATM   30  O5  UNL     1      17.549   1.026  17.262  1.00  0.00    -0.288 OA
ATOM     31  H5  UNL     1      18.166   1.709  17.495  1.00  0.00     0.244 HD
ENDBRANCH  26  30
ENDBRANCH  21  25
ENDBRANCH  19  21
ENDBRANCH   1  19
TORSDOF 10
ENDMDL
MODEL 5
REMARK VINA RESULT: -7.773116983      2.954      4.155
REMARK  10 active torsions:
REMARK  status: ('A' for Active; 'I' for Inactive)
REMARK    1  A    between atoms: C4_4  and  C5_5 
REMARK    2  A    between atoms: C5_5  and  C6_7 
REMARK    3  A    between atoms: C6_7  and  C7_9 
REMARK    4  A    between atoms: C7_9  and  O3_10 
REMARK    5  A    between atoms: C7_9  and  N1_12 
REMARK    6  A    between atoms: N1_12  and  C8_14 
REMARK    7  A    between atoms: C8_14  and  C9_18 
REMARK    8  A    between atoms: C9_18  and  O4_19 
REMARK    9  A    between atoms: N3_21  and  O5_23 
REMARK   10  A    between atoms: C10_27  and  C11_28 
ROOT
HETATM    1  C7  UNL     1      12.385   3.183  15.127  1.00  0.00     0.197 C 
ENDROOT
BRANCH   1   2
HETATM    2  C6  UNL     1      11.249   3.953  14.620  1.00  0.00     0.274 C 
HETATM    3  O2  UNL     1      10.204   3.416  14.236  1.00  0.00    -0.279 OA
BRANCH   2   4
HETATM    4  C5  UNL     1      11.360   5.447  14.583  1.00  0.00     0.248 C 
HETATM    5  O1  UNL     1      12.204   5.950  13.814  1.00  0.00    -0.282 OA
BRANCH   4   6
HETATM    6  C4  UNL     1      10.531   6.259  15.439  1.00  0.00     0.065 C 
HETATM    7  C3  UNL     1      10.920   6.988  16.626  1.00  0.00     0.092 C 
HETATM    8  C2  UNL     1       9.866   8.011  17.078  1.00  0.00     0.126 C 
HETATM    9  C1  UNL     1       9.526   7.773  18.537  1.00  0.00     0.040 C 
HETATM   10  O8  UNL     1       8.721   8.057  16.397  1.00  0.00    -0.351 OA
HETATM   11  C10 UNL     1       8.367   7.094  15.514  1.00  0.00     0.324 C 
HETATM   12  N4  UNL     1       9.499   6.949  14.598  1.00  0.00    -0.355 N 
ATOM     13  H4  UNL     1       9.568   7.245  13.624  1.00  0.00     0.162 HD
BRANCH  11  14
HETATM   14  C11 UNL     1       7.184   7.521  14.729  1.00  0.00     0.224 C 
HETATM   15  O6  UNL     1       6.046   7.188  15.072  1.00  0.00    -0.645 OA
HETATM   16  O7  UNL     1       7.397   8.334  13.588  1.00  0.00    -0.645 OA
ENDBRANCH  11  14
ENDBRANCH   4   6
ENDBRANCH   2   4
ENDBRANCH   1   2
BRANCH   1  17
HETATM   17  O3  UNL     1      13.611   3.629  14.664  1.00  0.00    -0.343 OA
ATOM     18  H3  UNL     1      13.885   4.457  15.042  1.00  0.00     0.219 HD
ENDBRANCH   1  17
BRANCH   1  19
HETATM   19  N1  UNL     1      12.285   1.823  15.401  1.00  0.00    -0.317 N 
ATOM     20  H1  UNL     1      12.446   1.251  14.572  1.00  0.00     0.169 HD
BRANCH  19  21
HETATM   21  C8  UNL     1      12.015   1.039  16.544  1.00  0.00     0.154 C 
HETATM   22  N2  UNL     1      10.824   0.772  16.891  1.00  0.00    -0.382 N 
ATOM     23  H22 UNL     1      10.114   1.180  16.282  1.00  0.00     0.157 HD
ATOM     24  H21 UNL     1      10.629   0.206  17.716  1.00  0.00     0.157 HD
BRANCH  21  25
HETATM   25  C9  UNL     1      13.026   0.457  17.412  1.00  0.00     0.204 C 
HETATM   26  N3  UNL     1      14.072  -0.079  16.963  1.00  0.00    -0.244 N 
ATOM     27  H3  UNL     1      14.200  -0.089  15.951  1.00  0.00     0.196 HD
BRANCH  25  28
HETATM   28  O4  UNL     1      12.817   0.514  18.796  1.00  0.00    -0.342 OA
ATOM     29  H4  UNL     1      13.397   1.063  19.312  1.00  0.00     0.219 HD
ENDBRANCH  25  28
BRANCH  26  30
HETATM   30  O5  UNL     1      15.057  -0.653  17.736  1.00  0.00    -0.288 OA
ATOM     31  H5  UNL     1      15.464  -1.492  17.561  1.00  0.00     0.244 HD
ENDBRANCH  26  30
ENDBRANCH  21  25
ENDBRANCH  19  21
ENDBRANCH   1  19
TORSDOF 10
ENDMDL
