MODEL 1
REMARK VINA RESULT: -9.322420029      0.000      0.000
REMARK  3 active torsions:
REMARK  status: ('A' for Active; 'I' for Inactive)
REMARK       I    between atoms: C2_2  and  N1_4 
REMARK       I    between atoms: C3_6  and  N2_7 
REMARK       I    between atoms: C3_6  and  N3_22 
REMARK       I    between atoms: N2_7  and  C4_9 
REMARK    1  A    between atoms: C4_9  and  C5_11 
REMARK    2  A    between atoms: C8_15  and  C9_16 
REMARK       I    between atoms: N3_22  and  C15_24 
REMARK    3  A    between atoms: C15_24  and  C16_26 
ROOT
HETATM    1  C1  UNL     1      -4.034   7.065  10.769  1.00  0.00     0.118 C 
HETATM    2  C2  UNL     1      -4.354   5.977  11.833  1.00  0.00     0.231 C 
HETATM    3  O1  UNL     1      -5.507   6.113  12.266  1.00  0.00    -0.273 OA
HETATM    4  N1  UNL     1      -3.388   5.040  12.160  1.00  0.00    -0.160 N 
ATOM      5  H1  UNL     1      -2.552   5.230  11.606  1.00  0.00     0.187 HD
HETATM    6  C3  UNL     1      -3.147   3.964  12.948  1.00  0.00     0.690 C 
HETATM    7  N2  UNL     1      -1.885   3.386  12.834  1.00  0.00    -0.155 N 
ATOM      8  H2  UNL     1      -1.647   2.572  13.402  1.00  0.00     0.187 HD
HETATM    9  C4  UNL     1      -0.939   3.915  11.941  1.00  0.00     0.272 C 
HETATM   10  O2  UNL     1      -0.228   4.824  12.379  1.00  0.00    -0.267 OA
HETATM   11  N3  UNL     1      -3.878   3.255  13.889  1.00  0.00    -0.155 N 
ATOM     12  H3  UNL     1      -3.320   2.489  14.266  1.00  0.00     0.187 HD
HETATM   13  C15 UNL     1      -5.128   3.265  14.473  1.00  0.00     0.270 C 
HETATM   14  O4  UNL     1      -6.042   4.055  14.251  1.00  0.00    -0.267 OA
ENDROOT
BRANCH   9  15
HETATM   15  C5  UNL     1      -0.847   3.391  10.606  1.00  0.00     0.069 A 
HETATM   16  C6  UNL     1      -0.096   4.046   9.598  1.00  0.00     0.044 A 
HETATM   17  C7  UNL     1      -0.304   3.389   8.414  1.00  0.00     0.143 A 
HETATM   18  O3  UNL     1      -1.103   2.420   8.654  1.00  0.00    -0.321 OA
HETATM   19  C8  UNL     1      -1.464   2.362   9.949  1.00  0.00     0.101 A 
BRANCH  19  20
HETATM   20  C9  UNL     1      -2.366   1.320  10.386  1.00  0.00    -0.001 A 
HETATM   21  C10 UNL     1      -2.012   0.109  10.865  1.00  0.00     0.014 A 
HETATM   22  C11 UNL     1      -2.930  -0.822  11.355  1.00  0.00     0.001 A 
HETATM   23  C12 UNL     1      -4.264  -0.542  11.369  1.00  0.00     0.000 A 
HETATM   24  C13 UNL     1      -4.666   0.682  10.885  1.00  0.00     0.001 A 
HETATM   25  C14 UNL     1      -3.753   1.585  10.409  1.00  0.00     0.014 A 
ENDBRANCH  19  20
ENDBRANCH   9  15
BRANCH  13  26
HETATM   26  C16 UNL     1      -5.473   2.222  15.505  1.00  0.00     0.035 A 
HETATM   27  C17 UNL     1      -6.578   2.370  16.301  1.00  0.00     0.034 A 
HETATM   28  C18 UNL     1      -6.947   1.444  17.252  1.00  0.00     0.088 A 
HETATM   29  N4  UNL     1      -6.156   0.356  17.373  1.00  0.00    -0.375 N 
HETATM   30  C19 UNL     1      -5.072   0.186  16.607  1.00  0.00     0.088 A 
ATOM     31  H4  UNL     1      -6.392  -0.355  18.066  1.00  0.00     0.164 HD
HETATM   32  C20 UNL     1      -4.686   1.105  15.646  1.00  0.00     0.034 A 
ENDBRANCH  13  26
TORSDOF 3
ENDMDL
MODEL 2
REMARK VINA RESULT: -8.827684060      0.613      1.384
REMARK  3 active torsions:
REMARK  status: ('A' for Active; 'I' for Inactive)
REMARK       I    between atoms: C2_2  and  N1_4 
REMARK       I    between atoms: C3_6  and  N2_7 
REMARK       I    between atoms: C3_6  and  N3_22 
REMARK       I    between atoms: N2_7  and  C4_9 
REMARK    1  A    between atoms: C4_9  and  C5_11 
REMARK    2  A    between atoms: C8_15  and  C9_16 
REMARK       I    between atoms: N3_22  and  C15_24 
REMARK    3  A    between atoms: C15_24  and  C16_26 
ROOT
HETATM    1  C1  UNL     1      -4.648   7.479  10.782  1.00  0.00     0.118 C 
HETATM    2  C2  UNL     1      -4.857   6.371  11.853  1.00  0.00     0.231 C 
HETATM    3  O1  UNL     1      -6.018   6.395  12.289  1.00  0.00    -0.273 OA
HETATM    4  N1  UNL     1      -3.803   5.536  12.183  1.00  0.00    -0.160 N 
ATOM      5  H1  UNL     1      -2.991   5.803  11.626  1.00  0.00     0.187 HD
HETATM    6  C3  UNL     1      -3.455   4.493  12.977  1.00  0.00     0.690 C 
HETATM    7  N2  UNL     1      -2.143   4.041  12.862  1.00  0.00    -0.155 N 
ATOM      8  H2  UNL     1      -1.824   3.259  13.434  1.00  0.00     0.187 HD
HETATM    9  C4  UNL     1      -1.256   4.656  11.964  1.00  0.00     0.272 C 
HETATM   10  O2  UNL     1      -0.637   5.634  12.394  1.00  0.00    -0.267 OA
HETATM   11  N3  UNL     1      -4.111   3.721  13.924  1.00  0.00    -0.155 N 
ATOM     12  H3  UNL     1      -3.479   3.017  14.303  1.00  0.00     0.187 HD
HETATM   13  C15 UNL     1      -5.355   3.612  14.512  1.00  0.00     0.270 C 
HETATM   14  O4  UNL     1      -6.342   4.306  14.288  1.00  0.00    -0.267 OA
ENDROOT
BRANCH   9  15
HETATM   15  C5  UNL     1      -1.115   4.135  10.631  1.00  0.00     0.069 A 
HETATM   16  C6  UNL     1      -0.475   4.875   9.605  1.00  0.00     0.044 A 
HETATM   17  C7  UNL     1      -0.612   4.184   8.430  1.00  0.00     0.143 A 
HETATM   18  O3  UNL     1      -1.270   3.119   8.692  1.00  0.00    -0.321 OA
HETATM   19  C8  UNL     1      -1.600   3.026   9.993  1.00  0.00     0.101 A 
BRANCH  19  20
HETATM   20  C9  UNL     1      -2.347   1.878  10.453  1.00  0.00    -0.001 A 
HETATM   21  C10 UNL     1      -3.693   1.767  10.492  1.00  0.00     0.014 A 
HETATM   22  C11 UNL     1      -4.357   0.596  10.864  1.00  0.00     0.001 A 
HETATM   23  C12 UNL     1      -3.655  -0.518  11.218  1.00  0.00     0.000 A 
HETATM   24  C13 UNL     1      -2.282  -0.444  11.195  1.00  0.00     0.001 A 
HETATM   25  C14 UNL     1      -1.645   0.712  10.827  1.00  0.00     0.014 A 
ENDBRANCH  19  20
ENDBRANCH   9  15
BRANCH  13  26
HETATM   26  C16 UNL     1      -5.593   2.546  15.551  1.00  0.00     0.035 A 
HETATM   27  C17 UNL     1      -4.855   1.393  15.544  1.00  0.00     0.034 A 
HETATM   28  C18 UNL     1      -5.022   0.391  16.476  1.00  0.00     0.088 A 
HETATM   29  N4  UNL     1      -5.967   0.595  17.419  1.00  0.00    -0.375 N 
HETATM   30  C19 UNL     1      -6.701   1.713  17.448  1.00  0.00     0.088 A 
ATOM     31  H4  UNL     1      -6.125  -0.122  18.127  1.00  0.00     0.164 HD
HETATM   32  C20 UNL     1      -6.547   2.731  16.522  1.00  0.00     0.034 A 
ENDBRANCH  13  26
TORSDOF 3
ENDMDL
MODEL 3
REMARK VINA RESULT: -8.785928990      2.075      7.456
REMARK  3 active torsions:
REMARK  status: ('A' for Active; 'I' for Inactive)
REMARK       I    between atoms: C2_2  and  N1_4 
REMARK       I    between atoms: C3_6  and  N2_7 
REMARK       I    between atoms: C3_6  and  N3_22 
REMARK       I    between atoms: N2_7  and  C4_9 
REMARK    1  A    between atoms: C4_9  and  C5_11 
REMARK    2  A    between atoms: C8_15  and  C9_16 
REMARK       I    between atoms: N3_22  and  C15_24 
REMARK    3  A    between atoms: C15_24  and  C16_26 
ROOT
HETATM    1  C1  UNL     1      -3.935  -0.510  12.734  1.00  0.00     0.118 C 
HETATM    2  C2  UNL     1      -3.107   0.425  11.808  1.00  0.00     0.231 C 
HETATM    3  O1  UNL     1      -2.812  -0.154  10.752  1.00  0.00    -0.273 OA
HETATM    4  N1  UNL     1      -2.807   1.710  12.229  1.00  0.00    -0.160 N 
ATOM      5  H1  UNL     1      -3.211   1.849  13.156  1.00  0.00     0.187 HD
HETATM    6  C3  UNL     1      -2.174   2.850  11.861  1.00  0.00     0.690 C 
HETATM    7  N2  UNL     1      -2.212   3.900  12.774  1.00  0.00    -0.155 N 
ATOM      8  H2  UNL     1      -1.753   4.784  12.551  1.00  0.00     0.187 HD
HETATM    9  C4  UNL     1      -2.879   3.751  14.001  1.00  0.00     0.272 C 
HETATM   10  O2  UNL     1      -2.215   3.275  14.927  1.00  0.00    -0.267 OA
HETATM   11  N3  UNL     1      -1.459   3.257  10.744  1.00  0.00    -0.155 N 
ATOM     12  H3  UNL     1      -1.138   4.218  10.862  1.00  0.00     0.187 HD
HETATM   13  C15 UNL     1      -1.049   2.763   9.522  1.00  0.00     0.270 C 
HETATM   14  O4  UNL     1      -1.262   1.643   9.068  1.00  0.00    -0.267 OA
ENDROOT
BRANCH   9  15
HETATM   15  C5  UNL     1      -4.257   4.145  14.116  1.00  0.00     0.069 A 
HETATM   16  C6  UNL     1      -4.739   5.346  13.537  1.00  0.00     0.044 A 
HETATM   17  C7  UNL     1      -6.042   5.515  13.924  1.00  0.00     0.143 A 
HETATM   18  O3  UNL     1      -6.348   4.520  14.669  1.00  0.00    -0.321 OA
HETATM   19  C8  UNL     1      -5.324   3.661  14.822  1.00  0.00     0.101 A 
BRANCH  19  20
HETATM   20  C9  UNL     1      -5.506   2.482  15.638  1.00  0.00    -0.001 A 
HETATM   21  C10 UNL     1      -4.818   1.325  15.530  1.00  0.00     0.014 A 
HETATM   22  C11 UNL     1      -4.980   0.250  16.408  1.00  0.00     0.001 A 
HETATM   23  C12 UNL     1      -5.867   0.324  17.440  1.00  0.00     0.000 A 
HETATM   24  C13 UNL     1      -6.590   1.485  17.582  1.00  0.00     0.001 A 
HETATM   25  C14 UNL     1      -6.420   2.532  16.713  1.00  0.00     0.014 A 
ENDBRANCH  19  20
ENDBRANCH   9  15
BRANCH  13  26
HETATM   26  C16 UNL     1      -0.248   3.644   8.598  1.00  0.00     0.035 A 
HETATM   27  C17 UNL     1      -0.328   3.482   7.241  1.00  0.00     0.034 A 
HETATM   28  C18 UNL     1       0.373   4.265   6.349  1.00  0.00     0.088 A 
HETATM   29  N4  UNL     1       1.162   5.224   6.879  1.00  0.00    -0.375 N 
HETATM   30  C19 UNL     1       1.258   5.404   8.202  1.00  0.00     0.088 A 
ATOM     31  H4  UNL     1       1.700   5.826   6.255  1.00  0.00     0.164 HD
HETATM   32  C20 UNL     1       0.561   4.628   9.113  1.00  0.00     0.034 A 
ENDBRANCH  13  26
TORSDOF 3
ENDMDL
MODEL 4
REMARK VINA RESULT: -8.619928267      2.885      7.580
REMARK  3 active torsions:
REMARK  status: ('A' for Active; 'I' for Inactive)
REMARK       I    between atoms: C2_2  and  N1_4 
REMARK       I    between atoms: C3_6  and  N2_7 
REMARK       I    between atoms: C3_6  and  N3_22 
REMARK       I    between atoms: N2_7  and  C4_9 
REMARK    1  A    between atoms: C4_9  and  C5_11 
REMARK    2  A    between atoms: C8_15  and  C9_16 
REMARK       I    between atoms: N3_22  and  C15_24 
REMARK    3  A    between atoms: C15_24  and  C16_26 
ROOT
HETATM    1  C1  UNL     1      -2.109   4.436  13.831  1.00  0.00     0.118 C 
HETATM    2  C2  UNL     1      -1.164   4.181  12.622  1.00  0.00     0.231 C 
HETATM    3  O1  UNL     1      -0.097   4.796  12.763  1.00  0.00    -0.273 OA
HETATM    4  N1  UNL     1      -1.584   3.355  11.592  1.00  0.00    -0.160 N 
ATOM      5  H1  UNL     1      -2.522   3.019  11.809  1.00  0.00     0.187 HD
HETATM    6  C3  UNL     1      -1.203   2.831  10.402  1.00  0.00     0.690 C 
HETATM    7  N2  UNL     1      -2.122   1.996   9.773  1.00  0.00    -0.155 N 
ATOM      8  H2  UNL     1      -1.890   1.572   8.874  1.00  0.00     0.187 HD
HETATM    9  C4  UNL     1      -3.367   1.733  10.369  1.00  0.00     0.272 C 
HETATM   10  O2  UNL     1      -4.271   2.535  10.115  1.00  0.00    -0.267 OA
HETATM   11  N3  UNL     1      -0.068   2.921   9.610  1.00  0.00    -0.155 N 
ATOM     12  H3  UNL     1      -0.181   2.358   8.767  1.00  0.00     0.187 HD
HETATM   13  C15 UNL     1       1.167   3.536   9.611  1.00  0.00     0.270 C 
HETATM   14  O4  UNL     1       1.621   4.284  10.472  1.00  0.00    -0.267 OA
ENDROOT
BRANCH   9  15
HETATM   15  C5  UNL     1      -3.524   0.583  11.216  1.00  0.00     0.069 A 
HETATM   16  C6  UNL     1      -3.337  -0.735  10.727  1.00  0.00     0.044 A 
HETATM   17  C7  UNL     1      -3.682  -1.613  11.719  1.00  0.00     0.143 A 
HETATM   18  O3  UNL     1      -4.046  -0.918  12.730  1.00  0.00    -0.321 OA
HETATM   19  C8  UNL     1      -3.972   0.405  12.496  1.00  0.00     0.101 A 
BRANCH  19  20
HETATM   20  C9  UNL     1      -4.350   1.329  13.540  1.00  0.00    -0.001 A 
HETATM   21  C10 UNL     1      -5.089   2.449  13.383  1.00  0.00     0.014 A 
HETATM   22  C11 UNL     1      -5.496   3.256  14.448  1.00  0.00     0.001 A 
HETATM   23  C12 UNL     1      -5.154   2.940  15.730  1.00  0.00     0.000 A 
HETATM   24  C13 UNL     1      -4.399   1.809  15.931  1.00  0.00     0.001 A 
HETATM   25  C14 UNL     1      -4.007   1.027  14.876  1.00  0.00     0.014 A 
ENDBRANCH  19  20
ENDBRANCH   9  15
BRANCH  13  26
HETATM   26  C16 UNL     1       2.110   3.307   8.456  1.00  0.00     0.035 A 
HETATM   27  C17 UNL     1       3.458   3.201   8.671  1.00  0.00     0.034 A 
HETATM   28  C18 UNL     1       4.364   2.981   7.655  1.00  0.00     0.088 A 
HETATM   29  N4  UNL     1       3.858   2.872   6.408  1.00  0.00    -0.375 N 
HETATM   30  C19 UNL     1       2.544   2.970   6.172  1.00  0.00     0.088 A 
ATOM     31  H4  UNL     1       4.493   2.710   5.627  1.00  0.00     0.164 HD
HETATM   32  C20 UNL     1       1.619   3.190   7.178  1.00  0.00     0.034 A 
ENDBRANCH  13  26
TORSDOF 3
ENDMDL
MODEL 5
REMARK VINA RESULT: -8.590443736      2.620      6.691
REMARK  3 active torsions:
REMARK  status: ('A' for Active; 'I' for Inactive)
REMARK       I    between atoms: C2_2  and  N1_4 
REMARK       I    between atoms: C3_6  and  N2_7 
REMARK       I    between atoms: C3_6  and  N3_22 
REMARK       I    between atoms: N2_7  and  C4_9 
REMARK    1  A    between atoms: C4_9  and  C5_11 
REMARK    2  A    between atoms: C8_15  and  C9_16 
REMARK       I    between atoms: N3_22  and  C15_24 
REMARK    3  A    between atoms: C15_24  and  C16_26 
ROOT
HETATM    1  C1  UNL     1      -0.729   2.222   8.951  1.00  0.00     0.118 C 
HETATM    2  C2  UNL     1      -1.852   3.298   8.979  1.00  0.00     0.231 C 
HETATM    3  O1  UNL     1      -2.018   3.789   7.854  1.00  0.00    -0.273 OA
HETATM    4  N1  UNL     1      -2.501   3.574  10.172  1.00  0.00    -0.160 N 
ATOM      5  H1  UNL     1      -2.105   2.979  10.901  1.00  0.00     0.187 HD
HETATM    6  C3  UNL     1      -3.468   4.345  10.725  1.00  0.00     0.690 C 
HETATM    7  N2  UNL     1      -3.698   4.166  12.087  1.00  0.00    -0.155 N 
ATOM      8  H2  UNL     1      -4.415   4.719  12.557  1.00  0.00     0.187 HD
HETATM    9  C4  UNL     1      -2.949   3.228  12.816  1.00  0.00     0.272 C 
HETATM   10  O2  UNL     1      -1.881   3.632  13.285  1.00  0.00    -0.267 OA
HETATM   11  N3  UNL     1      -4.334   5.320  10.252  1.00  0.00    -0.155 N 
ATOM     12  H3  UNL     1      -4.923   5.666  11.009  1.00  0.00     0.187 HD
HETATM   13  C15 UNL     1      -4.644   5.967   9.073  1.00  0.00     0.270 C 
HETATM   14  O4  UNL     1      -4.124   5.793   7.975  1.00  0.00    -0.267 OA
ENDROOT
BRANCH   9  15
HETATM   15  C5  UNL     1      -3.445   1.889  12.976  1.00  0.00     0.069 A 
HETATM   16  C6  UNL     1      -3.177   0.876  12.022  1.00  0.00     0.044 A 
HETATM   17  C7  UNL     1      -3.884  -0.243  12.375  1.00  0.00     0.143 A 
HETATM   18  O3  UNL     1      -4.529   0.038  13.443  1.00  0.00    -0.321 OA
HETATM   19  C8  UNL     1      -4.307   1.299  13.859  1.00  0.00     0.101 A 
BRANCH  19  20
HETATM   20  C9  UNL     1      -4.964   1.774  15.055  1.00  0.00    -0.001 A 
HETATM   21  C10 UNL     1      -5.732   2.881  15.156  1.00  0.00     0.014 A 
HETATM   22  C11 UNL     1      -6.413   3.239  16.321  1.00  0.00     0.001 A 
HETATM   23  C12 UNL     1      -6.328   2.467  17.442  1.00  0.00     0.000 A 
HETATM   24  C13 UNL     1      -5.552   1.333  17.380  1.00  0.00     0.001 A 
HETATM   25  C14 UNL     1      -4.891   0.994  16.229  1.00  0.00     0.014 A 
ENDBRANCH  19  20
ENDBRANCH   9  15
BRANCH  13  26
HETATM   26  C16 UNL     1      -5.731   7.012   9.064  1.00  0.00     0.035 A 
HETATM   27  C17 UNL     1      -5.446   8.306   8.721  1.00  0.00     0.034 A 
HETATM   28  C18 UNL     1      -6.401   9.300   8.686  1.00  0.00     0.088 A 
HETATM   29  N4  UNL     1      -7.661   8.938   9.011  1.00  0.00    -0.375 N 
HETATM   30  C19 UNL     1      -7.965   7.680   9.349  1.00  0.00     0.088 A 
ATOM     31  H4  UNL     1      -8.399   9.642   8.999  1.00  0.00     0.164 HD
HETATM   32  C20 UNL     1      -7.020   6.668   9.389  1.00  0.00     0.034 A 
ENDBRANCH  13  26
TORSDOF 3
ENDMDL
