MODEL 1
REMARK VINA RESULT: -9.889723783      0.000      0.000
REMARK  5 active torsions:
REMARK  status: ('A' for Active; 'I' for Inactive)
REMARK    1  A    between atoms: C5_5  and  N1_6 
REMARK    2  A    between atoms: N1_6  and  C6_8 
REMARK    3  A    between atoms: C10_14  and  C11_15 
REMARK    4  A    between atoms: C14_20  and  N4_21 
REMARK       I    between atoms: N4_21  and  C15_23 
REMARK    5  A    between atoms: C15_23  and  C16_25 
ROOT
HETATM    1  C11 UNL     1      -2.328   2.255  11.430  1.00  0.00     0.064 A 
HETATM    2  C12 UNL     1      -3.429   2.478  10.639  1.00  0.00     0.048 A 
HETATM    3  C13 UNL     1      -4.696   2.047  11.039  1.00  0.00     0.108 A 
HETATM    4  N3  UNL     1      -4.788   1.414  12.215  1.00  0.00    -0.202 N 
ATOM      5  H3  UNL     1      -5.702   1.089  12.531  1.00  0.00     0.183 HD
HETATM    6  C14 UNL     1      -3.713   1.194  12.990  1.00  0.00     0.685 A 
HETATM    7  N5  UNL     1      -2.504   1.610  12.601  1.00  0.00    -0.191 N 
ATOM      8  H5  UNL     1      -1.698   1.435  13.202  1.00  0.00     0.184 HD
ENDROOT
BRANCH   1   9
HETATM    9  C10 UNL     1      -0.992   2.703  11.019  1.00  0.00     0.035 A 
HETATM   10  C6  UNL     1      -0.210   3.386  11.938  1.00  0.00     0.118 A 
HETATM   11  N2  UNL     1       1.043   3.836  11.634  1.00  0.00    -0.352 N 
HETATM   12  C7  UNL     1       1.572   3.631  10.416  1.00  0.00     0.090 A 
ATOM     13  H2  UNL     1       1.584   4.335  12.341  1.00  0.00     0.166 HD
HETATM   14  C8  UNL     1       0.809   2.957   9.493  1.00  0.00     0.018 A 
HETATM   15  C9  UNL     1      -0.481   2.479   9.770  1.00  0.00     0.019 A 
BRANCH  10  16
HETATM   16  N1  UNL     1      -0.717   3.584  13.110  1.00  0.00    -0.341 N 
ATOM     17  H1  UNL     1      -0.809   2.815  13.774  1.00  0.00     0.167 HD
BRANCH  16  18
HETATM   18  C5  UNL     1      -1.146   4.896  13.455  1.00  0.00     0.049 A 
HETATM   19  C4  UNL     1      -2.433   5.112  13.937  1.00  0.00     0.033 A 
HETATM   20  C3  UNL     1      -2.798   6.401  14.256  1.00  0.00     0.027 A 
HETATM   21  C2  UNL     1      -1.948   7.471  14.120  1.00  0.00     0.005 A 
HETATM   22  C1  UNL     1      -2.379   8.854  14.476  1.00  0.00     0.068 C 
HETATM   23  N6  UNL     1      -0.712   7.248  13.656  1.00  0.00    -0.367 N 
HETATM   24  C22 UNL     1      -0.346   6.002  13.342  1.00  0.00     0.117 A 
ATOM     25  H6  UNL     1      -0.056   8.021  13.542  1.00  0.00     0.165 HD
ENDBRANCH  16  18
ENDBRANCH  10  16
ENDBRANCH   1   9
BRANCH   6  26
HETATM   26  N4  UNL     1      -3.891   0.566  14.127  1.00  0.00    -0.155 N 
HETATM   27  C15 UNL     1      -3.736   1.249  15.362  1.00  0.00     0.269 C 
HETATM   28  O1  UNL     1      -2.606   1.234  15.934  1.00  0.00    -0.267 OA
ATOM     29  H4  UNL     1      -4.143  -0.423  14.124  1.00  0.00     0.187 HD
BRANCH  27  30
HETATM   30  C16 UNL     1      -4.814   1.967  16.008  1.00  0.00     0.032 A 
HETATM   31  C17 UNL     1      -5.374   3.097  15.452  1.00  0.00     0.017 A 
HETATM   32  C18 UNL     1      -6.399   3.765  16.086  1.00  0.00     0.001 A 
HETATM   33  C19 UNL     1      -6.895   3.334  17.280  1.00  0.00     0.000 A 
HETATM   34  C20 UNL     1      -6.330   2.195  17.841  1.00  0.00     0.001 A 
HETATM   35  C21 UNL     1      -5.305   1.520  17.215  1.00  0.00     0.017 A 
ENDBRANCH  27  30
ENDBRANCH   6  26
TORSDOF 5
ENDMDL
MODEL 2
REMARK VINA RESULT: -9.682574596      3.260      5.652
REMARK  5 active torsions:
REMARK  status: ('A' for Active; 'I' for Inactive)
REMARK    1  A    between atoms: C5_5  and  N1_6 
REMARK    2  A    between atoms: N1_6  and  C6_8 
REMARK    3  A    between atoms: C10_14  and  C11_15 
REMARK    4  A    between atoms: C14_20  and  N4_21 
REMARK       I    between atoms: N4_21  and  C15_23 
REMARK    5  A    between atoms: C15_23  and  C16_25 
ROOT
HETATM    1  C11 UNL     1      -4.216   5.292  14.591  1.00  0.00     0.064 A 
HETATM    2  C12 UNL     1      -5.527   5.352  14.996  1.00  0.00     0.048 A 
HETATM    3  C13 UNL     1      -6.185   4.210  15.458  1.00  0.00     0.108 A 
HETATM    4  N3  UNL     1      -5.489   3.068  15.488  1.00  0.00    -0.202 N 
ATOM      5  H3  UNL     1      -5.946   2.219  15.821  1.00  0.00     0.183 HD
HETATM    6  C14 UNL     1      -4.207   3.006  15.092  1.00  0.00     0.685 A 
HETATM    7  N5  UNL     1      -3.583   4.102  14.651  1.00  0.00    -0.191 N 
ATOM      8  H5  UNL     1      -2.609   4.038  14.354  1.00  0.00     0.184 HD
ENDROOT
BRANCH   1   9
HETATM    9  C10 UNL     1      -3.514   6.486  14.103  1.00  0.00     0.035 A 
HETATM   10  C6  UNL     1      -3.499   6.735  12.739  1.00  0.00     0.118 A 
HETATM   11  N2  UNL     1      -2.869   7.822  12.205  1.00  0.00    -0.352 N 
HETATM   12  C7  UNL     1      -2.231   8.704  12.993  1.00  0.00     0.090 A 
ATOM     13  H2  UNL     1      -2.883   7.966  11.195  1.00  0.00     0.166 HD
HETATM   14  C8  UNL     1      -2.235   8.470  14.347  1.00  0.00     0.018 A 
HETATM   15  C9  UNL     1      -2.873   7.365  14.931  1.00  0.00     0.019 A 
BRANCH  10  16
HETATM   16  N1  UNL     1      -4.114   5.888  11.980  1.00  0.00    -0.341 N 
ATOM     17  H1  UNL     1      -3.856   4.900  11.987  1.00  0.00     0.167 HD
BRANCH  16  18
HETATM   18  C5  UNL     1      -5.156   6.360  11.135  1.00  0.00     0.049 A 
HETATM   19  C4  UNL     1      -6.264   7.005  11.676  1.00  0.00     0.033 A 
HETATM   20  C3  UNL     1      -7.244   7.442  10.814  1.00  0.00     0.027 A 
HETATM   21  C2  UNL     1      -7.171   7.270   9.454  1.00  0.00     0.005 A 
HETATM   22  C1  UNL     1      -8.254   7.758   8.551  1.00  0.00     0.068 C 
HETATM   23  N6  UNL     1      -6.099   6.649   8.946  1.00  0.00    -0.367 N 
HETATM   24  C22 UNL     1      -5.141   6.220   9.772  1.00  0.00     0.117 A 
ATOM     25  H6  UNL     1      -6.014   6.504   7.940  1.00  0.00     0.165 HD
ENDBRANCH  16  18
ENDBRANCH  10  16
ENDBRANCH   1   9
BRANCH   6  26
HETATM   26  N4  UNL     1      -3.598   1.846  15.152  1.00  0.00    -0.155 N 
HETATM   27  C15 UNL     1      -4.082   0.736  14.411  1.00  0.00     0.269 C 
HETATM   28  O1  UNL     1      -4.899  -0.060  14.961  1.00  0.00    -0.267 OA
ATOM     29  H4  UNL     1      -2.769   1.741  15.737  1.00  0.00     0.187 HD
BRANCH  27  30
HETATM   30  C16 UNL     1      -3.685   0.466  13.046  1.00  0.00     0.032 A 
HETATM   31  C17 UNL     1      -2.947   1.365  12.308  1.00  0.00     0.017 A 
HETATM   32  C18 UNL     1      -2.582   1.084  11.009  1.00  0.00     0.001 A 
HETATM   33  C19 UNL     1      -2.935  -0.087  10.409  1.00  0.00     0.000 A 
HETATM   34  C20 UNL     1      -3.680  -0.995  11.153  1.00  0.00     0.001 A 
HETATM   35  C21 UNL     1      -4.050  -0.724  12.452  1.00  0.00     0.017 A 
ENDBRANCH  27  30
ENDBRANCH   6  26
TORSDOF 5
ENDMDL
MODEL 3
REMARK VINA RESULT: -9.664458051      2.366      2.768
REMARK  5 active torsions:
REMARK  status: ('A' for Active; 'I' for Inactive)
REMARK    1  A    between atoms: C5_5  and  N1_6 
REMARK    2  A    between atoms: N1_6  and  C6_8 
REMARK    3  A    between atoms: C10_14  and  C11_15 
REMARK    4  A    between atoms: C14_20  and  N4_21 
REMARK       I    between atoms: N4_21  and  C15_23 
REMARK    5  A    between atoms: C15_23  and  C16_25 
ROOT
HETATM    1  C11 UNL     1      -2.536   1.788  11.811  1.00  0.00     0.064 A 
HETATM    2  C12 UNL     1      -3.000   1.126  10.700  1.00  0.00     0.048 A 
HETATM    3  C13 UNL     1      -3.915   0.079  10.822  1.00  0.00     0.108 A 
HETATM    4  N3  UNL     1      -4.315  -0.249  12.057  1.00  0.00    -0.202 N 
ATOM      5  H3  UNL     1      -4.983  -1.011  12.175  1.00  0.00     0.183 HD
HETATM    6  C14 UNL     1      -3.863   0.396  13.146  1.00  0.00     0.685 A 
HETATM    7  N5  UNL     1      -2.987   1.398  13.021  1.00  0.00    -0.191 N 
ATOM      8  H5  UNL     1      -2.654   1.877  13.858  1.00  0.00     0.184 HD
ENDROOT
BRANCH   1   9
HETATM    9  C10 UNL     1      -1.574   2.891  11.694  1.00  0.00     0.035 A 
HETATM   10  C6  UNL     1      -1.986   4.170  12.035  1.00  0.00     0.118 A 
HETATM   11  N2  UNL     1      -1.154   5.248  11.954  1.00  0.00    -0.352 N 
HETATM   12  C7  UNL     1       0.116   5.108  11.535  1.00  0.00     0.090 A 
ATOM     13  H2  UNL     1      -1.499   6.172  12.215  1.00  0.00     0.166 HD
HETATM   14  C8  UNL     1       0.540   3.847  11.192  1.00  0.00     0.018 A 
HETATM   15  C9  UNL     1      -0.288   2.716  11.264  1.00  0.00     0.019 A 
BRANCH  10  16
HETATM   16  N1  UNL     1      -3.207   4.306  12.439  1.00  0.00    -0.341 N 
ATOM     17  H1  UNL     1      -3.532   3.833  13.282  1.00  0.00     0.167 HD
BRANCH  16  18
HETATM   18  C5  UNL     1      -4.088   5.129  11.683  1.00  0.00     0.049 A 
HETATM   19  C4  UNL     1      -4.895   6.067  12.319  1.00  0.00     0.033 A 
HETATM   20  C3  UNL     1      -5.729   6.838  11.541  1.00  0.00     0.027 A 
HETATM   21  C2  UNL     1      -5.794   6.719  10.174  1.00  0.00     0.005 A 
HETATM   22  C1  UNL     1      -6.711   7.573   9.365  1.00  0.00     0.068 C 
HETATM   23  N6  UNL     1      -5.011   5.812   9.575  1.00  0.00    -0.367 N 
HETATM   24  C22 UNL     1      -4.197   5.058  10.319  1.00  0.00     0.117 A 
ATOM     25  H6  UNL     1      -5.036   5.698   8.562  1.00  0.00     0.165 HD
ENDBRANCH  16  18
ENDBRANCH  10  16
ENDBRANCH   1   9
BRANCH   6  26
HETATM   26  N4  UNL     1      -4.305   0.012  14.318  1.00  0.00    -0.155 N 
HETATM   27  C15 UNL     1      -4.111   0.825  15.466  1.00  0.00     0.269 C 
HETATM   28  O1  UNL     1      -3.083   0.639  16.183  1.00  0.00    -0.267 OA
ATOM     29  H4  UNL     1      -4.793  -0.880  14.408  1.00  0.00     0.187 HD
BRANCH  27  30
HETATM   30  C16 UNL     1      -5.036   1.865  15.862  1.00  0.00     0.032 A 
HETATM   31  C17 UNL     1      -5.222   3.002  15.107  1.00  0.00     0.017 A 
HETATM   32  C18 UNL     1      -6.109   3.979  15.506  1.00  0.00     0.001 A 
HETATM   33  C19 UNL     1      -6.831   3.857  16.655  1.00  0.00     0.000 A 
HETATM   34  C20 UNL     1      -6.642   2.710  17.417  1.00  0.00     0.001 A 
HETATM   35  C21 UNL     1      -5.759   1.727  17.027  1.00  0.00     0.017 A 
ENDBRANCH  27  30
ENDBRANCH   6  26
TORSDOF 5
ENDMDL
MODEL 4
REMARK VINA RESULT: -9.558701712      1.824      1.930
REMARK  5 active torsions:
REMARK  status: ('A' for Active; 'I' for Inactive)
REMARK    1  A    between atoms: C5_5  and  N1_6 
REMARK    2  A    between atoms: N1_6  and  C6_8 
REMARK    3  A    between atoms: C10_14  and  C11_15 
REMARK    4  A    between atoms: C14_20  and  N4_21 
REMARK       I    between atoms: N4_21  and  C15_23 
REMARK    5  A    between atoms: C15_23  and  C16_25 
ROOT
HETATM    1  C11 UNL     1      -2.376   2.339  11.698  1.00  0.00     0.064 A 
HETATM    2  C12 UNL     1      -3.322   2.257  10.705  1.00  0.00     0.048 A 
HETATM    3  C13 UNL     1      -4.511   1.552  10.906  1.00  0.00     0.108 A 
HETATM    4  N3  UNL     1      -4.684   0.965  12.096  1.00  0.00    -0.202 N 
ATOM      5  H3  UNL     1      -5.544   0.443  12.269  1.00  0.00     0.183 HD
HETATM    6  C14 UNL     1      -3.761   1.042  13.069  1.00  0.00     0.685 A 
HETATM    7  N5  UNL     1      -2.626   1.719  12.870  1.00  0.00    -0.191 N 
ATOM      8  H5  UNL     1      -1.935   1.768  13.619  1.00  0.00     0.184 HD
ENDROOT
BRANCH   1   9
HETATM    9  C10 UNL     1      -1.123   3.077  11.498  1.00  0.00     0.035 A 
HETATM   10  C6  UNL     1      -0.956   4.289  12.150  1.00  0.00     0.118 A 
HETATM   11  N2  UNL     1       0.179   5.036  12.016  1.00  0.00    -0.352 N 
HETATM   12  C7  UNL     1       1.190   4.619  11.236  1.00  0.00     0.090 A 
ATOM     13  H2  UNL     1       0.259   5.923  12.515  1.00  0.00     0.166 HD
HETATM   14  C8  UNL     1       1.039   3.420  10.582  1.00  0.00     0.018 A 
HETATM   15  C9  UNL     1      -0.111   2.626  10.696  1.00  0.00     0.019 A 
BRANCH  10  16
HETATM   16  N1  UNL     1      -1.928   4.691  12.901  1.00  0.00    -0.341 N 
ATOM     17  H1  UNL     1      -1.953   4.454  13.893  1.00  0.00     0.167 HD
BRANCH  16  18
HETATM   18  C5  UNL     1      -2.963   5.472  12.316  1.00  0.00     0.049 A 
HETATM   19  C4  UNL     1      -4.262   5.404  12.810  1.00  0.00     0.033 A 
HETATM   20  C3  UNL     1      -5.227   6.180  12.209  1.00  0.00     0.027 A 
HETATM   21  C2  UNL     1      -4.959   7.013  11.150  1.00  0.00     0.005 A 
HETATM   22  C1  UNL     1      -6.031   7.840  10.524  1.00  0.00     0.068 C 
HETATM   23  N6  UNL     1      -3.704   7.070  10.685  1.00  0.00    -0.367 N 
HETATM   24  C22 UNL     1      -2.760   6.322  11.261  1.00  0.00     0.117 A 
ATOM     25  H6  UNL     1      -3.472   7.678   9.900  1.00  0.00     0.165 HD
ENDBRANCH  16  18
ENDBRANCH  10  16
ENDBRANCH   1   9
BRANCH   6  26
HETATM   26  N4  UNL     1      -4.010   0.437  14.205  1.00  0.00    -0.155 N 
HETATM   27  C15 UNL     1      -3.842   1.119  15.439  1.00  0.00     0.269 C 
HETATM   28  O1  UNL     1      -2.731   1.034  16.041  1.00  0.00    -0.267 OA
ATOM     29  H4  UNL     1      -4.328  -0.532  14.203  1.00  0.00     0.187 HD
BRANCH  27  30
HETATM   30  C16 UNL     1      -4.886   1.914  16.050  1.00  0.00     0.032 A 
HETATM   31  C17 UNL     1      -5.436   3.007  15.418  1.00  0.00     0.017 A 
HETATM   32  C18 UNL     1      -6.428   3.749  16.021  1.00  0.00     0.001 A 
HETATM   33  C19 UNL     1      -6.901   3.430  17.258  1.00  0.00     0.000 A 
HETATM   34  C20 UNL     1      -6.346   2.327  17.897  1.00  0.00     0.001 A 
HETATM   35  C21 UNL     1      -5.354   1.579  17.303  1.00  0.00     0.017 A 
ENDBRANCH  27  30
ENDBRANCH   6  26
TORSDOF 5
ENDMDL
MODEL 5
REMARK VINA RESULT: -9.512807908      1.583      1.839
REMARK  5 active torsions:
REMARK  status: ('A' for Active; 'I' for Inactive)
REMARK    1  A    between atoms: C5_5  and  N1_6 
REMARK    2  A    between atoms: N1_6  and  C6_8 
REMARK    3  A    between atoms: C10_14  and  C11_15 
REMARK    4  A    between atoms: C14_20  and  N4_21 
REMARK       I    between atoms: N4_21  and  C15_23 
REMARK    5  A    between atoms: C15_23  and  C16_25 
ROOT
HETATM    1  C11 UNL     1      -2.758   1.277  11.156  1.00  0.00     0.064 A 
HETATM    2  C12 UNL     1      -3.617   0.391  10.552  1.00  0.00     0.048 A 
HETATM    3  C13 UNL     1      -4.395  -0.483  11.314  1.00  0.00     0.108 A 
HETATM    4  N3  UNL     1      -4.267  -0.419  12.645  1.00  0.00    -0.202 N 
ATOM      5  H3  UNL     1      -4.824  -1.047  13.226  1.00  0.00     0.183 HD
HETATM    6  C14 UNL     1      -3.429   0.446  13.239  1.00  0.00     0.685 A 
HETATM    7  N5  UNL     1      -2.687   1.279  12.503  1.00  0.00    -0.191 N 
ATOM      8  H5  UNL     1      -2.055   1.930  12.970  1.00  0.00     0.184 HD
ENDROOT
BRANCH   1   9
HETATM    9  C10 UNL     1      -1.935   2.200  10.364  1.00  0.00     0.035 A 
HETATM   10  C6  UNL     1      -2.286   3.541  10.334  1.00  0.00     0.118 A 
HETATM   11  N2  UNL     1      -1.573   4.463   9.622  1.00  0.00    -0.352 N 
HETATM   12  C7  UNL     1      -0.490   4.099   8.914  1.00  0.00     0.090 A 
ATOM     13  H2  UNL     1      -1.867   5.440   9.628  1.00  0.00     0.166 HD
HETATM   14  C8  UNL     1      -0.131   2.773   8.933  1.00  0.00     0.018 A 
HETATM   15  C9  UNL     1      -0.838   1.799   9.654  1.00  0.00     0.019 A 
BRANCH  10  16
HETATM   16  N1  UNL     1      -3.327   3.893  11.015  1.00  0.00    -0.341 N 
ATOM     17  H1  UNL     1      -4.245   3.503  10.801  1.00  0.00     0.167 HD
BRANCH  16  18
HETATM   18  C5  UNL     1      -3.166   4.834  12.070  1.00  0.00     0.049 A 
HETATM   19  C4  UNL     1      -2.155   4.670  13.012  1.00  0.00     0.033 A 
HETATM   20  C3  UNL     1      -2.043   5.610  14.012  1.00  0.00     0.027 A 
HETATM   21  C2  UNL     1      -2.882   6.692  14.115  1.00  0.00     0.005 A 
HETATM   22  C1  UNL     1      -2.729   7.690  15.213  1.00  0.00     0.068 C 
HETATM   23  N6  UNL     1      -3.850   6.837  13.201  1.00  0.00    -0.367 N 
HETATM   24  C22 UNL     1      -3.969   5.933  12.225  1.00  0.00     0.117 A 
ATOM     25  H6  UNL     1      -4.490   7.630  13.249  1.00  0.00     0.165 HD
ENDBRANCH  16  18
ENDBRANCH  10  16
ENDBRANCH   1   9
BRANCH   6  26
HETATM   26  N4  UNL     1      -3.364   0.443  14.548  1.00  0.00    -0.155 N 
HETATM   27  C15 UNL     1      -3.323   1.663  15.273  1.00  0.00     0.269 C 
HETATM   28  O1  UNL     1      -2.198   2.164  15.569  1.00  0.00    -0.267 OA
ATOM     29  H4  UNL     1      -3.343  -0.445  15.051  1.00  0.00     0.187 HD
BRANCH  27  30
HETATM   30  C16 UNL     1      -4.513   2.370  15.695  1.00  0.00     0.032 A 
HETATM   31  C17 UNL     1      -4.959   3.501  15.047  1.00  0.00     0.017 A 
HETATM   32  C18 UNL     1      -6.095   4.158  15.468  1.00  0.00     0.001 A 
HETATM   33  C19 UNL     1      -6.816   3.716  16.536  1.00  0.00     0.000 A 
HETATM   34  C20 UNL     1      -6.367   2.575  17.191  1.00  0.00     0.001 A 
HETATM   35  C21 UNL     1      -5.233   1.911  16.777  1.00  0.00     0.017 A 
ENDBRANCH  27  30
ENDBRANCH   6  26
TORSDOF 5
ENDMDL
