MODEL 1
REMARK VINA RESULT: -10.032361432      0.000      0.000
REMARK  5 active torsions:
REMARK  status: ('A' for Active; 'I' for Inactive)
REMARK    1  A    between atoms: N1_4  and  C4_5 
REMARK    2  A    between atoms: C4_5  and  C5_6 
REMARK    3  A    between atoms: C5_6  and  C6_7 
REMARK    4  A    between atoms: C10_11  and  N2_12 
REMARK       I    between atoms: N2_12  and  C11_14 
REMARK    5  A    between atoms: C11_14  and  C12_16 
ROOT
HETATM    1  C6  UNL     1      54.331  15.257 128.763  1.00  0.00    -0.013 C 
HETATM    2  C7  UNL     1      53.490  16.203 129.547  1.00  0.00     0.005 C 
HETATM    3  C8  UNL     1      52.048  16.035 129.049  1.00  0.00     0.002 C 
HETATM    4  C9  UNL     1      52.111  16.139 127.548  1.00  0.00     0.025 C 
HETATM    5  C10 UNL     1      52.903  17.349 127.172  1.00  0.00     0.084 C 
HETATM    6  C16 UNL     1      54.375  17.181 127.120  1.00  0.00     0.025 C 
HETATM    7  C17 UNL     1      54.928  15.869 127.527  1.00  0.00     0.007 C 
ENDROOT
BRANCH   1   8
HETATM    8  C5  UNL     1      55.375  14.565 129.602  1.00  0.00     0.034 C 
BRANCH   8   9
HETATM    9  C4  UNL     1      56.718  15.196 129.538  1.00  0.00     0.272 C 
BRANCH   9  10
HETATM   10  N1  UNL     1      56.990  16.102 130.619  1.00  0.00     0.088 N 
HETATM   11  C3  UNL     1      57.064  17.500 130.193  1.00  0.00     0.277 C 
HETATM   12  C2  UNL     1      56.892  18.292 131.494  1.00  0.00     0.021 C 
HETATM   13  C1  UNL     1      55.498  18.037 131.989  1.00  0.00     0.012 C 
HETATM   14  C20 UNL     1      57.964  18.003 132.492  1.00  0.00    -0.007 C 
HETATM   15  C19 UNL     1      58.458  16.590 132.519  1.00  0.00     0.042 C 
HETATM   16  C21 UNL     1      57.422  18.328 133.868  1.00  0.00     0.041 C 
HETATM   17  C23 UNL     1      59.095  18.999 132.235  1.00  0.00     0.219 C 
HETATM   18  C18 UNL     1      58.266  15.831 131.238  1.00  0.00     0.273 C 
HETATM   19  C22 UNL     1      58.515  19.042 134.636  1.00  0.00     0.210 C 
HETATM   20  O2  UNL     1      58.782  20.263 134.062  1.00  0.00    -0.241 OA
HETATM   21  O3  UNL     1      58.672  20.224 132.772  1.00  0.00    -0.240 OA
ENDBRANCH   9  10
ENDBRANCH   8   9
ENDBRANCH   1   8
BRANCH   5  22
HETATM   22  N2  UNL     1      52.366  17.811 125.900  1.00  0.00    -0.356 N 
HETATM   23  C11 UNL     1      51.635  18.998 125.785  1.00  0.00     0.225 C 
HETATM   24  O1  UNL     1      51.397  19.748 126.790  1.00  0.00    -0.273 OA
ATOM     25  H2  UNL     1      52.528  17.250 125.064  1.00  0.00     0.162 HD
BRANCH  23  26
HETATM   26  C12 UNL     1      51.101  19.436 124.477  1.00  0.00     0.030 C 
HETATM   27  C13 UNL     1      49.599  19.688 124.678  1.00  0.00     0.024 C 
HETATM   28  C14 UNL     1      51.798  20.679 124.006  1.00  0.00     0.024 C 
HETATM   29  C15 UNL     1      51.226  18.332 123.445  1.00  0.00     0.024 C 
ENDBRANCH  23  26
ENDBRANCH   5  22
TORSDOF 5
ENDMDL
MODEL 2
REMARK VINA RESULT: -9.841484342      1.972      3.228
REMARK  5 active torsions:
REMARK  status: ('A' for Active; 'I' for Inactive)
REMARK    1  A    between atoms: N1_4  and  C4_5 
REMARK    2  A    between atoms: C4_5  and  C5_6 
REMARK    3  A    between atoms: C5_6  and  C6_7 
REMARK    4  A    between atoms: C10_11  and  N2_12 
REMARK       I    between atoms: N2_12  and  C11_14 
REMARK    5  A    between atoms: C11_14  and  C12_16 
ROOT
HETATM    1  C6  UNL     1      52.317  16.619 127.036  1.00  0.00    -0.013 C 
HETATM    2  C7  UNL     1      51.052  17.305 127.419  1.00  0.00     0.005 C 
HETATM    3  C8  UNL     1      50.147  17.298 126.178  1.00  0.00     0.002 C 
HETATM    4  C9  UNL     1      50.988  17.831 125.048  1.00  0.00     0.025 C 
HETATM    5  C10 UNL     1      51.659  19.093 125.487  1.00  0.00     0.084 C 
HETATM    6  C16 UNL     1      52.935  18.935 126.226  1.00  0.00     0.025 C 
HETATM    7  C17 UNL     1      53.380  17.558 126.538  1.00  0.00     0.007 C 
ENDROOT
BRANCH   1   8
HETATM    8  C5  UNL     1      52.840  15.706 128.115  1.00  0.00     0.034 C 
BRANCH   8   9
HETATM    9  C4  UNL     1      52.875  16.325 129.465  1.00  0.00     0.272 C 
BRANCH   9  10
HETATM   10  N1  UNL     1      54.192  16.424 130.029  1.00  0.00     0.088 N 
HETATM   11  C3  UNL     1      54.844  17.702 129.747  1.00  0.00     0.277 C 
HETATM   12  C2  UNL     1      55.972  17.778 130.782  1.00  0.00     0.021 C 
HETATM   13  C1  UNL     1      55.328  17.881 132.134  1.00  0.00     0.012 C 
HETATM   14  C20 UNL     1      56.954  16.662 130.649  1.00  0.00    -0.007 C 
HETATM   15  C19 UNL     1      56.379  15.340 130.242  1.00  0.00     0.042 C 
HETATM   16  C21 UNL     1      57.635  16.475 131.988  1.00  0.00     0.041 C 
HETATM   17  C23 UNL     1      58.040  17.134 129.681  1.00  0.00     0.219 C 
HETATM   18  C18 UNL     1      55.082  15.422 129.492  1.00  0.00     0.273 C 
HETATM   19  C22 UNL     1      59.111  16.253 131.726  1.00  0.00     0.210 C 
HETATM   20  O2  UNL     1      59.678  17.388 131.195  1.00  0.00    -0.241 OA
HETATM   21  O3  UNL     1      58.860  18.011 130.407  1.00  0.00    -0.240 OA
ENDBRANCH   9  10
ENDBRANCH   8   9
ENDBRANCH   1   8
BRANCH   5  22
HETATM   22  N2  UNL     1      51.824  19.906 124.291  1.00  0.00    -0.356 N 
HETATM   23  C11 UNL     1      52.437  21.163 124.321  1.00  0.00     0.225 C 
HETATM   24  O1  UNL     1      52.889  21.670 125.401  1.00  0.00    -0.273 OA
ATOM     25  H2  UNL     1      51.480  19.548 123.400  1.00  0.00     0.162 HD
BRANCH  23  26
HETATM   26  C12 UNL     1      52.584  21.965 123.088  1.00  0.00     0.030 C 
HETATM   27  C13 UNL     1      54.037  21.791 122.621  1.00  0.00     0.024 C 
HETATM   28  C14 UNL     1      51.621  21.502 122.034  1.00  0.00     0.024 C 
HETATM   29  C15 UNL     1      52.389  23.441 123.375  1.00  0.00     0.024 C 
ENDBRANCH  23  26
ENDBRANCH   5  22
TORSDOF 5
ENDMDL
MODEL 3
REMARK VINA RESULT: -9.714920204      1.311      1.891
REMARK  5 active torsions:
REMARK  status: ('A' for Active; 'I' for Inactive)
REMARK    1  A    between atoms: N1_4  and  C4_5 
REMARK    2  A    between atoms: C4_5  and  C5_6 
REMARK    3  A    between atoms: C5_6  and  C6_7 
REMARK    4  A    between atoms: C10_11  and  N2_12 
REMARK       I    between atoms: N2_12  and  C11_14 
REMARK    5  A    between atoms: C11_14  and  C12_16 
ROOT
HETATM    1  C6  UNL     1      53.194  16.316 127.536  1.00  0.00    -0.013 C 
HETATM    2  C7  UNL     1      51.978  16.966 128.099  1.00  0.00     0.005 C 
HETATM    3  C8  UNL     1      50.860  16.795 127.059  1.00  0.00     0.002 C 
HETATM    4  C9  UNL     1      51.436  17.265 125.750  1.00  0.00     0.025 C 
HETATM    5  C10 UNL     1      52.086  18.596 125.947  1.00  0.00     0.084 C 
HETATM    6  C16 UNL     1      53.485  18.577 126.438  1.00  0.00     0.025 C 
HETATM    7  C17 UNL     1      54.076  17.261 126.769  1.00  0.00     0.007 C 
ENDROOT
BRANCH   1   8
HETATM    8  C5  UNL     1      53.973  15.537 128.565  1.00  0.00     0.034 C 
BRANCH   8   9
HETATM    9  C4  UNL     1      55.431  15.824 128.564  1.00  0.00     0.272 C 
BRANCH   9  10
HETATM   10  N1  UNL     1      55.919  16.377 129.796  1.00  0.00     0.088 N 
HETATM   11  C3  UNL     1      56.092  17.828 129.747  1.00  0.00     0.277 C 
HETATM   12  C2  UNL     1      56.155  18.243 131.221  1.00  0.00     0.021 C 
HETATM   13  C1  UNL     1      54.807  17.963 131.819  1.00  0.00     0.012 C 
HETATM   14  C20 UNL     1      57.297  17.615 131.949  1.00  0.00    -0.007 C 
HETATM   15  C19 UNL     1      57.638  16.217 131.536  1.00  0.00     0.042 C 
HETATM   16  C21 UNL     1      56.953  17.588 133.424  1.00  0.00     0.041 C 
HETATM   17  C23 UNL     1      58.492  18.559 131.809  1.00  0.00     0.219 C 
HETATM   18  C18 UNL     1      57.220  15.855 130.140  1.00  0.00     0.273 C 
HETATM   19  C22 UNL     1      58.196  17.984 134.194  1.00  0.00     0.210 C 
HETATM   20  O2  UNL     1      58.525  19.293 133.930  1.00  0.00    -0.241 OA
HETATM   21  O3  UNL     1      58.266  19.617 132.703  1.00  0.00    -0.240 OA
ENDBRANCH   9  10
ENDBRANCH   8   9
ENDBRANCH   1   8
BRANCH   5  22
HETATM   22  N2  UNL     1      51.966  19.303 124.680  1.00  0.00    -0.356 N 
HETATM   23  C11 UNL     1      50.765  19.883 124.258  1.00  0.00     0.225 C 
HETATM   24  O1  UNL     1      49.702  19.827 124.963  1.00  0.00    -0.273 OA
ATOM     25  H2  UNL     1      52.786  19.377 124.078  1.00  0.00     0.162 HD
BRANCH  23  26
HETATM   26  C12 UNL     1      50.678  20.590 122.963  1.00  0.00     0.030 C 
HETATM   27  C13 UNL     1      51.268  19.645 121.906  1.00  0.00     0.024 C 
HETATM   28  C14 UNL     1      49.254  20.937 122.641  1.00  0.00     0.024 C 
HETATM   29  C15 UNL     1      51.540  21.837 122.968  1.00  0.00     0.024 C 
ENDBRANCH  23  26
ENDBRANCH   5  22
TORSDOF 5
ENDMDL
MODEL 4
REMARK VINA RESULT: -9.629747684      1.926      3.382
REMARK  5 active torsions:
REMARK  status: ('A' for Active; 'I' for Inactive)
REMARK    1  A    between atoms: N1_4  and  C4_5 
REMARK    2  A    between atoms: C4_5  and  C5_6 
REMARK    3  A    between atoms: C5_6  and  C6_7 
REMARK    4  A    between atoms: C10_11  and  N2_12 
REMARK       I    between atoms: N2_12  and  C11_14 
REMARK    5  A    between atoms: C11_14  and  C12_16 
ROOT
HETATM    1  C6  UNL     1      52.297  16.560 126.994  1.00  0.00    -0.013 C 
HETATM    2  C7  UNL     1      51.066  17.284 127.414  1.00  0.00     0.005 C 
HETATM    3  C8  UNL     1      50.132  17.320 126.196  1.00  0.00     0.002 C 
HETATM    4  C9  UNL     1      50.963  17.836 125.050  1.00  0.00     0.025 C 
HETATM    5  C10 UNL     1      51.686  19.070 125.484  1.00  0.00     0.084 C 
HETATM    6  C16 UNL     1      52.973  18.863 126.190  1.00  0.00     0.025 C 
HETATM    7  C17 UNL     1      53.379  17.469 126.478  1.00  0.00     0.007 C 
ENDROOT
BRANCH   1   8
HETATM    8  C5  UNL     1      52.816  15.620 128.051  1.00  0.00     0.034 C 
BRANCH   8   9
HETATM    9  C4  UNL     1      52.952  16.238 129.395  1.00  0.00     0.272 C 
BRANCH   9  10
HETATM   10  N1  UNL     1      54.279  16.700 129.694  1.00  0.00     0.088 N 
HETATM   11  C3  UNL     1      55.271  15.626 129.710  1.00  0.00     0.277 C 
HETATM   12  C2  UNL     1      56.611  16.360 129.580  1.00  0.00     0.021 C 
HETATM   13  C1  UNL     1      56.641  16.991 128.218  1.00  0.00     0.012 C 
HETATM   14  C20 UNL     1      56.863  17.308 130.705  1.00  0.00    -0.007 C 
HETATM   15  C19 UNL     1      55.655  18.015 131.238  1.00  0.00     0.042 C 
HETATM   16  C21 UNL     1      57.837  18.361 130.221  1.00  0.00     0.041 C 
HETATM   17  C23 UNL     1      57.593  16.523 131.796  1.00  0.00     0.219 C 
HETATM   18  C18 UNL     1      54.355  17.302 131.004  1.00  0.00     0.273 C 
HETATM   19  C22 UNL     1      58.840  18.605 131.330  1.00  0.00     0.210 C 
HETATM   20  O2  UNL     1      59.606  17.482 131.537  1.00  0.00    -0.241 OA
HETATM   21  O3  UNL     1      58.922  16.395 131.367  1.00  0.00    -0.240 OA
ENDBRANCH   9  10
ENDBRANCH   8   9
ENDBRANCH   1   8
BRANCH   5  22
HETATM   22  N2  UNL     1      51.849  19.890 124.292  1.00  0.00    -0.356 N 
HETATM   23  C11 UNL     1      52.442  21.156 124.331  1.00  0.00     0.225 C 
HETATM   24  O1  UNL     1      52.878  21.666 125.417  1.00  0.00    -0.273 OA
ATOM     25  H2  UNL     1      51.518  19.529 123.397  1.00  0.00     0.162 HD
BRANCH  23  26
HETATM   26  C12 UNL     1      52.588  21.963 123.102  1.00  0.00     0.030 C 
HETATM   27  C13 UNL     1      54.035  21.776 122.622  1.00  0.00     0.024 C 
HETATM   28  C14 UNL     1      51.611  21.518 122.053  1.00  0.00     0.024 C 
HETATM   29  C15 UNL     1      52.412  23.439 123.400  1.00  0.00     0.024 C 
ENDBRANCH  23  26
ENDBRANCH   5  22
TORSDOF 5
ENDMDL
MODEL 5
REMARK VINA RESULT: -9.595438418      1.935      3.007
REMARK  5 active torsions:
REMARK  status: ('A' for Active; 'I' for Inactive)
REMARK    1  A    between atoms: N1_4  and  C4_5 
REMARK    2  A    between atoms: C4_5  and  C5_6 
REMARK    3  A    between atoms: C5_6  and  C6_7 
REMARK    4  A    between atoms: C10_11  and  N2_12 
REMARK       I    between atoms: N2_12  and  C11_14 
REMARK    5  A    between atoms: C11_14  and  C12_16 
ROOT
HETATM    1  C6  UNL     1      52.355  16.478 127.121  1.00  0.00    -0.013 C 
HETATM    2  C7  UNL     1      51.098  17.142 127.565  1.00  0.00     0.005 C 
HETATM    3  C8  UNL     1      50.132  17.110 126.373  1.00  0.00     0.002 C 
HETATM    4  C9  UNL     1      50.903  17.652 125.198  1.00  0.00     0.025 C 
HETATM    5  C10 UNL     1      51.570  18.929 125.596  1.00  0.00     0.084 C 
HETATM    6  C16 UNL     1      52.885  18.801 126.269  1.00  0.00     0.025 C 
HETATM    7  C17 UNL     1      53.372  17.435 126.564  1.00  0.00     0.007 C 
ENDROOT
BRANCH   1   8
HETATM    8  C5  UNL     1      52.951  15.583 128.177  1.00  0.00     0.034 C 
BRANCH   8   9
HETATM    9  C4  UNL     1      52.947  16.171 129.541  1.00  0.00     0.272 C 
BRANCH   9  10
HETATM   10  N1  UNL     1      54.254  16.331 130.113  1.00  0.00     0.088 N 
HETATM   11  C3  UNL     1      54.863  17.624 129.802  1.00  0.00     0.277 C 
HETATM   12  C2  UNL     1      55.979  17.767 130.844  1.00  0.00     0.021 C 
HETATM   13  C1  UNL     1      55.319  17.882 132.188  1.00  0.00     0.012 C 
HETATM   14  C20 UNL     1      57.000  16.683 130.748  1.00  0.00    -0.007 C 
HETATM   15  C19 UNL     1      56.477  15.331 130.373  1.00  0.00     0.042 C 
HETATM   16  C21 UNL     1      57.676  16.556 132.098  1.00  0.00     0.041 C 
HETATM   17  C23 UNL     1      58.078  17.168 129.778  1.00  0.00     0.219 C 
HETATM   18  C18 UNL     1      55.184  15.348 129.610  1.00  0.00     0.273 C 
HETATM   19  C22 UNL     1      59.161  16.380 131.854  1.00  0.00     0.210 C 
HETATM   20  O2  UNL     1      59.692  17.520 131.297  1.00  0.00    -0.241 OA
HETATM   21  O3  UNL     1      58.860  18.092 130.486  1.00  0.00    -0.240 OA
ENDBRANCH   9  10
ENDBRANCH   8   9
ENDBRANCH   1   8
BRANCH   5  22
HETATM   22  N2  UNL     1      51.657  19.739 124.388  1.00  0.00    -0.356 N 
HETATM   23  C11 UNL     1      50.528  20.301 123.784  1.00  0.00     0.225 C 
HETATM   24  O1  UNL     1      49.354  20.138 124.257  1.00  0.00    -0.273 OA
ATOM     25  H2  UNL     1      52.572  19.901 123.969  1.00  0.00     0.162 HD
BRANCH  23  26
HETATM   26  C12 UNL     1      50.652  21.115 122.556  1.00  0.00     0.030 C 
HETATM   27  C13 UNL     1      51.223  20.190 121.471  1.00  0.00     0.024 C 
HETATM   28  C14 UNL     1      49.318  21.667 122.145  1.00  0.00     0.024 C 
HETATM   29  C15 UNL     1      51.654  22.237 122.749  1.00  0.00     0.024 C 
ENDBRANCH  23  26
ENDBRANCH   5  22
TORSDOF 5
ENDMDL
