MODEL 1
REMARK VINA RESULT: -8.477567899      0.000      0.000
REMARK  16 active torsions:
REMARK  status: ('A' for Active; 'I' for Inactive)
REMARK    1  A    between atoms: C2_2  and  C3_3 
REMARK    2  A    between atoms: C3_3  and  O1_4 
REMARK    3  A    between atoms: O1_4  and  C4_5 
REMARK    4  A    between atoms: C4_5  and  C5_6 
REMARK    5  A    between atoms: C5_6  and  C6_7 
REMARK    6  A    between atoms: C6_7  and  N1_8 
REMARK    7  A    between atoms: C9_11  and  C11_13 
REMARK    8  A    between atoms: C11_13  and  N2_14 
REMARK    9  A    between atoms: C13_19  and  C14_20 
REMARK   10  A    between atoms: C15_21  and  C16_22 
REMARK   11  A    between atoms: C19_25  and  C20_26 
REMARK   12  A    between atoms: C20_26  and  N4_27 
REMARK   13  A    between atoms: C23_30  and  O3_31 
REMARK   14  A    between atoms: C28_39  and  N6_40 
REMARK   15  A    between atoms: N6_40  and  C29_42 
REMARK   16  A    between atoms: C29_42  and  C30_43 
ROOT
HETATM    1  C30 UNL     1      25.552  22.794  19.112  1.00  0.00     0.058 C 
HETATM    2  C31 UNL     1      26.316  23.631  18.114  1.00  0.00     0.033 C 
HETATM    3  C32 UNL     1      26.137  22.836  20.496  1.00  0.00     0.033 C 
HETATM    4  C33 UNL     1      25.641  21.396  18.576  1.00  0.00     0.070 C 
HETATM    5  N7  UNL     1      25.692  20.320  18.159  1.00  0.00    -0.196 NA
ENDROOT
BRANCH   1   6
HETATM    6  C29 UNL     1      24.093  23.112  19.174  1.00  0.00     0.162 C 
BRANCH   6   7
HETATM    7  N6  UNL     1      23.734  24.486  19.081  1.00  0.00    -0.224 N 
ATOM      8  H6  UNL     1      24.473  25.166  19.262  1.00  0.00     0.177 HD
BRANCH   7   9
HETATM    9  C28 UNL     1      22.570  24.959  18.793  1.00  0.00     0.686 A 
HETATM   10  N2  UNL     1      22.436  26.283  18.599  1.00  0.00    -0.132 N 
HETATM   11  C12 UNL     1      21.161  26.708  18.328  1.00  0.00     0.342 A 
HETATM   12  O2  UNL     1      20.889  27.915  18.133  1.00  0.00    -0.246 OA
HETATM   13  N3  UNL     1      20.135  25.847  18.262  1.00  0.00    -0.286 N 
HETATM   14  C13 UNL     1      20.276  24.531  18.454  1.00  0.00     0.180 A 
ATOM     15  H3  UNL     1      19.205  26.213  18.055  1.00  0.00     0.172 HD
HETATM   16  N5  UNL     1      21.521  24.101  18.724  1.00  0.00    -0.168 N 
ATOM     17  H5  UNL     1      21.681  23.106  18.880  1.00  0.00     0.186 HD
BRANCH  10  18
HETATM   18  C11 UNL     1      23.502  27.234  18.668  1.00  0.00     0.163 C 
BRANCH  18  19
HETATM   19  C9  UNL     1      24.471  27.340  17.571  1.00  0.00    -0.009 C 
HETATM   20  C8  UNL     1      24.491  26.299  16.508  1.00  0.00     0.032 C 
HETATM   21  C7  UNL     1      23.486  26.746  15.434  1.00  0.00     0.122 C 
HETATM   22  N1  UNL     1      23.216  28.067  15.780  1.00  0.00    -0.392 N 
HETATM   23  C34 UNL     1      24.095  28.616  16.725  1.00  0.00     0.132 C 
HETATM   24  C10 UNL     1      25.905  27.605  17.990  1.00  0.00     0.018 C 
BRANCH  22  25
HETATM   25  C6  UNL     1      22.241  28.829  15.153  1.00  0.00     0.060 C 
BRANCH  25  26
HETATM   26  C5  UNL     1      21.349  28.123  14.155  1.00  0.00     0.070 C 
BRANCH  26  27
HETATM   27  C4  UNL     1      19.960  28.030  14.751  1.00  0.00     0.172 C 
BRANCH  27  28
HETATM   28  O1  UNL     1      19.731  26.709  15.122  1.00  0.00    -0.391 OA
BRANCH  28  29
HETATM   29  C3  UNL     1      18.515  26.219  14.696  1.00  0.00     0.167 C 
BRANCH  29  30
HETATM   30  C2  UNL     1      17.667  25.618  15.766  1.00  0.00     0.022 C 
HETATM   31  C1  UNL     1      17.091  24.309  15.229  1.00  0.00     0.007 C 
ENDBRANCH  29  30
ENDBRANCH  28  29
ENDBRANCH  27  28
ENDBRANCH  26  27
ENDBRANCH  25  26
ENDBRANCH  22  25
ENDBRANCH  18  19
ENDBRANCH  10  18
BRANCH  14  32
HETATM   32  C14 UNL     1      19.179  23.607  18.380  1.00  0.00    -0.024 C 
HETATM   33  C15 UNL     1      18.243  22.852  18.317  1.00  0.00    -0.059 C 
BRANCH  33  34
HETATM   34  C16 UNL     1      17.110  21.977  18.239  1.00  0.00     0.018 A 
HETATM   35  C17 UNL     1      17.141  20.894  17.391  1.00  0.00     0.021 A 
HETATM   36  C18 UNL     1      16.044  20.060  17.321  1.00  0.00     0.010 A 
HETATM   37  C19 UNL     1      14.906  20.258  18.066  1.00  0.00    -0.030 A 
HETATM   38  C26 UNL     1      14.881  21.342  18.913  1.00  0.00     0.010 A 
HETATM   39  C27 UNL     1      15.983  22.195  18.994  1.00  0.00     0.021 A 
BRANCH  37  40
HETATM   40  C20 UNL     1      13.793  19.297  17.920  1.00  0.00     0.311 C 
BRANCH  40  41
HETATM   41  N4  UNL     1      12.618  20.002  17.513  1.00  0.00     0.092 N 
HETATM   42  C21 UNL     1      12.589  20.282  16.096  1.00  0.00     0.275 C 
HETATM   43  C22 UNL     1      11.226  20.028  15.532  1.00  0.00     0.062 C 
HETATM   44  C23 UNL     1      10.749  18.629  15.821  1.00  0.00     0.121 C 
HETATM   45  C24 UNL     1      10.981  18.260  17.255  1.00  0.00     0.062 C 
HETATM   46  C25 UNL     1      11.379  19.503  18.014  1.00  0.00     0.275 C 
BRANCH  44  47
HETATM   47  O3  UNL     1       9.382  18.575  15.564  1.00  0.00    -0.395 OA
ATOM     48  H3  UNL     1       8.982  18.006  16.210  1.00  0.00     0.210 HD
ENDBRANCH  44  47
ENDBRANCH  40  41
ENDBRANCH  37  40
ENDBRANCH  33  34
ENDBRANCH  14  32
ENDBRANCH   7   9
ENDBRANCH   6   7
ENDBRANCH   1   6
TORSDOF 16
ENDMDL
MODEL 2
REMARK VINA RESULT: -8.205392381      3.396     12.981
REMARK  16 active torsions:
REMARK  status: ('A' for Active; 'I' for Inactive)
REMARK    1  A    between atoms: C2_2  and  C3_3 
REMARK    2  A    between atoms: C3_3  and  O1_4 
REMARK    3  A    between atoms: O1_4  and  C4_5 
REMARK    4  A    between atoms: C4_5  and  C5_6 
REMARK    5  A    between atoms: C5_6  and  C6_7 
REMARK    6  A    between atoms: C6_7  and  N1_8 
REMARK    7  A    between atoms: C9_11  and  C11_13 
REMARK    8  A    between atoms: C11_13  and  N2_14 
REMARK    9  A    between atoms: C13_19  and  C14_20 
REMARK   10  A    between atoms: C15_21  and  C16_22 
REMARK   11  A    between atoms: C19_25  and  C20_26 
REMARK   12  A    between atoms: C20_26  and  N4_27 
REMARK   13  A    between atoms: C23_30  and  O3_31 
REMARK   14  A    between atoms: C28_39  and  N6_40 
REMARK   15  A    between atoms: N6_40  and  C29_42 
REMARK   16  A    between atoms: C29_42  and  C30_43 
ROOT
HETATM    1  C30 UNL     1      13.151  19.152  18.949  1.00  0.00     0.058 C 
HETATM    2  C31 UNL     1      13.785  17.931  18.326  1.00  0.00     0.033 C 
HETATM    3  C32 UNL     1      13.132  19.112  20.451  1.00  0.00     0.033 C 
HETATM    4  C33 UNL     1      11.743  19.149  18.432  1.00  0.00     0.070 C 
HETATM    5  N7  UNL     1      10.662  19.160  18.025  1.00  0.00    -0.196 NA
ENDROOT
BRANCH   1   6
HETATM    6  C29 UNL     1      13.748  20.442  18.488  1.00  0.00     0.162 C 
BRANCH   6   7
HETATM    7  N6  UNL     1      13.258  20.973  17.262  1.00  0.00    -0.224 N 
ATOM      8  H6  UNL     1      12.248  21.089  17.185  1.00  0.00     0.177 HD
BRANCH   7   9
HETATM    9  C28 UNL     1      13.960  21.321  16.240  1.00  0.00     0.686 A 
HETATM   10  N2  UNL     1      13.707  20.745  15.050  1.00  0.00    -0.132 N 
HETATM   11  C12 UNL     1      14.519  21.148  14.021  1.00  0.00     0.342 A 
HETATM   12  O2  UNL     1      14.401  20.690  12.862  1.00  0.00    -0.246 OA
HETATM   13  N3  UNL     1      15.487  22.056  14.208  1.00  0.00    -0.286 N 
HETATM   14  C13 UNL     1      15.733  22.626  15.393  1.00  0.00     0.180 A 
ATOM     15  H3  UNL     1      16.064  22.324  13.410  1.00  0.00     0.172 HD
HETATM   16  N5  UNL     1      14.946  22.237  16.412  1.00  0.00    -0.168 N 
ATOM     17  H5  UNL     1      15.093  22.642  17.337  1.00  0.00     0.186 HD
BRANCH  10  18
HETATM   18  C11 UNL     1      12.690  19.769  14.812  1.00  0.00     0.163 C 
BRANCH  18  19
HETATM   19  C9  UNL     1      11.440  20.151  14.144  1.00  0.00    -0.009 C 
HETATM   20  C8  UNL     1      11.323  20.004  12.669  1.00  0.00     0.032 C 
HETATM   21  C7  UNL     1      10.824  18.574  12.406  1.00  0.00     0.122 C 
HETATM   22  N1  UNL     1      10.419  18.141  13.667  1.00  0.00    -0.392 N 
HETATM   23  C34 UNL     1      10.318  19.156  14.629  1.00  0.00     0.132 C 
HETATM   24  C10 UNL     1      10.889  21.514  14.520  1.00  0.00     0.018 C 
BRANCH  22  25
HETATM   25  C6  UNL     1      10.022  16.837  13.927  1.00  0.00     0.060 C 
BRANCH  25  26
HETATM   26  C5  UNL     1      11.060  15.751  13.752  1.00  0.00     0.070 C 
BRANCH  26  27
HETATM   27  C4  UNL     1      10.430  14.432  14.146  1.00  0.00     0.172 C 
BRANCH  27  28
HETATM   28  O1  UNL     1      11.111  13.935  15.252  1.00  0.00    -0.391 OA
BRANCH  28  29
HETATM   29  C3  UNL     1      10.321  13.807  16.375  1.00  0.00     0.167 C 
BRANCH  29  30
HETATM   30  C2  UNL     1      10.259  15.018  17.245  1.00  0.00     0.022 C 
HETATM   31  C1  UNL     1       8.790  15.387  17.433  1.00  0.00     0.007 C 
ENDBRANCH  29  30
ENDBRANCH  28  29
ENDBRANCH  27  28
ENDBRANCH  26  27
ENDBRANCH  25  26
ENDBRANCH  22  25
ENDBRANCH  18  19
ENDBRANCH  10  18
BRANCH  14  32
HETATM   32  C14 UNL     1      16.768  23.601  15.594  1.00  0.00    -0.024 C 
HETATM   33  C15 UNL     1      17.652  24.400  15.769  1.00  0.00    -0.059 C 
BRANCH  33  34
HETATM   34  C16 UNL     1      18.722  25.329  15.986  1.00  0.00     0.018 A 
HETATM   35  C17 UNL     1      19.463  25.259  17.142  1.00  0.00     0.021 A 
HETATM   36  C18 UNL     1      20.488  26.161  17.343  1.00  0.00     0.010 A 
HETATM   37  C19 UNL     1      20.812  27.139  16.432  1.00  0.00    -0.030 A 
HETATM   38  C26 UNL     1      20.067  27.204  15.277  1.00  0.00     0.010 A 
HETATM   39  C27 UNL     1      19.026  26.299  15.061  1.00  0.00     0.021 A 
BRANCH  37  40
HETATM   40  C20 UNL     1      21.935  28.048  16.744  1.00  0.00     0.311 C 
BRANCH  40  41
HETATM   41  N4  UNL     1      22.897  27.978  15.690  1.00  0.00     0.092 N 
HETATM   42  C21 UNL     1      23.509  29.255  15.398  1.00  0.00     0.275 C 
HETATM   43  C22 UNL     1      24.982  29.102  15.186  1.00  0.00     0.062 C 
HETATM   44  C23 UNL     1      25.652  28.434  16.358  1.00  0.00     0.121 C 
HETATM   45  C24 UNL     1      24.890  27.220  16.800  1.00  0.00     0.062 C 
HETATM   46  C25 UNL     1      23.838  26.909  15.765  1.00  0.00     0.275 C 
BRANCH  44  47
HETATM   47  O3  UNL     1      26.927  28.038  15.960  1.00  0.00    -0.395 OA
ATOM     48  H3  UNL     1      27.555  28.641  16.338  1.00  0.00     0.210 HD
ENDBRANCH  44  47
ENDBRANCH  40  41
ENDBRANCH  37  40
ENDBRANCH  33  34
ENDBRANCH  14  32
ENDBRANCH   7   9
ENDBRANCH   6   7
ENDBRANCH   1   6
TORSDOF 16
ENDMDL
MODEL 3
REMARK VINA RESULT: -8.164232601      2.371      4.779
REMARK  16 active torsions:
REMARK  status: ('A' for Active; 'I' for Inactive)
REMARK    1  A    between atoms: C2_2  and  C3_3 
REMARK    2  A    between atoms: C3_3  and  O1_4 
REMARK    3  A    between atoms: O1_4  and  C4_5 
REMARK    4  A    between atoms: C4_5  and  C5_6 
REMARK    5  A    between atoms: C5_6  and  C6_7 
REMARK    6  A    between atoms: C6_7  and  N1_8 
REMARK    7  A    between atoms: C9_11  and  C11_13 
REMARK    8  A    between atoms: C11_13  and  N2_14 
REMARK    9  A    between atoms: C13_19  and  C14_20 
REMARK   10  A    between atoms: C15_21  and  C16_22 
REMARK   11  A    between atoms: C19_25  and  C20_26 
REMARK   12  A    between atoms: C20_26  and  N4_27 
REMARK   13  A    between atoms: C23_30  and  O3_31 
REMARK   14  A    between atoms: C28_39  and  N6_40 
REMARK   15  A    between atoms: N6_40  and  C29_42 
REMARK   16  A    between atoms: C29_42  and  C30_43 
ROOT
HETATM    1  C30 UNL     1      21.615  24.848  20.241  1.00  0.00     0.058 C 
HETATM    2  C31 UNL     1      20.161  24.862  20.647  1.00  0.00     0.033 C 
HETATM    3  C32 UNL     1      22.478  24.013  21.146  1.00  0.00     0.033 C 
HETATM    4  C33 UNL     1      22.044  26.283  20.330  1.00  0.00     0.070 C 
HETATM    5  N7  UNL     1      22.375  27.389  20.381  1.00  0.00    -0.196 NA
ENDROOT
BRANCH   1   6
HETATM    6  C29 UNL     1      21.841  24.445  18.820  1.00  0.00     0.162 C 
BRANCH   6   7
HETATM    7  N6  UNL     1      21.951  25.495  17.867  1.00  0.00    -0.224 N 
ATOM      8  H6  UNL     1      22.831  26.012  17.855  1.00  0.00     0.177 HD
BRANCH   7   9
HETATM    9  C28 UNL     1      21.054  25.860  17.017  1.00  0.00     0.686 A 
HETATM   10  N2  UNL     1      21.141  27.084  16.464  1.00  0.00    -0.132 N 
HETATM   11  C12 UNL     1      20.131  27.406  15.595  1.00  0.00     0.342 A 
HETATM   12  O2  UNL     1      20.080  28.514  15.014  1.00  0.00    -0.246 OA
HETATM   13  N3  UNL     1      19.138  26.545  15.326  1.00  0.00    -0.286 N 
HETATM   14  C13 UNL     1      19.059  25.329  15.877  1.00  0.00     0.180 A 
ATOM     15  H3  UNL     1      18.410  26.832  14.670  1.00  0.00     0.172 HD
HETATM   16  N5  UNL     1      20.042  25.002  16.735  1.00  0.00    -0.168 N 
ATOM     17  H5  UNL     1      20.027  24.086  17.183  1.00  0.00     0.186 HD
BRANCH  10  18
HETATM   18  C11 UNL     1      22.178  28.032  16.731  1.00  0.00     0.163 C 
BRANCH  18  19
HETATM   19  C9  UNL     1      23.288  28.199  15.786  1.00  0.00    -0.009 C 
HETATM   20  C8  UNL     1      24.427  29.086  16.142  1.00  0.00     0.032 C 
HETATM   21  C7  UNL     1      25.438  28.221  16.911  1.00  0.00     0.122 C 
HETATM   22  N1  UNL     1      24.986  26.923  16.681  1.00  0.00    -0.392 N 
HETATM   23  C34 UNL     1      24.024  26.810  15.667  1.00  0.00     0.132 C 
HETATM   24  C10 UNL     1      22.887  28.508  14.355  1.00  0.00     0.018 C 
BRANCH  22  25
HETATM   25  C6  UNL     1      25.529  25.812  17.309  1.00  0.00     0.060 C 
BRANCH  25  26
HETATM   26  C5  UNL     1      25.474  25.776  18.820  1.00  0.00     0.070 C 
BRANCH  26  27
HETATM   27  C4  UNL     1      25.659  24.340  19.263  1.00  0.00     0.172 C 
BRANCH  27  28
HETATM   28  O1  UNL     1      25.091  23.510  18.303  1.00  0.00    -0.391 OA
BRANCH  28  29
HETATM   29  C3  UNL     1      24.954  22.201  18.717  1.00  0.00     0.167 C 
BRANCH  29  30
HETATM   30  C2  UNL     1      26.220  21.412  18.746  1.00  0.00     0.022 C 
HETATM   31  C1  UNL     1      25.854  19.934  18.636  1.00  0.00     0.007 C 
ENDBRANCH  29  30
ENDBRANCH  28  29
ENDBRANCH  27  28
ENDBRANCH  26  27
ENDBRANCH  25  26
ENDBRANCH  22  25
ENDBRANCH  18  19
ENDBRANCH  10  18
BRANCH  14  32
HETATM   32  C14 UNL     1      17.998  24.405  15.587  1.00  0.00    -0.024 C 
HETATM   33  C15 UNL     1      17.123  23.621  15.325  1.00  0.00    -0.059 C 
BRANCH  33  34
HETATM   34  C16 UNL     1      16.097  22.677  14.992  1.00  0.00     0.018 A 
HETATM   35  C17 UNL     1      15.891  22.329  13.677  1.00  0.00     0.021 A 
HETATM   36  C18 UNL     1      14.898  21.422  13.366  1.00  0.00     0.010 A 
HETATM   37  C19 UNL     1      14.094  20.840  14.317  1.00  0.00    -0.030 A 
HETATM   38  C26 UNL     1      14.305  21.191  15.631  1.00  0.00     0.010 A 
HETATM   39  C27 UNL     1      15.305  22.108  15.960  1.00  0.00     0.021 A 
BRANCH  37  40
HETATM   40  C20 UNL     1      13.066  19.874  13.874  1.00  0.00     0.311 C 
BRANCH  40  41
HETATM   41  N4  UNL     1      11.788  20.304  14.345  1.00  0.00     0.092 N 
HETATM   42  C21 UNL     1      11.456  21.649  13.933  1.00  0.00     0.275 C 
HETATM   43  C22 UNL     1      10.029  21.732  13.489  1.00  0.00     0.062 C 
HETATM   44  C23 UNL     1       9.720  20.737  12.402  1.00  0.00     0.121 C 
HETATM   45  C24 UNL     1      10.259  19.379  12.737  1.00  0.00     0.062 C 
HETATM   46  C25 UNL     1      10.712  19.383  14.177  1.00  0.00     0.275 C 
BRANCH  44  47
HETATM   47  O3  UNL     1       8.336  20.647  12.277  1.00  0.00    -0.395 OA
ATOM     48  H3  UNL     1       8.081  19.749  12.451  1.00  0.00     0.210 HD
ENDBRANCH  44  47
ENDBRANCH  40  41
ENDBRANCH  37  40
ENDBRANCH  33  34
ENDBRANCH  14  32
ENDBRANCH   7   9
ENDBRANCH   6   7
ENDBRANCH   1   6
TORSDOF 16
ENDMDL
MODEL 4
REMARK VINA RESULT: -7.994979540      2.345      4.663
REMARK  16 active torsions:
REMARK  status: ('A' for Active; 'I' for Inactive)
REMARK    1  A    between atoms: C2_2  and  C3_3 
REMARK    2  A    between atoms: C3_3  and  O1_4 
REMARK    3  A    between atoms: O1_4  and  C4_5 
REMARK    4  A    between atoms: C4_5  and  C5_6 
REMARK    5  A    between atoms: C5_6  and  C6_7 
REMARK    6  A    between atoms: C6_7  and  N1_8 
REMARK    7  A    between atoms: C9_11  and  C11_13 
REMARK    8  A    between atoms: C11_13  and  N2_14 
REMARK    9  A    between atoms: C13_19  and  C14_20 
REMARK   10  A    between atoms: C15_21  and  C16_22 
REMARK   11  A    between atoms: C19_25  and  C20_26 
REMARK   12  A    between atoms: C20_26  and  N4_27 
REMARK   13  A    between atoms: C23_30  and  O3_31 
REMARK   14  A    between atoms: C28_39  and  N6_40 
REMARK   15  A    between atoms: N6_40  and  C29_42 
REMARK   16  A    between atoms: C29_42  and  C30_43 
ROOT
HETATM    1  C30 UNL     1      21.555  24.890  20.153  1.00  0.00     0.058 C 
HETATM    2  C31 UNL     1      20.077  24.886  20.465  1.00  0.00     0.033 C 
HETATM    3  C32 UNL     1      22.366  24.049  21.098  1.00  0.00     0.033 C 
HETATM    4  C33 UNL     1      21.964  26.327  20.288  1.00  0.00     0.070 C 
HETATM    5  N7  UNL     1      22.281  27.434  20.376  1.00  0.00    -0.196 NA
ENDROOT
BRANCH   1   6
HETATM    6  C29 UNL     1      21.874  24.510  18.743  1.00  0.00     0.162 C 
BRANCH   6   7
HETATM    7  N6  UNL     1      22.086  25.576  17.825  1.00  0.00    -0.224 N 
ATOM      8  H6  UNL     1      23.018  25.991  17.813  1.00  0.00     0.177 HD
BRANCH   7   9
HETATM    9  C28 UNL     1      21.222  26.070  17.008  1.00  0.00     0.686 A 
HETATM   10  N2  UNL     1      21.430  27.301  16.507  1.00  0.00    -0.132 N 
HETATM   11  C12 UNL     1      20.448  27.766  15.669  1.00  0.00     0.342 A 
HETATM   12  O2  UNL     1      20.506  28.898  15.138  1.00  0.00    -0.246 OA
HETATM   13  N3  UNL     1      19.367  27.027  15.381  1.00  0.00    -0.286 N 
HETATM   14  C13 UNL     1      19.167  25.802  15.881  1.00  0.00     0.180 A 
ATOM     15  H3  UNL     1      18.665  27.416  14.751  1.00  0.00     0.172 HD
HETATM   16  N5  UNL     1      20.122  25.336  16.706  1.00  0.00    -0.168 N 
ATOM     17  H5  UNL     1      20.016  24.407  17.114  1.00  0.00     0.186 HD
BRANCH  10  18
HETATM   18  C11 UNL     1      22.563  28.123  16.796  1.00  0.00     0.163 C 
BRANCH  18  19
HETATM   19  C9  UNL     1      23.690  28.185  15.858  1.00  0.00    -0.009 C 
HETATM   20  C8  UNL     1      24.906  28.960  16.222  1.00  0.00     0.032 C 
HETATM   21  C7  UNL     1      25.826  28.001  16.995  1.00  0.00     0.122 C 
HETATM   22  N1  UNL     1      25.254  26.753  16.761  1.00  0.00    -0.392 N 
HETATM   23  C34 UNL     1      24.292  26.732  15.741  1.00  0.00     0.132 C 
HETATM   24  C10 UNL     1      23.329  28.532  14.426  1.00  0.00     0.018 C 
BRANCH  22  25
HETATM   25  C6  UNL     1      25.685  25.594  17.391  1.00  0.00     0.060 C 
BRANCH  25  26
HETATM   26  C5  UNL     1      25.749  25.611  18.902  1.00  0.00     0.070 C 
BRANCH  26  27
HETATM   27  C4  UNL     1      25.632  24.183  19.393  1.00  0.00     0.172 C 
BRANCH  27  28
HETATM   28  O1  UNL     1      25.047  23.421  18.387  1.00  0.00    -0.391 OA
BRANCH  28  29
HETATM   29  C3  UNL     1      24.880  22.095  18.726  1.00  0.00     0.167 C 
BRANCH  29  30
HETATM   30  C2  UNL     1      26.135  21.290  18.763  1.00  0.00     0.022 C 
HETATM   31  C1  UNL     1      25.848  19.941  18.108  1.00  0.00     0.007 C 
ENDBRANCH  29  30
ENDBRANCH  28  29
ENDBRANCH  27  28
ENDBRANCH  26  27
ENDBRANCH  25  26
ENDBRANCH  22  25
ENDBRANCH  18  19
ENDBRANCH  10  18
BRANCH  14  32
HETATM   32  C14 UNL     1      18.012  25.008  15.570  1.00  0.00    -0.024 C 
HETATM   33  C15 UNL     1      17.057  24.321  15.310  1.00  0.00    -0.059 C 
BRANCH  33  34
HETATM   34  C16 UNL     1      15.938  23.480  15.002  1.00  0.00     0.018 A 
HETATM   35  C17 UNL     1      16.148  22.244  14.436  1.00  0.00     0.021 A 
HETATM   36  C18 UNL     1      15.063  21.444  14.140  1.00  0.00     0.010 A 
HETATM   37  C19 UNL     1      13.765  21.824  14.385  1.00  0.00    -0.030 A 
HETATM   38  C26 UNL     1      13.561  23.061  14.952  1.00  0.00     0.010 A 
HETATM   39  C27 UNL     1      14.648  23.882  15.256  1.00  0.00     0.021 A 
BRANCH  37  40
HETATM   40  C20 UNL     1      12.679  20.885  14.036  1.00  0.00     0.311 C 
BRANCH  40  41
HETATM   41  N4  UNL     1      11.781  20.777  15.143  1.00  0.00     0.092 N 
HETATM   42  C21 UNL     1      10.401  20.997  14.776  1.00  0.00     0.275 C 
HETATM   43  C22 UNL     1       9.508  20.001  15.447  1.00  0.00     0.062 C 
HETATM   44  C23 UNL     1       9.929  18.584  15.159  1.00  0.00     0.121 C 
HETATM   45  C24 UNL     1      11.408  18.410  15.333  1.00  0.00     0.062 C 
HETATM   46  C25 UNL     1      11.964  19.648  15.995  1.00  0.00     0.275 C 
BRANCH  44  47
HETATM   47  O3  UNL     1       9.274  17.746  16.058  1.00  0.00    -0.395 OA
ATOM     48  H3  UNL     1       8.961  16.988  15.581  1.00  0.00     0.210 HD
ENDBRANCH  44  47
ENDBRANCH  40  41
ENDBRANCH  37  40
ENDBRANCH  33  34
ENDBRANCH  14  32
ENDBRANCH   7   9
ENDBRANCH   6   7
ENDBRANCH   1   6
TORSDOF 16
ENDMDL
MODEL 5
REMARK VINA RESULT: -7.976755334      3.348     12.727
REMARK  16 active torsions:
REMARK  status: ('A' for Active; 'I' for Inactive)
REMARK    1  A    between atoms: C2_2  and  C3_3 
REMARK    2  A    between atoms: C3_3  and  O1_4 
REMARK    3  A    between atoms: O1_4  and  C4_5 
REMARK    4  A    between atoms: C4_5  and  C5_6 
REMARK    5  A    between atoms: C5_6  and  C6_7 
REMARK    6  A    between atoms: C6_7  and  N1_8 
REMARK    7  A    between atoms: C9_11  and  C11_13 
REMARK    8  A    between atoms: C11_13  and  N2_14 
REMARK    9  A    between atoms: C13_19  and  C14_20 
REMARK   10  A    between atoms: C15_21  and  C16_22 
REMARK   11  A    between atoms: C19_25  and  C20_26 
REMARK   12  A    between atoms: C20_26  and  N4_27 
REMARK   13  A    between atoms: C23_30  and  O3_31 
REMARK   14  A    between atoms: C28_39  and  N6_40 
REMARK   15  A    between atoms: N6_40  and  C29_42 
REMARK   16  A    between atoms: C29_42  and  C30_43 
ROOT
HETATM    1  C30 UNL     1      13.200  18.798  19.238  1.00  0.00     0.058 C 
HETATM    2  C31 UNL     1      13.949  17.806  18.380  1.00  0.00     0.033 C 
HETATM    3  C32 UNL     1      13.431  18.605  20.711  1.00  0.00     0.033 C 
HETATM    4  C33 UNL     1      11.754  18.549  18.924  1.00  0.00     0.070 C 
HETATM    5  N7  UNL     1      10.640  18.373  18.674  1.00  0.00    -0.196 NA
ENDROOT
BRANCH   1   6
HETATM    6  C29 UNL     1      13.454  20.225  18.873  1.00  0.00     0.162 C 
BRANCH   6   7
HETATM    7  N6  UNL     1      12.885  20.684  17.653  1.00  0.00    -0.224 N 
ATOM      8  H6  UNL     1      11.866  20.700  17.601  1.00  0.00     0.177 HD
BRANCH   7   9
HETATM    9  C28 UNL     1      13.524  21.081  16.607  1.00  0.00     0.686 A 
HETATM   10  N2  UNL     1      13.181  20.581  15.406  1.00  0.00    -0.132 N 
HETATM   11  C12 UNL     1      13.930  21.032  14.349  1.00  0.00     0.342 A 
HETATM   12  O2  UNL     1      13.728  20.645  13.176  1.00  0.00    -0.246 OA
HETATM   13  N3  UNL     1      14.927  21.912  14.523  1.00  0.00    -0.286 N 
HETATM   14  C13 UNL     1      15.261  22.407  15.720  1.00  0.00     0.180 A 
ATOM     15  H3  UNL     1      15.455  22.218  13.705  1.00  0.00     0.172 HD
HETATM   16  N5  UNL     1      14.536  21.971  16.766  1.00  0.00    -0.168 N 
ATOM     17  H5  UNL     1      14.752  22.317  17.700  1.00  0.00     0.186 HD
BRANCH  10  18
HETATM   18  C11 UNL     1      12.132  19.637  15.180  1.00  0.00     0.163 C 
BRANCH  18  19
HETATM   19  C9  UNL     1      10.752  20.097  14.984  1.00  0.00    -0.009 C 
HETATM   20  C8  UNL     1      10.502  21.381  14.276  1.00  0.00     0.032 C 
HETATM   21  C7  UNL     1      10.422  21.051  12.777  1.00  0.00     0.122 C 
HETATM   22  N1  UNL     1      10.324  19.662  12.761  1.00  0.00    -0.392 N 
HETATM   23  C34 UNL     1      10.046  19.081  14.007  1.00  0.00     0.132 C 
HETATM   24  C10 UNL     1       9.872  20.068  16.219  1.00  0.00     0.018 C 
BRANCH  22  25
HETATM   25  C6  UNL     1      10.369  18.915  11.594  1.00  0.00     0.060 C 
BRANCH  25  26
HETATM   26  C5  UNL     1       9.628  19.463  10.394  1.00  0.00     0.070 C 
BRANCH  26  27
HETATM   27  C4  UNL     1       8.210  18.933  10.435  1.00  0.00     0.172 C 
BRANCH  27  28
HETATM   28  O1  UNL     1       7.351  20.001  10.673  1.00  0.00    -0.391 OA
BRANCH  28  29
HETATM   29  C3  UNL     1       7.783  21.190  10.124  1.00  0.00     0.167 C 
BRANCH  29  30
HETATM   30  C2  UNL     1       6.948  22.380  10.457  1.00  0.00     0.022 C 
HETATM   31  C1  UNL     1       7.295  22.815  11.878  1.00  0.00     0.007 C 
ENDBRANCH  29  30
ENDBRANCH  28  29
ENDBRANCH  27  28
ENDBRANCH  26  27
ENDBRANCH  25  26
ENDBRANCH  22  25
ENDBRANCH  18  19
ENDBRANCH  10  18
BRANCH  14  32
HETATM   32  C14 UNL     1      16.326  23.352  15.907  1.00  0.00    -0.024 C 
HETATM   33  C15 UNL     1      17.233  24.126  16.075  1.00  0.00    -0.059 C 
BRANCH  33  34
HETATM   34  C16 UNL     1      18.328  25.026  16.288  1.00  0.00     0.018 A 
HETATM   35  C17 UNL     1      18.959  25.058  17.509  1.00  0.00     0.021 A 
HETATM   36  C18 UNL     1      20.009  25.932  17.705  1.00  0.00     0.010 A 
HETATM   37  C19 UNL     1      20.465  26.784  16.727  1.00  0.00    -0.030 A 
HETATM   38  C26 UNL     1      19.830  26.747  15.506  1.00  0.00     0.010 A 
HETATM   39  C27 UNL     1      18.766  25.870  15.294  1.00  0.00     0.021 A 
BRANCH  37  40
HETATM   40  C20 UNL     1      21.604  27.672  17.041  1.00  0.00     0.311 C 
BRANCH  40  41
HETATM   41  N4  UNL     1      22.515  27.668  15.941  1.00  0.00     0.092 N 
HETATM   42  C21 UNL     1      22.802  28.993  15.440  1.00  0.00     0.275 C 
HETATM   43  C22 UNL     1      24.262  29.146  15.148  1.00  0.00     0.062 C 
HETATM   44  C23 UNL     1      25.112  28.822  16.349  1.00  0.00     0.121 C 
HETATM   45  C24 UNL     1      24.670  27.546  17.000  1.00  0.00     0.062 C 
HETATM   46  C25 UNL     1      23.681  26.860  16.091  1.00  0.00     0.275 C 
BRANCH  44  47
HETATM   47  O3  UNL     1      26.428  28.669  15.920  1.00  0.00    -0.395 OA
ATOM     48  H3  UNL     1      27.002  28.859  16.652  1.00  0.00     0.210 HD
ENDBRANCH  44  47
ENDBRANCH  40  41
ENDBRANCH  37  40
ENDBRANCH  33  34
ENDBRANCH  14  32
ENDBRANCH   7   9
ENDBRANCH   6   7
ENDBRANCH   1   6
TORSDOF 16
ENDMDL
