MODEL 1
REMARK VINA RESULT: -8.187471568      0.000      0.000
REMARK  6 active torsions:
REMARK  status: ('A' for Active; 'I' for Inactive)
REMARK    1  A    between atoms: C2_2  and  O1_3 
REMARK    2  A    between atoms: C2_2  and  C3_5 
REMARK    3  A    between atoms: C2_2  and  C9_11 
REMARK    4  A    between atoms: N1_17  and  O2_18 
REMARK    5  A    between atoms: C15_20  and  C16_21 
REMARK    6  A    between atoms: N3_30  and  O3_31 
ROOT
HETATM    1  C9  UNL     1      -3.718   3.741  13.775  1.00  0.00    -0.017 A 
HETATM    2  C10 UNL     1      -3.954   4.917  14.469  1.00  0.00     0.013 A 
HETATM    3  C11 UNL     1      -3.046   5.947  14.350  1.00  0.00     0.035 A 
HETATM    4  C12 UNL     1      -1.906   5.825  13.548  1.00  0.00     0.093 A 
HETATM    5  C13 UNL     1      -1.691   4.652  12.867  1.00  0.00     0.093 A 
HETATM    6  C14 UNL     1      -2.585   3.634  12.984  1.00  0.00     0.045 A 
HETATM    7  N1  UNL     1      -0.581   4.577  12.110  1.00  0.00    -0.219 N 
HETATM    8  C15 UNL     1       0.302   5.585  11.999  1.00  0.00     0.113 A 
HETATM    9  C22 UNL     1       0.058   6.744  12.691  1.00  0.00     0.172 A 
HETATM   10  C23 UNL     1       0.949   7.870  12.628  1.00  0.00     0.122 C 
HETATM   11  N2  UNL     1       1.672   8.752  12.570  1.00  0.00    -0.190 NA
HETATM   12  N3  UNL     1      -1.037   6.846  13.450  1.00  0.00    -0.210 N 
ENDROOT
BRANCH   8  13
HETATM   13  C16 UNL     1       1.498   5.498  11.182  1.00  0.00    -0.004 A 
HETATM   14  C17 UNL     1       1.459   5.799   9.842  1.00  0.00     0.014 A 
HETATM   15  C18 UNL     1       2.597   5.721   9.041  1.00  0.00     0.001 A 
HETATM   16  C19 UNL     1       3.799   5.328   9.618  1.00  0.00     0.000 A 
HETATM   17  C20 UNL     1       3.838   5.026  10.960  1.00  0.00     0.001 A 
HETATM   18  C21 UNL     1       2.699   5.112  11.723  1.00  0.00     0.014 A 
ENDBRANCH   8  13
BRANCH  12  19
HETATM   19  O3  UNL     1      -1.314   8.011  14.167  1.00  0.00    -0.281 OA
ATOM     20  H3  UNL     1      -1.998   8.582  13.839  1.00  0.00     0.245 HD
ENDBRANCH  12  19
BRANCH   7  21
HETATM   21  O2  UNL     1      -0.310   3.418  11.400  1.00  0.00    -0.282 OA
ATOM     22  H2  UNL     1      -0.515   3.374  10.473  1.00  0.00     0.245 HD
ENDBRANCH   7  21
BRANCH   1  23
HETATM   23  C2  UNL     1      -4.685   2.611  13.892  1.00  0.00     0.108 C 
HETATM   24  C1  UNL     1      -3.941   1.329  13.546  1.00  0.00     0.056 C 
BRANCH  23  25
HETATM   25  O1  UNL     1      -5.655   2.776  12.907  1.00  0.00    -0.380 OA
ATOM     26  H1  UNL     1      -5.880   3.699  12.908  1.00  0.00     0.211 HD
ENDBRANCH  23  25
BRANCH  23  27
HETATM   27  C3  UNL     1      -5.276   2.486  15.231  1.00  0.00    -0.020 A 
HETATM   28  C4  UNL     1      -6.298   3.288  15.692  1.00  0.00     0.010 A 
HETATM   29  C5  UNL     1      -6.819   3.120  16.975  1.00  0.00     0.001 A 
HETATM   30  C6  UNL     1      -6.339   2.155  17.830  1.00  0.00     0.000 A 
HETATM   31  C7  UNL     1      -5.318   1.347  17.379  1.00  0.00     0.001 A 
HETATM   32  C8  UNL     1      -4.804   1.512  16.113  1.00  0.00     0.010 A 
ENDBRANCH  23  27
ENDBRANCH   1  23
TORSDOF 6
ENDMDL
MODEL 2
REMARK VINA RESULT: -8.168201986      0.174      1.254
REMARK  6 active torsions:
REMARK  status: ('A' for Active; 'I' for Inactive)
REMARK    1  A    between atoms: C2_2  and  O1_3 
REMARK    2  A    between atoms: C2_2  and  C3_5 
REMARK    3  A    between atoms: C2_2  and  C9_11 
REMARK    4  A    between atoms: N1_17  and  O2_18 
REMARK    5  A    between atoms: C15_20  and  C16_21 
REMARK    6  A    between atoms: N3_30  and  O3_31 
ROOT
HETATM    1  C9  UNL     1      -3.628   3.849  13.745  1.00  0.00    -0.017 A 
HETATM    2  C10 UNL     1      -3.851   5.023  14.447  1.00  0.00     0.013 A 
HETATM    3  C11 UNL     1      -2.941   6.050  14.321  1.00  0.00     0.035 A 
HETATM    4  C12 UNL     1      -1.810   5.927  13.507  1.00  0.00     0.093 A 
HETATM    5  C13 UNL     1      -1.606   4.755  12.819  1.00  0.00     0.093 A 
HETATM    6  C14 UNL     1      -2.503   3.740  12.941  1.00  0.00     0.045 A 
HETATM    7  N1  UNL     1      -0.505   4.680  12.049  1.00  0.00    -0.219 N 
HETATM    8  C15 UNL     1       0.380   5.685  11.933  1.00  0.00     0.113 A 
HETATM    9  C22 UNL     1       0.148   6.842  12.632  1.00  0.00     0.172 A 
HETATM   10  C23 UNL     1       1.043   7.965  12.564  1.00  0.00     0.122 C 
HETATM   11  N2  UNL     1       1.768   8.844  12.503  1.00  0.00    -0.190 NA
HETATM   12  N3  UNL     1      -0.938   6.944  13.404  1.00  0.00    -0.210 N 
ENDROOT
BRANCH   8  13
HETATM   13  C16 UNL     1       1.567   5.597  11.102  1.00  0.00    -0.004 A 
HETATM   14  C17 UNL     1       2.766   5.183  11.629  1.00  0.00     0.014 A 
HETATM   15  C18 UNL     1       3.917   5.093  10.848  1.00  0.00     0.001 A 
HETATM   16  C19 UNL     1       3.842   5.432   9.501  1.00  0.00     0.000 A 
HETATM   17  C20 UNL     1       2.641   5.846   8.973  1.00  0.00     0.001 A 
HETATM   18  C21 UNL     1       1.525   5.925   9.770  1.00  0.00     0.014 A 
ENDBRANCH   8  13
BRANCH  12  19
HETATM   19  O3  UNL     1      -1.202   8.108  14.129  1.00  0.00    -0.281 OA
ATOM     20  H3  UNL     1      -0.524   8.771  14.167  1.00  0.00     0.245 HD
ENDBRANCH  12  19
BRANCH   7  21
HETATM   21  O2  UNL     1      -0.246   3.523  11.332  1.00  0.00    -0.282 OA
ATOM     22  H2  UNL     1       0.218   3.576  10.504  1.00  0.00     0.245 HD
ENDBRANCH   7  21
BRANCH   1  23
HETATM   23  C2  UNL     1      -4.597   2.722  13.868  1.00  0.00     0.108 C 
HETATM   24  C1  UNL     1      -3.857   1.436  13.527  1.00  0.00     0.056 C 
BRANCH  23  25
HETATM   25  O1  UNL     1      -5.567   2.885  12.882  1.00  0.00    -0.380 OA
ATOM     26  H1  UNL     1      -5.790   3.808  12.880  1.00  0.00     0.211 HD
ENDBRANCH  23  25
BRANCH  23  27
HETATM   27  C3  UNL     1      -5.188   2.604  15.207  1.00  0.00    -0.020 A 
HETATM   28  C4  UNL     1      -4.768   1.690  16.150  1.00  0.00     0.010 A 
HETATM   29  C5  UNL     1      -5.370   1.627  17.406  1.00  0.00     0.001 A 
HETATM   30  C6  UNL     1      -6.401   2.467  17.757  1.00  0.00     0.000 A 
HETATM   31  C7  UNL     1      -6.828   3.385  16.823  1.00  0.00     0.001 A 
HETATM   32  C8  UNL     1      -6.235   3.448  15.583  1.00  0.00     0.010 A 
ENDBRANCH  23  27
ENDBRANCH   1  23
TORSDOF 6
ENDMDL
MODEL 3
REMARK VINA RESULT: -8.123500133      1.822      3.742
REMARK  6 active torsions:
REMARK  status: ('A' for Active; 'I' for Inactive)
REMARK    1  A    between atoms: C2_2  and  O1_3 
REMARK    2  A    between atoms: C2_2  and  C3_5 
REMARK    3  A    between atoms: C2_2  and  C9_11 
REMARK    4  A    between atoms: N1_17  and  O2_18 
REMARK    5  A    between atoms: C15_20  and  C16_21 
REMARK    6  A    between atoms: N3_30  and  O3_31 
ROOT
HETATM    1  C9  UNL     1      -3.472   2.985  13.290  1.00  0.00    -0.017 A 
HETATM    2  C10 UNL     1      -2.380   2.401  12.669  1.00  0.00     0.013 A 
HETATM    3  C11 UNL     1      -1.280   3.185  12.394  1.00  0.00     0.035 A 
HETATM    4  C12 UNL     1      -1.251   4.543  12.728  1.00  0.00     0.093 A 
HETATM    5  C13 UNL     1      -2.343   5.103  13.344  1.00  0.00     0.093 A 
HETATM    6  C14 UNL     1      -3.430   4.332  13.616  1.00  0.00     0.045 A 
HETATM    7  N1  UNL     1      -2.273   6.413  13.646  1.00  0.00    -0.219 N 
HETATM    8  C15 UNL     1      -1.198   7.173  13.373  1.00  0.00     0.113 A 
HETATM    9  C22 UNL     1      -0.123   6.584  12.758  1.00  0.00     0.172 A 
HETATM   10  C23 UNL     1       1.066   7.322  12.431  1.00  0.00     0.122 C 
HETATM   11  N2  UNL     1       1.999   7.927  12.174  1.00  0.00    -0.190 NA
HETATM   12  N3  UNL     1      -0.166   5.285  12.447  1.00  0.00    -0.210 N 
ENDROOT
BRANCH   8  13
HETATM   13  C16 UNL     1      -1.129   8.585  13.700  1.00  0.00    -0.004 A 
HETATM   14  C17 UNL     1      -1.749   9.522  12.910  1.00  0.00     0.014 A 
HETATM   15  C18 UNL     1      -1.694  10.882  13.207  1.00  0.00     0.001 A 
HETATM   16  C19 UNL     1      -0.990  11.296  14.333  1.00  0.00     0.000 A 
HETATM   17  C20 UNL     1      -0.368  10.357  15.124  1.00  0.00     0.001 A 
HETATM   18  C21 UNL     1      -0.441   9.023  14.804  1.00  0.00     0.014 A 
ENDBRANCH   8  13
BRANCH  12  19
HETATM   19  O3  UNL     1       0.911   4.655  11.820  1.00  0.00    -0.281 OA
ATOM     20  H3  UNL     1       0.720   3.992  11.169  1.00  0.00     0.245 HD
ENDBRANCH  12  19
BRANCH   7  21
HETATM   21  O2  UNL     1      -3.344   7.033  14.268  1.00  0.00    -0.282 OA
ATOM     22  H2  UNL     1      -4.093   7.310  13.751  1.00  0.00     0.245 HD
ENDBRANCH   7  21
BRANCH   1  23
HETATM   23  C2  UNL     1      -4.675   2.157  13.594  1.00  0.00     0.108 C 
HETATM   24  C1  UNL     1      -4.266   0.694  13.497  1.00  0.00     0.056 C 
BRANCH  23  25
HETATM   25  O1  UNL     1      -5.605   2.368  12.580  1.00  0.00    -0.380 OA
ATOM     26  H1  UNL     1      -5.390   3.210  12.194  1.00  0.00     0.211 HD
ENDBRANCH  23  25
BRANCH  23  27
HETATM   27  C3  UNL     1      -5.243   2.418  14.923  1.00  0.00    -0.020 A 
HETATM   28  C4  UNL     1      -6.159   3.416  15.180  1.00  0.00     0.010 A 
HETATM   29  C5  UNL     1      -6.663   3.615  16.465  1.00  0.00     0.001 A 
HETATM   30  C6  UNL     1      -6.269   2.832  17.525  1.00  0.00     0.000 A 
HETATM   31  C7  UNL     1      -5.354   1.831  17.280  1.00  0.00     0.001 A 
HETATM   32  C8  UNL     1      -4.857   1.634  16.012  1.00  0.00     0.010 A 
ENDBRANCH  23  27
ENDBRANCH   1  23
TORSDOF 6
ENDMDL
MODEL 4
REMARK VINA RESULT: -8.086496524      3.798      4.937
REMARK  6 active torsions:
REMARK  status: ('A' for Active; 'I' for Inactive)
REMARK    1  A    between atoms: C2_2  and  O1_3 
REMARK    2  A    between atoms: C2_2  and  C3_5 
REMARK    3  A    between atoms: C2_2  and  C9_11 
REMARK    4  A    between atoms: N1_17  and  O2_18 
REMARK    5  A    between atoms: C15_20  and  C16_21 
REMARK    6  A    between atoms: N3_30  and  O3_31 
ROOT
HETATM    1  C9  UNL     1      -4.222   3.965  13.613  1.00  0.00    -0.017 A 
HETATM    2  C10 UNL     1      -3.106   4.444  14.282  1.00  0.00     0.013 A 
HETATM    3  C11 UNL     1      -2.607   5.680  13.932  1.00  0.00     0.035 A 
HETATM    4  C12 UNL     1      -3.202   6.449  12.925  1.00  0.00     0.093 A 
HETATM    5  C13 UNL     1      -4.308   5.957  12.275  1.00  0.00     0.093 A 
HETATM    6  C14 UNL     1      -4.802   4.737  12.618  1.00  0.00     0.045 A 
HETATM    7  N1  UNL     1      -4.847   6.728  11.313  1.00  0.00    -0.219 N 
HETATM    8  C15 UNL     1      -4.355   7.932  10.975  1.00  0.00     0.113 A 
HETATM    9  C22 UNL     1      -3.250   8.396  11.644  1.00  0.00     0.172 A 
HETATM   10  C23 UNL     1      -2.660   9.672  11.346  1.00  0.00     0.122 C 
HETATM   11  N2  UNL     1      -2.202  10.686  11.092  1.00  0.00    -0.190 NA
HETATM   12  N3  UNL     1      -2.695   7.651  12.604  1.00  0.00    -0.210 N 
ENDROOT
BRANCH   8  13
HETATM   13  C16 UNL     1      -4.940   8.759   9.936  1.00  0.00    -0.004 A 
HETATM   14  C17 UNL     1      -4.518   8.656   8.633  1.00  0.00     0.014 A 
HETATM   15  C18 UNL     1      -5.066   9.441   7.621  1.00  0.00     0.001 A 
HETATM   16  C19 UNL     1      -6.067  10.351   7.945  1.00  0.00     0.000 A 
HETATM   17  C20 UNL     1      -6.490  10.455   9.250  1.00  0.00     0.001 A 
HETATM   18  C21 UNL     1      -5.929   9.666  10.225  1.00  0.00     0.014 A 
ENDBRANCH   8  13
BRANCH  12  19
HETATM   19  O3  UNL     1      -1.570   8.093  13.303  1.00  0.00    -0.281 OA
ATOM     20  H3  UNL     1      -0.729   7.715  13.077  1.00  0.00     0.245 HD
ENDBRANCH  12  19
BRANCH   7  21
HETATM   21  O2  UNL     1      -5.963   6.285  10.622  1.00  0.00    -0.282 OA
ATOM     22  H2  UNL     1      -6.566   6.916  10.245  1.00  0.00     0.245 HD
ENDBRANCH   7  21
BRANCH   1  23
HETATM   23  C2  UNL     1      -4.777   2.628  13.972  1.00  0.00     0.108 C 
HETATM   24  C1  UNL     1      -3.641   1.618  13.885  1.00  0.00     0.056 C 
BRANCH  23  25
HETATM   25  O1  UNL     1      -5.693   2.269  12.986  1.00  0.00    -0.380 OA
ATOM     26  H1  UNL     1      -5.505   2.821  12.236  1.00  0.00     0.211 HD
ENDBRANCH  23  25
BRANCH  23  27
HETATM   27  C3  UNL     1      -5.369   2.583  15.315  1.00  0.00    -0.020 A 
HETATM   28  C4  UNL     1      -6.292   3.500  15.774  1.00  0.00     0.010 A 
HETATM   29  C5  UNL     1      -6.819   3.404  17.062  1.00  0.00     0.001 A 
HETATM   30  C6  UNL     1      -6.444   2.400  17.924  1.00  0.00     0.000 A 
HETATM   31  C7  UNL     1      -5.524   1.478  17.475  1.00  0.00     0.001 A 
HETATM   32  C8  UNL     1      -5.003   1.571  16.205  1.00  0.00     0.010 A 
ENDBRANCH  23  27
ENDBRANCH   1  23
TORSDOF 6
ENDMDL
MODEL 5
REMARK VINA RESULT: -8.066578598      4.230      5.332
REMARK  6 active torsions:
REMARK  status: ('A' for Active; 'I' for Inactive)
REMARK    1  A    between atoms: C2_2  and  O1_3 
REMARK    2  A    between atoms: C2_2  and  C3_5 
REMARK    3  A    between atoms: C2_2  and  C9_11 
REMARK    4  A    between atoms: N1_17  and  O2_18 
REMARK    5  A    between atoms: C15_20  and  C16_21 
REMARK    6  A    between atoms: N3_30  and  O3_31 
ROOT
HETATM    1  C9  UNL     1      -3.577   4.445  13.768  1.00  0.00    -0.017 A 
HETATM    2  C10 UNL     1      -2.688   5.371  14.291  1.00  0.00     0.013 A 
HETATM    3  C11 UNL     1      -2.582   6.602  13.680  1.00  0.00     0.035 A 
HETATM    4  C12 UNL     1      -3.348   6.926  12.555  1.00  0.00     0.093 A 
HETATM    5  C13 UNL     1      -4.223   5.994  12.052  1.00  0.00     0.093 A 
HETATM    6  C14 UNL     1      -4.330   4.779  12.653  1.00  0.00     0.045 A 
HETATM    7  N1  UNL     1      -4.938   6.347  10.968  1.00  0.00    -0.219 N 
HETATM    8  C15 UNL     1      -4.829   7.548  10.375  1.00  0.00     0.113 A 
HETATM    9  C22 UNL     1      -3.946   8.457  10.902  1.00  0.00     0.172 A 
HETATM   10  C23 UNL     1      -3.768   9.764  10.331  1.00  0.00     0.122 C 
HETATM   11  N2  UNL     1      -3.635  10.795   9.860  1.00  0.00    -0.190 NA
HETATM   12  N3  UNL     1      -3.224   8.133  11.978  1.00  0.00    -0.210 N 
ENDROOT
BRANCH   8  13
HETATM   13  C16 UNL     1      -5.602   7.923   9.205  1.00  0.00    -0.004 A 
HETATM   14  C17 UNL     1      -6.825   8.535   9.335  1.00  0.00     0.014 A 
HETATM   15  C18 UNL     1      -7.581   8.902   8.224  1.00  0.00     0.001 A 
HETATM   16  C19 UNL     1      -7.080   8.639   6.954  1.00  0.00     0.000 A 
HETATM   17  C20 UNL     1      -5.855   8.026   6.823  1.00  0.00     0.001 A 
HETATM   18  C21 UNL     1      -5.133   7.676   7.939  1.00  0.00     0.014 A 
ENDBRANCH   8  13
BRANCH  12  19
HETATM   19  O3  UNL     1      -2.317   9.035  12.538  1.00  0.00    -0.281 OA
ATOM     20  H3  UNL     1      -1.403   8.955  12.293  1.00  0.00     0.245 HD
ENDBRANCH  12  19
BRANCH   7  21
HETATM   21  O2  UNL     1      -5.837   5.449  10.415  1.00  0.00    -0.282 OA
ATOM     22  H2  UNL     1      -5.961   4.598  10.819  1.00  0.00     0.245 HD
ENDBRANCH   7  21
BRANCH   1  23
HETATM   23  C2  UNL     1      -3.705   3.104  14.410  1.00  0.00     0.108 C 
HETATM   24  C1  UNL     1      -2.362   2.762  15.039  1.00  0.00     0.056 C 
BRANCH  23  25
HETATM   25  O1  UNL     1      -3.913   2.167  13.402  1.00  0.00    -0.380 OA
ATOM     26  H1  UNL     1      -4.013   1.328  13.836  1.00  0.00     0.211 HD
ENDBRANCH  23  25
BRANCH  23  27
HETATM   27  C3  UNL     1      -4.753   3.048  15.437  1.00  0.00    -0.020 A 
HETATM   28  C4  UNL     1      -5.774   3.970  15.539  1.00  0.00     0.010 A 
HETATM   29  C5  UNL     1      -6.742   3.862  16.537  1.00  0.00     0.001 A 
HETATM   30  C6  UNL     1      -6.720   2.840  17.458  1.00  0.00     0.000 A 
HETATM   31  C7  UNL     1      -5.705   1.913  17.366  1.00  0.00     0.001 A 
HETATM   32  C8  UNL     1      -4.750   2.018  16.380  1.00  0.00     0.010 A 
ENDBRANCH  23  27
ENDBRANCH   1  23
TORSDOF 6
ENDMDL
