MODEL 1
REMARK VINA RESULT: -4.943974463      0.000      0.000
REMARK  4 active torsions:
REMARK  status: ('A' for Active; 'I' for Inactive)
REMARK    1  A    between atoms: N1_2  and  N2_3 
REMARK    2  A    between atoms: C3_5  and  C4_6 
REMARK    3  A    between atoms: C4_6  and  N3_7 
REMARK    4  A    between atoms: N3_7  and  C5_10 
ROOT
HETATM    1  C4  UNL     1      15.399  25.080  -2.411  1.00  0.00     0.255 C 
ENDROOT
BRANCH   1   2
HETATM    2  C3  UNL     1      14.334  26.074  -2.092  1.00  0.00     0.116 A 
HETATM    3  N2  UNL     1      14.359  26.864  -0.900  1.00  0.00    -0.226 NA
HETATM    4  C2  UNL     1      13.484  25.706  -0.890  1.00  0.00     0.133 A 
BRANCH   3   5
HETATM    5  N1  UNL     1      13.659  28.078  -0.897  1.00  0.00    -0.169 NA
HETATM    6  C1  UNL     1      13.011  28.194  -2.189  1.00  0.00     0.152 C 
ENDBRANCH   3   5
ENDBRANCH   1   2
BRANCH   1   7
HETATM    7  N3  UNL     1      15.580  24.819  -3.822  1.00  0.00    -0.069 N 
ATOM      8  H32 UNL     1      16.243  25.452  -4.270  1.00  0.00     0.277 HD
ATOM      9  H31 UNL     1      16.086  23.954  -4.014  1.00  0.00     0.277 HD
BRANCH   7  10
HETATM   10  C5  UNL     1      14.241  24.858  -4.417  1.00  0.00     0.186 A 
HETATM   11  C6  UNL     1      14.130  24.060  -5.728  1.00  0.00     0.035 A 
HETATM   12  C7  UNL     1      13.409  23.638  -4.468  1.00  0.00     0.035 A 
ENDBRANCH   7  10
ENDBRANCH   1   7
TORSDOF 4
ENDMDL
MODEL 2
REMARK VINA RESULT: -4.896700932      1.592      4.549
REMARK  4 active torsions:
REMARK  status: ('A' for Active; 'I' for Inactive)
REMARK    1  A    between atoms: N1_2  and  N2_3 
REMARK    2  A    between atoms: C3_5  and  C4_6 
REMARK    3  A    between atoms: C4_6  and  N3_7 
REMARK    4  A    between atoms: N3_7  and  C5_10 
ROOT
HETATM    1  C4  UNL     1      15.280  24.721  -3.176  1.00  0.00     0.255 C 
ENDROOT
BRANCH   1   2
HETATM    2  C3  UNL     1      14.866  24.152  -4.491  1.00  0.00     0.116 A 
HETATM    3  N2  UNL     1      13.911  24.799  -5.336  1.00  0.00    -0.226 NA
HETATM    4  C2  UNL     1      13.421  23.690  -4.539  1.00  0.00     0.133 A 
BRANCH   3   5
HETATM    5  N1  UNL     1      13.942  24.514  -6.709  1.00  0.00    -0.169 NA
HETATM    6  C1  UNL     1      14.057  23.074  -6.837  1.00  0.00     0.152 C 
ENDBRANCH   3   5
ENDBRANCH   1   2
BRANCH   1   7
HETATM    7  N3  UNL     1      15.207  26.163  -3.092  1.00  0.00    -0.069 N 
ATOM      8  H32 UNL     1      16.043  26.633  -3.439  1.00  0.00     0.277 HD
ATOM      9  H31 UNL     1      14.549  26.576  -3.755  1.00  0.00     0.277 HD
BRANCH   7  10
HETATM   10  C5  UNL     1      14.900  26.474  -1.693  1.00  0.00     0.186 A 
HETATM   11  C6  UNL     1      13.732  27.462  -1.526  1.00  0.00     0.035 A 
HETATM   12  C7  UNL     1      13.632  26.019  -1.085  1.00  0.00     0.035 A 
ENDBRANCH   7  10
ENDBRANCH   1   7
TORSDOF 4
ENDMDL
MODEL 3
REMARK VINA RESULT: -4.752577679      2.396      3.810
REMARK  4 active torsions:
REMARK  status: ('A' for Active; 'I' for Inactive)
REMARK    1  A    between atoms: N1_2  and  N2_3 
REMARK    2  A    between atoms: C3_5  and  C4_6 
REMARK    3  A    between atoms: C4_6  and  N3_7 
REMARK    4  A    between atoms: N3_7  and  C5_10 
ROOT
HETATM    1  C4  UNL     1      14.882  26.257  -4.006  1.00  0.00     0.255 C 
ENDROOT
BRANCH   1   2
HETATM    2  C3  UNL     1      13.396  26.166  -3.920  1.00  0.00     0.116 A 
HETATM    3  N2  UNL     1      12.545  26.543  -5.006  1.00  0.00    -0.226 NA
HETATM    4  C2  UNL     1      12.692  27.510  -3.935  1.00  0.00     0.133 A 
BRANCH   3   5
HETATM    5  N1  UNL     1      11.261  25.983  -5.064  1.00  0.00    -0.169 NA
HETATM    6  C1  UNL     1      11.401  24.574  -4.753  1.00  0.00     0.152 C 
ENDBRANCH   3   5
ENDBRANCH   1   2
BRANCH   1   7
HETATM    7  N3  UNL     1      15.594  25.442  -3.046  1.00  0.00    -0.069 N 
ATOM      8  H32 UNL     1      15.729  24.479  -3.352  1.00  0.00     0.277 HD
ATOM      9  H31 UNL     1      16.582  25.684  -2.961  1.00  0.00     0.277 HD
BRANCH   7  10
HETATM   10  C5  UNL     1      14.853  25.558  -1.787  1.00  0.00     0.186 A 
HETATM   11  C6  UNL     1      14.628  24.208  -1.081  1.00  0.00     0.035 A 
HETATM   12  C7  UNL     1      15.520  25.281  -0.497  1.00  0.00     0.035 A 
ENDBRANCH   7  10
ENDBRANCH   1   7
TORSDOF 4
ENDMDL
MODEL 4
REMARK VINA RESULT: -4.728254380      3.100      4.423
REMARK  4 active torsions:
REMARK  status: ('A' for Active; 'I' for Inactive)
REMARK    1  A    between atoms: N1_2  and  N2_3 
REMARK    2  A    between atoms: C3_5  and  C4_6 
REMARK    3  A    between atoms: C4_6  and  N3_7 
REMARK    4  A    between atoms: N3_7  and  C5_10 
ROOT
HETATM    1  C4  UNL     1      14.036  23.296  -6.356  1.00  0.00     0.255 C 
ENDROOT
BRANCH   1   2
HETATM    2  C3  UNL     1      13.618  24.431  -5.483  1.00  0.00     0.116 A 
HETATM    3  N2  UNL     1      14.120  25.758  -5.666  1.00  0.00    -0.226 NA
HETATM    4  C2  UNL     1      14.728  24.978  -4.604  1.00  0.00     0.133 A 
BRANCH   3   5
HETATM    5  N1  UNL     1      13.350  26.827  -5.184  1.00  0.00    -0.169 NA
HETATM    6  C1  UNL     1      13.504  26.842  -3.742  1.00  0.00     0.152 C 
ENDBRANCH   3   5
ENDBRANCH   1   2
BRANCH   1   7
HETATM    7  N3  UNL     1      13.645  23.424  -7.742  1.00  0.00    -0.069 N 
ATOM      8  H32 UNL     1      12.733  23.863  -7.869  1.00  0.00     0.277 HD
ATOM      9  H31 UNL     1      14.188  24.119  -8.256  1.00  0.00     0.277 HD
BRANCH   7  10
HETATM   10  C5  UNL     1      13.729  22.077  -8.314  1.00  0.00     0.186 A 
HETATM   11  C6  UNL     1      12.563  21.739  -9.260  1.00  0.00     0.035 A 
HETATM   12  C7  UNL     1      13.983  21.890  -9.757  1.00  0.00     0.035 A 
ENDBRANCH   7  10
ENDBRANCH   1   7
TORSDOF 4
ENDMDL
MODEL 5
REMARK VINA RESULT: -4.722890247      2.162      4.849
REMARK  4 active torsions:
REMARK  status: ('A' for Active; 'I' for Inactive)
REMARK    1  A    between atoms: N1_2  and  N2_3 
REMARK    2  A    between atoms: C3_5  and  C4_6 
REMARK    3  A    between atoms: C4_6  and  N3_7 
REMARK    4  A    between atoms: N3_7  and  C5_10 
ROOT
HETATM    1  C4  UNL     1      15.063  25.276  -4.082  1.00  0.00     0.255 C 
ENDROOT
BRANCH   1   2
HETATM    2  C3  UNL     1      14.596  24.272  -5.082  1.00  0.00     0.116 A 
HETATM    3  N2  UNL     1      13.839  24.642  -6.238  1.00  0.00    -0.226 NA
HETATM    4  C2  UNL     1      13.089  24.094  -5.123  1.00  0.00     0.133 A 
BRANCH   3   5
HETATM    5  N1  UNL     1      13.869  23.787  -7.348  1.00  0.00    -0.169 NA
HETATM    6  C1  UNL     1      14.466  22.542  -6.905  1.00  0.00     0.152 C 
ENDBRANCH   3   5
ENDBRANCH   1   2
BRANCH   1   7
HETATM    7  N3  UNL     1      15.902  24.738  -3.034  1.00  0.00    -0.069 N 
ATOM      8  H32 UNL     1      16.460  23.938  -3.330  1.00  0.00     0.277 HD
ATOM      9  H31 UNL     1      16.682  25.348  -2.785  1.00  0.00     0.277 HD
BRANCH   7  10
HETATM   10  C5  UNL     1      15.009  24.444  -1.909  1.00  0.00     0.186 A 
HETATM   11  C6  UNL     1      15.303  25.287  -0.656  1.00  0.00     0.035 A 
HETATM   12  C7  UNL     1      14.027  25.447  -1.450  1.00  0.00     0.035 A 
ENDBRANCH   7  10
ENDBRANCH   1   7
TORSDOF 4
ENDMDL
