MODEL 1
REMARK VINA RESULT: -7.202422047      0.000      0.000
REMARK  3 active torsions:
REMARK  status: ('A' for Active; 'I' for Inactive)
REMARK    1  A    between atoms: C13_13  and  O1_14 
REMARK    2  A    between atoms: C14_16  and  C15_17 
REMARK    3  A    between atoms: C15_17  and  O2_18 
ROOT
HETATM    1  C1  UNL     1      22.777   2.952  14.573  1.00  0.00     0.010 C 
HETATM    2  C2  UNL     1      23.756   4.081  14.853  1.00  0.00    -0.018 C 
HETATM    3  C3  UNL     1      23.135   5.147  15.734  1.00  0.00     0.009 C 
HETATM    4  C4  UNL     1      23.361   6.423  14.950  1.00  0.00    -0.010 C 
HETATM    5  C5  UNL     1      22.386   7.496  15.245  1.00  0.00     0.005 C 
HETATM    6  C6  UNL     1      22.380   8.546  14.174  1.00  0.00     0.006 C 
HETATM    7  C7  UNL     1      23.437   8.256  13.164  1.00  0.00    -0.005 C 
HETATM    8  C8  UNL     1      23.259   6.919  12.483  1.00  0.00    -0.006 C 
HETATM    9  C9  UNL     1      22.001   6.937  11.651  1.00  0.00     0.006 C 
HETATM   10  C10 UNL     1      21.837   8.090  10.761  1.00  0.00     0.005 C 
HETATM   11  C11 UNL     1      22.566   9.328  11.061  1.00  0.00    -0.007 C 
HETATM   12  C12 UNL     1      21.625  10.462  11.496  1.00  0.00     0.037 C 
HETATM   13  C13 UNL     1      22.416  11.332  12.421  1.00  0.00     0.125 C 
HETATM   14  C14 UNL     1      23.741  10.684  12.632  1.00  0.00     0.043 C 
HETATM   15  C16 UNL     1      23.613   9.278  12.101  1.00  0.00     0.003 C 
HETATM   16  C17 UNL     1      23.078   5.888  13.547  1.00  0.00    -0.006 C 
HETATM   17  C18 UNL     1      24.029   4.745  13.506  1.00  0.00     0.009 C 
ENDROOT
BRANCH  14  18
HETATM   18  C15 UNL     1      24.879  11.418  11.926  1.00  0.00     0.171 C 
BRANCH  18  19
HETATM   19  O2  UNL     1      24.909  12.762  12.220  1.00  0.00    -0.400 OA
ATOM     20  H2  UNL     1      24.949  13.308  11.444  1.00  0.00     0.209 HD
ENDBRANCH  18  19
ENDBRANCH  14  18
BRANCH  13  21
HETATM   21  O1  UNL     1      22.514  12.598  11.841  1.00  0.00    -0.395 OA
ATOM     22  H1  UNL     1      21.695  12.780  11.395  1.00  0.00     0.210 HD
ENDBRANCH  13  21
TORSDOF 3
ENDMDL
MODEL 2
REMARK VINA RESULT: -6.970823657      3.011      4.995
REMARK  3 active torsions:
REMARK  status: ('A' for Active; 'I' for Inactive)
REMARK    1  A    between atoms: C13_13  and  O1_14 
REMARK    2  A    between atoms: C14_16  and  C15_17 
REMARK    3  A    between atoms: C15_17  and  O2_18 
ROOT
HETATM    1  C1  UNL     1      23.286   5.593  10.718  1.00  0.00     0.010 C 
HETATM    2  C2  UNL     1      22.571   6.907  10.991  1.00  0.00    -0.018 C 
HETATM    3  C3  UNL     1      23.556   8.023  11.279  1.00  0.00     0.009 C 
HETATM    4  C4  UNL     1      23.070   8.583  12.601  1.00  0.00    -0.010 C 
HETATM    5  C5  UNL     1      24.123   9.249  13.400  1.00  0.00     0.005 C 
HETATM    6  C6  UNL     1      23.714   9.398  14.835  1.00  0.00     0.006 C 
HETATM    7  C7  UNL     1      22.315   8.922  15.024  1.00  0.00    -0.005 C 
HETATM    8  C8  UNL     1      22.125   7.469  14.652  1.00  0.00    -0.006 C 
HETATM    9  C9  UNL     1      22.904   6.596  15.604  1.00  0.00     0.006 C 
HETATM   10  C10 UNL     1      22.720   6.879  17.030  1.00  0.00     0.005 C 
HETATM   11  C11 UNL     1      22.244   8.208  17.435  1.00  0.00    -0.007 C 
HETATM   12  C12 UNL     1      23.329   9.011  18.169  1.00  0.00     0.037 C 
HETATM   13  C13 UNL     1      23.050  10.452  17.882  1.00  0.00     0.125 C 
HETATM   14  C14 UNL     1      21.916  10.512  16.916  1.00  0.00     0.043 C 
HETATM   15  C16 UNL     1      21.744   9.112  16.381  1.00  0.00     0.003 C 
HETATM   16  C17 UNL     1      22.701   7.270  13.289  1.00  0.00    -0.006 C 
HETATM   17  C18 UNL     1      21.776   6.695  12.276  1.00  0.00     0.009 C 
ENDROOT
BRANCH  14  18
HETATM   18  C15 UNL     1      20.619  11.001  17.555  1.00  0.00     0.171 C 
BRANCH  18  19
HETATM   19  O2  UNL     1      20.547  12.374  17.631  1.00  0.00    -0.400 OA
ATOM     20  H2  UNL     1      21.308  12.758  18.051  1.00  0.00     0.209 HD
ENDBRANCH  18  19
ENDBRANCH  14  18
BRANCH  13  21
HETATM   21  O1  UNL     1      22.767  11.085  19.094  1.00  0.00    -0.395 OA
ATOM     22  H1  UNL     1      23.400  11.782  19.215  1.00  0.00     0.210 HD
ENDBRANCH  13  21
TORSDOF 3
ENDMDL
MODEL 3
REMARK VINA RESULT: -6.955056842      2.224      3.878
REMARK  3 active torsions:
REMARK  status: ('A' for Active; 'I' for Inactive)
REMARK    1  A    between atoms: C13_13  and  O1_14 
REMARK    2  A    between atoms: C14_16  and  C15_17 
REMARK    3  A    between atoms: C15_17  and  O2_18 
ROOT
HETATM    1  C1  UNL     1      22.649   4.495  19.357  1.00  0.00     0.010 C 
HETATM    2  C2  UNL     1      22.062   4.100  18.011  1.00  0.00    -0.018 C 
HETATM    3  C3  UNL     1      23.146   3.691  17.033  1.00  0.00     0.009 C 
HETATM    4  C4  UNL     1      22.871   4.562  15.824  1.00  0.00    -0.010 C 
HETATM    5  C5  UNL     1      24.059   4.817  14.979  1.00  0.00     0.005 C 
HETATM    6  C6  UNL     1      23.847   5.993  14.072  1.00  0.00     0.006 C 
HETATM    7  C7  UNL     1      22.456   6.507  14.212  1.00  0.00    -0.005 C 
HETATM    8  C8  UNL     1      22.126   6.959  15.615  1.00  0.00    -0.006 C 
HETATM    9  C9  UNL     1      22.962   8.163  15.970  1.00  0.00     0.006 C 
HETATM   10  C10 UNL     1      22.982   9.245  14.982  1.00  0.00     0.005 C 
HETATM   11  C11 UNL     1      22.649   8.936  13.585  1.00  0.00    -0.007 C 
HETATM   12  C12 UNL     1      23.869   9.061  12.659  1.00  0.00     0.037 C 
HETATM   13  C13 UNL     1      23.649   8.091  11.543  1.00  0.00     0.125 C 
HETATM   14  C14 UNL     1      22.408   7.324  11.845  1.00  0.00     0.043 C 
HETATM   15  C16 UNL     1      22.078   7.608  13.290  1.00  0.00     0.003 C 
HETATM   16  C17 UNL     1      22.508   5.858  16.549  1.00  0.00    -0.006 C 
HETATM   17  C18 UNL     1      21.426   5.365  17.442  1.00  0.00     0.009 C 
ENDROOT
BRANCH  14  18
HETATM   18  C15 UNL     1      21.237   7.712  10.945  1.00  0.00     0.171 C 
BRANCH  18  19
HETATM   19  O2  UNL     1      21.238   7.034   9.747  1.00  0.00    -0.400 OA
ATOM     20  H2  UNL     1      21.393   6.103   9.853  1.00  0.00     0.209 HD
ENDBRANCH  18  19
ENDBRANCH  14  18
BRANCH  13  21
HETATM   21  O1  UNL     1      23.566   8.816  10.352  1.00  0.00    -0.395 OA
ATOM     22  H1  UNL     1      24.197   9.524  10.397  1.00  0.00     0.210 HD
ENDBRANCH  13  21
TORSDOF 3
ENDMDL
MODEL 4
REMARK VINA RESULT: -6.682983732      3.460      5.032
REMARK  3 active torsions:
REMARK  status: ('A' for Active; 'I' for Inactive)
REMARK    1  A    between atoms: C13_13  and  O1_14 
REMARK    2  A    between atoms: C14_16  and  C15_17 
REMARK    3  A    between atoms: C15_17  and  O2_18 
ROOT
HETATM    1  C1  UNL     1      24.206   4.505  15.245  1.00  0.00     0.010 C 
HETATM    2  C2  UNL     1      23.041   5.327  14.714  1.00  0.00    -0.018 C 
HETATM    3  C3  UNL     1      23.525   6.509  13.897  1.00  0.00     0.009 C 
HETATM    4  C4  UNL     1      22.823   7.687  14.541  1.00  0.00    -0.010 C 
HETATM    5  C5  UNL     1      23.523   8.980  14.364  1.00  0.00     0.005 C 
HETATM    6  C6  UNL     1      23.043  10.005  15.347  1.00  0.00     0.006 C 
HETATM    7  C7  UNL     1      21.920   9.455  16.158  1.00  0.00    -0.005 C 
HETATM    8  C8  UNL     1      22.301   8.224  16.945  1.00  0.00    -0.006 C 
HETATM    9  C9  UNL     1      23.320   8.589  17.996  1.00  0.00     0.006 C 
HETATM   10  C10 UNL     1      22.999   9.754  18.824  1.00  0.00     0.005 C 
HETATM   11  C11 UNL     1      22.046  10.748  18.313  1.00  0.00    -0.007 C 
HETATM   12  C12 UNL     1      22.726  12.087  17.989  1.00  0.00     0.037 C 
HETATM   13  C13 UNL     1      21.936  12.701  16.878  1.00  0.00     0.125 C 
HETATM   14  C14 UNL     1      20.894  11.719  16.464  1.00  0.00     0.043 C 
HETATM   15  C16 UNL     1      21.277  10.405  17.101  1.00  0.00     0.003 C 
HETATM   16  C17 UNL     1      22.952   7.266  16.004  1.00  0.00    -0.006 C 
HETATM   17  C18 UNL     1      22.343   5.910  15.940  1.00  0.00     0.009 C 
ENDROOT
BRANCH  14  18
HETATM   18  C15 UNL     1      19.488  12.129  16.896  1.00  0.00     0.171 C 
BRANCH  18  19
HETATM   19  O2  UNL     1      18.905  13.025  16.028  1.00  0.00    -0.400 OA
ATOM     20  H2  UNL     1      18.079  13.365  16.352  1.00  0.00     0.209 HD
ENDBRANCH  18  19
ENDBRANCH  14  18
BRANCH  13  21
HETATM   21  O1  UNL     1      21.398  13.902  17.346  1.00  0.00    -0.395 OA
ATOM     22  H1  UNL     1      20.597  13.700  17.815  1.00  0.00     0.210 HD
ENDBRANCH  13  21
TORSDOF 3
ENDMDL
MODEL 5
REMARK VINA RESULT: -6.671467631      4.450      5.886
REMARK  3 active torsions:
REMARK  status: ('A' for Active; 'I' for Inactive)
REMARK    1  A    between atoms: C13_13  and  O1_14 
REMARK    2  A    between atoms: C14_16  and  C15_17 
REMARK    3  A    between atoms: C15_17  and  O2_18 
ROOT
HETATM    1  C1  UNL     1      22.515   8.212  12.395  1.00  0.00     0.010 C 
HETATM    2  C2  UNL     1      23.568   8.720  13.369  1.00  0.00    -0.018 C 
HETATM    3  C3  UNL     1      23.132   8.520  14.808  1.00  0.00     0.009 C 
HETATM    4  C4  UNL     1      23.279   9.902  15.411  1.00  0.00    -0.010 C 
HETATM    5  C5  UNL     1      22.403  10.149  16.578  1.00  0.00     0.005 C 
HETATM    6  C6  UNL     1      22.267  11.615  16.864  1.00  0.00     0.006 C 
HETATM    7  C7  UNL     1      23.141  12.401  15.948  1.00  0.00    -0.005 C 
HETATM    8  C8  UNL     1      22.810  12.197  14.488  1.00  0.00    -0.006 C 
HETATM    9  C9  UNL     1      21.438  12.754  14.197  1.00  0.00     0.006 C 
HETATM   10  C10 UNL     1      21.179  14.110  14.686  1.00  0.00     0.005 C 
HETATM   11  C11 UNL     1      21.991  14.634  15.791  1.00  0.00    -0.007 C 
HETATM   12  C12 UNL     1      21.172  14.804  17.081  1.00  0.00     0.037 C 
HETATM   13  C13 UNL     1      22.130  14.615  18.214  1.00  0.00     0.125 C 
HETATM   14  C14 UNL     1      23.447  14.226  17.635  1.00  0.00     0.043 C 
HETATM   15  C16 UNL     1      23.185  13.865  16.194  1.00  0.00     0.003 C 
HETATM   16  C17 UNL     1      22.760  10.727  14.235  1.00  0.00    -0.006 C 
HETATM   17  C18 UNL     1      23.650  10.228  13.152  1.00  0.00     0.009 C 
ENDROOT
BRANCH  14  18
HETATM   18  C15 UNL     1      24.486  15.341  17.724  1.00  0.00     0.171 C 
BRANCH  18  19
HETATM   19  O2  UNL     1      25.181  15.329  18.913  1.00  0.00    -0.400 OA
ATOM     20  H2  UNL     1      26.046  15.714  18.836  1.00  0.00     0.209 HD
ENDBRANCH  18  19
ENDBRANCH  14  18
BRANCH  13  21
HETATM   21  O1  UNL     1      22.182  15.809  18.936  1.00  0.00    -0.395 OA
ATOM     22  H1  UNL     1      22.876  16.343  18.568  1.00  0.00     0.210 HD
ENDBRANCH  13  21
TORSDOF 3
ENDMDL
