MODEL 1
REMARK VINA RESULT: -7.530122194      0.000      0.000
REMARK  2 active torsions:
REMARK  status: ('A' for Active; 'I' for Inactive)
REMARK    1  A    between atoms: C5_5  and  O1_7 
REMARK    2  A    between atoms: C17_19  and  O2_20 
ROOT
HETATM    1  C1  UNL     1      21.488   6.571  12.412  1.00  0.00     0.018 C 
HETATM    2  C2  UNL     1      22.926   6.685  12.756  1.00  0.00    -0.014 C 
HETATM    3  C3  UNL     1      23.743   5.459  12.410  1.00  0.00     0.015 C 
HETATM    4  C4  UNL     1      23.014   4.307  13.024  1.00  0.00     0.039 C 
HETATM    5  C5  UNL     1      23.417   4.151  14.457  1.00  0.00     0.062 C 
HETATM    6  C6  UNL     1      24.918   4.245  14.658  1.00  0.00     0.046 C 
HETATM    7  C7  UNL     1      22.712   4.991  15.433  1.00  0.00    -0.005 C 
HETATM    8  C8  UNL     1      21.339   4.360  15.718  1.00  0.00     0.013 C 
HETATM    9  C9  UNL     1      21.079   4.564  17.183  1.00  0.00     0.005 C 
HETATM   10  C10 UNL     1      22.349   5.078  17.777  1.00  0.00    -0.014 C 
HETATM   11  C11 UNL     1      22.296   6.596  17.730  1.00  0.00     0.005 C 
HETATM   12  C12 UNL     1      22.985   7.143  16.524  1.00  0.00     0.006 C 
HETATM   13  C13 UNL     1      22.549   6.414  15.235  1.00  0.00     0.002 C 
HETATM   14  C14 UNL     1      23.236   7.118  14.136  1.00  0.00     0.001 C 
HETATM   15  C15 UNL     1      22.668   8.555  14.100  1.00  0.00     0.008 C 
HETATM   16  C16 UNL     1      22.944   9.028  12.682  1.00  0.00     0.033 C 
HETATM   17  C17 UNL     1      23.506   7.839  11.929  1.00  0.00     0.126 C 
HETATM   18  C18 UNL     1      23.386   4.666  16.783  1.00  0.00     0.017 C 
ENDROOT
BRANCH   5  19
HETATM   19  O1  UNL     1      23.117   2.799  14.781  1.00  0.00    -0.389 OA
ATOM     20  H1  UNL     1      23.523   2.652  15.628  1.00  0.00     0.210 HD
ENDBRANCH   5  19
BRANCH  17  21
HETATM   21  O2  UNL     1      22.947   7.738  10.669  1.00  0.00    -0.395 OA
ATOM     22  H2  UNL     1      22.121   8.206  10.703  1.00  0.00     0.210 HD
ENDBRANCH  17  21
TORSDOF 2
ENDMDL
MODEL 2
REMARK VINA RESULT: -7.304031082      1.145      4.469
REMARK  2 active torsions:
REMARK  status: ('A' for Active; 'I' for Inactive)
REMARK    1  A    between atoms: C5_5  and  O1_7 
REMARK    2  A    between atoms: C17_19  and  O2_20 
ROOT
HETATM    1  C1  UNL     1      24.400   4.368  14.618  1.00  0.00     0.018 C 
HETATM    2  C2  UNL     1      22.955   4.529  14.329  1.00  0.00    -0.014 C 
HETATM    3  C3  UNL     1      22.628   4.641  12.855  1.00  0.00     0.015 C 
HETATM    4  C4  UNL     1      23.523   5.717  12.328  1.00  0.00     0.039 C 
HETATM    5  C5  UNL     1      22.898   7.058  12.553  1.00  0.00     0.062 C 
HETATM    6  C6  UNL     1      21.429   7.091  12.174  1.00  0.00     0.046 C 
HETATM    7  C7  UNL     1      23.105   7.667  13.872  1.00  0.00    -0.005 C 
HETATM    8  C8  UNL     1      24.513   8.283  13.910  1.00  0.00     0.013 C 
HETATM    9  C9  UNL     1      24.393   9.559  14.691  1.00  0.00     0.005 C 
HETATM   10  C10 UNL     1      22.934   9.802  14.896  1.00  0.00    -0.014 C 
HETATM   11  C11 UNL     1      22.543   9.157  16.215  1.00  0.00     0.005 C 
HETATM   12  C12 UNL     1      21.986   7.784  16.024  1.00  0.00     0.006 C 
HETATM   13  C13 UNL     1      22.875   6.931  15.094  1.00  0.00     0.002 C 
HETATM   14  C14 UNL     1      22.253   5.594  15.078  1.00  0.00     0.001 C 
HETATM   15  C15 UNL     1      22.363   5.029  16.513  1.00  0.00     0.008 C 
HETATM   16  C16 UNL     1      22.259   3.525  16.329  1.00  0.00     0.033 C 
HETATM   17  C17 UNL     1      22.242   3.268  14.836  1.00  0.00     0.126 C 
HETATM   18  C18 UNL     1      22.294   8.980  13.824  1.00  0.00     0.017 C 
ENDROOT
BRANCH   5  19
HETATM   19  O1  UNL     1      23.512   7.917  11.599  1.00  0.00    -0.389 OA
ATOM     20  H1  UNL     1      22.801   8.437  11.242  1.00  0.00     0.210 HD
ENDBRANCH   5  19
BRANCH  17  21
HETATM   21  O2  UNL     1      23.054   2.200  14.505  1.00  0.00    -0.395 OA
ATOM     22  H2  UNL     1      23.873   2.330  14.968  1.00  0.00     0.210 HD
ENDBRANCH  17  21
TORSDOF 2
ENDMDL
MODEL 3
REMARK VINA RESULT: -6.621711521      1.850      3.633
REMARK  2 active torsions:
REMARK  status: ('A' for Active; 'I' for Inactive)
REMARK    1  A    between atoms: C5_5  and  O1_7 
REMARK    2  A    between atoms: C17_19  and  O2_20 
ROOT
HETATM    1  C1  UNL     1      24.592   9.078  13.882  1.00  0.00     0.018 C 
HETATM    2  C2  UNL     1      23.112   8.996  13.887  1.00  0.00    -0.014 C 
HETATM    3  C3  UNL     1      22.493   9.109  15.264  1.00  0.00     0.015 C 
HETATM    4  C4  UNL     1      23.206   8.103  16.108  1.00  0.00     0.039 C 
HETATM    5  C5  UNL     1      22.569   6.758  15.950  1.00  0.00     0.062 C 
HETATM    6  C6  UNL     1      21.055   6.815  16.020  1.00  0.00     0.046 C 
HETATM    7  C7  UNL     1      23.002   5.956  14.799  1.00  0.00    -0.005 C 
HETATM    8  C8  UNL     1      24.356   5.310  15.137  1.00  0.00     0.013 C 
HETATM    9  C9  UNL     1      24.327   3.935  14.534  1.00  0.00     0.005 C 
HETATM   10  C10 UNL     1      22.927   3.699  14.070  1.00  0.00    -0.014 C 
HETATM   11  C11 UNL     1      22.841   4.151  12.622  1.00  0.00     0.005 C 
HETATM   12  C12 UNL     1      22.331   5.549  12.501  1.00  0.00     0.006 C 
HETATM   13  C13 UNL     1      23.060   6.510  13.465  1.00  0.00     0.002 C 
HETATM   14  C14 UNL     1      22.518   7.849  13.166  1.00  0.00     0.001 C 
HETATM   15  C15 UNL     1      22.942   8.193  11.721  1.00  0.00     0.008 C 
HETATM   16  C16 UNL     1      22.882   9.710  11.667  1.00  0.00     0.033 C 
HETATM   17  C17 UNL     1      22.582  10.184  13.074  1.00  0.00     0.126 C 
HETATM   18  C18 UNL     1      22.130   4.684  14.863  1.00  0.00     0.017 C 
ENDROOT
BRANCH   5  19
HETATM   19  O1  UNL     1      22.934   6.036  17.120  1.00  0.00    -0.389 OA
ATOM     20  H1  UNL     1      23.440   6.648  17.641  1.00  0.00     0.210 HD
ENDBRANCH   5  19
BRANCH  17  21
HETATM   21  O2  UNL     1      23.366  11.270  13.412  1.00  0.00    -0.395 OA
ATOM     22  H2  UNL     1      22.770  11.991  13.581  1.00  0.00     0.210 HD
ENDBRANCH  17  21
TORSDOF 2
ENDMDL
MODEL 4
REMARK VINA RESULT: -6.243174845      1.682      5.207
REMARK  2 active torsions:
REMARK  status: ('A' for Active; 'I' for Inactive)
REMARK    1  A    between atoms: C5_5  and  O1_7 
REMARK    2  A    between atoms: C17_19  and  O2_20 
ROOT
HETATM    1  C1  UNL     1      20.949   5.782  16.248  1.00  0.00     0.018 C 
HETATM    2  C2  UNL     1      22.418   5.971  16.327  1.00  0.00    -0.014 C 
HETATM    3  C3  UNL     1      22.844   7.401  16.583  1.00  0.00     0.015 C 
HETATM    4  C4  UNL     1      22.134   8.220  15.553  1.00  0.00     0.039 C 
HETATM    5  C5  UNL     1      22.919   8.231  14.279  1.00  0.00     0.062 C 
HETATM    6  C6  UNL     1      24.399   8.478  14.504  1.00  0.00     0.046 C 
HETATM    7  C7  UNL     1      22.718   7.094  13.372  1.00  0.00    -0.005 C 
HETATM    8  C8  UNL     1      21.405   7.311  12.602  1.00  0.00     0.013 C 
HETATM    9  C9  UNL     1      21.649   6.811  11.207  1.00  0.00     0.005 C 
HETATM   10  C10 UNL     1      23.113   6.535  11.100  1.00  0.00    -0.014 C 
HETATM   11  C11 UNL     1      23.335   5.080  11.478  1.00  0.00     0.005 C 
HETATM   12  C12 UNL     1      23.712   4.927  12.915  1.00  0.00     0.006 C 
HETATM   13  C13 UNL     1      22.773   5.728  13.842  1.00  0.00     0.002 C 
HETATM   14  C14 UNL     1      23.211   5.406  15.213  1.00  0.00     0.001 C 
HETATM   15  C15 UNL     1      22.941   3.900  15.429  1.00  0.00     0.008 C 
HETATM   16  C16 UNL     1      22.853   3.750  16.938  1.00  0.00     0.033 C 
HETATM   17  C17 UNL     1      22.924   5.148  17.519  1.00  0.00     0.126 C 
HETATM   18  C18 UNL     1      23.699   7.348  12.208  1.00  0.00     0.017 C 
ENDROOT
BRANCH   5  19
HETATM   19  O1  UNL     1      22.484   9.395  13.586  1.00  0.00    -0.389 OA
ATOM     20  H1  UNL     1      23.191   9.605  12.988  1.00  0.00     0.210 HD
ENDBRANCH   5  19
BRANCH  17  21
HETATM   21  O2  UNL     1      21.997   5.315  18.531  1.00  0.00    -0.395 OA
ATOM     22  H2  UNL     1      22.461   5.714  19.258  1.00  0.00     0.210 HD
ENDBRANCH  17  21
TORSDOF 2
ENDMDL
MODEL 5
REMARK VINA RESULT: -5.928348281      1.930      3.810
REMARK  2 active torsions:
REMARK  status: ('A' for Active; 'I' for Inactive)
REMARK    1  A    between atoms: C5_5  and  O1_7 
REMARK    2  A    between atoms: C17_19  and  O2_20 
ROOT
HETATM    1  C1  UNL     1      24.468   9.012  15.396  1.00  0.00     0.018 C 
HETATM    2  C2  UNL     1      22.996   8.930  15.239  1.00  0.00    -0.014 C 
HETATM    3  C3  UNL     1      22.254   8.628  16.523  1.00  0.00     0.015 C 
HETATM    4  C4  UNL     1      22.919   7.416  17.094  1.00  0.00     0.039 C 
HETATM    5  C5  UNL     1      22.337   6.179  16.486  1.00  0.00     0.062 C 
HETATM    6  C6  UNL     1      20.821   6.211  16.428  1.00  0.00     0.046 C 
HETATM    7  C7  UNL     1      22.894   5.756  15.195  1.00  0.00    -0.005 C 
HETATM    8  C8  UNL     1      24.230   5.040  15.451  1.00  0.00     0.013 C 
HETATM    9  C9  UNL     1      24.294   3.907  14.468  1.00  0.00     0.005 C 
HETATM   10  C10 UNL     1      22.948   3.818  13.826  1.00  0.00    -0.014 C 
HETATM   11  C11 UNL     1      22.979   4.680  12.576  1.00  0.00     0.005 C 
HETATM   12  C12 UNL     1      22.441   6.051  12.827  1.00  0.00     0.006 C 
HETATM   13  C13 UNL     1      23.054   6.682  14.096  1.00  0.00     0.002 C 
HETATM   14  C14 UNL     1      22.502   8.049  14.158  1.00  0.00     0.001 C 
HETATM   15  C15 UNL     1      23.042   8.808  12.925  1.00  0.00     0.008 C 
HETATM   16  C16 UNL     1      22.944  10.272  13.318  1.00  0.00     0.033 C 
HETATM   17  C17 UNL     1      22.506  10.305  14.769  1.00  0.00     0.126 C 
HETATM   18  C18 UNL     1      22.057   4.522  14.797  1.00  0.00     0.017 C 
ENDROOT
BRANCH   5  19
HETATM   19  O1  UNL     1      22.618   5.141  17.418  1.00  0.00    -0.389 OA
ATOM     20  H1  UNL     1      22.646   4.345  16.900  1.00  0.00     0.210 HD
ENDBRANCH   5  19
BRANCH  17  21
HETATM   21  O2  UNL     1      23.226  11.243  15.485  1.00  0.00    -0.395 OA
ATOM     22  H2  UNL     1      22.645  11.568  16.163  1.00  0.00     0.210 HD
ENDBRANCH  17  21
TORSDOF 2
ENDMDL
