MODEL 1
REMARK VINA RESULT: -6.994558199      0.000      0.000
REMARK  6 active torsions:
REMARK  status: ('A' for Active; 'I' for Inactive)
REMARK    1  A    between atoms: O1_1  and  C1_3 
REMARK    2  A    between atoms: C1_3  and  C2_4 
REMARK    3  A    between atoms: C2_4  and  C3_5 
REMARK    4  A    between atoms: N1_8  and  C6_9 
REMARK    5  A    between atoms: C6_9  and  C7_10 
REMARK    6  A    between atoms: N2_14  and  C11_15 
ROOT
HETATM    1  C7  UNL     1      -3.539   3.591  12.437  1.00  0.00     0.042 C 
HETATM    2  C8  UNL     1      -4.480   2.851  11.520  1.00  0.00     0.016 C 
HETATM    3  C9  UNL     1      -4.487   1.401  11.888  1.00  0.00     0.045 C 
HETATM    4  C10 UNL     1      -4.031   1.251  13.322  1.00  0.00     0.063 C 
HETATM    5  N2  UNL     1      -4.566   2.254  14.107  1.00  0.00    -0.369 N 
HETATM    6  C17 UNL     1      -4.186   3.563  13.809  1.00  0.00     0.069 C 
ENDROOT
BRANCH   1   7
HETATM    7  C6  UNL     1      -3.296   5.007  11.983  1.00  0.00     0.126 C 
BRANCH   7   8
HETATM    8  N1  UNL     1      -1.960   5.286  11.602  1.00  0.00    -0.412 N 
HETATM    9  C5  UNL     1      -1.527   4.803  10.351  1.00  0.00     0.117 C 
HETATM   10  C4  UNL     1      -0.432   5.770   9.876  1.00  0.00     0.024 C 
HETATM   11  C3  UNL     1       0.705   5.605  10.808  1.00  0.00    -0.010 C 
HETATM   12  C19 UNL     1       0.280   5.850  12.254  1.00  0.00     0.024 C 
HETATM   13  C18 UNL     1      -0.971   5.084  12.599  1.00  0.00     0.117 C 
BRANCH  11  14
HETATM   14  C2  UNL     1       1.479   4.339  10.680  1.00  0.00     0.031 C 
BRANCH  14  15
HETATM   15  C1  UNL     1       2.407   4.282   9.509  1.00  0.00     0.164 C 
BRANCH  15  16
HETATM   16  O1  UNL     1       2.802   3.029   9.101  1.00  0.00    -0.401 OA
ATOM     17  H1  UNL     1       3.189   2.969   8.236  1.00  0.00     0.209 HD
ENDBRANCH  15  16
ENDBRANCH  14  15
ENDBRANCH  11  14
ENDBRANCH   7   8
ENDBRANCH   1   7
BRANCH   5  18
HETATM   18  C11 UNL     1      -5.475   2.008  15.126  1.00  0.00     0.088 C 
HETATM   19  C12 UNL     1      -4.880   0.926  16.040  1.00  0.00     0.026 C 
HETATM   20  C13 UNL     1      -5.738   0.695  17.250  1.00  0.00     0.002 C 
HETATM   21  C14 UNL     1      -7.080   1.329  17.110  1.00  0.00     0.000 C 
HETATM   22  C15 UNL     1      -6.900   2.823  16.980  1.00  0.00     0.002 C 
HETATM   23  C16 UNL     1      -5.801   3.176  16.002  1.00  0.00     0.026 C 
ENDBRANCH   5  18
TORSDOF 6
ENDMDL
MODEL 2
REMARK VINA RESULT: -6.986128215      0.834      1.346
REMARK  6 active torsions:
REMARK  status: ('A' for Active; 'I' for Inactive)
REMARK    1  A    between atoms: O1_1  and  C1_3 
REMARK    2  A    between atoms: C1_3  and  C2_4 
REMARK    3  A    between atoms: C2_4  and  C3_5 
REMARK    4  A    between atoms: N1_8  and  C6_9 
REMARK    5  A    between atoms: C6_9  and  C7_10 
REMARK    6  A    between atoms: N2_14  and  C11_15 
ROOT
HETATM    1  C7  UNL     1      -3.174   4.075  13.216  1.00  0.00     0.042 C 
HETATM    2  C8  UNL     1      -4.459   3.802  12.476  1.00  0.00     0.016 C 
HETATM    3  C9  UNL     1      -4.771   2.341  12.552  1.00  0.00     0.045 C 
HETATM    4  C10 UNL     1      -4.061   1.745  13.747  1.00  0.00     0.063 C 
HETATM    5  N2  UNL     1      -4.119   2.609  14.824  1.00  0.00    -0.369 N 
HETATM    6  C17 UNL     1      -3.480   3.841  14.684  1.00  0.00     0.069 C 
ENDROOT
BRANCH   1   7
HETATM    7  C6  UNL     1      -2.669   5.476  12.986  1.00  0.00     0.126 C 
BRANCH   7   8
HETATM    8  N1  UNL     1      -1.564   5.571  12.105  1.00  0.00    -0.412 N 
HETATM    9  C5  UNL     1      -1.394   4.537  11.162  1.00  0.00     0.117 C 
HETATM   10  C4  UNL     1      -0.674   5.170   9.961  1.00  0.00     0.024 C 
HETATM   11  C3  UNL     1       0.680   5.538  10.431  1.00  0.00    -0.010 C 
HETATM   12  C19 UNL     1       0.616   6.464  11.643  1.00  0.00     0.024 C 
HETATM   13  C18 UNL     1      -0.325   5.934  12.694  1.00  0.00     0.117 C 
BRANCH  11  14
HETATM   14  C2  UNL     1       1.622   4.408  10.664  1.00  0.00     0.031 C 
BRANCH  14  15
HETATM   15  C1  UNL     1       2.683   4.246   9.623  1.00  0.00     0.164 C 
BRANCH  15  16
HETATM   16  O1  UNL     1       2.790   3.002   9.047  1.00  0.00    -0.401 OA
ATOM     17  H1  UNL     1       3.642   2.584   9.101  1.00  0.00     0.209 HD
ENDBRANCH  15  16
ENDBRANCH  14  15
ENDBRANCH  11  14
ENDBRANCH   7   8
ENDBRANCH   1   7
BRANCH   5  18
HETATM   18  C11 UNL     1      -4.809   2.312  15.991  1.00  0.00     0.088 C 
HETATM   19  C12 UNL     1      -6.106   3.134  15.997  1.00  0.00     0.026 C 
HETATM   20  C13 UNL     1      -6.982   2.770  17.161  1.00  0.00     0.002 C 
HETATM   21  C14 UNL     1      -6.255   1.949  18.171  1.00  0.00     0.000 C 
HETATM   22  C15 UNL     1      -5.826   0.654  17.524  1.00  0.00     0.002 C 
HETATM   23  C16 UNL     1      -5.210   0.880  16.161  1.00  0.00     0.026 C 
ENDBRANCH   5  18
TORSDOF 6
ENDMDL
MODEL 3
REMARK VINA RESULT: -6.982471723      3.374      7.290
REMARK  6 active torsions:
REMARK  status: ('A' for Active; 'I' for Inactive)
REMARK    1  A    between atoms: O1_1  and  C1_3 
REMARK    2  A    between atoms: C1_3  and  C2_4 
REMARK    3  A    between atoms: C2_4  and  C3_5 
REMARK    4  A    between atoms: N1_8  and  C6_9 
REMARK    5  A    between atoms: C6_9  and  C7_10 
REMARK    6  A    between atoms: N2_14  and  C11_15 
ROOT
HETATM    1  C7  UNL     1      -3.271   4.097  11.874  1.00  0.00     0.042 C 
HETATM    2  C8  UNL     1      -1.913   3.620  12.324  1.00  0.00     0.016 C 
HETATM    3  C9  UNL     1      -0.858   4.478  11.703  1.00  0.00     0.045 C 
HETATM    4  C10 UNL     1      -1.464   5.808  11.317  1.00  0.00     0.063 C 
HETATM    5  N2  UNL     1      -2.342   6.240  12.293  1.00  0.00    -0.369 N 
HETATM    6  C17 UNL     1      -3.471   5.454  12.523  1.00  0.00     0.069 C 
ENDROOT
BRANCH   1   7
HETATM    7  C6  UNL     1      -4.370   3.144  12.264  1.00  0.00     0.126 C 
BRANCH   7   8
HETATM    8  N1  UNL     1      -4.664   3.113  13.650  1.00  0.00    -0.412 N 
HETATM    9  C5  UNL     1      -4.362   1.929  14.353  1.00  0.00     0.117 C 
HETATM   10  C4  UNL     1      -4.081   2.353  15.802  1.00  0.00     0.024 C 
HETATM   11  C3  UNL     1      -5.363   2.851  16.348  1.00  0.00    -0.010 C 
HETATM   12  C19 UNL     1      -5.929   3.984  15.495  1.00  0.00     0.024 C 
HETATM   13  C18 UNL     1      -5.931   3.624  14.031  1.00  0.00     0.117 C 
BRANCH  11  14
HETATM   14  C2  UNL     1      -6.399   1.819  16.632  1.00  0.00     0.031 C 
BRANCH  14  15
HETATM   15  C1  UNL     1      -5.998   0.780  17.630  1.00  0.00     0.164 C 
BRANCH  15  16
HETATM   16  O1  UNL     1      -5.758  -0.481  17.136  1.00  0.00    -0.401 OA
ATOM     17  H1  UNL     1      -5.094  -0.551  16.460  1.00  0.00     0.209 HD
ENDBRANCH  15  16
ENDBRANCH  14  15
ENDBRANCH  11  14
ENDBRANCH   7   8
ENDBRANCH   1   7
BRANCH   5  18
HETATM   18  C11 UNL     1      -2.118   7.378  13.055  1.00  0.00     0.088 C 
HETATM   19  C12 UNL     1      -2.714   7.138  14.450  1.00  0.00     0.026 C 
HETATM   20  C13 UNL     1      -2.396   8.267  15.386  1.00  0.00     0.002 C 
HETATM   21  C14 UNL     1      -1.863   9.457  14.664  1.00  0.00     0.000 C 
HETATM   22  C15 UNL     1      -0.570   9.073  13.984  1.00  0.00     0.002 C 
HETATM   23  C16 UNL     1      -0.683   7.748  13.262  1.00  0.00     0.026 C 
ENDBRANCH   5  18
TORSDOF 6
ENDMDL
MODEL 4
REMARK VINA RESULT: -6.946682863      1.176      1.475
REMARK  6 active torsions:
REMARK  status: ('A' for Active; 'I' for Inactive)
REMARK    1  A    between atoms: O1_1  and  C1_3 
REMARK    2  A    between atoms: C1_3  and  C2_4 
REMARK    3  A    between atoms: C2_4  and  C3_5 
REMARK    4  A    between atoms: N1_8  and  C6_9 
REMARK    5  A    between atoms: C6_9  and  C7_10 
REMARK    6  A    between atoms: N2_14  and  C11_15 
ROOT
HETATM    1  C7  UNL     1      -3.543   3.329  12.387  1.00  0.00     0.042 C 
HETATM    2  C8  UNL     1      -4.519   2.584  11.511  1.00  0.00     0.016 C 
HETATM    3  C9  UNL     1      -4.583   1.155  11.948  1.00  0.00     0.045 C 
HETATM    4  C10 UNL     1      -4.124   1.056  13.385  1.00  0.00     0.063 C 
HETATM    5  N2  UNL     1      -4.613   2.117  14.123  1.00  0.00    -0.369 N 
HETATM    6  C17 UNL     1      -4.182   3.393  13.761  1.00  0.00     0.069 C 
ENDROOT
BRANCH   1   7
HETATM    7  C6  UNL     1      -3.244   4.710  11.863  1.00  0.00     0.126 C 
BRANCH   7   8
HETATM    8  N1  UNL     1      -1.894   4.924  11.493  1.00  0.00    -0.412 N 
HETATM    9  C5  UNL     1      -0.900   4.274  12.252  1.00  0.00     0.117 C 
HETATM   10  C4  UNL     1       0.290   4.061  11.304  1.00  0.00     0.024 C 
HETATM   11  C3  UNL     1       0.816   5.407  10.985  1.00  0.00    -0.010 C 
HETATM   12  C19 UNL     1      -0.267   6.302  10.390  1.00  0.00     0.024 C 
HETATM   13  C18 UNL     1      -1.528   6.266  11.214  1.00  0.00     0.117 C 
BRANCH  11  14
HETATM   14  C2  UNL     1       1.547   6.101  12.082  1.00  0.00     0.031 C 
BRANCH  14  15
HETATM   15  C1  UNL     1       3.031   5.913  12.070  1.00  0.00     0.164 C 
BRANCH  15  16
HETATM   16  O1  UNL     1       3.498   4.705  12.532  1.00  0.00    -0.401 OA
ATOM     17  H1  UNL     1       3.755   4.673  13.446  1.00  0.00     0.209 HD
ENDBRANCH  15  16
ENDBRANCH  14  15
ENDBRANCH  11  14
ENDBRANCH   7   8
ENDBRANCH   1   7
BRANCH   5  18
HETATM   18  C11 UNL     1      -5.525   1.957  15.157  1.00  0.00     0.088 C 
HETATM   19  C12 UNL     1      -4.984   0.876  16.104  1.00  0.00     0.026 C 
HETATM   20  C13 UNL     1      -5.843   0.736  17.327  1.00  0.00     0.002 C 
HETATM   21  C14 UNL     1      -7.148   1.439  17.175  1.00  0.00     0.000 C 
HETATM   22  C15 UNL     1      -6.885   2.915  16.991  1.00  0.00     0.002 C 
HETATM   23  C16 UNL     1      -5.777   3.172  15.994  1.00  0.00     0.026 C 
ENDBRANCH   5  18
TORSDOF 6
ENDMDL
MODEL 5
REMARK VINA RESULT: -6.897044634      3.490      7.345
REMARK  6 active torsions:
REMARK  status: ('A' for Active; 'I' for Inactive)
REMARK    1  A    between atoms: O1_1  and  C1_3 
REMARK    2  A    between atoms: C1_3  and  C2_4 
REMARK    3  A    between atoms: C2_4  and  C3_5 
REMARK    4  A    between atoms: N1_8  and  C6_9 
REMARK    5  A    between atoms: C6_9  and  C7_10 
REMARK    6  A    between atoms: N2_14  and  C11_15 
ROOT
HETATM    1  C7  UNL     1      -3.237   4.160  11.957  1.00  0.00     0.042 C 
HETATM    2  C8  UNL     1      -1.861   3.612  12.242  1.00  0.00     0.016 C 
HETATM    3  C9  UNL     1      -0.835   4.519  11.643  1.00  0.00     0.045 C 
HETATM    4  C10 UNL     1      -1.436   5.895  11.460  1.00  0.00     0.063 C 
HETATM    5  N2  UNL     1      -2.226   6.225  12.544  1.00  0.00    -0.369 N 
HETATM    6  C17 UNL     1      -3.354   5.435  12.770  1.00  0.00     0.069 C 
ENDROOT
BRANCH   1   7
HETATM    7  C6  UNL     1      -4.327   3.185  12.319  1.00  0.00     0.126 C 
BRANCH   7   8
HETATM    8  N1  UNL     1      -4.649   3.142  13.698  1.00  0.00    -0.412 N 
HETATM    9  C5  UNL     1      -4.363   1.952  14.396  1.00  0.00     0.117 C 
HETATM   10  C4  UNL     1      -4.112   2.363  15.855  1.00  0.00     0.024 C 
HETATM   11  C3  UNL     1      -5.404   2.858  16.379  1.00  0.00    -0.010 C 
HETATM   12  C19 UNL     1      -5.951   3.999  15.524  1.00  0.00     0.024 C 
HETATM   13  C18 UNL     1      -5.923   3.653  14.058  1.00  0.00     0.117 C 
BRANCH  11  14
HETATM   14  C2  UNL     1      -6.447   1.825  16.632  1.00  0.00     0.031 C 
BRANCH  14  15
HETATM   15  C1  UNL     1      -6.068   0.777  17.629  1.00  0.00     0.164 C 
BRANCH  15  16
HETATM   16  O1  UNL     1      -5.735  -0.457  17.122  1.00  0.00    -0.401 OA
ATOM     17  H1  UNL     1      -5.570  -1.145  17.757  1.00  0.00     0.209 HD
ENDBRANCH  15  16
ENDBRANCH  14  15
ENDBRANCH  11  14
ENDBRANCH   7   8
ENDBRANCH   1   7
BRANCH   5  18
HETATM   18  C11 UNL     1      -1.917   7.262  13.412  1.00  0.00     0.088 C 
HETATM   19  C12 UNL     1      -2.079   8.584  12.646  1.00  0.00     0.026 C 
HETATM   20  C13 UNL     1      -1.897   9.769  13.551  1.00  0.00     0.002 C 
HETATM   21  C14 UNL     1      -1.309   9.382  14.865  1.00  0.00     0.000 C 
HETATM   22  C15 UNL     1      -2.261   8.440  15.563  1.00  0.00     0.002 C 
HETATM   23  C16 UNL     1      -2.779   7.367  14.632  1.00  0.00     0.026 C 
ENDBRANCH   5  18
TORSDOF 6
ENDMDL
