MODEL 1
REMARK VINA RESULT: -4.690400164      0.000      0.000
REMARK  15 active torsions:
REMARK  status: ('A' for Active; 'I' for Inactive)
REMARK    1  A    between atoms: N1_1  and  C1_5 
REMARK    2  A    between atoms: C1_5  and  C2_6 
REMARK    3  A    between atoms: C3_8  and  O2_9 
REMARK    4  A    between atoms: O2_9  and  C4_10 
REMARK    5  A    between atoms: C6_12  and  C7_13 
REMARK    6  A    between atoms: C6_12  and  C8_18 
REMARK    7  A    between atoms: C7_13  and  N2_14 
REMARK    8  A    between atoms: C8_18  and  N3_19 
REMARK    9  A    between atoms: N3_19  and  C9_22 
REMARK   10  A    between atoms: C9_22  and  C10_23 
REMARK   11  A    between atoms: C10_23  and  O3_24 
REMARK   12  A    between atoms: O3_24  and  N4_25 
REMARK   13  A    between atoms: C11_28  and  N5_29 
REMARK   14  A    between atoms: C13_34  and  N6_35 
REMARK   15  A    between atoms: C14_42  and  O4_43 
ROOT
HETATM    1  C4  UNL     1      22.296  -4.281  20.292  1.00  0.00     0.157 C 
HETATM    2  C5  UNL     1      22.707  -2.939  20.756  1.00  0.00     0.049 C 
HETATM    3  C6  UNL     1      21.710  -2.193  21.576  1.00  0.00     0.037 C 
HETATM    4  C11 UNL     1      20.791  -3.049  22.389  1.00  0.00     0.197 C 
HETATM    5  C12 UNL     1      20.341  -4.297  21.710  1.00  0.00     0.069 C 
HETATM    6  C13 UNL     1      21.554  -5.098  21.327  1.00  0.00     0.214 C 
ENDROOT
BRANCH   1   7
HETATM    7  O2  UNL     1      23.463  -5.018  19.987  1.00  0.00    -0.331 OA
BRANCH   7   8
HETATM    8  C3  UNL     1      23.659  -5.119  18.617  1.00  0.00     0.473 C 
HETATM    9  O1  UNL     1      24.495  -4.086  18.194  1.00  0.00    -0.327 OA
HETATM   10  C2  UNL     1      24.260  -3.915  16.830  1.00  0.00     0.208 C 
HETATM   11  C14 UNL     1      22.973  -4.618  16.537  1.00  0.00     0.355 C 
HETATM   12  N7  UNL     1      22.440  -4.840  17.879  1.00  0.00     0.004 N 
ATOM     13  H72 UNL     1      21.712  -5.550  17.951  1.00  0.00     0.286 HD
ATOM     14  H71 UNL     1      21.864  -4.085  18.253  1.00  0.00     0.286 HD
BRANCH  10  15
HETATM   15  C1  UNL     1      24.210  -2.434  16.567  1.00  0.00     0.266 C 
BRANCH  15  16
HETATM   16  N1  UNL     1      23.358  -1.708  17.441  1.00  0.00    -0.077 N 
ATOM     17  H13 UNL     1      22.704  -1.137  16.906  1.00  0.00     0.274 HD
ATOM     18  H12 UNL     1      22.703  -2.338  17.903  1.00  0.00     0.274 HD
ATOM     19  H11 UNL     1      23.845  -1.136  18.130  1.00  0.00     0.274 HD
ENDBRANCH  15  16
ENDBRANCH  10  15
BRANCH  11  20
HETATM   20  O4  UNL     1      22.106  -3.914  15.738  1.00  0.00    -0.368 OA
ATOM     21  H4  UNL     1      22.427  -3.742  14.861  1.00  0.00     0.212 HD
ENDBRANCH  11  20
ENDBRANCH   7   8
ENDBRANCH   1   7
BRANCH   6  22
HETATM   22  N6  UNL     1      21.178  -6.354  20.676  1.00  0.00    -0.072 N 
ATOM     23  H63 UNL     1      21.850  -6.659  19.972  1.00  0.00     0.274 HD
ATOM     24  H62 UNL     1      21.258  -7.166  21.288  1.00  0.00     0.274 HD
ATOM     25  H61 UNL     1      20.238  -6.220  20.305  1.00  0.00     0.274 HD
ENDBRANCH   6  22
BRANCH   3  26
HETATM   26  C7  UNL     1      22.480  -1.327  22.554  1.00  0.00     0.243 C 
BRANCH  26  27
HETATM   27  N2  UNL     1      23.903  -1.494  22.457  1.00  0.00    -0.079 N 
ATOM     28  H23 UNL     1      24.268  -1.986  23.274  1.00  0.00     0.274 HD
ATOM     29  H22 UNL     1      24.140  -2.172  21.733  1.00  0.00     0.274 HD
ATOM     30  H21 UNL     1      24.401  -0.617  22.310  1.00  0.00     0.274 HD
ENDBRANCH  26  27
ENDBRANCH   3  26
BRANCH   3  31
HETATM   31  C8  UNL     1      20.893  -1.251  20.716  1.00  0.00     0.245 C 
BRANCH  31  32
HETATM   32  N3  UNL     1      21.698  -0.193  20.190  1.00  0.00    -0.072 N 
ATOM     33  H32 UNL     1      22.284   0.237  20.905  1.00  0.00     0.277 HD
ATOM     34  H31 UNL     1      22.440  -0.539  19.583  1.00  0.00     0.277 HD
BRANCH  32  35
HETATM   35  C9  UNL     1      20.846   0.775  19.522  1.00  0.00     0.260 C 
BRANCH  35  36
HETATM   36  C10 UNL     1      21.546   1.377  18.321  1.00  0.00     0.228 C 
BRANCH  36  37
HETATM   37  O3  UNL     1      20.690   1.399  17.204  1.00  0.00    -0.286 OA
BRANCH  37  38
HETATM   38  N4  UNL     1      19.652   0.585  17.415  1.00  0.00    -0.311 N 
ATOM     39  H42 UNL     1      19.364  -0.156  16.776  1.00  0.00     0.184 HD
ATOM     40  H41 UNL     1      19.204   0.820  18.300  1.00  0.00     0.184 HD
ENDBRANCH  37  38
ENDBRANCH  36  37
ENDBRANCH  35  36
ENDBRANCH  32  35
ENDBRANCH  31  32
ENDBRANCH   3  31
BRANCH   4  41
HETATM   41  N5  UNL     1      21.347  -3.362  23.691  1.00  0.00    -0.074 N 
ATOM     42  H53 UNL     1      21.569  -2.514  24.213  1.00  0.00     0.274 HD
ATOM     43  H52 UNL     1      20.638  -3.752  24.313  1.00  0.00     0.274 HD
ATOM     44  H51 UNL     1      22.158  -3.977  23.624  1.00  0.00     0.274 HD
ENDBRANCH   4  41
TORSDOF 15
ENDMDL
MODEL 2
REMARK VINA RESULT: -4.650029593      6.561     10.281
REMARK  15 active torsions:
REMARK  status: ('A' for Active; 'I' for Inactive)
REMARK    1  A    between atoms: N1_1  and  C1_5 
REMARK    2  A    between atoms: C1_5  and  C2_6 
REMARK    3  A    between atoms: C3_8  and  O2_9 
REMARK    4  A    between atoms: O2_9  and  C4_10 
REMARK    5  A    between atoms: C6_12  and  C7_13 
REMARK    6  A    between atoms: C6_12  and  C8_18 
REMARK    7  A    between atoms: C7_13  and  N2_14 
REMARK    8  A    between atoms: C8_18  and  N3_19 
REMARK    9  A    between atoms: N3_19  and  C9_22 
REMARK   10  A    between atoms: C9_22  and  C10_23 
REMARK   11  A    between atoms: C10_23  and  O3_24 
REMARK   12  A    between atoms: O3_24  and  N4_25 
REMARK   13  A    between atoms: C11_28  and  N5_29 
REMARK   14  A    between atoms: C13_34  and  N6_35 
REMARK   15  A    between atoms: C14_42  and  O4_43 
ROOT
HETATM    1  C4  UNL     1      22.953   5.686  16.150  1.00  0.00     0.157 C 
HETATM    2  C5  UNL     1      24.211   5.017  15.758  1.00  0.00     0.049 C 
HETATM    3  C6  UNL     1      25.064   5.743  14.774  1.00  0.00     0.037 C 
HETATM    4  C11 UNL     1      24.959   7.235  14.825  1.00  0.00     0.197 C 
HETATM    5  C12 UNL     1      23.584   7.753  15.074  1.00  0.00     0.069 C 
HETATM    6  C13 UNL     1      23.081   7.177  16.367  1.00  0.00     0.214 C 
ENDROOT
BRANCH   1   7
HETATM    7  O2  UNL     1      22.538   5.151  17.391  1.00  0.00    -0.331 OA
BRANCH   7   8
HETATM    8  C3  UNL     1      22.783   3.787  17.465  1.00  0.00     0.473 C 
HETATM    9  O1  UNL     1      21.574   3.097  17.377  1.00  0.00    -0.327 OA
HETATM   10  C2  UNL     1      21.787   1.842  17.947  1.00  0.00     0.208 C 
HETATM   11  C14 UNL     1      23.057   1.951  18.730  1.00  0.00     0.355 C 
HETATM   12  N7  UNL     1      23.256   3.398  18.781  1.00  0.00     0.004 N 
ATOM     13  H72 UNL     1      24.200   3.703  19.016  1.00  0.00     0.286 HD
ATOM     14  H71 UNL     1      22.810   3.874  19.566  1.00  0.00     0.286 HD
BRANCH  10  15
HETATM   15  C1  UNL     1      20.584   1.525  18.793  1.00  0.00     0.266 C 
BRANCH  15  16
HETATM   16  N1  UNL     1      20.469   0.159  19.167  1.00  0.00    -0.077 N 
ATOM     17  H13 UNL     1      21.154  -0.405  18.665  1.00  0.00     0.274 HD
ATOM     18  H12 UNL     1      20.798   0.024  20.123  1.00  0.00     0.274 HD
ATOM     19  H11 UNL     1      19.535  -0.234  19.055  1.00  0.00     0.274 HD
ENDBRANCH  15  16
ENDBRANCH  10  15
BRANCH  11  20
HETATM   20  O4  UNL     1      23.008   1.383  19.979  1.00  0.00    -0.368 OA
ATOM     21  H4  UNL     1      23.232   0.460  20.004  1.00  0.00     0.212 HD
ENDBRANCH  11  20
ENDBRANCH   7   8
ENDBRANCH   1   7
BRANCH   6  22
HETATM   22  N6  UNL     1      21.739   7.670  16.684  1.00  0.00    -0.072 N 
ATOM     23  H63 UNL     1      21.344   8.259  15.951  1.00  0.00     0.274 HD
ATOM     24  H62 UNL     1      21.026   6.941  16.660  1.00  0.00     0.274 HD
ATOM     25  H61 UNL     1      21.807   8.139  17.587  1.00  0.00     0.274 HD
ENDBRANCH   6  22
BRANCH   3  26
HETATM   26  C7  UNL     1      26.509   5.396  15.077  1.00  0.00     0.243 C 
BRANCH  26  27
HETATM   27  N2  UNL     1      26.646   4.383  16.085  1.00  0.00    -0.079 N 
ATOM     28  H23 UNL     1      27.591   4.379  16.470  1.00  0.00     0.274 HD
ATOM     29  H22 UNL     1      26.124   4.633  16.925  1.00  0.00     0.274 HD
ATOM     30  H21 UNL     1      26.384   3.454  15.758  1.00  0.00     0.274 HD
ENDBRANCH  26  27
ENDBRANCH   3  26
BRANCH   3  31
HETATM   31  C8  UNL     1      24.792   5.267  13.362  1.00  0.00     0.245 C 
BRANCH  31  32
HETATM   32  N3  UNL     1      25.998   5.173  12.602  1.00  0.00    -0.072 N 
ATOM     33  H32 UNL     1      26.777   5.648  13.055  1.00  0.00     0.277 HD
ATOM     34  H31 UNL     1      26.382   4.229  12.605  1.00  0.00     0.277 HD
BRANCH  32  35
HETATM   35  C9  UNL     1      25.761   5.665  11.256  1.00  0.00     0.260 C 
BRANCH  35  36
HETATM   36  C10 UNL     1      25.371   7.128  11.273  1.00  0.00     0.228 C 
BRANCH  36  37
HETATM   37  O3  UNL     1      24.362   7.386  10.326  1.00  0.00    -0.286 OA
BRANCH  37  38
HETATM   38  N4  UNL     1      23.179   7.472  10.939  1.00  0.00    -0.311 N 
ATOM     39  H42 UNL     1      23.041   7.868  11.869  1.00  0.00     0.184 HD
ATOM     40  H41 UNL     1      22.451   7.087  10.338  1.00  0.00     0.184 HD
ENDBRANCH  37  38
ENDBRANCH  36  37
ENDBRANCH  35  36
ENDBRANCH  32  35
ENDBRANCH  31  32
ENDBRANCH   3  31
BRANCH   4  41
HETATM   41  N5  UNL     1      25.890   7.815  15.775  1.00  0.00    -0.074 N 
ATOM     42  H53 UNL     1      26.594   7.136  16.064  1.00  0.00     0.274 HD
ATOM     43  H52 UNL     1      26.500   8.498  15.325  1.00  0.00     0.274 HD
ATOM     44  H51 UNL     1      25.414   8.219  16.581  1.00  0.00     0.274 HD
ENDBRANCH   4  41
TORSDOF 15
ENDMDL
MODEL 3
REMARK VINA RESULT: -4.549650811      5.369      9.347
REMARK  15 active torsions:
REMARK  status: ('A' for Active; 'I' for Inactive)
REMARK    1  A    between atoms: N1_1  and  C1_5 
REMARK    2  A    between atoms: C1_5  and  C2_6 
REMARK    3  A    between atoms: C3_8  and  O2_9 
REMARK    4  A    between atoms: O2_9  and  C4_10 
REMARK    5  A    between atoms: C6_12  and  C7_13 
REMARK    6  A    between atoms: C6_12  and  C8_18 
REMARK    7  A    between atoms: C7_13  and  N2_14 
REMARK    8  A    between atoms: C8_18  and  N3_19 
REMARK    9  A    between atoms: N3_19  and  C9_22 
REMARK   10  A    between atoms: C9_22  and  C10_23 
REMARK   11  A    between atoms: C10_23  and  O3_24 
REMARK   12  A    between atoms: O3_24  and  N4_25 
REMARK   13  A    between atoms: C11_28  and  N5_29 
REMARK   14  A    between atoms: C13_34  and  N6_35 
REMARK   15  A    between atoms: C14_42  and  O4_43 
ROOT
HETATM    1  C4  UNL     1      23.102   5.091  16.487  1.00  0.00     0.157 C 
HETATM    2  C5  UNL     1      22.677   6.046  17.532  1.00  0.00     0.049 C 
HETATM    3  C6  UNL     1      23.327   7.387  17.500  1.00  0.00     0.037 C 
HETATM    4  C11 UNL     1      23.746   7.856  16.142  1.00  0.00     0.197 C 
HETATM    5  C12 UNL     1      24.303   6.790  15.262  1.00  0.00     0.069 C 
HETATM    6  C13 UNL     1      23.274   5.703  15.115  1.00  0.00     0.214 C 
ENDROOT
BRANCH   1   7
HETATM    7  O2  UNL     1      22.089   4.114  16.347  1.00  0.00    -0.331 OA
BRANCH   7   8
HETATM    8  C3  UNL     1      22.492   2.886  16.853  1.00  0.00     0.473 C 
HETATM    9  O1  UNL     1      21.369   2.095  17.092  1.00  0.00    -0.327 OA
HETATM   10  C2  UNL     1      21.747   1.135  18.030  1.00  0.00     0.208 C 
HETATM   11  C14 UNL     1      23.026   1.623  18.633  1.00  0.00     0.355 C 
HETATM   12  N7  UNL     1      23.058   3.014  18.183  1.00  0.00     0.004 N 
ATOM     13  H72 UNL     1      23.970   3.469  18.230  1.00  0.00     0.286 HD
ATOM     14  H71 UNL     1      22.593   3.684  18.796  1.00  0.00     0.286 HD
BRANCH  10  15
HETATM   15  C1  UNL     1      20.623   1.011  19.022  1.00  0.00     0.266 C 
BRANCH  15  16
HETATM   16  N1  UNL     1      20.702  -0.131  19.864  1.00  0.00    -0.077 N 
ATOM     17  H13 UNL     1      21.417  -0.773  19.524  1.00  0.00     0.274 HD
ATOM     18  H12 UNL     1      21.106   0.120  20.766  1.00  0.00     0.274 HD
ATOM     19  H11 UNL     1      19.819  -0.622  19.996  1.00  0.00     0.274 HD
ENDBRANCH  15  16
ENDBRANCH  10  15
BRANCH  11  20
HETATM   20  O4  UNL     1      23.093   1.512  19.999  1.00  0.00    -0.368 OA
ATOM     21  H4  UNL     1      23.771   0.928  20.317  1.00  0.00     0.212 HD
ENDBRANCH  11  20
ENDBRANCH   7   8
ENDBRANCH   1   7
BRANCH   6  22
HETATM   22  N6  UNL     1      23.751   4.633  14.237  1.00  0.00    -0.072 N 
ATOM     23  H63 UNL     1      23.631   3.702  14.635  1.00  0.00     0.274 HD
ATOM     24  H62 UNL     1      23.166   4.496  13.413  1.00  0.00     0.274 HD
ATOM     25  H61 UNL     1      24.721   4.853  14.011  1.00  0.00     0.274 HD
ENDBRANCH   6  22
BRANCH   3  26
HETATM   26  C7  UNL     1      22.319   8.396  18.018  1.00  0.00     0.243 C 
BRANCH  26  27
HETATM   27  N2  UNL     1      21.120   7.787  18.522  1.00  0.00    -0.079 N 
ATOM     28  H23 UNL     1      20.294   8.184  18.073  1.00  0.00     0.274 HD
ATOM     29  H22 UNL     1      21.039   6.823  18.199  1.00  0.00     0.274 HD
ATOM     30  H21 UNL     1      21.041   7.838  19.537  1.00  0.00     0.274 HD
ENDBRANCH  26  27
ENDBRANCH   3  26
BRANCH   3  31
HETATM   31  C8  UNL     1      24.513   7.440  18.440  1.00  0.00     0.245 C 
BRANCH  31  32
HETATM   32  N3  UNL     1      24.273   6.682  19.627  1.00  0.00    -0.072 N 
ATOM     33  H32 UNL     1      23.940   7.264  20.395  1.00  0.00     0.277 HD
ATOM     34  H31 UNL     1      23.458   6.076  19.539  1.00  0.00     0.277 HD
BRANCH  32  35
HETATM   35  C9  UNL     1      25.472   5.942  19.979  1.00  0.00     0.260 C 
BRANCH  35  36
HETATM   36  C10 UNL     1      25.233   5.061  21.188  1.00  0.00     0.228 C 
BRANCH  36  37
HETATM   37  O3  UNL     1      24.661   3.834  20.805  1.00  0.00    -0.286 OA
BRANCH  37  38
HETATM   38  N4  UNL     1      25.529   2.843  21.025  1.00  0.00    -0.311 N 
ATOM     39  H42 UNL     1      26.534   2.913  20.861  1.00  0.00     0.184 HD
ATOM     40  H41 UNL     1      25.035   2.023  21.374  1.00  0.00     0.184 HD
ENDBRANCH  37  38
ENDBRANCH  36  37
ENDBRANCH  35  36
ENDBRANCH  32  35
ENDBRANCH  31  32
ENDBRANCH   3  31
BRANCH   4  41
HETATM   41  N5  UNL     1      22.681   8.563  15.457  1.00  0.00    -0.074 N 
ATOM     42  H53 UNL     1      21.868   7.963  15.318  1.00  0.00     0.274 HD
ATOM     43  H52 UNL     1      22.259   9.270  16.059  1.00  0.00     0.274 HD
ATOM     44  H51 UNL     1      22.996   8.969  14.575  1.00  0.00     0.274 HD
ENDBRANCH   4  41
TORSDOF 15
ENDMDL
MODEL 4
REMARK VINA RESULT: -4.506007453      5.200      8.847
REMARK  15 active torsions:
REMARK  status: ('A' for Active; 'I' for Inactive)
REMARK    1  A    between atoms: N1_1  and  C1_5 
REMARK    2  A    between atoms: C1_5  and  C2_6 
REMARK    3  A    between atoms: C3_8  and  O2_9 
REMARK    4  A    between atoms: O2_9  and  C4_10 
REMARK    5  A    between atoms: C6_12  and  C7_13 
REMARK    6  A    between atoms: C6_12  and  C8_18 
REMARK    7  A    between atoms: C7_13  and  N2_14 
REMARK    8  A    between atoms: C8_18  and  N3_19 
REMARK    9  A    between atoms: N3_19  and  C9_22 
REMARK   10  A    between atoms: C9_22  and  C10_23 
REMARK   11  A    between atoms: C10_23  and  O3_24 
REMARK   12  A    between atoms: O3_24  and  N4_25 
REMARK   13  A    between atoms: C11_28  and  N5_29 
REMARK   14  A    between atoms: C13_34  and  N6_35 
REMARK   15  A    between atoms: C14_42  and  O4_43 
ROOT
HETATM    1  C4  UNL     1      23.599   3.850  16.709  1.00  0.00     0.157 C 
HETATM    2  C5  UNL     1      23.143   4.540  15.484  1.00  0.00     0.049 C 
HETATM    3  C6  UNL     1      23.996   5.665  15.006  1.00  0.00     0.037 C 
HETATM    4  C11 UNL     1      25.451   5.539  15.331  1.00  0.00     0.197 C 
HETATM    5  C12 UNL     1      25.739   4.967  16.677  1.00  0.00     0.069 C 
HETATM    6  C13 UNL     1      25.091   3.614  16.773  1.00  0.00     0.214 C 
ENDROOT
BRANCH   1   7
HETATM    7  O2  UNL     1      23.006   2.567  16.738  1.00  0.00    -0.331 OA
BRANCH   7   8
HETATM    8  C3  UNL     1      22.186   2.409  17.846  1.00  0.00     0.473 C 
HETATM    9  O1  UNL     1      22.831   1.607  18.786  1.00  0.00    -0.327 OA
HETATM   10  C2  UNL     1      21.837   1.070  19.604  1.00  0.00     0.208 C 
HETATM   11  C14 UNL     1      20.546   1.271  18.876  1.00  0.00     0.355 C 
HETATM   12  N7  UNL     1      21.008   1.620  17.534  1.00  0.00     0.004 N 
ATOM     13  H72 UNL     1      20.319   2.077  16.938  1.00  0.00     0.286 HD
ATOM     14  H71 UNL     1      21.163   0.832  16.904  1.00  0.00     0.286 HD
BRANCH  10  15
HETATM   15  C1  UNL     1      22.179  -0.377  19.833  1.00  0.00     0.266 C 
BRANCH  15  16
HETATM   16  N1  UNL     1      22.694  -1.050  18.692  1.00  0.00    -0.077 N 
ATOM     17  H13 UNL     1      22.076  -0.916  17.892  1.00  0.00     0.274 HD
ATOM     18  H12 UNL     1      23.530  -0.579  18.349  1.00  0.00     0.274 HD
ATOM     19  H11 UNL     1      22.879  -2.043  18.834  1.00  0.00     0.274 HD
ENDBRANCH  15  16
ENDBRANCH  10  15
BRANCH  11  20
HETATM   20  O4  UNL     1      19.714   0.179  18.876  1.00  0.00    -0.368 OA
ATOM     21  H4  UNL     1      20.104  -0.617  18.535  1.00  0.00     0.212 HD
ENDBRANCH  11  20
ENDBRANCH   7   8
ENDBRANCH   1   7
BRANCH   6  22
HETATM   22  N6  UNL     1      25.360   2.985  18.067  1.00  0.00    -0.072 N 
ATOM     23  H63 UNL     1      25.560   3.657  18.807  1.00  0.00     0.274 HD
ATOM     24  H62 UNL     1      24.531   2.570  18.493  1.00  0.00     0.274 HD
ATOM     25  H61 UNL     1      26.113   2.316  17.914  1.00  0.00     0.274 HD
ENDBRANCH   6  22
BRANCH   3  26
HETATM   26  C7  UNL     1      23.889   5.709  13.493  1.00  0.00     0.243 C 
BRANCH  26  27
HETATM   27  N2  UNL     1      23.142   4.611  12.948  1.00  0.00    -0.079 N 
ATOM     28  H23 UNL     1      22.613   4.133  13.678  1.00  0.00     0.274 HD
ATOM     29  H22 UNL     1      22.369   4.947  12.374  1.00  0.00     0.274 HD
ATOM     30  H21 UNL     1      23.721   3.952  12.429  1.00  0.00     0.274 HD
ENDBRANCH  26  27
ENDBRANCH   3  26
BRANCH   3  31
HETATM   31  C8  UNL     1      23.479   6.995  15.515  1.00  0.00     0.245 C 
BRANCH  31  32
HETATM   32  N3  UNL     1      22.225   6.846  16.184  1.00  0.00    -0.072 N 
ATOM     33  H32 UNL     1      21.523   6.404  15.592  1.00  0.00     0.277 HD
ATOM     34  H31 UNL     1      22.262   6.140  16.918  1.00  0.00     0.277 HD
BRANCH  32  35
HETATM   35  C9  UNL     1      21.788   8.138  16.684  1.00  0.00     0.260 C 
BRANCH  35  36
HETATM   36  C10 UNL     1      21.801   8.168  18.198  1.00  0.00     0.228 C 
BRANCH  36  37
HETATM   37  O3  UNL     1      20.503   7.984  18.711  1.00  0.00    -0.286 OA
BRANCH  37  38
HETATM   38  N4  UNL     1      20.467   8.361  19.992  1.00  0.00    -0.311 N 
ATOM     39  H42 UNL     1      21.035   9.111  20.387  1.00  0.00     0.184 HD
ATOM     40  H41 UNL     1      19.794   7.788  20.501  1.00  0.00     0.184 HD
ENDBRANCH  37  38
ENDBRANCH  36  37
ENDBRANCH  35  36
ENDBRANCH  32  35
ENDBRANCH  31  32
ENDBRANCH   3  31
BRANCH   4  41
HETATM   41  N5  UNL     1      26.176   4.804  14.312  1.00  0.00    -0.074 N 
ATOM     42  H53 UNL     1      26.657   3.997  14.709  1.00  0.00     0.274 HD
ATOM     43  H52 UNL     1      25.538   4.317  13.682  1.00  0.00     0.274 HD
ATOM     44  H51 UNL     1      26.821   5.402  13.794  1.00  0.00     0.274 HD
ENDBRANCH   4  41
TORSDOF 15
ENDMDL
MODEL 5
REMARK VINA RESULT: -4.505709988      2.406      5.063
REMARK  15 active torsions:
REMARK  status: ('A' for Active; 'I' for Inactive)
REMARK    1  A    between atoms: N1_1  and  C1_5 
REMARK    2  A    between atoms: C1_5  and  C2_6 
REMARK    3  A    between atoms: C3_8  and  O2_9 
REMARK    4  A    between atoms: O2_9  and  C4_10 
REMARK    5  A    between atoms: C6_12  and  C7_13 
REMARK    6  A    between atoms: C6_12  and  C8_18 
REMARK    7  A    between atoms: C7_13  and  N2_14 
REMARK    8  A    between atoms: C8_18  and  N3_19 
REMARK    9  A    between atoms: N3_19  and  C9_22 
REMARK   10  A    between atoms: C9_22  and  C10_23 
REMARK   11  A    between atoms: C10_23  and  O3_24 
REMARK   12  A    between atoms: O3_24  and  N4_25 
REMARK   13  A    between atoms: C11_28  and  N5_29 
REMARK   14  A    between atoms: C13_34  and  N6_35 
REMARK   15  A    between atoms: C14_42  and  O4_43 
ROOT
HETATM    1  C4  UNL     1      23.943  -0.548  17.989  1.00  0.00     0.157 C 
HETATM    2  C5  UNL     1      22.499  -0.238  18.008  1.00  0.00     0.049 C 
HETATM    3  C6  UNL     1      22.077   0.876  18.904  1.00  0.00     0.037 C 
HETATM    4  C11 UNL     1      23.104   1.944  19.115  1.00  0.00     0.197 C 
HETATM    5  C12 UNL     1      24.503   1.444  19.233  1.00  0.00     0.069 C 
HETATM    6  C13 UNL     1      24.843   0.668  17.991  1.00  0.00     0.214 C 
ENDROOT
BRANCH   1   7
HETATM    7  O2  UNL     1      24.230  -1.234  16.786  1.00  0.00    -0.331 OA
BRANCH   7   8
HETATM    8  C3  UNL     1      24.281  -2.607  16.983  1.00  0.00     0.473 C 
HETATM    9  O1  UNL     1      24.934  -3.203  15.905  1.00  0.00    -0.327 OA
HETATM   10  C2  UNL     1      24.529  -4.537  15.879  1.00  0.00     0.208 C 
HETATM   11  C14 UNL     1      23.311  -4.619  16.743  1.00  0.00     0.355 C 
HETATM   12  N7  UNL     1      22.963  -3.210  16.906  1.00  0.00     0.004 N 
ATOM     13  H72 UNL     1      22.338  -2.999  17.684  1.00  0.00     0.286 HD
ATOM     14  H71 UNL     1      22.346  -2.825  16.190  1.00  0.00     0.286 HD
BRANCH  10  15
HETATM   15  C1  UNL     1      24.272  -4.900  14.442  1.00  0.00     0.266 C 
BRANCH  15  16
HETATM   16  N1  UNL     1      24.439  -6.279  14.141  1.00  0.00    -0.077 N 
ATOM     17  H13 UNL     1      25.259  -6.649  14.620  1.00  0.00     0.274 HD
ATOM     18  H12 UNL     1      23.709  -6.831  14.591  1.00  0.00     0.274 HD
ATOM     19  H11 UNL     1      24.483  -6.493  13.145  1.00  0.00     0.274 HD
ENDBRANCH  15  16
ENDBRANCH  10  15
BRANCH  11  20
HETATM   20  O4  UNL     1      22.282  -5.356  16.212  1.00  0.00    -0.368 OA
ATOM     21  H4  UNL     1      21.512  -5.418  16.765  1.00  0.00     0.212 HD
ENDBRANCH  11  20
ENDBRANCH   7   8
ENDBRANCH   1   7
BRANCH   6  22
HETATM   22  N6  UNL     1      26.218   0.170  18.033  1.00  0.00    -0.072 N 
ATOM     23  H63 UNL     1      26.317  -0.696  18.561  1.00  0.00     0.274 HD
ATOM     24  H62 UNL     1      26.545  -0.190  17.136  1.00  0.00     0.274 HD
ATOM     25  H61 UNL     1      26.793   0.932  18.394  1.00  0.00     0.274 HD
ENDBRANCH   6  22
BRANCH   3  26
HETATM   26  C7  UNL     1      20.875   1.546  18.267  1.00  0.00     0.243 C 
BRANCH  26  27
HETATM   27  N2  UNL     1      20.011   0.624  17.585  1.00  0.00    -0.079 N 
ATOM     28  H23 UNL     1      20.277  -0.340  17.786  1.00  0.00     0.274 HD
ATOM     29  H22 UNL     1      19.077   0.630  17.996  1.00  0.00     0.274 HD
ATOM     30  H21 UNL     1      19.966   0.786  16.579  1.00  0.00     0.274 HD
ENDBRANCH  26  27
ENDBRANCH   3  26
BRANCH   3  31
HETATM   31  C8  UNL     1      21.615   0.349  20.247  1.00  0.00     0.245 C 
BRANCH  31  32
HETATM   32  N3  UNL     1      21.428  -1.067  20.216  1.00  0.00    -0.072 N 
ATOM     33  H32 UNL     1      20.448  -1.324  20.103  1.00  0.00     0.277 HD
ATOM     34  H31 UNL     1      21.788  -1.484  19.359  1.00  0.00     0.277 HD
BRANCH  32  35
HETATM   35  C9  UNL     1      22.018  -1.659  21.404  1.00  0.00     0.260 C 
BRANCH  35  36
HETATM   36  C10 UNL     1      20.950  -2.214  22.324  1.00  0.00     0.228 C 
BRANCH  36  37
HETATM   37  O3  UNL     1      19.812  -2.599  21.591  1.00  0.00    -0.286 OA
BRANCH  37  38
HETATM   38  N4  UNL     1      19.331  -3.747  22.075  1.00  0.00    -0.311 N 
ATOM     39  H42 UNL     1      19.047  -3.888  23.045  1.00  0.00     0.184 HD
ATOM     40  H41 UNL     1      19.296  -4.446  21.333  1.00  0.00     0.184 HD
ENDBRANCH  37  38
ENDBRANCH  36  37
ENDBRANCH  35  36
ENDBRANCH  32  35
ENDBRANCH  31  32
ENDBRANCH   3  31
BRANCH   4  41
HETATM   41  N5  UNL     1      23.028   2.980  18.103  1.00  0.00    -0.074 N 
ATOM     42  H53 UNL     1      22.566   2.640  17.260  1.00  0.00     0.274 HD
ATOM     43  H52 UNL     1      22.365   3.709  18.369  1.00  0.00     0.274 HD
ATOM     44  H51 UNL     1      23.944   3.375  17.888  1.00  0.00     0.274 HD
ENDBRANCH   4  41
TORSDOF 15
ENDMDL
