MODEL 1
REMARK VINA RESULT: -6.444902856      0.000      0.000
REMARK  9 active torsions:
REMARK  status: ('A' for Active; 'I' for Inactive)
REMARK    1  A    between atoms: C2_2  and  C3_3 
REMARK    2  A    between atoms: C3_3  and  C5_5 
REMARK    3  A    between atoms: C3_3  and  C10_11 
REMARK    4  A    between atoms: C6_6  and  C7_7 
REMARK    5  A    between atoms: C7_7  and  N1_8 
REMARK    6  A    between atoms: C10_11  and  C11_12 
REMARK    7  A    between atoms: C11_12  and  O1_13 
REMARK    8  A    between atoms: C11_12  and  C12_15 
REMARK    9  A    between atoms: C12_15  and  C13_16 
ROOT
HETATM    1  C11 UNL     1      -4.330   1.071  15.476  1.00  0.00     0.120 C 
ENDROOT
BRANCH   1   2
HETATM    2  C10 UNL     1      -5.466   0.626  16.341  1.00  0.00     0.053 C 
BRANCH   2   3
HETATM    3  C3  UNL     1      -6.248   1.677  17.019  1.00  0.00     0.022 C 
HETATM    4  C4  UNL     1      -7.711   1.194  17.023  1.00  0.00     0.029 C 
BRANCH   3   5
HETATM    5  C2  UNL     1      -5.918   1.995  18.429  1.00  0.00     0.018 C 
HETATM    6  C1  UNL     1      -6.826   3.008  19.059  1.00  0.00     0.007 C 
ENDBRANCH   3   5
BRANCH   3   7
HETATM    7  C5  UNL     1      -6.215   2.899  16.182  1.00  0.00    -0.095 C 
HETATM    8  C6  UNL     1      -6.167   3.895  15.503  1.00  0.00    -0.075 C 
BRANCH   8   9
HETATM    9  C7  UNL     1      -6.081   5.115  14.677  1.00  0.00     0.364 C 
BRANCH   9  10
HETATM   10  N1  UNL     1      -4.829   5.185  13.979  1.00  0.00     0.090 N 
HETATM   11  C8  UNL     1      -4.930   5.868  12.708  1.00  0.00     0.310 C 
HETATM   12  C9  UNL     1      -3.841   5.835  14.803  1.00  0.00     0.310 C 
ENDBRANCH   9  10
ENDBRANCH   8   9
ENDBRANCH   3   7
ENDBRANCH   2   3
ENDBRANCH   1   2
BRANCH   1  13
HETATM   13  O1  UNL     1      -3.237   1.352  16.290  1.00  0.00    -0.396 OA
ATOM     14  H1  UNL     1      -2.915   0.536  16.656  1.00  0.00     0.210 HD
ENDBRANCH   1  13
BRANCH   1  15
HETATM   15  C12 UNL     1      -4.017   0.151  14.355  1.00  0.00     0.036 C 
BRANCH  15  16
HETATM   16  C13 UNL     1      -4.002   0.693  12.985  1.00  0.00    -0.009 C 
HETATM   17  C14 UNL     1      -4.535  -0.430  12.077  1.00  0.00     0.032 C 
HETATM   18  C15 UNL     1      -4.396  -0.055  10.635  1.00  0.00     0.232 C 
HETATM   19  N2  UNL     1      -5.288   1.095  10.425  1.00  0.00    -0.075 N 
HETATM   20  C16 UNL     1      -4.854   2.193  11.241  1.00  0.00     0.232 C 
ATOM     21  H22 UNL     1      -5.360   1.353   9.440  1.00  0.00     0.277 HD
ATOM     22  H21 UNL     1      -6.267   0.858  10.586  1.00  0.00     0.277 HD
HETATM   23  C17 UNL     1      -4.844   1.890  12.724  1.00  0.00     0.032 C 
ENDBRANCH  15  16
ENDBRANCH   1  15
TORSDOF 9
ENDMDL
MODEL 2
REMARK VINA RESULT: -6.020269562      2.112      5.889
REMARK  9 active torsions:
REMARK  status: ('A' for Active; 'I' for Inactive)
REMARK    1  A    between atoms: C2_2  and  C3_3 
REMARK    2  A    between atoms: C3_3  and  C5_5 
REMARK    3  A    between atoms: C3_3  and  C10_11 
REMARK    4  A    between atoms: C6_6  and  C7_7 
REMARK    5  A    between atoms: C7_7  and  N1_8 
REMARK    6  A    between atoms: C10_11  and  C11_12 
REMARK    7  A    between atoms: C11_12  and  O1_13 
REMARK    8  A    between atoms: C11_12  and  C12_15 
REMARK    9  A    between atoms: C12_15  and  C13_16 
ROOT
HETATM    1  C11 UNL     1      -4.971   5.086  14.703  1.00  0.00     0.120 C 
ENDROOT
BRANCH   1   2
HETATM    2  C10 UNL     1      -5.208   5.558  13.304  1.00  0.00     0.053 C 
BRANCH   2   3
HETATM    3  C3  UNL     1      -4.167   5.253  12.304  1.00  0.00     0.022 C 
HETATM    4  C4  UNL     1      -4.784   5.563  10.927  1.00  0.00     0.029 C 
BRANCH   3   5
HETATM    5  C2  UNL     1      -2.895   6.013  12.363  1.00  0.00     0.018 C 
HETATM    6  C1  UNL     1      -3.068   7.502  12.368  1.00  0.00     0.007 C 
ENDBRANCH   3   5
BRANCH   3   7
HETATM    7  C5  UNL     1      -3.909   3.795  12.327  1.00  0.00    -0.095 C 
HETATM    8  C6  UNL     1      -3.681   2.610  12.356  1.00  0.00    -0.075 C 
BRANCH   8   9
HETATM    9  C7  UNL     1      -3.377   1.167  12.405  1.00  0.00     0.364 C 
BRANCH   9  10
HETATM   10  N1  UNL     1      -4.497   0.383  11.967  1.00  0.00     0.090 N 
HETATM   11  C8  UNL     1      -5.050   0.843  10.712  1.00  0.00     0.310 C 
HETATM   12  C9  UNL     1      -4.115  -1.001  11.851  1.00  0.00     0.310 C 
ENDBRANCH   9  10
ENDBRANCH   8   9
ENDBRANCH   3   7
ENDBRANCH   2   3
ENDBRANCH   1   2
BRANCH   1  13
HETATM   13  O1  UNL     1      -4.382   6.118  15.425  1.00  0.00    -0.396 OA
ATOM     14  H1  UNL     1      -4.315   5.852  16.334  1.00  0.00     0.210 HD
ENDBRANCH   1  13
BRANCH   1  15
HETATM   15  C12 UNL     1      -6.165   4.502  15.362  1.00  0.00     0.036 C 
BRANCH  15  16
HETATM   16  C13 UNL     1      -6.212   3.045  15.570  1.00  0.00    -0.009 C 
HETATM   17  C14 UNL     1      -4.751   2.592  15.746  1.00  0.00     0.032 C 
HETATM   18  C15 UNL     1      -4.661   1.099  15.785  1.00  0.00     0.232 C 
HETATM   19  N2  UNL     1      -5.366   0.680  17.006  1.00  0.00    -0.075 N 
HETATM   20  C16 UNL     1      -6.745   1.067  16.919  1.00  0.00     0.232 C 
ATOM     21  H22 UNL     1      -5.257  -0.317  17.191  1.00  0.00     0.277 HD
ATOM     22  H21 UNL     1      -4.918   1.036  17.851  1.00  0.00     0.277 HD
HETATM   23  C17 UNL     1      -6.957   2.557  16.761  1.00  0.00     0.032 C 
ENDBRANCH  15  16
ENDBRANCH   1  15
TORSDOF 9
ENDMDL
MODEL 3
REMARK VINA RESULT: -5.883378145      2.316      6.066
REMARK  9 active torsions:
REMARK  status: ('A' for Active; 'I' for Inactive)
REMARK    1  A    between atoms: C2_2  and  C3_3 
REMARK    2  A    between atoms: C3_3  and  C5_5 
REMARK    3  A    between atoms: C3_3  and  C10_11 
REMARK    4  A    between atoms: C6_6  and  C7_7 
REMARK    5  A    between atoms: C7_7  and  N1_8 
REMARK    6  A    between atoms: C10_11  and  C11_12 
REMARK    7  A    between atoms: C11_12  and  O1_13 
REMARK    8  A    between atoms: C11_12  and  C12_15 
REMARK    9  A    between atoms: C12_15  and  C13_16 
ROOT
HETATM    1  C11 UNL     1      -4.356   4.732  14.393  1.00  0.00     0.120 C 
ENDROOT
BRANCH   1   2
HETATM    2  C10 UNL     1      -4.469   4.814  12.905  1.00  0.00     0.053 C 
BRANCH   2   3
HETATM    3  C3  UNL     1      -3.502   4.030  12.112  1.00  0.00     0.022 C 
HETATM    4  C4  UNL     1      -3.872   4.255  10.633  1.00  0.00     0.029 C 
BRANCH   3   5
HETATM    5  C2  UNL     1      -2.063   4.368  12.229  1.00  0.00     0.018 C 
HETATM    6  C1  UNL     1      -1.731   5.782  11.861  1.00  0.00     0.007 C 
ENDBRANCH   3   5
BRANCH   3   7
HETATM    7  C5  UNL     1      -3.729   2.592  12.384  1.00  0.00    -0.095 C 
HETATM    8  C6  UNL     1      -3.906   1.423  12.626  1.00  0.00    -0.075 C 
BRANCH   8   9
HETATM    9  C7  UNL     1      -4.111  -0.002  12.948  1.00  0.00     0.364 C 
BRANCH   9  10
HETATM   10  N1  UNL     1      -4.469  -0.754  11.779  1.00  0.00     0.090 N 
HETATM   11  C8  UNL     1      -4.813   0.084  10.652  1.00  0.00     0.310 C 
HETATM   12  C9  UNL     1      -3.395  -1.642  11.414  1.00  0.00     0.310 C 
ENDBRANCH   9  10
ENDBRANCH   8   9
ENDBRANCH   3   7
ENDBRANCH   2   3
ENDBRANCH   1   2
BRANCH   1  13
HETATM   13  O1  UNL     1      -3.681   5.860  14.849  1.00  0.00    -0.396 OA
ATOM     14  H1  UNL     1      -3.244   5.643  15.664  1.00  0.00     0.210 HD
ENDBRANCH   1  13
BRANCH   1  15
HETATM   15  C12 UNL     1      -5.640   4.482  15.092  1.00  0.00     0.036 C 
BRANCH  15  16
HETATM   16  C13 UNL     1      -5.962   3.105  15.502  1.00  0.00    -0.009 C 
HETATM   17  C14 UNL     1      -4.643   2.490  16.003  1.00  0.00     0.032 C 
HETATM   18  C15 UNL     1      -4.812   1.029  16.279  1.00  0.00     0.232 C 
HETATM   19  N2  UNL     1      -5.757   0.933  17.401  1.00  0.00    -0.075 N 
HETATM   20  C16 UNL     1      -7.021   1.488  17.011  1.00  0.00     0.232 C 
ATOM     21  H22 UNL     1      -5.846  -0.022  17.749  1.00  0.00     0.277 HD
ATOM     22  H21 UNL     1      -5.392   1.364  18.251  1.00  0.00     0.277 HD
HETATM   23  C17 UNL     1      -6.953   2.941  16.598  1.00  0.00     0.032 C 
ENDBRANCH  15  16
ENDBRANCH   1  15
TORSDOF 9
ENDMDL
MODEL 4
REMARK VINA RESULT: -5.732487976      3.286      6.112
REMARK  9 active torsions:
REMARK  status: ('A' for Active; 'I' for Inactive)
REMARK    1  A    between atoms: C2_2  and  C3_3 
REMARK    2  A    between atoms: C3_3  and  C5_5 
REMARK    3  A    between atoms: C3_3  and  C10_11 
REMARK    4  A    between atoms: C6_6  and  C7_7 
REMARK    5  A    between atoms: C7_7  and  N1_8 
REMARK    6  A    between atoms: C10_11  and  C11_12 
REMARK    7  A    between atoms: C11_12  and  O1_13 
REMARK    8  A    between atoms: C11_12  and  C12_15 
REMARK    9  A    between atoms: C12_15  and  C13_16 
ROOT
HETATM    1  C11 UNL     1      -5.266   4.607  14.143  1.00  0.00     0.120 C 
ENDROOT
BRANCH   1   2
HETATM    2  C10 UNL     1      -3.825   5.002  14.210  1.00  0.00     0.053 C 
BRANCH   2   3
HETATM    3  C3  UNL     1      -3.385   6.096  13.324  1.00  0.00     0.022 C 
HETATM    4  C4  UNL     1      -2.331   5.491  12.378  1.00  0.00     0.029 C 
BRANCH   3   5
HETATM    5  C2  UNL     1      -4.396   6.740  12.452  1.00  0.00     0.018 C 
HETATM    6  C1  UNL     1      -3.819   7.648  11.408  1.00  0.00     0.007 C 
ENDBRANCH   3   5
BRANCH   3   7
HETATM    7  C5  UNL     1      -2.678   7.108  14.144  1.00  0.00    -0.095 C 
HETATM    8  C6  UNL     1      -2.091   7.937  14.795  1.00  0.00    -0.075 C 
BRANCH   8   9
HETATM    9  C7  UNL     1      -1.355   8.954  15.569  1.00  0.00     0.364 C 
BRANCH   9  10
HETATM   10  N1  UNL     1      -0.705   9.899  14.705  1.00  0.00     0.090 N 
HETATM   11  C8  UNL     1      -1.619  10.866  14.139  1.00  0.00     0.310 C 
HETATM   12  C9  UNL     1       0.344  10.580  15.420  1.00  0.00     0.310 C 
ENDBRANCH   9  10
ENDBRANCH   8   9
ENDBRANCH   3   7
ENDBRANCH   2   3
ENDBRANCH   1   2
BRANCH   1  13
HETATM   13  O1  UNL     1      -5.413   3.636  13.156  1.00  0.00    -0.396 OA
ATOM     14  H1  UNL     1      -4.859   2.896  13.375  1.00  0.00     0.210 HD
ENDBRANCH   1  13
BRANCH   1  15
HETATM   15  C12 UNL     1      -5.857   4.224  15.448  1.00  0.00     0.036 C 
BRANCH  15  16
HETATM   16  C13 UNL     1      -6.117   2.798  15.712  1.00  0.00    -0.009 C 
HETATM   17  C14 UNL     1      -4.751   2.171  16.044  1.00  0.00     0.032 C 
HETATM   18  C15 UNL     1      -4.865   0.683  16.155  1.00  0.00     0.232 C 
HETATM   19  N2  UNL     1      -5.725   0.425  17.320  1.00  0.00    -0.075 N 
HETATM   20  C16 UNL     1      -7.027   0.982  17.086  1.00  0.00     0.232 C 
ATOM     21  H22 UNL     1      -5.767  -0.566  17.557  1.00  0.00     0.277 HD
ATOM     22  H21 UNL     1      -5.311   0.766  18.188  1.00  0.00     0.277 HD
HETATM   23  C17 UNL     1      -7.023   2.476  16.846  1.00  0.00     0.032 C 
ENDBRANCH  15  16
ENDBRANCH   1  15
TORSDOF 9
ENDMDL
MODEL 5
REMARK VINA RESULT: -5.729115272      2.819      5.534
REMARK  9 active torsions:
REMARK  status: ('A' for Active; 'I' for Inactive)
REMARK    1  A    between atoms: C2_2  and  C3_3 
REMARK    2  A    between atoms: C3_3  and  C5_5 
REMARK    3  A    between atoms: C3_3  and  C10_11 
REMARK    4  A    between atoms: C6_6  and  C7_7 
REMARK    5  A    between atoms: C7_7  and  N1_8 
REMARK    6  A    between atoms: C10_11  and  C11_12 
REMARK    7  A    between atoms: C11_12  and  O1_13 
REMARK    8  A    between atoms: C11_12  and  C12_15 
REMARK    9  A    between atoms: C12_15  and  C13_16 
ROOT
HETATM    1  C11 UNL     1      -4.376   3.555  13.803  1.00  0.00     0.120 C 
ENDROOT
BRANCH   1   2
HETATM    2  C10 UNL     1      -3.200   4.428  13.501  1.00  0.00     0.053 C 
BRANCH   2   3
HETATM    3  C3  UNL     1      -3.338   5.868  13.791  1.00  0.00     0.022 C 
HETATM    4  C4  UNL     1      -4.350   5.983  14.946  1.00  0.00     0.029 C 
BRANCH   3   5
HETATM    5  C2  UNL     1      -2.133   6.613  14.228  1.00  0.00     0.018 C 
HETATM    6  C1  UNL     1      -2.425   7.934  14.871  1.00  0.00     0.007 C 
ENDBRANCH   3   5
BRANCH   3   7
HETATM    7  C5  UNL     1      -3.965   6.524  12.620  1.00  0.00    -0.095 C 
HETATM    8  C6  UNL     1      -4.486   7.041  11.662  1.00  0.00    -0.075 C 
BRANCH   8   9
HETATM    9  C7  UNL     1      -5.135   7.647  10.485  1.00  0.00     0.364 C 
BRANCH   9  10
HETATM   10  N1  UNL     1      -6.513   7.259  10.389  1.00  0.00     0.090 N 
HETATM   11  C8  UNL     1      -7.336   7.847  11.423  1.00  0.00     0.310 C 
HETATM   12  C9  UNL     1      -7.036   7.609   9.093  1.00  0.00     0.310 C 
ENDBRANCH   9  10
ENDBRANCH   8   9
ENDBRANCH   3   7
ENDBRANCH   2   3
ENDBRANCH   1   2
BRANCH   1  13
HETATM   13  O1  UNL     1      -5.028   3.262  12.609  1.00  0.00    -0.396 OA
ATOM     14  H1  UNL     1      -4.765   2.394  12.327  1.00  0.00     0.210 HD
ENDBRANCH   1  13
BRANCH   1  15
HETATM   15  C12 UNL     1      -4.056   2.357  14.618  1.00  0.00     0.036 C 
BRANCH  15  16
HETATM   16  C13 UNL     1      -4.785   2.150  15.881  1.00  0.00    -0.009 C 
HETATM   17  C14 UNL     1      -6.136   2.871  15.716  1.00  0.00     0.032 C 
HETATM   18  C15 UNL     1      -6.891   2.880  17.007  1.00  0.00     0.232 C 
HETATM   19  N2  UNL     1      -7.213   1.475  17.301  1.00  0.00    -0.075 N 
HETATM   20  C16 UNL     1      -5.998   0.731  17.471  1.00  0.00     0.232 C 
ATOM     21  H22 UNL     1      -7.838   1.382  18.103  1.00  0.00     0.277 HD
ATOM     22  H21 UNL     1      -7.822   1.063  16.593  1.00  0.00     0.277 HD
HETATM   23  C17 UNL     1      -5.094   0.745  16.258  1.00  0.00     0.032 C 
ENDBRANCH  15  16
ENDBRANCH   1  15
TORSDOF 9
ENDMDL
