MODEL 1
REMARK VINA RESULT: -5.726478860      0.000      0.000
REMARK  11 active torsions:
REMARK  status: ('A' for Active; 'I' for Inactive)
REMARK    1  A    between atoms: N1_1  and  C1_5 
REMARK    2  A    between atoms: C1_5  and  O1_6 
REMARK    3  A    between atoms: C5_16  and  O5_17 
REMARK    4  A    between atoms: O5_17  and  C6_18 
REMARK    5  A    between atoms: C7_19  and  O6_20 
REMARK    6  A    between atoms: C9_23  and  C10_24 
REMARK    7  A    between atoms: C10_24  and  O7_25 
REMARK    8  A    between atoms: C10_24  and  O8_27 
REMARK    9  A    between atoms: C12_30  and  C13_31 
REMARK   10  A    between atoms: C13_31  and  O9_32 
REMARK   11  A    between atoms: C13_31  and  O10_34 
ROOT
HETATM    1  C6  UNL     1      23.348   6.612  15.710  1.00  0.00     0.114 A 
HETATM    2  C7  UNL     1      23.199   7.953  16.099  1.00  0.00     0.100 A 
HETATM    3  C8  UNL     1      22.504   8.341  17.218  1.00  0.00     0.051 A 
HETATM    4  C9  UNL     1      21.923   7.399  18.003  1.00  0.00    -0.001 A 
HETATM    5  C11 UNL     1      22.035   6.093  17.672  1.00  0.00     0.027 A 
HETATM    6  C12 UNL     1      22.751   5.701  16.516  1.00  0.00     0.033 A 
ENDROOT
BRANCH   1   7
HETATM    7  O5  UNL     1      24.055   6.287  14.596  1.00  0.00    -0.327 OA
BRANCH   7   8
HETATM    8  C5  UNL     1      23.553   6.324  13.271  1.00  0.00     0.292 C 
HETATM    9  C1  UNL     1      24.160   7.356  12.366  1.00  0.00     0.328 C 
HETATM   10  C2  UNL     1      25.617   7.363  12.659  1.00  0.00     0.282 C 
HETATM   11  O2  UNL     1      26.247   8.412  12.909  1.00  0.00    -0.282 OA
HETATM   12  C3  UNL     1      26.282   6.056  12.640  1.00  0.00     0.299 C 
HETATM   13  O3  UNL     1      27.531   5.965  12.634  1.00  0.00    -0.264 OA
HETATM   14  N2  UNL     1      25.472   4.885  12.628  1.00  0.00    -0.288 N 
HETATM   15  C4  UNL     1      24.065   5.033  12.636  1.00  0.00     0.259 C 
ATOM     16  H2  UNL     1      25.898   3.959  12.613  1.00  0.00     0.172 HD
HETATM   17  O4  UNL     1      23.256   4.206  12.173  1.00  0.00    -0.270 OA
BRANCH   9  18
HETATM   18  N1  UNL     1      23.533   8.618  12.308  1.00  0.00    -0.036 N 
ATOM     19  H13 UNL     1      23.865   9.275  13.014  1.00  0.00     0.278 HD
ATOM     20  H12 UNL     1      23.799   9.173  11.495  1.00  0.00     0.278 HD
ATOM     21  H11 UNL     1      22.533   8.426  12.364  1.00  0.00     0.278 HD
ENDBRANCH   9  18
BRANCH   9  22
HETATM   22  O1  UNL     1      24.088   6.837  11.034  1.00  0.00    -0.357 OA
ATOM     23  H1  UNL     1      23.384   6.200  11.051  1.00  0.00     0.213 HD
ENDBRANCH   9  22
ENDBRANCH   7   8
ENDBRANCH   1   7
BRANCH   2  24
HETATM   24  O6  UNL     1      23.761   8.939  15.343  1.00  0.00    -0.358 OA
ATOM     25  H6  UNL     1      24.193   9.668  15.771  1.00  0.00     0.217 HD
ENDBRANCH   2  24
BRANCH   6  26
HETATM   26  C13 UNL     1      22.699   4.264  16.222  1.00  0.00     0.291 C 
BRANCH  26  27
HETATM   27  O9  UNL     1      21.946   3.611  17.258  1.00  0.00    -0.367 OA
ATOM     28  H9  UNL     1      22.511   2.986  17.695  1.00  0.00     0.213 HD
ENDBRANCH  26  27
BRANCH  26  29
HETATM   29  O10 UNL     1      21.908   3.988  15.093  1.00  0.00    -0.367 OA
ATOM     30  H10 UNL     1      21.422   3.178  15.191  1.00  0.00     0.213 HD
ENDBRANCH  26  29
ENDBRANCH   6  26
BRANCH   4  31
HETATM   31  C10 UNL     1      21.166   7.832  19.227  1.00  0.00     0.288 C 
BRANCH  31  32
HETATM   32  O7  UNL     1      21.668   9.104  19.547  1.00  0.00    -0.367 OA
ATOM     33  H7  UNL     1      21.575   9.184  20.490  1.00  0.00     0.213 HD
ENDBRANCH  31  32
BRANCH  31  34
HETATM   34  O8  UNL     1      19.804   7.880  18.963  1.00  0.00    -0.367 OA
ATOM     35  H8  UNL     1      19.344   8.315  19.672  1.00  0.00     0.213 HD
ENDBRANCH  31  34
ENDBRANCH   4  31
TORSDOF 11
ENDMDL
MODEL 2
REMARK VINA RESULT: -5.426666998      6.218      8.854
REMARK  11 active torsions:
REMARK  status: ('A' for Active; 'I' for Inactive)
REMARK    1  A    between atoms: N1_1  and  C1_5 
REMARK    2  A    between atoms: C1_5  and  O1_6 
REMARK    3  A    between atoms: C5_16  and  O5_17 
REMARK    4  A    between atoms: O5_17  and  C6_18 
REMARK    5  A    between atoms: C7_19  and  O6_20 
REMARK    6  A    between atoms: C9_23  and  C10_24 
REMARK    7  A    between atoms: C10_24  and  O7_25 
REMARK    8  A    between atoms: C10_24  and  O8_27 
REMARK    9  A    between atoms: C12_30  and  C13_31 
REMARK   10  A    between atoms: C13_31  and  O9_32 
REMARK   11  A    between atoms: C13_31  and  O10_34 
ROOT
HETATM    1  C6  UNL     1      22.479  -0.014  20.570  1.00  0.00     0.114 A 
HETATM    2  C7  UNL     1      22.905  -0.735  21.697  1.00  0.00     0.100 A 
HETATM    3  C8  UNL     1      22.168  -1.741  22.271  1.00  0.00     0.051 A 
HETATM    4  C9  UNL     1      20.965  -2.074  21.740  1.00  0.00    -0.001 A 
HETATM    5  C11 UNL     1      20.508  -1.409  20.655  1.00  0.00     0.027 A 
HETATM    6  C12 UNL     1      21.271  -0.371  20.070  1.00  0.00     0.033 A 
ENDROOT
BRANCH   1   7
HETATM    7  O5  UNL     1      23.255   0.968  20.039  1.00  0.00    -0.327 OA
BRANCH   7   8
HETATM    8  C5  UNL     1      24.496   0.764  19.386  1.00  0.00     0.292 C 
HETATM    9  C1  UNL     1      24.501   0.976  17.900  1.00  0.00     0.328 C 
HETATM   10  C2  UNL     1      23.664   2.177  17.647  1.00  0.00     0.282 C 
HETATM   11  O2  UNL     1      22.736   2.186  16.812  1.00  0.00    -0.282 OA
HETATM   12  C3  UNL     1      23.991   3.366  18.443  1.00  0.00     0.299 C 
HETATM   13  O3  UNL     1      23.520   4.490  18.151  1.00  0.00    -0.264 OA
HETATM   14  N2  UNL     1      24.859   3.214  19.561  1.00  0.00    -0.288 N 
HETATM   15  C4  UNL     1      25.367   1.927  19.855  1.00  0.00     0.259 C 
ATOM     16  H2  UNL     1      25.110   4.017  20.137  1.00  0.00     0.172 HD
HETATM   17  O4  UNL     1      26.439   1.700  20.449  1.00  0.00    -0.270 OA
BRANCH   9  18
HETATM   18  N1  UNL     1      24.240  -0.145  17.084  1.00  0.00    -0.036 N 
ATOM     19  H13 UNL     1      24.943  -0.298  16.360  1.00  0.00     0.278 HD
ATOM     20  H12 UNL     1      24.364  -1.038  17.560  1.00  0.00     0.278 HD
ATOM     21  H11 UNL     1      23.299  -0.000  16.719  1.00  0.00     0.278 HD
ENDBRANCH   9  18
BRANCH   9  22
HETATM   22  O1  UNL     1      25.819   1.404  17.544  1.00  0.00    -0.357 OA
ATOM     23  H1  UNL     1      25.696   2.177  17.007  1.00  0.00     0.213 HD
ENDBRANCH   9  22
ENDBRANCH   7   8
ENDBRANCH   1   7
BRANCH   2  24
HETATM   24  O6  UNL     1      24.106  -0.438  22.270  1.00  0.00    -0.358 OA
ATOM     25  H6  UNL     1      24.697   0.164  21.833  1.00  0.00     0.217 HD
ENDBRANCH   2  24
BRANCH   6  26
HETATM   26  C13 UNL     1      20.606   0.332  18.968  1.00  0.00     0.291 C 
BRANCH  26  27
HETATM   27  O9  UNL     1      21.196  -0.097  17.729  1.00  0.00    -0.367 OA
ATOM     28  H9  UNL     1      20.499  -0.302  17.116  1.00  0.00     0.213 HD
ENDBRANCH  26  27
BRANCH  26  29
HETATM   29  O10 UNL     1      19.277  -0.096  18.800  1.00  0.00    -0.367 OA
ATOM     30  H10 UNL     1      18.705   0.254  19.472  1.00  0.00     0.213 HD
ENDBRANCH  26  29
ENDBRANCH   6  26
BRANCH   4  31
HETATM   31  C10 UNL     1      20.167  -3.178  22.374  1.00  0.00     0.288 C 
BRANCH  31  32
HETATM   32  O7  UNL     1      19.980  -2.786  23.710  1.00  0.00    -0.367 OA
ATOM     33  H7  UNL     1      19.465  -1.988  23.671  1.00  0.00     0.213 HD
ENDBRANCH  31  32
BRANCH  31  34
HETATM   34  O8  UNL     1      18.953  -3.336  21.721  1.00  0.00    -0.367 OA
ATOM     35  H8  UNL     1      18.241  -3.385  22.348  1.00  0.00     0.213 HD
ENDBRANCH  31  34
ENDBRANCH   4  31
TORSDOF 11
ENDMDL
MODEL 3
REMARK VINA RESULT: -5.423000463      5.031      7.471
REMARK  11 active torsions:
REMARK  status: ('A' for Active; 'I' for Inactive)
REMARK    1  A    between atoms: N1_1  and  C1_5 
REMARK    2  A    between atoms: C1_5  and  O1_6 
REMARK    3  A    between atoms: C5_16  and  O5_17 
REMARK    4  A    between atoms: O5_17  and  C6_18 
REMARK    5  A    between atoms: C7_19  and  O6_20 
REMARK    6  A    between atoms: C9_23  and  C10_24 
REMARK    7  A    between atoms: C10_24  and  O7_25 
REMARK    8  A    between atoms: C10_24  and  O8_27 
REMARK    9  A    between atoms: C12_30  and  C13_31 
REMARK   10  A    between atoms: C13_31  and  O9_32 
REMARK   11  A    between atoms: C13_31  and  O10_34 
ROOT
HETATM    1  C6  UNL     1      22.563   1.108  19.485  1.00  0.00     0.114 A 
HETATM    2  C7  UNL     1      23.340   0.259  20.290  1.00  0.00     0.100 A 
HETATM    3  C8  UNL     1      22.845  -0.871  20.892  1.00  0.00     0.051 A 
HETATM    4  C9  UNL     1      21.542  -1.205  20.715  1.00  0.00    -0.001 A 
HETATM    5  C11 UNL     1      20.750  -0.422  19.950  1.00  0.00     0.027 A 
HETATM    6  C12 UNL     1      21.267   0.743  19.334  1.00  0.00     0.033 A 
ENDROOT
BRANCH   1   7
HETATM    7  O5  UNL     1      23.110   2.210  18.907  1.00  0.00    -0.327 OA
BRANCH   7   8
HETATM    8  C5  UNL     1      23.792   2.227  17.665  1.00  0.00     0.292 C 
HETATM    9  C1  UNL     1      23.503   3.398  16.771  1.00  0.00     0.328 C 
HETATM   10  C2  UNL     1      23.441   4.591  17.655  1.00  0.00     0.282 C 
HETATM   11  O2  UNL     1      22.487   5.395  17.631  1.00  0.00    -0.282 OA
HETATM   12  C3  UNL     1      24.575   4.774  18.567  1.00  0.00     0.299 C 
HETATM   13  O3  UNL     1      24.747   5.854  19.177  1.00  0.00    -0.264 OA
HETATM   14  N2  UNL     1      25.482   3.691  18.745  1.00  0.00    -0.288 N 
HETATM   15  C4  UNL     1      25.249   2.488  18.037  1.00  0.00     0.259 C 
ATOM     16  H2  UNL     1      26.282   3.781  19.370  1.00  0.00     0.172 HD
HETATM   17  O4  UNL     1      26.130   1.668  17.713  1.00  0.00    -0.270 OA
BRANCH   9  18
HETATM   18  N1  UNL     1      22.453   3.259  15.840  1.00  0.00    -0.036 N 
ATOM     19  H13 UNL     1      22.583   2.487  15.186  1.00  0.00     0.278 HD
ATOM     20  H12 UNL     1      21.582   2.924  16.249  1.00  0.00     0.278 HD
ATOM     21  H11 UNL     1      22.371   4.170  15.389  1.00  0.00     0.278 HD
ENDBRANCH   9  18
BRANCH   9  22
HETATM   22  O1  UNL     1      24.678   3.622  15.986  1.00  0.00    -0.357 OA
ATOM     23  H1  UNL     1      25.032   4.448  16.293  1.00  0.00     0.213 HD
ENDBRANCH   9  22
ENDBRANCH   7   8
ENDBRANCH   1   7
BRANCH   2  24
HETATM   24  O6  UNL     1      24.655   0.552  20.502  1.00  0.00    -0.358 OA
ATOM     25  H6  UNL     1      24.887   1.292  21.051  1.00  0.00     0.217 HD
ENDBRANCH   2  24
BRANCH   6  26
HETATM   26  C13 UNL     1      20.271   1.553  18.623  1.00  0.00     0.291 C 
BRANCH  26  27
HETATM   27  O9  UNL     1      20.521   1.451  17.211  1.00  0.00    -0.367 OA
ATOM     28  H9  UNL     1      21.248   2.020  16.991  1.00  0.00     0.213 HD
ENDBRANCH  26  27
BRANCH  26  29
HETATM   29  O10 UNL     1      18.982   0.998  18.714  1.00  0.00    -0.367 OA
ATOM     30  H10 UNL     1      18.554   0.958  17.867  1.00  0.00     0.213 HD
ENDBRANCH  26  29
ENDBRANCH   6  26
BRANCH   4  31
HETATM   31  C10 UNL     1      21.010  -2.446  21.376  1.00  0.00     0.288 C 
BRANCH  31  32
HETATM   32  O7  UNL     1      19.808  -2.056  21.991  1.00  0.00    -0.367 OA
ATOM     33  H7  UNL     1      19.138  -2.160  21.325  1.00  0.00     0.213 HD
ENDBRANCH  31  32
BRANCH  31  34
HETATM   34  O8  UNL     1      20.795  -3.443  20.436  1.00  0.00    -0.367 OA
ATOM     35  H8  UNL     1      20.678  -4.284  20.864  1.00  0.00     0.213 HD
ENDBRANCH  31  34
ENDBRANCH   4  31
TORSDOF 11
ENDMDL
MODEL 4
REMARK VINA RESULT: -5.364298756      2.792      3.857
REMARK  11 active torsions:
REMARK  status: ('A' for Active; 'I' for Inactive)
REMARK    1  A    between atoms: N1_1  and  C1_5 
REMARK    2  A    between atoms: C1_5  and  O1_6 
REMARK    3  A    between atoms: C5_16  and  O5_17 
REMARK    4  A    between atoms: O5_17  and  C6_18 
REMARK    5  A    between atoms: C7_19  and  O6_20 
REMARK    6  A    between atoms: C9_23  and  C10_24 
REMARK    7  A    between atoms: C10_24  and  O7_25 
REMARK    8  A    between atoms: C10_24  and  O8_27 
REMARK    9  A    between atoms: C12_30  and  C13_31 
REMARK   10  A    between atoms: C13_31  and  O9_32 
REMARK   11  A    between atoms: C13_31  and  O10_34 
ROOT
HETATM    1  C6  UNL     1      24.348   5.516  13.940  1.00  0.00     0.114 A 
HETATM    2  C7  UNL     1      23.256   4.710  13.581  1.00  0.00     0.100 A 
HETATM    3  C8  UNL     1      22.608   3.880  14.462  1.00  0.00     0.051 A 
HETATM    4  C9  UNL     1      23.027   3.818  15.751  1.00  0.00    -0.001 A 
HETATM    5  C11 UNL     1      24.076   4.573  16.149  1.00  0.00     0.027 A 
HETATM    6  C12 UNL     1      24.740   5.424  15.234  1.00  0.00     0.033 A 
ENDROOT
BRANCH   1   7
HETATM    7  O5  UNL     1      24.945   6.325  13.026  1.00  0.00    -0.327 OA
BRANCH   7   8
HETATM    8  C5  UNL     1      24.480   7.609  12.645  1.00  0.00     0.292 C 
HETATM    9  C1  UNL     1      25.518   8.691  12.578  1.00  0.00     0.328 C 
HETATM   10  C2  UNL     1      26.725   8.075  11.968  1.00  0.00     0.282 C 
HETATM   11  O2  UNL     1      27.858   8.165  12.483  1.00  0.00    -0.282 OA
HETATM   12  C3  UNL     1      26.509   7.347  10.713  1.00  0.00     0.299 C 
HETATM   13  O3  UNL     1      27.472   6.997   9.993  1.00  0.00    -0.264 OA
HETATM   14  N2  UNL     1      25.172   7.044  10.328  1.00  0.00    -0.288 N 
HETATM   15  C4  UNL     1      24.113   7.456  11.171  1.00  0.00     0.259 C 
ATOM     16  H2  UNL     1      24.982   6.540   9.462  1.00  0.00     0.172 HD
HETATM   17  O4  UNL     1      22.949   7.693  10.794  1.00  0.00    -0.270 OA
BRANCH   9  18
HETATM   18  N1  UNL     1      25.734   9.457  13.743  1.00  0.00    -0.036 N 
ATOM     19  H13 UNL     1      25.027   9.313  14.465  1.00  0.00     0.278 HD
ATOM     20  H12 UNL     1      26.533   9.148  14.296  1.00  0.00     0.278 HD
ATOM     21  H11 UNL     1      25.804  10.422  13.423  1.00  0.00     0.278 HD
ENDBRANCH   9  18
BRANCH   9  22
HETATM   22  O1  UNL     1      25.080   9.626  11.587  1.00  0.00    -0.357 OA
ATOM     23  H1  UNL     1      24.307  10.038  11.954  1.00  0.00     0.213 HD
ENDBRANCH   9  22
ENDBRANCH   7   8
ENDBRANCH   1   7
BRANCH   2  24
HETATM   24  O6  UNL     1      22.798   4.734  12.296  1.00  0.00    -0.358 OA
ATOM     25  H6  UNL     1      23.263   5.242  11.643  1.00  0.00     0.217 HD
ENDBRANCH   2  24
BRANCH   6  26
HETATM   26  C13 UNL     1      25.924   6.100  15.776  1.00  0.00     0.291 C 
BRANCH  26  27
HETATM   27  O9  UNL     1      26.971   6.050  14.792  1.00  0.00    -0.367 OA
ATOM     28  H9  UNL     1      26.971   6.867  14.308  1.00  0.00     0.213 HD
ENDBRANCH  26  27
BRANCH  26  29
HETATM   29  O10 UNL     1      25.727   7.487  15.895  1.00  0.00    -0.367 OA
ATOM     30  H10 UNL     1      24.868   7.751  15.588  1.00  0.00     0.213 HD
ENDBRANCH  26  29
ENDBRANCH   6  26
BRANCH   4  31
HETATM   31  C10 UNL     1      22.311   2.908  16.709  1.00  0.00     0.288 C 
BRANCH  31  32
HETATM   32  O7  UNL     1      21.944   3.720  17.795  1.00  0.00    -0.367 OA
ATOM     33  H7  UNL     1      21.875   3.133  18.539  1.00  0.00     0.213 HD
ENDBRANCH  31  32
BRANCH  31  34
HETATM   34  O8  UNL     1      21.198   2.344  16.103  1.00  0.00    -0.367 OA
ATOM     35  H8  UNL     1      20.952   2.841  15.331  1.00  0.00     0.213 HD
ENDBRANCH  31  34
ENDBRANCH   4  31
TORSDOF 11
ENDMDL
MODEL 5
REMARK VINA RESULT: -5.336147329      7.295     10.667
REMARK  11 active torsions:
REMARK  status: ('A' for Active; 'I' for Inactive)
REMARK    1  A    between atoms: N1_1  and  C1_5 
REMARK    2  A    between atoms: C1_5  and  O1_6 
REMARK    3  A    between atoms: C5_16  and  O5_17 
REMARK    4  A    between atoms: O5_17  and  C6_18 
REMARK    5  A    between atoms: C7_19  and  O6_20 
REMARK    6  A    between atoms: C9_23  and  C10_24 
REMARK    7  A    between atoms: C10_24  and  O7_25 
REMARK    8  A    between atoms: C10_24  and  O8_27 
REMARK    9  A    between atoms: C12_30  and  C13_31 
REMARK   10  A    between atoms: C13_31  and  O9_32 
REMARK   11  A    between atoms: C13_31  and  O10_34 
ROOT
HETATM    1  C6  UNL     1      22.058   0.108  20.031  1.00  0.00     0.114 A 
HETATM    2  C7  UNL     1      20.967   0.496  19.238  1.00  0.00     0.100 A 
HETATM    3  C8  UNL     1      21.054   1.441  18.246  1.00  0.00     0.051 A 
HETATM    4  C9  UNL     1      22.244   2.043  18.001  1.00  0.00    -0.001 A 
HETATM    5  C11 UNL     1      23.327   1.706  18.736  1.00  0.00     0.027 A 
HETATM    6  C12 UNL     1      23.229   0.734  19.760  1.00  0.00     0.033 A 
ENDROOT
BRANCH   1   7
HETATM    7  O5  UNL     1      21.915  -0.840  20.995  1.00  0.00    -0.327 OA
BRANCH   7   8
HETATM    8  C5  UNL     1      21.702  -2.221  20.757  1.00  0.00     0.292 C 
HETATM    9  C1  UNL     1      22.781  -3.146  21.241  1.00  0.00     0.328 C 
HETATM   10  C2  UNL     1      23.208  -2.630  22.567  1.00  0.00     0.282 C 
HETATM   11  O2  UNL     1      24.406  -2.423  22.853  1.00  0.00    -0.282 OA
HETATM   12  C3  UNL     1      22.135  -2.373  23.533  1.00  0.00     0.299 C 
HETATM   13  O3  UNL     1      22.386  -2.170  24.743  1.00  0.00    -0.264 OA
HETATM   14  N2  UNL     1      20.791  -2.359  23.063  1.00  0.00    -0.288 N 
HETATM   15  C4  UNL     1      20.550  -2.593  21.688  1.00  0.00     0.259 C 
ATOM     16  H2  UNL     1      20.017  -2.185  23.704  1.00  0.00     0.172 HD
HETATM   17  O4  UNL     1      19.498  -3.065  21.216  1.00  0.00    -0.270 OA
BRANCH   9  18
HETATM   18  N1  UNL     1      23.815  -3.466  20.336  1.00  0.00    -0.036 N 
ATOM     19  H13 UNL     1      24.630  -3.891  20.779  1.00  0.00     0.278 HD
ATOM     20  H12 UNL     1      23.593  -4.247  19.719  1.00  0.00     0.278 HD
ATOM     21  H11 UNL     1      24.021  -2.598  19.843  1.00  0.00     0.278 HD
ENDBRANCH   9  18
BRANCH   9  22
HETATM   22  O1  UNL     1      22.151  -4.393  21.553  1.00  0.00    -0.357 OA
ATOM     23  H1  UNL     1      21.381  -4.165  22.061  1.00  0.00     0.213 HD
ENDBRANCH   9  22
ENDBRANCH   7   8
ENDBRANCH   1   7
BRANCH   2  24
HETATM   24  O6  UNL     1      19.747  -0.077  19.447  1.00  0.00    -0.358 OA
ATOM     25  H6  UNL     1      19.023   0.142  18.872  1.00  0.00     0.217 HD
ENDBRANCH   2  24
BRANCH   6  26
HETATM   26  C13 UNL     1      24.454   0.547  20.546  1.00  0.00     0.291 C 
BRANCH  26  27
HETATM   27  O9  UNL     1      24.101   0.501  21.939  1.00  0.00    -0.367 OA
ATOM     28  H9  UNL     1      24.760  -0.001  22.402  1.00  0.00     0.213 HD
ENDBRANCH  26  27
BRANCH  26  29
HETATM   29  O10 UNL     1      25.005  -0.734  20.362  1.00  0.00    -0.367 OA
ATOM     30  H10 UNL     1      24.561  -1.389  20.887  1.00  0.00     0.213 HD
ENDBRANCH  26  29
ENDBRANCH   6  26
BRANCH   4  31
HETATM   31  C10 UNL     1      22.331   3.075  16.911  1.00  0.00     0.288 C 
BRANCH  31  32
HETATM   32  O7  UNL     1      21.412   2.664  15.931  1.00  0.00    -0.367 OA
ATOM     33  H7  UNL     1      21.857   2.780  15.100  1.00  0.00     0.213 HD
ENDBRANCH  31  32
BRANCH  31  34
HETATM   34  O8  UNL     1      22.012   4.331  17.405  1.00  0.00    -0.367 OA
ATOM     35  H8  UNL     1      22.360   5.010  16.839  1.00  0.00     0.213 HD
ENDBRANCH  31  34
ENDBRANCH   4  31
TORSDOF 11
ENDMDL
