MODEL 1
REMARK VINA RESULT: -7.799504530      0.000      0.000
REMARK  7 active torsions:
REMARK  status: ('A' for Active; 'I' for Inactive)
REMARK    1  A    between atoms: O1_2  and  C2_3 
REMARK    2  A    between atoms: C3_6  and  N2_7 
REMARK    3  A    between atoms: N2_7  and  N3_9 
REMARK    4  A    between atoms: N3_9  and  C4_10 
REMARK    5  A    between atoms: C5_13  and  N5_14 
REMARK    6  A    between atoms: C6_19  and  S1_20 
REMARK    7  A    between atoms: C11_29  and  O3_30 
ROOT
HETATM    1  C4  UNL     1      31.312 -63.700  43.764  1.00  0.00     0.242 A 
HETATM    2  N4  UNL     1      31.293 -64.715  42.841  1.00  0.00    -0.161 N 
ATOM      3  H4  UNL     1      31.422 -64.473  41.859  1.00  0.00     0.187 HD
HETATM    4  C5  UNL     1      31.117 -66.001  43.154  1.00  0.00     0.679 A 
HETATM    5  N6  UNL     1      30.948 -66.318  44.442  1.00  0.00    -0.184 N 
ATOM      6  H6  UNL     1      30.811 -67.295  44.701  1.00  0.00     0.185 HD
HETATM    7  C6  UNL     1      30.955 -65.375  45.409  1.00  0.00     0.111 A 
HETATM    8  C8  UNL     1      31.133 -64.053  45.108  1.00  0.00     0.139 A 
HETATM    9  C9  UNL     1      31.144 -63.023  46.115  1.00  0.00     0.107 C 
HETATM   10  N7  UNL     1      31.156 -62.203  46.934  1.00  0.00    -0.191 NA
ENDROOT
BRANCH   1  11
HETATM   11  N3  UNL     1      31.497 -62.564  43.396  1.00  0.00    -0.290 NA
BRANCH  11  12
HETATM   12  N2  UNL     1      31.693 -61.394  43.014  1.00  0.00    -0.063 N 
ATOM     13  H2  UNL     1      30.821 -60.981  42.684  1.00  0.00     0.221 HD
BRANCH  12  14
HETATM   14  C3  UNL     1      32.635 -60.561  42.909  1.00  0.00     0.712 A 
HETATM   15  N1  UNL     1      33.800 -60.983  42.308  1.00  0.00    -0.165 N 
HETATM   16  C2  UNL     1      34.853 -60.181  42.149  1.00  0.00     0.196 A 
ATOM     17  H1  UNL     1      33.860 -61.944  41.972  1.00  0.00     0.186 HD
HETATM   18  C11 UNL     1      34.753 -58.883  42.614  1.00  0.00     0.189 A 
HETATM   19  C10 UNL     1      33.569 -58.473  43.219  1.00  0.00     0.297 A 
HETATM   20  N8  UNL     1      32.526 -59.306  43.362  1.00  0.00    -0.151 N 
HETATM   21  O2  UNL     1      33.476 -57.291  43.641  1.00  0.00    -0.264 OA
ATOM     22  H8  UNL     1      31.666 -58.987  43.808  1.00  0.00     0.188 HD
BRANCH  16  23
HETATM   23  O1  UNL     1      36.028 -60.589  41.547  1.00  0.00    -0.338 OA
HETATM   24  C1  UNL     1      36.551 -61.885  41.837  1.00  0.00     0.211 C 
ENDBRANCH  16  23
BRANCH  18  25
HETATM   25  O3  UNL     1      35.837 -58.033  42.462  1.00  0.00    -0.347 OA
HETATM   26  C12 UNL     1      35.830 -57.238  41.264  1.00  0.00     0.210 C 
ENDBRANCH  18  25
ENDBRANCH  12  14
ENDBRANCH  11  12
ENDBRANCH   1  11
BRANCH   7  27
HETATM   27  S1  UNL     1      30.720 -65.842  47.126  1.00  0.00    -0.115 SA
HETATM   28  C7  UNL     1      29.858 -67.426  47.276  1.00  0.00     0.097 C 
ENDBRANCH   7  27
BRANCH   4  29
HETATM   29  N5  UNL     1      31.119 -66.919  42.213  1.00  0.00    -0.234 N 
ATOM     30  H52 UNL     1      30.381 -66.966  41.511  1.00  0.00     0.174 HD
ATOM     31  H51 UNL     1      31.864 -67.614  42.174  1.00  0.00     0.174 HD
ENDBRANCH   4  29
TORSDOF 7
ENDMDL
MODEL 2
REMARK VINA RESULT: -7.794106958      0.983      2.205
REMARK  7 active torsions:
REMARK  status: ('A' for Active; 'I' for Inactive)
REMARK    1  A    between atoms: O1_2  and  C2_3 
REMARK    2  A    between atoms: C3_6  and  N2_7 
REMARK    3  A    between atoms: N2_7  and  N3_9 
REMARK    4  A    between atoms: N3_9  and  C4_10 
REMARK    5  A    between atoms: C5_13  and  N5_14 
REMARK    6  A    between atoms: C6_19  and  S1_20 
REMARK    7  A    between atoms: C11_29  and  O3_30 
ROOT
HETATM    1  C4  UNL     1      31.498 -63.770  43.691  1.00  0.00     0.242 A 
HETATM    2  N4  UNL     1      31.452 -64.838  42.830  1.00  0.00    -0.161 N 
ATOM      3  H4  UNL     1      31.696 -64.677  41.853  1.00  0.00     0.187 HD
HETATM    4  C5  UNL     1      31.106 -66.074  43.196  1.00  0.00     0.679 A 
HETATM    5  N6  UNL     1      30.785 -66.284  44.478  1.00  0.00    -0.184 N 
ATOM      6  H6  UNL     1      30.518 -67.221  44.777  1.00  0.00     0.185 HD
HETATM    7  C6  UNL     1      30.807 -65.284  45.386  1.00  0.00     0.111 A 
HETATM    8  C8  UNL     1      31.158 -64.011  45.028  1.00  0.00     0.139 A 
HETATM    9  C9  UNL     1      31.189 -62.922  45.971  1.00  0.00     0.107 C 
HETATM   10  N7  UNL     1      31.217 -62.054  46.739  1.00  0.00    -0.191 NA
ENDROOT
BRANCH   1  11
HETATM   11  N3  UNL     1      31.840 -62.687  43.279  1.00  0.00    -0.290 NA
BRANCH  11  12
HETATM   12  N2  UNL     1      32.187 -61.569  42.850  1.00  0.00    -0.063 N 
ATOM     13  H2  UNL     1      31.366 -60.994  42.662  1.00  0.00     0.221 HD
BRANCH  12  14
HETATM   14  C3  UNL     1      33.239 -60.928  42.576  1.00  0.00     0.712 A 
HETATM   15  N1  UNL     1      33.169 -59.552  42.576  1.00  0.00    -0.165 N 
HETATM   16  C2  UNL     1      34.223 -58.783  42.300  1.00  0.00     0.196 A 
ATOM     17  H1  UNL     1      32.279 -59.105  42.796  1.00  0.00     0.186 HD
HETATM   18  C11 UNL     1      35.419 -59.410  42.002  1.00  0.00     0.189 A 
HETATM   19  C10 UNL     1      35.471 -60.800  42.006  1.00  0.00     0.297 A 
HETATM   20  N8  UNL     1      34.392 -61.544  42.291  1.00  0.00    -0.151 N 
HETATM   21  O2  UNL     1      36.560 -61.370  41.737  1.00  0.00    -0.264 OA
ATOM     22  H8  UNL     1      34.450 -62.563  42.289  1.00  0.00     0.188 HD
BRANCH  16  23
HETATM   23  O1  UNL     1      34.169 -57.403  42.297  1.00  0.00    -0.338 OA
HETATM   24  C1  UNL     1      33.497 -56.730  41.234  1.00  0.00     0.211 C 
ENDBRANCH  16  23
BRANCH  18  25
HETATM   25  O3  UNL     1      36.527 -58.630  41.709  1.00  0.00    -0.347 OA
HETATM   26  C12 UNL     1      36.665 -58.255  40.329  1.00  0.00     0.210 C 
ENDBRANCH  18  25
ENDBRANCH  12  14
ENDBRANCH  11  12
ENDBRANCH   1  11
BRANCH   7  27
HETATM   27  S1  UNL     1      30.365 -65.606  47.094  1.00  0.00    -0.115 SA
HETATM   28  C7  UNL     1      31.699 -66.446  47.983  1.00  0.00     0.097 C 
ENDBRANCH   7  27
BRANCH   4  29
HETATM   29  N5  UNL     1      31.093 -67.049  42.315  1.00  0.00    -0.234 N 
ATOM     30  H52 UNL     1      31.487 -67.965  42.527  1.00  0.00     0.174 HD
ATOM     31  H51 UNL     1      30.689 -66.901  41.390  1.00  0.00     0.174 HD
ENDBRANCH   4  29
TORSDOF 7
ENDMDL
MODEL 3
REMARK VINA RESULT: -7.201863190      1.421      2.510
REMARK  7 active torsions:
REMARK  status: ('A' for Active; 'I' for Inactive)
REMARK    1  A    between atoms: O1_2  and  C2_3 
REMARK    2  A    between atoms: C3_6  and  N2_7 
REMARK    3  A    between atoms: N2_7  and  N3_9 
REMARK    4  A    between atoms: N3_9  and  C4_10 
REMARK    5  A    between atoms: C5_13  and  N5_14 
REMARK    6  A    between atoms: C6_19  and  S1_20 
REMARK    7  A    between atoms: C11_29  and  O3_30 
ROOT
HETATM    1  C4  UNL     1      30.929 -64.623  44.213  1.00  0.00     0.242 A 
HETATM    2  N4  UNL     1      30.741 -65.862  43.656  1.00  0.00    -0.161 N 
ATOM      3  H4  UNL     1      30.806 -65.947  42.642  1.00  0.00     0.187 HD
HETATM    4  C5  UNL     1      30.477 -66.963  44.364  1.00  0.00     0.679 A 
HETATM    5  N6  UNL     1      30.391 -66.851  45.694  1.00  0.00    -0.184 N 
ATOM      6  H6  UNL     1      30.190 -67.680  46.252  1.00  0.00     0.185 HD
HETATM    7  C6  UNL     1      30.564 -65.665  46.317  1.00  0.00     0.111 A 
HETATM    8  C8  UNL     1      30.835 -64.526  45.608  1.00  0.00     0.139 A 
HETATM    9  C9  UNL     1      31.023 -63.246  46.241  1.00  0.00     0.107 C 
HETATM   10  N7  UNL     1      31.178 -62.222  46.761  1.00  0.00    -0.191 NA
ENDROOT
BRANCH   1  11
HETATM   11  N3  UNL     1      31.183 -63.681  43.500  1.00  0.00    -0.290 NA
BRANCH  11  12
HETATM   12  N2  UNL     1      31.447 -62.706  42.769  1.00  0.00    -0.063 N 
ATOM     13  H2  UNL     1      30.923 -62.769  41.897  1.00  0.00     0.221 HD
BRANCH  12  14
HETATM   14  C3  UNL     1      32.162 -61.666  42.773  1.00  0.00     0.712 A 
HETATM   15  N1  UNL     1      31.914 -60.722  43.746  1.00  0.00    -0.165 N 
HETATM   16  C2  UNL     1      32.612 -59.590  43.836  1.00  0.00     0.196 A 
ATOM     17  H1  UNL     1      31.169 -60.895  44.421  1.00  0.00     0.186 HD
HETATM   18  C11 UNL     1      33.615 -59.373  42.909  1.00  0.00     0.189 A 
HETATM   19  C10 UNL     1      33.851 -60.337  41.934  1.00  0.00     0.297 A 
HETATM   20  N8  UNL     1      33.131 -61.467  41.872  1.00  0.00    -0.151 N 
HETATM   21  O2  UNL     1      34.765 -60.142  41.091  1.00  0.00    -0.264 OA
ATOM     22  H8  UNL     1      33.319 -62.163  41.151  1.00  0.00     0.188 HD
BRANCH  16  23
HETATM   23  O1  UNL     1      32.376 -58.634  44.806  1.00  0.00    -0.338 OA
HETATM   24  C1  UNL     1      31.685 -59.001  45.999  1.00  0.00     0.211 C 
ENDBRANCH  16  23
BRANCH  18  25
HETATM   25  O3  UNL     1      34.351 -58.201  42.983  1.00  0.00    -0.347 OA
HETATM   26  C12 UNL     1      33.919 -57.149  42.104  1.00  0.00     0.210 C 
ENDBRANCH  18  25
ENDBRANCH  12  14
ENDBRANCH  11  12
ENDBRANCH   1  11
BRANCH   7  27
HETATM   27  S1  UNL     1      30.436 -65.556  48.103  1.00  0.00    -0.115 SA
HETATM   28  C7  UNL     1      29.893 -67.122  48.830  1.00  0.00     0.097 C 
ENDBRANCH   7  27
BRANCH   4  29
HETATM   29  N5  UNL     1      30.317 -68.119  43.759  1.00  0.00    -0.234 N 
ATOM     30  H52 UNL     1      31.015 -68.858  43.827  1.00  0.00     0.174 HD
ATOM     31  H51 UNL     1      29.484 -68.295  43.197  1.00  0.00     0.174 HD
ENDBRANCH   4  29
TORSDOF 7
ENDMDL
MODEL 4
REMARK VINA RESULT: -7.183408204      1.514      2.561
REMARK  7 active torsions:
REMARK  status: ('A' for Active; 'I' for Inactive)
REMARK    1  A    between atoms: O1_2  and  C2_3 
REMARK    2  A    between atoms: C3_6  and  N2_7 
REMARK    3  A    between atoms: N2_7  and  N3_9 
REMARK    4  A    between atoms: N3_9  and  C4_10 
REMARK    5  A    between atoms: C5_13  and  N5_14 
REMARK    6  A    between atoms: C6_19  and  S1_20 
REMARK    7  A    between atoms: C11_29  and  O3_30 
ROOT
HETATM    1  C4  UNL     1      31.149 -63.259  45.184  1.00  0.00     0.242 A 
HETATM    2  N4  UNL     1      30.397 -63.272  46.331  1.00  0.00    -0.161 N 
ATOM      3  H4  UNL     1      29.996 -62.391  46.653  1.00  0.00     0.187 HD
HETATM    4  C5  UNL     1      30.160 -64.370  47.052  1.00  0.00     0.679 A 
HETATM    5  N6  UNL     1      30.686 -65.525  46.631  1.00  0.00    -0.184 N 
ATOM      6  H6  UNL     1      30.517 -66.375  47.169  1.00  0.00     0.185 HD
HETATM    7  C6  UNL     1      31.438 -65.593  45.511  1.00  0.00     0.111 A 
HETATM    8  C8  UNL     1      31.692 -64.479  44.760  1.00  0.00     0.139 A 
HETATM    9  C9  UNL     1      32.490 -64.517  43.561  1.00  0.00     0.107 C 
HETATM   10  N7  UNL     1      33.130 -64.560  42.596  1.00  0.00    -0.191 NA
ENDROOT
BRANCH   1  11
HETATM   11  N3  UNL     1      31.299 -62.222  44.582  1.00  0.00    -0.290 NA
BRANCH  11  12
HETATM   12  N2  UNL     1      31.460 -61.153  43.961  1.00  0.00    -0.063 N 
ATOM     13  H2  UNL     1      30.569 -60.668  43.859  1.00  0.00     0.221 HD
BRANCH  12  14
HETATM   14  C3  UNL     1      32.383 -60.486  43.418  1.00  0.00     0.712 A 
HETATM   15  N1  UNL     1      33.305 -61.168  42.654  1.00  0.00    -0.165 N 
HETATM   16  C2  UNL     1      34.317 -60.556  42.040  1.00  0.00     0.196 A 
ATOM     17  H1  UNL     1      33.210 -62.179  42.556  1.00  0.00     0.186 HD
HETATM   18  C11 UNL     1      34.430 -59.186  42.189  1.00  0.00     0.189 A 
HETATM   19  C10 UNL     1      33.491 -58.512  42.964  1.00  0.00     0.297 A 
HETATM   20  N8  UNL     1      32.482 -59.159  43.568  1.00  0.00    -0.151 N 
HETATM   21  O2  UNL     1      33.592 -57.266  43.099  1.00  0.00    -0.264 OA
ATOM     22  H8  UNL     1      31.802 -58.649  44.132  1.00  0.00     0.188 HD
BRANCH  16  23
HETATM   23  O1  UNL     1      35.249 -61.226  41.270  1.00  0.00    -0.338 OA
HETATM   24  C1  UNL     1      36.251 -62.014  41.911  1.00  0.00     0.211 C 
ENDBRANCH  16  23
BRANCH  18  25
HETATM   25  O3  UNL     1      35.477 -58.529  41.561  1.00  0.00    -0.347 OA
HETATM   26  C12 UNL     1      35.202 -58.072  40.227  1.00  0.00     0.210 C 
ENDBRANCH  18  25
ENDBRANCH  12  14
ENDBRANCH  11  12
ENDBRANCH   1  11
BRANCH   7  27
HETATM   27  S1  UNL     1      32.130 -67.162  44.982  1.00  0.00    -0.115 SA
HETATM   28  C7  UNL     1      31.050 -68.004  43.798  1.00  0.00     0.097 C 
ENDBRANCH   7  27
BRANCH   4  29
HETATM   29  N5  UNL     1      29.422 -64.305  48.138  1.00  0.00    -0.234 N 
ATOM     30  H52 UNL     1      29.362 -65.087  48.790  1.00  0.00     0.174 HD
ATOM     31  H51 UNL     1      28.884 -63.464  48.346  1.00  0.00     0.174 HD
ENDBRANCH   4  29
TORSDOF 7
ENDMDL
MODEL 5
REMARK VINA RESULT: -7.161414991      4.116      7.970
REMARK  7 active torsions:
REMARK  status: ('A' for Active; 'I' for Inactive)
REMARK    1  A    between atoms: O1_2  and  C2_3 
REMARK    2  A    between atoms: C3_6  and  N2_7 
REMARK    3  A    between atoms: N2_7  and  N3_9 
REMARK    4  A    between atoms: N3_9  and  C4_10 
REMARK    5  A    between atoms: C5_13  and  N5_14 
REMARK    6  A    between atoms: C6_19  and  S1_20 
REMARK    7  A    between atoms: C11_29  and  O3_30 
ROOT
HETATM    1  C4  UNL     1      32.083 -60.321  43.948  1.00  0.00     0.242 A 
HETATM    2  N4  UNL     1      31.588 -59.704  45.068  1.00  0.00    -0.161 N 
ATOM      3  H4  UNL     1      30.844 -60.172  45.585  1.00  0.00     0.187 HD
HETATM    4  C5  UNL     1      32.022 -58.525  45.521  1.00  0.00     0.679 A 
HETATM    5  N6  UNL     1      32.997 -57.911  44.842  1.00  0.00    -0.184 N 
ATOM      6  H6  UNL     1      33.342 -57.009  45.173  1.00  0.00     0.185 HD
HETATM    7  C6  UNL     1      33.536 -58.455  43.730  1.00  0.00     0.111 A 
HETATM    8  C8  UNL     1      33.103 -59.661  43.251  1.00  0.00     0.139 A 
HETATM    9  C9  UNL     1      33.656 -60.267  42.067  1.00  0.00     0.107 C 
HETATM   10  N7  UNL     1      34.111 -60.749  41.116  1.00  0.00    -0.191 NA
ENDROOT
BRANCH   1  11
HETATM   11  N3  UNL     1      31.644 -61.398  43.618  1.00  0.00    -0.290 NA
BRANCH  11  12
HETATM   12  N2  UNL     1      31.193 -62.510  43.283  1.00  0.00    -0.063 N 
ATOM     13  H2  UNL     1      30.863 -62.480  42.319  1.00  0.00     0.221 HD
BRANCH  12  14
HETATM   14  C3  UNL     1      31.017 -63.662  43.767  1.00  0.00     0.712 A 
HETATM   15  N1  UNL     1      30.900 -63.772  45.136  1.00  0.00    -0.165 N 
HETATM   16  C2  UNL     1      30.713 -64.942  45.745  1.00  0.00     0.196 A 
ATOM     17  H1  UNL     1      30.959 -62.927  45.704  1.00  0.00     0.186 HD
HETATM   18  C11 UNL     1      30.638 -66.077  44.957  1.00  0.00     0.189 A 
HETATM   19  C10 UNL     1      30.759 -65.948  43.577  1.00  0.00     0.297 A 
HETATM   20  N8  UNL     1      30.945 -64.753  42.995  1.00  0.00    -0.151 N 
HETATM   21  O2  UNL     1      30.689 -66.979  42.860  1.00  0.00    -0.264 OA
ATOM     22  H8  UNL     1      31.030 -64.678  41.982  1.00  0.00     0.188 HD
BRANCH  16  23
HETATM   23  O1  UNL     1      30.592 -65.069  47.116  1.00  0.00    -0.338 OA
HETATM   24  C1  UNL     1      29.509 -64.426  47.786  1.00  0.00     0.211 C 
ENDBRANCH  16  23
BRANCH  18  25
HETATM   25  O3  UNL     1      30.447 -67.305  45.571  1.00  0.00    -0.347 OA
HETATM   26  C12 UNL     1      31.649 -68.012  45.917  1.00  0.00     0.210 C 
ENDBRANCH  18  25
ENDBRANCH  12  14
ENDBRANCH  11  12
ENDBRANCH   1  11
BRANCH   7  27
HETATM   27  S1  UNL     1      34.839 -57.596  42.846  1.00  0.00    -0.115 SA
HETATM   28  C7  UNL     1      34.237 -56.882  41.295  1.00  0.00     0.097 C 
ENDBRANCH   7  27
BRANCH   4  29
HETATM   29  N5  UNL     1      31.503 -58.000  46.608  1.00  0.00    -0.234 N 
ATOM     30  H52 UNL     1      30.496 -57.875  46.713  1.00  0.00     0.174 HD
ATOM     31  H51 UNL     1      32.107 -57.697  47.373  1.00  0.00     0.174 HD
ENDBRANCH   4  29
TORSDOF 7
ENDMDL
