MODEL 1
REMARK VINA RESULT: -6.882509428      0.000      0.000
REMARK  8 active torsions:
REMARK  status: ('A' for Active; 'I' for Inactive)
REMARK    1  A    between atoms: C2_2  and  C3_3 
REMARK    2  A    between atoms: C2_2  and  N1_6 
REMARK    3  A    between atoms: C3_3  and  O1_4 
REMARK    4  A    between atoms: C5_11  and  N3_12 
REMARK    5  A    between atoms: C6_13  and  C7_14 
REMARK    6  A    between atoms: C7_14  and  N4_15 
REMARK    7  A    between atoms: C16_29  and  N8_30 
REMARK    8  A    between atoms: N8_30  and  C17_32 
ROOT
HETATM    1  N1  UNL     1      35.470   0.461 -12.237  1.00  0.00    -0.219 N 
ATOM      2  H1  UNL     1      36.318   1.012 -12.101  1.00  0.00     0.178 HD
HETATM    3  C4  UNL     1      35.676  -0.747 -11.959  1.00  0.00     0.707 A 
HETATM    4  N2  UNL     1      36.936  -1.112 -11.537  1.00  0.00    -0.021 N 
ATOM      5  H2  UNL     1      37.650  -0.388 -11.461  1.00  0.00     0.203 HD
HETATM    6  C5  UNL     1      37.274  -2.385 -11.216  1.00  0.00     0.719 A 
HETATM    7  N7  UNL     1      36.351  -3.299 -11.315  1.00  0.00    -0.020 N 
ATOM      8  H7  UNL     1      36.595  -4.260 -11.075  1.00  0.00     0.203 HD
HETATM    9  C16 UNL     1      35.044  -3.035 -11.732  1.00  0.00     0.712 A 
HETATM   10  N11 UNL     1      34.772  -1.740 -12.041  1.00  0.00    -0.021 N 
ATOM     11  H11 UNL     1      33.829  -1.507 -12.352  1.00  0.00     0.203 HD
ENDROOT
BRANCH   6  12
HETATM   12  N3  UNL     1      38.623  -2.636 -10.880  1.00  0.00    -0.131 N 
HETATM   13  C6  UNL     1      39.625  -3.039 -11.660  1.00  0.00     0.089 A 
HETATM   14  C10 UNL     1      40.733  -3.319 -10.891  1.00  0.00     0.082 A 
HETATM   15  N5  UNL     1      42.024  -3.784 -11.281  1.00  0.00    -0.100 NA
HETATM   16  C11 UNL     1      40.320  -3.045  -9.586  1.00  0.00     0.013 A 
HETATM   17  C12 UNL     1      39.024  -2.632  -9.584  1.00  0.00     0.133 A 
HETATM   18  C15 UNL     1      41.075  -3.039  -8.327  1.00  0.00     0.046 C 
HETATM   19  N6  UNL     1      38.414  -2.345  -8.332  1.00  0.00    -0.375 N 
HETATM   20  C13 UNL     1      38.910  -2.861  -7.077  1.00  0.00     0.121 C 
ATOM     21  H6  UNL     1      37.587  -1.747  -8.320  1.00  0.00     0.161 HD
HETATM   22  C14 UNL     1      40.274  -3.488  -7.172  1.00  0.00     0.024 C 
BRANCH  13  23
HETATM   23  C7  UNL     1      39.638  -3.291 -13.146  1.00  0.00     0.331 C 
BRANCH  23  24
HETATM   24  N4  UNL     1      40.261  -2.065 -13.773  1.00  0.00     0.085 N 
HETATM   25  C8  UNL     1      39.290  -1.351 -14.572  1.00  0.00     0.309 C 
HETATM   26  C9  UNL     1      41.144  -2.686 -14.841  1.00  0.00     0.309 C 
ENDBRANCH  23  24
ENDBRANCH  13  23
ENDBRANCH   6  12
BRANCH   9  27
HETATM   27  N8  UNL     1      34.231  -3.940 -11.802  1.00  0.00    -0.188 N 
ATOM     28  H8  UNL     1      33.353  -3.429 -11.892  1.00  0.00     0.184 HD
BRANCH  27  29
HETATM   29  C17 UNL     1      33.821  -5.204 -11.830  1.00  0.00     0.083 A 
HETATM   30  C18 UNL     1      34.268  -6.299 -11.066  1.00  0.00     0.138 A 
HETATM   31  N9  UNL     1      33.567  -7.368 -11.401  1.00  0.00    -0.308 N 
HETATM   32  N10 UNL     1      32.672  -7.071 -12.344  1.00  0.00    -0.306 N 
ATOM     33  H9  UNL     1      33.693  -8.294 -10.994  1.00  0.00     0.186 HD
HETATM   34  C19 UNL     1      31.745  -8.063 -12.904  1.00  0.00     0.177 C 
HETATM   35  C20 UNL     1      32.800  -5.794 -12.615  1.00  0.00     0.141 A 
ENDBRANCH  27  29
ENDBRANCH   9  27
BRANCH   1  36
HETATM   36  C2  UNL     1      34.431   1.265 -12.673  1.00  0.00     0.118 C 
HETATM   37  C1  UNL     1      34.734   2.767 -12.493  1.00  0.00     0.035 C 
BRANCH  36  38
HETATM   38  C3  UNL     1      34.031   1.140 -14.142  1.00  0.00     0.189 C 
BRANCH  38  39
HETATM   39  O1  UNL     1      33.077   2.113 -14.500  1.00  0.00    -0.399 OA
ATOM     40  H1  UNL     1      32.256   1.714 -14.762  1.00  0.00     0.209 HD
ENDBRANCH  38  39
ENDBRANCH  36  38
ENDBRANCH   1  36
TORSDOF 8
ENDMDL
MODEL 2
REMARK VINA RESULT: -6.851112115      0.863      3.357
REMARK  8 active torsions:
REMARK  status: ('A' for Active; 'I' for Inactive)
REMARK    1  A    between atoms: C2_2  and  C3_3 
REMARK    2  A    between atoms: C2_2  and  N1_6 
REMARK    3  A    between atoms: C3_3  and  O1_4 
REMARK    4  A    between atoms: C5_11  and  N3_12 
REMARK    5  A    between atoms: C6_13  and  C7_14 
REMARK    6  A    between atoms: C7_14  and  N4_15 
REMARK    7  A    between atoms: C16_29  and  N8_30 
REMARK    8  A    between atoms: N8_30  and  C17_32 
ROOT
HETATM    1  N1  UNL     1      35.545   0.404 -12.295  1.00  0.00    -0.219 N 
ATOM      2  H1  UNL     1      36.412   0.935 -12.208  1.00  0.00     0.178 HD
HETATM    3  C4  UNL     1      35.740  -0.809 -12.033  1.00  0.00     0.707 A 
HETATM    4  N2  UNL     1      37.014  -1.204 -11.687  1.00  0.00    -0.021 N 
ATOM      5  H2  UNL     1      37.748  -0.497 -11.653  1.00  0.00     0.203 HD
HETATM    6  C5  UNL     1      37.342  -2.486 -11.391  1.00  0.00     0.719 A 
HETATM    7  N7  UNL     1      36.393  -3.378 -11.436  1.00  0.00    -0.020 N 
ATOM      8  H7  UNL     1      36.630  -4.345 -11.214  1.00  0.00     0.203 HD
HETATM    9  C16 UNL     1      35.070  -3.083 -11.773  1.00  0.00     0.712 A 
HETATM   10  N11 UNL     1      34.811  -1.781 -12.062  1.00  0.00    -0.021 N 
ATOM     11  H11 UNL     1      33.856  -1.526 -12.315  1.00  0.00     0.203 HD
ENDROOT
BRANCH   6  12
HETATM   12  N3  UNL     1      38.702  -2.769 -11.137  1.00  0.00    -0.131 N 
HETATM   13  C6  UNL     1      39.396  -2.630 -10.008  1.00  0.00     0.089 A 
HETATM   14  C10 UNL     1      40.731  -2.864 -10.247  1.00  0.00     0.082 A 
HETATM   15  N5  UNL     1      41.843  -2.824  -9.353  1.00  0.00    -0.100 NA
HETATM   16  C11 UNL     1      40.786  -3.163 -11.610  1.00  0.00     0.013 A 
HETATM   17  C12 UNL     1      39.540  -3.098 -12.151  1.00  0.00     0.133 A 
HETATM   18  C15 UNL     1      41.907  -3.611 -12.445  1.00  0.00     0.046 C 
HETATM   19  N6  UNL     1      39.403  -3.333 -13.547  1.00  0.00    -0.375 N 
HETATM   20  C13 UNL     1      40.500  -3.207 -14.480  1.00  0.00     0.121 C 
ATOM     21  H6  UNL     1      38.487  -3.603 -13.907  1.00  0.00     0.161 HD
HETATM   22  C14 UNL     1      41.848  -3.084 -13.822  1.00  0.00     0.024 C 
BRANCH  13  23
HETATM   23  C7  UNL     1      38.926  -2.187  -8.646  1.00  0.00     0.331 C 
BRANCH  23  24
HETATM   24  N4  UNL     1      38.222  -3.379  -8.038  1.00  0.00     0.085 N 
HETATM   25  C8  UNL     1      36.837  -3.068  -7.763  1.00  0.00     0.309 C 
HETATM   26  C9  UNL     1      38.817  -3.402  -6.641  1.00  0.00     0.309 C 
ENDBRANCH  23  24
ENDBRANCH  13  23
ENDBRANCH   6  12
BRANCH   9  27
HETATM   27  N8  UNL     1      34.234  -3.969 -11.796  1.00  0.00    -0.188 N 
ATOM     28  H8  UNL     1      33.364  -3.439 -11.774  1.00  0.00     0.184 HD
BRANCH  27  29
HETATM   29  C17 UNL     1      33.795  -5.223 -11.833  1.00  0.00     0.083 A 
HETATM   30  C18 UNL     1      34.220  -6.334 -11.081  1.00  0.00     0.138 A 
HETATM   31  N9  UNL     1      33.492  -7.384 -11.423  1.00  0.00    -0.308 N 
HETATM   32  N10 UNL     1      32.602  -7.059 -12.358  1.00  0.00    -0.306 N 
ATOM     33  H9  UNL     1      33.599  -8.317 -11.023  1.00  0.00     0.186 HD
HETATM   34  C19 UNL     1      31.649  -8.024 -12.923  1.00  0.00     0.177 C 
HETATM   35  C20 UNL     1      32.757  -5.783 -12.619  1.00  0.00     0.141 A 
ENDBRANCH  27  29
ENDBRANCH   9  27
BRANCH   1  36
HETATM   36  C2  UNL     1      34.500   1.233 -12.666  1.00  0.00     0.118 C 
HETATM   37  C1  UNL     1      34.849   2.727 -12.503  1.00  0.00     0.035 C 
BRANCH  36  38
HETATM   38  C3  UNL     1      34.008   1.121 -14.107  1.00  0.00     0.189 C 
BRANCH  38  39
HETATM   39  O1  UNL     1      33.115   2.162 -14.429  1.00  0.00    -0.399 OA
ATOM     40  H1  UNL     1      32.226   1.840 -14.525  1.00  0.00     0.209 HD
ENDBRANCH  38  39
ENDBRANCH  36  38
ENDBRANCH   1  36
TORSDOF 8
ENDMDL
MODEL 3
REMARK VINA RESULT: -6.636895525      3.069      6.502
REMARK  8 active torsions:
REMARK  status: ('A' for Active; 'I' for Inactive)
REMARK    1  A    between atoms: C2_2  and  C3_3 
REMARK    2  A    between atoms: C2_2  and  N1_6 
REMARK    3  A    between atoms: C3_3  and  O1_4 
REMARK    4  A    between atoms: C5_11  and  N3_12 
REMARK    5  A    between atoms: C6_13  and  C7_14 
REMARK    6  A    between atoms: C7_14  and  N4_15 
REMARK    7  A    between atoms: C16_29  and  N8_30 
REMARK    8  A    between atoms: N8_30  and  C17_32 
ROOT
HETATM    1  N1  UNL     1      33.436  -6.797 -11.470  1.00  0.00    -0.219 N 
ATOM      2  H1  UNL     1      33.508  -7.512 -10.746  1.00  0.00     0.178 HD
HETATM    3  C4  UNL     1      34.073  -5.766 -11.140  1.00  0.00     0.707 A 
HETATM    4  N2  UNL     1      34.730  -5.765  -9.929  1.00  0.00    -0.021 N 
ATOM      5  H2  UNL     1      34.679  -6.604  -9.350  1.00  0.00     0.203 HD
HETATM    6  C5  UNL     1      35.442  -4.708  -9.467  1.00  0.00     0.719 A 
HETATM    7  N7  UNL     1      35.501  -3.645 -10.219  1.00  0.00    -0.020 N 
ATOM      8  H7  UNL     1      36.035  -2.845  -9.881  1.00  0.00     0.203 HD
HETATM    9  C16 UNL     1      34.873  -3.542 -11.463  1.00  0.00     0.712 A 
HETATM   10  N11 UNL     1      34.174  -4.636 -11.864  1.00  0.00    -0.021 N 
ATOM     11  H11 UNL     1      33.699  -4.599 -12.766  1.00  0.00     0.203 HD
ENDROOT
BRANCH   6  12
HETATM   12  N3  UNL     1      35.994  -4.809  -8.172  1.00  0.00    -0.131 N 
HETATM   13  C6  UNL     1      36.855  -3.999  -7.557  1.00  0.00     0.089 A 
HETATM   14  C10 UNL     1      37.257  -4.562  -6.366  1.00  0.00     0.082 A 
HETATM   15  N5  UNL     1      38.166  -4.071  -5.382  1.00  0.00    -0.100 NA
HETATM   16  C11 UNL     1      36.565  -5.772  -6.309  1.00  0.00     0.013 A 
HETATM   17  C12 UNL     1      35.796  -5.921  -7.421  1.00  0.00     0.133 A 
HETATM   18  C15 UNL     1      36.478  -6.775  -5.240  1.00  0.00     0.046 C 
HETATM   19  N6  UNL     1      35.045  -7.121  -7.561  1.00  0.00    -0.375 N 
HETATM   20  C13 UNL     1      35.364  -8.339  -6.852  1.00  0.00     0.121 C 
ATOM     21  H6  UNL     1      34.243  -7.122  -8.192  1.00  0.00     0.161 HD
HETATM   22  C14 UNL     1      36.373  -8.156  -5.751  1.00  0.00     0.024 C 
BRANCH  13  23
HETATM   23  C7  UNL     1      37.452  -2.700  -8.032  1.00  0.00     0.331 C 
BRANCH  23  24
HETATM   24  N4  UNL     1      38.900  -2.996  -8.349  1.00  0.00     0.085 N 
HETATM   25  C8  UNL     1      39.762  -1.973  -7.800  1.00  0.00     0.309 C 
HETATM   26  C9  UNL     1      38.956  -2.683  -9.834  1.00  0.00     0.309 C 
ENDBRANCH  23  24
ENDBRANCH  13  23
ENDBRANCH   6  12
BRANCH   9  27
HETATM   27  N8  UNL     1      34.970  -2.516 -12.113  1.00  0.00    -0.188 N 
ATOM     28  H8  UNL     1      33.999  -2.208 -12.168  1.00  0.00     0.184 HD
BRANCH  27  29
HETATM   29  C17 UNL     1      35.603  -1.564 -12.791  1.00  0.00     0.083 A 
HETATM   30  C18 UNL     1      35.095  -0.359 -13.310  1.00  0.00     0.138 A 
HETATM   31  N9  UNL     1      36.079   0.303 -13.894  1.00  0.00    -0.308 N 
HETATM   32  N10 UNL     1      37.223  -0.375 -13.807  1.00  0.00    -0.306 N 
ATOM     33  H9  UNL     1      35.977   1.210 -14.350  1.00  0.00     0.186 HD
HETATM   34  C19 UNL     1      38.490   0.122 -14.360  1.00  0.00     0.177 C 
HETATM   35  C20 UNL     1      36.969  -1.486 -13.156  1.00  0.00     0.141 A 
ENDBRANCH  27  29
ENDBRANCH   9  27
BRANCH   1  36
HETATM   36  C2  UNL     1      32.666  -7.250 -12.528  1.00  0.00     0.118 C 
HETATM   37  C1  UNL     1      32.672  -8.789 -12.642  1.00  0.00     0.035 C 
BRANCH  36  38
HETATM   38  C3  UNL     1      31.184  -6.884 -12.509  1.00  0.00     0.189 C 
BRANCH  38  39
HETATM   39  O1  UNL     1      30.629  -6.916 -13.803  1.00  0.00    -0.399 OA
ATOM     40  H1  UNL     1      29.844  -6.384 -13.858  1.00  0.00     0.209 HD
ENDBRANCH  38  39
ENDBRANCH  36  38
ENDBRANCH   1  36
TORSDOF 8
ENDMDL
MODEL 4
REMARK VINA RESULT: -6.520541829      2.508      6.467
REMARK  8 active torsions:
REMARK  status: ('A' for Active; 'I' for Inactive)
REMARK    1  A    between atoms: C2_2  and  C3_3 
REMARK    2  A    between atoms: C2_2  and  N1_6 
REMARK    3  A    between atoms: C3_3  and  O1_4 
REMARK    4  A    between atoms: C5_11  and  N3_12 
REMARK    5  A    between atoms: C6_13  and  C7_14 
REMARK    6  A    between atoms: C7_14  and  N4_15 
REMARK    7  A    between atoms: C16_29  and  N8_30 
REMARK    8  A    between atoms: N8_30  and  C17_32 
ROOT
HETATM    1  N1  UNL     1      35.618  -4.106 -11.342  1.00  0.00    -0.219 N 
ATOM      2  H1  UNL     1      36.425  -4.695 -11.138  1.00  0.00     0.178 HD
HETATM    3  C4  UNL     1      35.983  -3.019 -11.857  1.00  0.00     0.707 A 
HETATM    4  N2  UNL     1      37.331  -2.812 -12.054  1.00  0.00    -0.021 N 
ATOM      5  H2  UNL     1      37.979  -3.550 -11.780  1.00  0.00     0.203 HD
HETATM    6  C5  UNL     1      37.839  -1.677 -12.595  1.00  0.00     0.719 A 
HETATM    7  N7  UNL     1      36.998  -0.744 -12.943  1.00  0.00    -0.020 N 
ATOM      8  H7  UNL     1      37.370   0.113 -13.351  1.00  0.00     0.203 HD
HETATM    9  C16 UNL     1      35.614  -0.854 -12.786  1.00  0.00     0.712 A 
HETATM   10  N11 UNL     1      35.172  -2.015 -12.236  1.00  0.00    -0.021 N 
ATOM     11  H11 UNL     1      34.167  -2.132 -12.104  1.00  0.00     0.203 HD
ENDROOT
BRANCH   6  12
HETATM   12  N3  UNL     1      39.245  -1.559 -12.662  1.00  0.00    -0.131 N 
HETATM   13  C6  UNL     1      40.174  -2.112 -11.884  1.00  0.00     0.089 A 
HETATM   14  C10 UNL     1      41.413  -1.599 -12.199  1.00  0.00     0.082 A 
HETATM   15  N5  UNL     1      42.692  -1.882 -11.634  1.00  0.00    -0.100 NA
HETATM   16  C11 UNL     1      41.156  -0.699 -13.235  1.00  0.00     0.013 A 
HETATM   17  C12 UNL     1      39.824  -0.675 -13.511  1.00  0.00     0.133 A 
HETATM   18  C15 UNL     1      42.075   0.081 -14.073  1.00  0.00     0.046 C 
HETATM   19  N6  UNL     1      39.364   0.220 -14.516  1.00  0.00    -0.375 N 
HETATM   20  C13 UNL     1      40.115   1.379 -14.944  1.00  0.00     0.121 C 
ATOM     21  H6  UNL     1      38.462   0.036 -14.955  1.00  0.00     0.161 HD
HETATM   22  C14 UNL     1      41.535   1.403 -14.447  1.00  0.00     0.024 C 
BRANCH  13  23
HETATM   23  C7  UNL     1      40.012  -3.075 -10.737  1.00  0.00     0.331 C 
BRANCH  23  24
HETATM   24  N4  UNL     1      40.042  -2.237  -9.479  1.00  0.00     0.085 N 
HETATM   25  C8  UNL     1      41.054  -2.721  -8.567  1.00  0.00     0.309 C 
HETATM   26  C9  UNL     1      38.765  -2.681  -8.788  1.00  0.00     0.309 C 
ENDBRANCH  23  24
ENDBRANCH  13  23
ENDBRANCH   6  12
BRANCH   9  27
HETATM   27  N8  UNL     1      34.886   0.059 -13.134  1.00  0.00    -0.188 N 
ATOM     28  H8  UNL     1      34.281  -0.399 -13.815  1.00  0.00     0.184 HD
BRANCH  27  29
HETATM   29  C17 UNL     1      34.420   1.304 -13.144  1.00  0.00     0.083 A 
HETATM   30  C18 UNL     1      33.370   1.852 -13.904  1.00  0.00     0.138 A 
HETATM   31  N9  UNL     1      33.228   3.126 -13.580  1.00  0.00    -0.308 N 
HETATM   32  N10 UNL     1      34.114   3.479 -12.650  1.00  0.00    -0.306 N 
ATOM     33  H9  UNL     1      32.534   3.752 -13.987  1.00  0.00     0.186 HD
HETATM   34  C19 UNL     1      34.185   4.836 -12.090  1.00  0.00     0.177 C 
HETATM   35  C20 UNL     1      34.833   2.418 -12.371  1.00  0.00     0.141 A 
ENDBRANCH  27  29
ENDBRANCH   9  27
BRANCH   1  36
HETATM   36  C2  UNL     1      34.444  -4.739 -10.971  1.00  0.00     0.118 C 
HETATM   37  C1  UNL     1      33.697  -5.344 -12.178  1.00  0.00     0.035 C 
BRANCH  36  38
HETATM   38  C3  UNL     1      34.566  -5.900  -9.988  1.00  0.00     0.189 C 
BRANCH  38  39
HETATM   39  O1  UNL     1      34.596  -5.446  -8.656  1.00  0.00    -0.399 OA
ATOM     40  H1  UNL     1      34.209  -6.081  -8.064  1.00  0.00     0.209 HD
ENDBRANCH  38  39
ENDBRANCH  36  38
ENDBRANCH   1  36
TORSDOF 8
ENDMDL
MODEL 5
REMARK VINA RESULT: -6.467657279      4.196      7.016
REMARK  8 active torsions:
REMARK  status: ('A' for Active; 'I' for Inactive)
REMARK    1  A    between atoms: C2_2  and  C3_3 
REMARK    2  A    between atoms: C2_2  and  N1_6 
REMARK    3  A    between atoms: C3_3  and  O1_4 
REMARK    4  A    between atoms: C5_11  and  N3_12 
REMARK    5  A    between atoms: C6_13  and  C7_14 
REMARK    6  A    between atoms: C7_14  and  N4_15 
REMARK    7  A    between atoms: C16_29  and  N8_30 
REMARK    8  A    between atoms: N8_30  and  C17_32 
ROOT
HETATM    1  N1  UNL     1      38.455  -0.655  -4.711  1.00  0.00    -0.219 N 
ATOM      2  H1  UNL     1      38.923  -0.997  -3.871  1.00  0.00     0.178 HD
HETATM    3  C4  UNL     1      38.191  -1.605  -5.489  1.00  0.00     0.707 A 
HETATM    4  N2  UNL     1      38.548  -2.879  -5.106  1.00  0.00    -0.021 N 
ATOM      5  H2  UNL     1      39.009  -3.003  -4.204  1.00  0.00     0.203 HD
HETATM    6  C5  UNL     1      38.319  -3.979  -5.866  1.00  0.00     0.719 A 
HETATM    7  N7  UNL     1      37.728  -3.806  -7.014  1.00  0.00    -0.020 N 
ATOM      8  H7  UNL     1      37.550  -4.627  -7.593  1.00  0.00     0.203 HD
HETATM    9  C16 UNL     1      37.324  -2.558  -7.496  1.00  0.00     0.712 A 
HETATM   10  N11 UNL     1      37.587  -1.499  -6.686  1.00  0.00    -0.021 N 
ATOM     11  H11 UNL     1      37.309  -0.571  -7.004  1.00  0.00     0.203 HD
ENDROOT
BRANCH   6  12
HETATM   12  N3  UNL     1      38.814  -5.214  -5.392  1.00  0.00    -0.131 N 
HETATM   13  C6  UNL     1      40.072  -5.584  -5.158  1.00  0.00     0.089 A 
HETATM   14  C10 UNL     1      40.117  -6.928  -4.863  1.00  0.00     0.082 A 
HETATM   15  N5  UNL     1      41.234  -7.761  -4.555  1.00  0.00    -0.100 NA
HETATM   16  C11 UNL     1      38.784  -7.337  -4.931  1.00  0.00     0.013 A 
HETATM   17  C12 UNL     1      37.990  -6.283  -5.261  1.00  0.00     0.133 A 
HETATM   18  C15 UNL     1      38.163  -8.628  -4.610  1.00  0.00     0.046 C 
HETATM   19  N6  UNL     1      36.596  -6.517  -5.418  1.00  0.00    -0.375 N 
HETATM   20  C13 UNL     1      36.041  -7.826  -5.676  1.00  0.00     0.121 C 
ATOM     21  H6  UNL     1      35.958  -5.724  -5.345  1.00  0.00     0.161 HD
HETATM   22  C14 UNL     1      37.020  -8.952  -5.485  1.00  0.00     0.024 C 
BRANCH  13  23
HETATM   23  C7  UNL     1      41.341  -4.779  -5.270  1.00  0.00     0.331 C 
BRANCH  23  24
HETATM   24  N4  UNL     1      41.719  -4.795  -6.734  1.00  0.00     0.085 N 
HETATM   25  C8  UNL     1      43.094  -5.210  -6.902  1.00  0.00     0.309 C 
HETATM   26  C9  UNL     1      41.805  -3.310  -7.041  1.00  0.00     0.309 C 
ENDBRANCH  23  24
ENDBRANCH  13  23
ENDBRANCH   6  12
BRANCH   9  27
HETATM   27  N8  UNL     1      36.776  -2.471  -8.581  1.00  0.00    -0.188 N 
ATOM     28  H8  UNL     1      35.839  -2.165  -8.320  1.00  0.00     0.184 HD
BRANCH  27  29
HETATM   29  C17 UNL     1      36.686  -2.542  -9.905  1.00  0.00     0.083 A 
HETATM   30  C18 UNL     1      37.713  -2.500 -10.867  1.00  0.00     0.138 A 
HETATM   31  N9  UNL     1      37.178  -2.628 -12.068  1.00  0.00    -0.308 N 
HETATM   32  N10 UNL     1      35.854  -2.754 -11.986  1.00  0.00    -0.306 N 
ATOM     33  H9  UNL     1      37.707  -2.631 -12.941  1.00  0.00     0.186 HD
HETATM   34  C19 UNL     1      34.993  -2.923 -13.165  1.00  0.00     0.177 C 
HETATM   35  C20 UNL     1      35.536  -2.708 -10.714  1.00  0.00     0.141 A 
ENDBRANCH  27  29
ENDBRANCH   9  27
BRANCH   1  36
HETATM   36  C2  UNL     1      38.299   0.720  -4.657  1.00  0.00     0.118 C 
HETATM   37  C1  UNL     1      38.318   1.257  -3.211  1.00  0.00     0.035 C 
BRANCH  36  38
HETATM   38  C3  UNL     1      39.345   1.563  -5.382  1.00  0.00     0.189 C 
BRANCH  38  39
HETATM   39  O1  UNL     1      38.957   2.914  -5.455  1.00  0.00    -0.399 OA
ATOM     40  H1  UNL     1      38.226   3.034  -6.051  1.00  0.00     0.209 HD
ENDBRANCH  38  39
ENDBRANCH  36  38
ENDBRANCH   1  36
TORSDOF 8
ENDMDL
