MODEL 1
REMARK VINA RESULT: -6.570565899      0.000      0.000
REMARK  7 active torsions:
REMARK  status: ('A' for Active; 'I' for Inactive)
REMARK    1  A    between atoms: C2_2  and  C3_3 
REMARK    2  A    between atoms: C3_3  and  C4_4 
REMARK    3  A    between atoms: C4_4  and  N1_5 
REMARK    4  A    between atoms: N1_5  and  C6_7 
REMARK    5  A    between atoms: C6_7  and  C7_8 
REMARK    6  A    between atoms: C9_10  and  O1_11 
REMARK    7  A    between atoms: N2_22  and  N3_24 
ROOT
HETATM    1  C7  UNL     1      18.905 -13.735  22.835  1.00  0.00     0.011 C 
HETATM    2  C8  UNL     1      19.538 -12.733  21.870  1.00  0.00     0.039 C 
HETATM    3  C9  UNL     1      18.405 -11.736  21.759  1.00  0.00     0.127 C 
HETATM    4  C11 UNL     1      17.115 -12.466  22.049  1.00  0.00     0.037 C 
HETATM    5  C12 UNL     1      17.511 -13.905  22.401  1.00  0.00     0.011 C 
HETATM    6  C13 UNL     1      17.216 -14.657  21.171  1.00  0.00     0.068 C 
HETATM    7  C14 UNL     1      16.986 -13.636  20.043  1.00  0.00     0.032 C 
HETATM    8  C15 UNL     1      16.298 -12.547  20.788  1.00  0.00     0.020 A 
HETATM    9  C16 UNL     1      15.175 -11.806  20.492  1.00  0.00    -0.060 A 
HETATM   10  C17 UNL     1      14.496 -10.577  19.983  1.00  0.00     0.045 C 
HETATM   11  C18 UNL     1      14.892 -13.040  21.018  1.00  0.00    -0.010 A 
HETATM   12  C19 UNL     1      14.722 -14.382  21.590  1.00  0.00     0.101 C 
HETATM   13  N2  UNL     1      13.659 -14.716  22.217  1.00  0.00    -0.303 N 
ATOM     14  H2  UNL     1      13.557 -15.652  22.609  1.00  0.00     0.186 HD
HETATM   15  C20 UNL     1      15.856 -15.287  21.381  1.00  0.00     0.182 C 
HETATM   16  O2  UNL     1      15.659 -16.516  21.387  1.00  0.00    -0.290 OA
ENDROOT
BRANCH   1  17
HETATM   17  C6  UNL     1      19.745 -14.928  23.065  1.00  0.00     0.126 C 
BRANCH  17  18
HETATM   18  N1  UNL     1      20.005 -15.205  24.439  1.00  0.00    -0.397 N 
HETATM   19  C5  UNL     1      19.455 -16.363  24.966  1.00  0.00     0.148 C 
BRANCH  18  20
HETATM   20  C4  UNL     1      20.665 -14.261  25.216  1.00  0.00     0.057 C 
BRANCH  20  21
HETATM   21  C3  UNL     1      22.013 -13.813  24.719  1.00  0.00     0.044 C 
BRANCH  21  22
HETATM   22  C2  UNL     1      22.039 -12.291  24.771  1.00  0.00     0.001 C 
HETATM   23  C1  UNL     1      20.902 -11.851  25.646  1.00  0.00     0.005 C 
ENDBRANCH  21  22
ENDBRANCH  20  21
ENDBRANCH  18  20
ENDBRANCH  17  18
ENDBRANCH   1  17
BRANCH   3  24
HETATM   24  O1  UNL     1      18.407 -11.115  20.531  1.00  0.00    -0.390 OA
HETATM   25  C10 UNL     1      19.645 -11.241  19.916  1.00  0.00     0.202 C 
ENDBRANCH   3  24
BRANCH  13  26
HETATM   26  N3  UNL     1      12.647 -13.775  22.355  1.00  0.00    -0.345 N 
ATOM     27  H32 UNL     1      12.483 -13.336  23.261  1.00  0.00     0.176 HD
ATOM     28  H31 UNL     1      12.083 -13.543  21.537  1.00  0.00     0.176 HD
ENDBRANCH  13  26
TORSDOF 7
ENDMDL
MODEL 2
REMARK VINA RESULT: -6.334071101      2.053      2.513
REMARK  7 active torsions:
REMARK  status: ('A' for Active; 'I' for Inactive)
REMARK    1  A    between atoms: C2_2  and  C3_3 
REMARK    2  A    between atoms: C3_3  and  C4_4 
REMARK    3  A    between atoms: C4_4  and  N1_5 
REMARK    4  A    between atoms: N1_5  and  C6_7 
REMARK    5  A    between atoms: C6_7  and  C7_8 
REMARK    6  A    between atoms: C9_10  and  O1_11 
REMARK    7  A    between atoms: N2_22  and  N3_24 
ROOT
HETATM    1  C7  UNL     1      18.006 -12.340  22.850  1.00  0.00     0.011 C 
HETATM    2  C8  UNL     1      19.134 -12.862  21.961  1.00  0.00     0.039 C 
HETATM    3  C9  UNL     1      19.001 -11.909  20.794  1.00  0.00     0.127 C 
HETATM    4  C11 UNL     1      17.571 -11.425  20.749  1.00  0.00     0.037 C 
HETATM    5  C12 UNL     1      16.871 -12.060  21.958  1.00  0.00     0.011 C 
HETATM    6  C13 UNL     1      16.112 -13.176  21.372  1.00  0.00     0.068 C 
HETATM    7  C14 UNL     1      16.625 -13.389  19.938  1.00  0.00     0.032 C 
HETATM    8  C15 UNL     1      16.897 -11.985  19.526  1.00  0.00     0.020 A 
HETATM    9  C16 UNL     1      16.590 -11.295  18.374  1.00  0.00    -0.060 A 
HETATM   10  C17 UNL     1      16.937 -10.739  17.032  1.00  0.00     0.045 C 
HETATM   11  C18 UNL     1      15.545 -11.374  19.258  1.00  0.00    -0.010 A 
HETATM   12  C19 UNL     1      14.507 -11.527  20.286  1.00  0.00     0.101 C 
HETATM   13  N2  UNL     1      13.522 -10.716  20.374  1.00  0.00    -0.303 N 
ATOM     14  H2  UNL     1      12.810 -10.837  21.094  1.00  0.00     0.186 HD
HETATM   15  C20 UNL     1      14.697 -12.668  21.186  1.00  0.00     0.182 C 
HETATM   16  O2  UNL     1      13.707 -13.165  21.752  1.00  0.00    -0.290 OA
ENDROOT
BRANCH   1  17
HETATM   17  C6  UNL     1      17.793 -13.158  24.060  1.00  0.00     0.126 C 
BRANCH  17  18
HETATM   18  N1  UNL     1      18.986 -13.715  24.608  1.00  0.00    -0.397 N 
HETATM   19  C5  UNL     1      19.334 -14.993  24.200  1.00  0.00     0.148 C 
BRANCH  18  20
HETATM   20  C4  UNL     1      19.664 -13.032  25.611  1.00  0.00     0.057 C 
BRANCH  20  21
HETATM   21  C3  UNL     1      20.656 -11.995  25.157  1.00  0.00     0.044 C 
BRANCH  21  22
HETATM   22  C2  UNL     1      22.044 -12.619  25.243  1.00  0.00     0.001 C 
HETATM   23  C1  UNL     1      22.461 -12.979  23.847  1.00  0.00     0.005 C 
ENDBRANCH  21  22
ENDBRANCH  20  21
ENDBRANCH  18  20
ENDBRANCH  17  18
ENDBRANCH   1  17
BRANCH   3  24
HETATM   24  O1  UNL     1      19.404 -12.501  19.620  1.00  0.00    -0.390 OA
HETATM   25  C10 UNL     1      20.341 -11.713  18.965  1.00  0.00     0.202 C 
ENDBRANCH   3  24
BRANCH  13  26
HETATM   26  N3  UNL     1      13.443  -9.668  19.466  1.00  0.00    -0.345 N 
ATOM     27  H32 UNL     1      13.288  -8.718  19.802  1.00  0.00     0.176 HD
ATOM     28  H31 UNL     1      13.544  -9.876  18.472  1.00  0.00     0.176 HD
ENDBRANCH  13  26
TORSDOF 7
ENDMDL
MODEL 3
REMARK VINA RESULT: -6.267494021      2.267      6.537
REMARK  7 active torsions:
REMARK  status: ('A' for Active; 'I' for Inactive)
REMARK    1  A    between atoms: C2_2  and  C3_3 
REMARK    2  A    between atoms: C3_3  and  C4_4 
REMARK    3  A    between atoms: C4_4  and  N1_5 
REMARK    4  A    between atoms: N1_5  and  C6_7 
REMARK    5  A    between atoms: C6_7  and  C7_8 
REMARK    6  A    between atoms: C9_10  and  O1_11 
REMARK    7  A    between atoms: N2_22  and  N3_24 
ROOT
HETATM    1  C7  UNL     1      17.177 -12.619  20.879  1.00  0.00     0.011 C 
HETATM    2  C8  UNL     1      16.530 -13.976  20.606  1.00  0.00     0.039 C 
HETATM    3  C9  UNL     1      16.401 -14.487  22.024  1.00  0.00     0.127 C 
HETATM    4  C11 UNL     1      17.467 -13.818  22.858  1.00  0.00     0.037 C 
HETATM    5  C12 UNL     1      18.192 -12.845  21.919  1.00  0.00     0.011 C 
HETATM    6  C13 UNL     1      19.437 -13.553  21.581  1.00  0.00     0.068 C 
HETATM    7  C14 UNL     1      19.279 -15.016  22.028  1.00  0.00     0.032 C 
HETATM    8  C15 UNL     1      18.485 -14.843  23.275  1.00  0.00     0.020 A 
HETATM    9  C16 UNL     1      18.623 -15.396  24.530  1.00  0.00    -0.060 A 
HETATM   10  C17 UNL     1      18.265 -16.390  25.585  1.00  0.00     0.045 C 
HETATM   11  C18 UNL     1      19.459 -14.332  24.307  1.00  0.00    -0.010 A 
HETATM   12  C19 UNL     1      20.300 -13.183  23.946  1.00  0.00     0.101 C 
HETATM   13  N2  UNL     1      20.810 -12.417  24.833  1.00  0.00    -0.303 N 
ATOM     14  H2  UNL     1      21.391 -11.623  24.565  1.00  0.00     0.186 HD
HETATM   15  C20 UNL     1      20.499 -12.997  22.505  1.00  0.00     0.182 C 
HETATM   16  O2  UNL     1      21.515 -12.398  22.107  1.00  0.00    -0.290 OA
ENDROOT
BRANCH   1  17
HETATM   17  C6  UNL     1      17.549 -11.895  19.647  1.00  0.00     0.126 C 
BRANCH  17  18
HETATM   18  N1  UNL     1      16.461 -11.237  19.003  1.00  0.00    -0.397 N 
HETATM   19  C5  UNL     1      16.463 -11.219  17.617  1.00  0.00     0.148 C 
BRANCH  18  20
HETATM   20  C4  UNL     1      15.536 -10.534  19.766  1.00  0.00     0.057 C 
BRANCH  20  21
HETATM   21  C3  UNL     1      14.087 -10.870  19.533  1.00  0.00     0.044 C 
BRANCH  21  22
HETATM   22  C2  UNL     1      13.359 -10.710  20.862  1.00  0.00     0.001 C 
HETATM   23  C1  UNL     1      13.546 -11.984  21.633  1.00  0.00     0.005 C 
ENDBRANCH  21  22
ENDBRANCH  20  21
ENDBRANCH  18  20
ENDBRANCH  17  18
ENDBRANCH   1  17
BRANCH   3  24
HETATM   24  O1  UNL     1      16.469 -15.860  22.067  1.00  0.00    -0.390 OA
HETATM   25  C10 UNL     1      15.206 -16.412  22.230  1.00  0.00     0.202 C 
ENDBRANCH   3  24
BRANCH  13  26
HETATM   26  N3  UNL     1      20.553 -12.689  26.171  1.00  0.00    -0.345 N 
ATOM     27  H32 UNL     1      19.758 -13.275  26.425  1.00  0.00     0.176 HD
ATOM     28  H31 UNL     1      21.174 -12.293  26.876  1.00  0.00     0.176 HD
ENDBRANCH  13  26
TORSDOF 7
ENDMDL
MODEL 4
REMARK VINA RESULT: -6.205964667      3.135      5.749
REMARK  7 active torsions:
REMARK  status: ('A' for Active; 'I' for Inactive)
REMARK    1  A    between atoms: C2_2  and  C3_3 
REMARK    2  A    between atoms: C3_3  and  C4_4 
REMARK    3  A    between atoms: C4_4  and  N1_5 
REMARK    4  A    between atoms: N1_5  and  C6_7 
REMARK    5  A    between atoms: C6_7  and  C7_8 
REMARK    6  A    between atoms: C9_10  and  O1_11 
REMARK    7  A    between atoms: N2_22  and  N3_24 
ROOT
HETATM    1  C7  UNL     1      18.909 -16.286  24.626  1.00  0.00     0.011 C 
HETATM    2  C8  UNL     1      17.705 -15.853  23.791  1.00  0.00     0.039 C 
HETATM    3  C9  UNL     1      18.421 -15.316  22.571  1.00  0.00     0.127 C 
HETATM    4  C11 UNL     1      19.800 -14.874  22.999  1.00  0.00     0.037 C 
HETATM    5  C12 UNL     1      19.915 -15.223  24.488  1.00  0.00     0.011 C 
HETATM    6  C13 UNL     1      19.706 -13.931  25.163  1.00  0.00     0.068 C 
HETATM    7  C14 UNL     1      19.152 -12.944  24.122  1.00  0.00     0.032 C 
HETATM    8  C15 UNL     1      19.891 -13.375  22.905  1.00  0.00     0.020 A 
HETATM    9  C16 UNL     1      20.557 -12.656  21.937  1.00  0.00    -0.060 A 
HETATM   10  C17 UNL     1      20.648 -12.013  20.592  1.00  0.00     0.045 C 
HETATM   11  C18 UNL     1      21.294 -12.851  23.077  1.00  0.00    -0.010 A 
HETATM   12  C19 UNL     1      21.979 -13.129  24.347  1.00  0.00     0.101 C 
HETATM   13  N2  UNL     1      23.254 -13.131  24.437  1.00  0.00    -0.303 N 
ATOM     14  H2  UNL     1      23.714 -13.327  25.326  1.00  0.00     0.186 HD
HETATM   15  C20 UNL     1      21.088 -13.397  25.479  1.00  0.00     0.182 C 
HETATM   16  O2  UNL     1      21.495 -13.180  26.635  1.00  0.00    -0.290 OA
ENDROOT
BRANCH   1  17
HETATM   17  C6  UNL     1      18.540 -16.766  25.973  1.00  0.00     0.126 C 
BRANCH  17  18
HETATM   18  N1  UNL     1      19.087 -18.037  26.313  1.00  0.00    -0.397 N 
HETATM   19  C5  UNL     1      18.466 -19.157  25.781  1.00  0.00     0.148 C 
BRANCH  18  20
HETATM   20  C4  UNL     1      20.109 -18.115  27.251  1.00  0.00     0.057 C 
BRANCH  20  21
HETATM   21  C3  UNL     1      21.512 -18.140  26.708  1.00  0.00     0.044 C 
BRANCH  21  22
HETATM   22  C2  UNL     1      22.164 -16.808  27.059  1.00  0.00     0.001 C 
HETATM   23  C1  UNL     1      23.108 -16.462  25.944  1.00  0.00     0.005 C 
ENDBRANCH  21  22
ENDBRANCH  20  21
ENDBRANCH  18  20
ENDBRANCH  17  18
ENDBRANCH   1  17
BRANCH   3  24
HETATM   24  O1  UNL     1      17.697 -14.311  21.972  1.00  0.00    -0.390 OA
HETATM   25  C10 UNL     1      16.379 -14.701  21.776  1.00  0.00     0.202 C 
ENDBRANCH   3  24
BRANCH  13  26
HETATM   26  N3  UNL     1      24.000 -12.863  23.296  1.00  0.00    -0.345 N 
ATOM     27  H32 UNL     1      24.971 -13.171  23.242  1.00  0.00     0.176 HD
ATOM     28  H31 UNL     1      23.554 -12.358  22.530  1.00  0.00     0.176 HD
ENDBRANCH  13  26
TORSDOF 7
ENDMDL
MODEL 5
REMARK VINA RESULT: -6.199446246      2.084      6.470
REMARK  7 active torsions:
REMARK  status: ('A' for Active; 'I' for Inactive)
REMARK    1  A    between atoms: C2_2  and  C3_3 
REMARK    2  A    between atoms: C3_3  and  C4_4 
REMARK    3  A    between atoms: C4_4  and  N1_5 
REMARK    4  A    between atoms: N1_5  and  C6_7 
REMARK    5  A    between atoms: C6_7  and  C7_8 
REMARK    6  A    between atoms: C9_10  and  O1_11 
REMARK    7  A    between atoms: N2_22  and  N3_24 
ROOT
HETATM    1  C7  UNL     1      17.252 -14.336  22.312  1.00  0.00     0.011 C 
HETATM    2  C8  UNL     1      17.014 -15.839  22.173  1.00  0.00     0.039 C 
HETATM    3  C9  UNL     1      17.435 -16.292  23.554  1.00  0.00     0.127 C 
HETATM    4  C11 UNL     1      18.420 -15.283  24.094  1.00  0.00     0.037 C 
HETATM    5  C12 UNL     1      18.525 -14.182  23.031  1.00  0.00     0.011 C 
HETATM    6  C13 UNL     1      19.792 -14.484  22.344  1.00  0.00     0.068 C 
HETATM    7  C14 UNL     1      20.225 -15.899  22.763  1.00  0.00     0.032 C 
HETATM    8  C15 UNL     1      19.780 -15.920  24.183  1.00  0.00     0.020 A 
HETATM    9  C16 UNL     1      20.413 -16.338  25.333  1.00  0.00    -0.060 A 
HETATM   10  C17 UNL     1      20.680 -17.340  26.408  1.00  0.00     0.045 C 
HETATM   11  C18 UNL     1      20.783 -15.079  24.934  1.00  0.00    -0.010 A 
HETATM   12  C19 UNL     1      21.094 -13.746  24.402  1.00  0.00     0.101 C 
HETATM   13  N2  UNL     1      21.556 -12.815  25.147  1.00  0.00    -0.303 N 
ATOM     14  H2  UNL     1      21.766 -11.895  24.762  1.00  0.00     0.186 HD
HETATM   15  C20 UNL     1      20.833 -13.580  22.969  1.00  0.00     0.182 C 
HETATM   16  O2  UNL     1      21.465 -12.716  22.335  1.00  0.00    -0.290 OA
ENDROOT
BRANCH   1  17
HETATM   17  C6  UNL     1      17.036 -13.595  21.053  1.00  0.00     0.126 C 
BRANCH  17  18
HETATM   18  N1  UNL     1      16.433 -12.314  21.223  1.00  0.00    -0.397 N 
HETATM   19  C5  UNL     1      15.163 -12.281  21.777  1.00  0.00     0.148 C 
BRANCH  18  20
HETATM   20  C4  UNL     1      17.065 -11.186  20.713  1.00  0.00     0.057 C 
BRANCH  20  21
HETATM   21  C3  UNL     1      18.051 -11.420  19.601  1.00  0.00     0.044 C 
BRANCH  21  22
HETATM   22  C2  UNL     1      19.445 -11.168  20.163  1.00  0.00     0.001 C 
HETATM   23  C1  UNL     1      20.434 -11.541  19.097  1.00  0.00     0.005 C 
ENDBRANCH  21  22
ENDBRANCH  20  21
ENDBRANCH  18  20
ENDBRANCH  17  18
ENDBRANCH   1  17
BRANCH   3  24
HETATM   24  O1  UNL     1      17.937 -17.572  23.525  1.00  0.00    -0.390 OA
HETATM   25  C10 UNL     1      17.283 -18.339  22.570  1.00  0.00     0.202 C 
ENDBRANCH   3  24
BRANCH  13  26
HETATM   26  N3  UNL     1      21.764 -13.086  26.493  1.00  0.00    -0.345 N 
ATOM     27  H32 UNL     1      22.139 -12.360  27.104  1.00  0.00     0.176 HD
ATOM     28  H31 UNL     1      21.536 -14.016  26.844  1.00  0.00     0.176 HD
ENDBRANCH  13  26
TORSDOF 7
ENDMDL
