MODEL 1
REMARK VINA RESULT: -5.483037125      0.000      0.000
REMARK  1 active torsions:
REMARK  status: ('A' for Active; 'I' for Inactive)
REMARK       I    between atoms: C1_2  and  N2_4 
REMARK    1  A    between atoms: C6_12  and  C7_13 
REMARK       I    between atoms: C7_13  and  N3_15 
ROOT
HETATM    1  N1  UNL     1      -2.617   3.388   0.538  1.00  0.00    -0.040 NA
HETATM    2  C1  UNL     1      -3.894   3.255   1.193  1.00  0.00     0.331 C 
HETATM    3  O1  UNL     1      -3.980   3.743   2.328  1.00  0.00    -0.251 OA
HETATM    4  N2  UNL     1      -4.949   2.608   0.559  1.00  0.00    -0.319 N 
HETATM    5  C2  UNL     1      -4.612   2.058  -0.780  1.00  0.00     0.154 C 
HETATM    6  C3  UNL     1      -5.320   0.764  -0.977  1.00  0.00     0.187 C 
HETATM    7  O2  UNL     1      -5.380  -0.131   0.012  1.00  0.00    -0.387 OA
HETATM    8  C4  UNL     1      -5.242   0.174   1.310  1.00  0.00     0.203 C 
HETATM    9  C5  UNL     1      -6.279   1.117   1.901  1.00  0.00     0.126 C 
HETATM   10 BR1  UNL     1      -8.029   0.350   1.719  1.00  0.00    -0.068 Br
HETATM   11 BR2  UNL     1      -5.853   1.349   3.762  1.00  0.00    -0.068 Br
HETATM   12  C6  UNL     1      -6.252   2.434   1.137  1.00  0.00     0.213 C 
ENDROOT
BRANCH  12  13
HETATM   13  C7  UNL     1      -6.847   3.538   1.841  1.00  0.00     0.249 C 
HETATM   14  O3  UNL     1      -7.417   3.510   2.955  1.00  0.00    -0.271 OA
HETATM   15  N3  UNL     1      -6.810   4.847   1.239  1.00  0.00    -0.302 N 
HETATM   16  C8  UNL     1      -6.595   5.898   1.964  1.00  0.00     0.203 C 
ATOM     17  H3  UNL     1      -6.954   4.946   0.234  1.00  0.00     0.171 HD
HETATM   18  N4  UNL     1      -6.400   5.750   3.343  1.00  0.00    -0.066 NA
HETATM   19  N5  UNL     1      -6.567   7.166   1.331  1.00  0.00    -0.066 NA
ENDBRANCH  12  13
TORSDOF 1
ENDMDL
MODEL 2
REMARK VINA RESULT: -5.471025059     11.643     13.745
REMARK  1 active torsions:
REMARK  status: ('A' for Active; 'I' for Inactive)
REMARK       I    between atoms: C1_2  and  N2_4 
REMARK    1  A    between atoms: C6_12  and  C7_13 
REMARK       I    between atoms: C7_13  and  N3_15 
ROOT
HETATM    1  N1  UNL     1       2.754  -3.249   0.373  1.00  0.00    -0.040 NA
HETATM    2  C1  UNL     1       4.008  -3.149   1.076  1.00  0.00     0.331 C 
HETATM    3  O1  UNL     1       4.063  -3.709   2.179  1.00  0.00    -0.251 OA
HETATM    4  N2  UNL     1       5.076  -2.455   0.518  1.00  0.00    -0.319 N 
HETATM    5  C2  UNL     1       4.776  -1.821  -0.792  1.00  0.00     0.154 C 
HETATM    6  C3  UNL     1       5.477  -0.512  -0.882  1.00  0.00     0.187 C 
HETATM    7  O2  UNL     1       5.497   0.318   0.164  1.00  0.00    -0.387 OA
HETATM    8  C4  UNL     1       5.322  -0.072   1.434  1.00  0.00     0.203 C 
HETATM    9  C5  UNL     1       6.349  -1.044   1.996  1.00  0.00     0.126 C 
HETATM   10 BR1  UNL     1       8.096  -0.253   1.920  1.00  0.00    -0.068 Br
HETATM   11 BR2  UNL     1       5.868  -1.399   3.824  1.00  0.00    -0.068 Br
HETATM   12  C6  UNL     1       6.358  -2.308   1.148  1.00  0.00     0.213 C 
ENDROOT
BRANCH  12  13
HETATM   13  C7  UNL     1       6.942  -3.451   1.798  1.00  0.00     0.249 C 
HETATM   14  O3  UNL     1       7.526  -3.480   2.905  1.00  0.00    -0.271 OA
HETATM   15  N3  UNL     1       6.875  -4.733   1.142  1.00  0.00    -0.302 N 
HETATM   16  C8  UNL     1       6.650  -5.810   1.825  1.00  0.00     0.203 C 
ATOM     17  H3  UNL     1       7.005  -4.792   0.131  1.00  0.00     0.171 HD
HETATM   18  N4  UNL     1       6.474  -5.716   3.212  1.00  0.00    -0.066 NA
HETATM   19  N5  UNL     1       6.591  -7.049   1.141  1.00  0.00    -0.066 NA
ENDBRANCH  12  13
TORSDOF 1
ENDMDL
MODEL 3
REMARK VINA RESULT: -4.963238792     10.604     12.416
REMARK  1 active torsions:
REMARK  status: ('A' for Active; 'I' for Inactive)
REMARK       I    between atoms: C1_2  and  N2_4 
REMARK    1  A    between atoms: C6_12  and  C7_13 
REMARK       I    between atoms: C7_13  and  N3_15 
ROOT
HETATM    1  N1  UNL     1       4.749   1.248   1.880  1.00  0.00    -0.040 NA
HETATM    2  C1  UNL     1       4.605  -0.165   1.638  1.00  0.00     0.331 C 
HETATM    3  O1  UNL     1       3.489  -0.649   1.873  1.00  0.00    -0.251 OA
HETATM    4  N2  UNL     1       5.678  -0.915   1.168  1.00  0.00    -0.319 N 
HETATM    5  C2  UNL     1       6.936  -0.141   1.000  1.00  0.00     0.154 C 
HETATM    6  C3  UNL     1       8.096  -0.994   1.374  1.00  0.00     0.187 C 
HETATM    7  O2  UNL     1       8.042  -1.771   2.459  1.00  0.00    -0.387 OA
HETATM    8  C4  UNL     1       6.902  -2.199   3.020  1.00  0.00     0.203 C 
HETATM    9  C5  UNL     1       6.011  -3.083   2.160  1.00  0.00     0.126 C 
HETATM   10 BR1  UNL     1       6.972  -4.661   1.642  1.00  0.00    -0.068 Br
HETATM   11 BR2  UNL     1       4.480  -3.564   3.222  1.00  0.00    -0.068 Br
HETATM   12  C6  UNL     1       5.620  -2.324   0.899  1.00  0.00     0.213 C 
ENDROOT
BRANCH  12  13
HETATM   13  C7  UNL     1       4.461  -2.851   0.228  1.00  0.00     0.249 C 
HETATM   14  O3  UNL     1       3.595  -3.622   0.700  1.00  0.00    -0.271 OA
HETATM   15  N3  UNL     1       4.227  -2.481  -1.145  1.00  0.00    -0.302 N 
HETATM   16  C8  UNL     1       3.025  -2.237  -1.563  1.00  0.00     0.203 C 
ATOM     17  H3  UNL     1       5.012  -2.410  -1.792  1.00  0.00     0.171 HD
HETATM   18  N4  UNL     1       1.954  -2.339  -0.666  1.00  0.00    -0.066 NA
HETATM   19  N5  UNL     1       2.838  -1.876  -2.921  1.00  0.00    -0.066 NA
ENDBRANCH  12  13
TORSDOF 1
ENDMDL
MODEL 4
REMARK VINA RESULT: -4.881740289      2.882      4.265
REMARK  1 active torsions:
REMARK  status: ('A' for Active; 'I' for Inactive)
REMARK       I    between atoms: C1_2  and  N2_4 
REMARK    1  A    between atoms: C6_12  and  C7_13 
REMARK       I    between atoms: C7_13  and  N3_15 
ROOT
HETATM    1  N1  UNL     1      -4.676  -1.263   1.830  1.00  0.00    -0.040 NA
HETATM    2  C1  UNL     1      -4.536   0.152   1.602  1.00  0.00     0.331 C 
HETATM    3  O1  UNL     1      -3.425   0.640   1.849  1.00  0.00    -0.251 OA
HETATM    4  N2  UNL     1      -5.609   0.901   1.130  1.00  0.00    -0.319 N 
HETATM    5  C2  UNL     1      -6.862   0.123   0.945  1.00  0.00     0.154 C 
HETATM    6  C3  UNL     1      -8.029   0.967   1.317  1.00  0.00     0.187 C 
HETATM    7  O2  UNL     1      -7.987   1.735   2.409  1.00  0.00    -0.387 OA
HETATM    8  C4  UNL     1      -6.854   2.163   2.982  1.00  0.00     0.203 C 
HETATM    9  C5  UNL     1      -5.960   3.059   2.137  1.00  0.00     0.126 C 
HETATM   10 BR1  UNL     1      -6.925   4.637   1.625  1.00  0.00    -0.068 Br
HETATM   11 BR2  UNL     1      -4.441   3.539   3.215  1.00  0.00    -0.068 Br
HETATM   12  C6  UNL     1      -5.556   2.313   0.873  1.00  0.00     0.213 C 
ENDROOT
BRANCH  12  13
HETATM   13  C7  UNL     1      -4.395   2.851   0.215  1.00  0.00     0.249 C 
HETATM   14  O3  UNL     1      -3.528   3.610   0.705  1.00  0.00    -0.271 OA
HETATM   15  N3  UNL     1      -4.158   2.508  -1.164  1.00  0.00    -0.302 N 
HETATM   16  C8  UNL     1      -2.955   2.271  -1.585  1.00  0.00     0.203 C 
ATOM     17  H3  UNL     1      -4.942   2.453  -1.814  1.00  0.00     0.171 HD
HETATM   18  N4  UNL     1      -1.887   2.352  -0.683  1.00  0.00    -0.066 NA
HETATM   19  N5  UNL     1      -2.766   1.937  -2.949  1.00  0.00    -0.066 NA
ENDBRANCH  12  13
TORSDOF 1
ENDMDL
MODEL 5
REMARK VINA RESULT: -4.783122473     11.467     13.633
REMARK  1 active torsions:
REMARK  status: ('A' for Active; 'I' for Inactive)
REMARK       I    between atoms: C1_2  and  N2_4 
REMARK    1  A    between atoms: C6_12  and  C7_13 
REMARK       I    between atoms: C7_13  and  N3_15 
ROOT
HETATM    1  N1  UNL     1       2.656  -2.255  -0.877  1.00  0.00    -0.040 NA
HETATM    2  C1  UNL     1       3.729  -2.720  -0.035  1.00  0.00     0.331 C 
HETATM    3  O1  UNL     1       3.443  -3.616   0.770  1.00  0.00    -0.251 OA
HETATM    4  N2  UNL     1       5.002  -2.171  -0.146  1.00  0.00    -0.319 N 
HETATM    5  C2  UNL     1       5.109  -1.075  -1.145  1.00  0.00     0.154 C 
HETATM    6  C3  UNL     1       6.047  -0.036  -0.641  1.00  0.00     0.187 C 
HETATM    7  O2  UNL     1       6.001   0.355   0.635  1.00  0.00    -0.387 OA
HETATM    8  C4  UNL     1       5.491  -0.386   1.629  1.00  0.00     0.203 C 
HETATM    9  C5  UNL     1       6.175  -1.716   1.906  1.00  0.00     0.126 C 
HETATM   10 BR1  UNL     1       8.015  -1.415   2.359  1.00  0.00    -0.068 Br
HETATM   11 BR2  UNL     1       5.260  -2.538   3.385  1.00  0.00    -0.068 Br
HETATM   12  C6  UNL     1       6.126  -2.576   0.650  1.00  0.00     0.213 C 
ENDROOT
BRANCH  12  13
HETATM   13  C7  UNL     1       6.334  -3.980   0.886  1.00  0.00     0.249 C 
HETATM   14  O3  UNL     1       6.953  -4.789   0.159  1.00  0.00    -0.271 OA
HETATM   15  N3  UNL     1       5.786  -4.571   2.081  1.00  0.00    -0.302 N 
HETATM   16  C8  UNL     1       6.458  -5.461   2.741  1.00  0.00     0.203 C 
ATOM     17  H3  UNL     1       4.863  -4.287   2.409  1.00  0.00     0.171 HD
HETATM   18  N4  UNL     1       7.724  -5.843   2.279  1.00  0.00    -0.066 NA
HETATM   19  N5  UNL     1       5.883  -6.016   3.911  1.00  0.00    -0.066 NA
ENDBRANCH  12  13
TORSDOF 1
ENDMDL
