MODEL 1
REMARK VINA RESULT: -4.150809535      0.000      0.000
REMARK  2 active torsions:
REMARK  status: ('A' for Active; 'I' for Inactive)
REMARK       I    between atoms: C3_5  and  N2_6 
REMARK       I    between atoms: C3_5  and  N5_13 
REMARK       I    between atoms: N2_6  and  C4_8 
REMARK    1  A    between atoms: C9_19  and  C10_20 
REMARK    2  A    between atoms: C10_20  and  O1_21 
ROOT
HETATM    1  C1  UNL     1      -3.647   0.529   3.309  1.00  0.00     0.124 C 
HETATM    2  C2  UNL     1      -4.057   1.681   3.397  1.00  0.00    -0.059 C 
HETATM    3  N1  UNL     1      -4.520   2.987   3.520  1.00  0.00    -0.160 N 
ATOM      4  H1  UNL     1      -4.134   3.602   4.237  1.00  0.00     0.194 HD
HETATM    5  C3  UNL     1      -5.434   3.414   2.728  1.00  0.00     0.691 C 
HETATM    6  N2  UNL     1      -5.932   2.511   1.750  1.00  0.00    -0.163 N 
ATOM      7  H2  UNL     1      -6.894   2.184   1.841  1.00  0.00     0.187 HD
HETATM    8  C4  UNL     1      -5.166   2.041   0.660  1.00  0.00     0.202 C 
HETATM    9  N3  UNL     1      -4.014   2.797   0.286  1.00  0.00    -0.063 NA
HETATM   10  N4  UNL     1      -5.426   0.995  -0.013  1.00  0.00    -0.368 N 
ATOM     11  H4  UNL     1      -4.797   0.757  -0.780  1.00  0.00     0.161 HD
HETATM   12  C5  UNL     1      -6.548   0.117   0.229  1.00  0.00     0.148 C 
HETATM   13  N5  UNL     1      -5.936   4.742   2.821  1.00  0.00    -0.195 N 
HETATM   14  C6  UNL     1      -7.206   5.171   2.275  1.00  0.00     0.176 C 
HETATM   15 BR1  UNL     1      -7.321   4.951   0.372  1.00  0.00    -0.068 Br
HETATM   16  C7  UNL     1      -7.352   6.620   2.688  1.00  0.00     0.055 C 
HETATM   17  C8  UNL     1      -6.438   6.720   3.872  1.00  0.00     0.086 C 
HETATM   18 BR2  UNL     1      -5.909   8.563   4.122  1.00  0.00    -0.089 Br
HETATM   19  C9  UNL     1      -5.271   5.849   3.466  1.00  0.00     0.141 C 
ENDROOT
BRANCH  19  20
HETATM   20  C10 UNL     1      -4.419   6.644   2.504  1.00  0.00     0.191 C 
BRANCH  20  21
HETATM   21  O1  UNL     1      -3.191   6.062   2.254  1.00  0.00    -0.399 OA
ATOM     22  H1  UNL     1      -2.868   6.231   1.377  1.00  0.00     0.209 HD
ENDBRANCH  20  21
ENDBRANCH  19  20
TORSDOF 2
ENDMDL
MODEL 2
REMARK VINA RESULT: -4.105771363     12.426     14.499
REMARK  2 active torsions:
REMARK  status: ('A' for Active; 'I' for Inactive)
REMARK       I    between atoms: C3_5  and  N2_6 
REMARK       I    between atoms: C3_5  and  N5_13 
REMARK       I    between atoms: N2_6  and  C4_8 
REMARK    1  A    between atoms: C9_19  and  C10_20 
REMARK    2  A    between atoms: C10_20  and  O1_21 
ROOT
HETATM    1  C1  UNL     1       4.347  -1.376  -1.731  1.00  0.00     0.124 C 
HETATM    2  C2  UNL     1       4.606  -2.274  -0.938  1.00  0.00    -0.059 C 
HETATM    3  N1  UNL     1       4.882  -3.306  -0.047  1.00  0.00    -0.160 N 
ATOM      4  H1  UNL     1       4.806  -4.277  -0.348  1.00  0.00     0.194 HD
HETATM    5  C3  UNL     1       5.234  -3.029   1.155  1.00  0.00     0.691 C 
HETATM    6  N2  UNL     1       5.323  -1.658   1.516  1.00  0.00    -0.163 N 
ATOM      7  H2  UNL     1       4.647  -1.290   2.186  1.00  0.00     0.187 HD
HETATM    8  C4  UNL     1       6.299  -0.777   0.997  1.00  0.00     0.202 C 
HETATM    9  N3  UNL     1       7.473  -1.351   0.425  1.00  0.00    -0.063 NA
HETATM   10  N4  UNL     1       6.208   0.491   1.003  1.00  0.00    -0.368 N 
ATOM     11  H4  UNL     1       6.979   1.022   0.598  1.00  0.00     0.161 HD
HETATM   12  C5  UNL     1       5.091   1.235   1.540  1.00  0.00     0.148 C 
HETATM   13  N5  UNL     1       5.524  -4.055   2.098  1.00  0.00    -0.195 N 
HETATM   14  C6  UNL     1       5.522  -3.865   3.533  1.00  0.00     0.176 C 
HETATM   15 BR1  UNL     1       6.800  -2.560   4.122  1.00  0.00    -0.068 Br
HETATM   16  C7  UNL     1       5.796  -5.233   4.120  1.00  0.00     0.055 C 
HETATM   17  C8  UNL     1       5.388  -6.156   3.012  1.00  0.00     0.086 C 
HETATM   18 BR2  UNL     1       6.286  -7.855   3.227  1.00  0.00    -0.089 Br
HETATM   19  C9  UNL     1       5.858  -5.422   1.776  1.00  0.00     0.141 C 
ENDROOT
BRANCH  19  20
HETATM   20  C10 UNL     1       7.349  -5.636   1.657  1.00  0.00     0.191 C 
BRANCH  20  21
HETATM   21  O1  UNL     1       7.764  -5.871   0.360  1.00  0.00    -0.399 OA
ATOM     22  H1  UNL     1       8.149  -5.107  -0.053  1.00  0.00     0.209 HD
ENDBRANCH  20  21
ENDBRANCH  19  20
TORSDOF 2
ENDMDL
MODEL 3
REMARK VINA RESULT: -4.052118977      2.124      2.898
REMARK  2 active torsions:
REMARK  status: ('A' for Active; 'I' for Inactive)
REMARK       I    between atoms: C3_5  and  N2_6 
REMARK       I    between atoms: C3_5  and  N5_13 
REMARK       I    between atoms: N2_6  and  C4_8 
REMARK    1  A    between atoms: C9_19  and  C10_20 
REMARK    2  A    between atoms: C10_20  and  O1_21 
ROOT
HETATM    1  C1  UNL     1      -4.279   1.473  -1.511  1.00  0.00     0.124 C 
HETATM    2  C2  UNL     1      -4.541   2.408  -0.763  1.00  0.00    -0.059 C 
HETATM    3  N1  UNL     1      -4.820   3.482   0.077  1.00  0.00    -0.160 N 
ATOM      4  H1  UNL     1      -4.669   4.437  -0.245  1.00  0.00     0.194 HD
HETATM    5  C3  UNL     1      -5.267   3.262   1.259  1.00  0.00     0.691 C 
HETATM    6  N2  UNL     1      -5.457   1.910   1.652  1.00  0.00    -0.163 N 
ATOM      7  H2  UNL     1      -4.849   1.528   2.377  1.00  0.00     0.187 HD
HETATM    8  C4  UNL     1      -6.442   1.066   1.091  1.00  0.00     0.202 C 
HETATM    9  N3  UNL     1      -7.541   1.684   0.422  1.00  0.00    -0.063 NA
HETATM   10  N4  UNL     1      -6.422  -0.204   1.138  1.00  0.00    -0.368 N 
ATOM     11  H4  UNL     1      -7.192  -0.706   0.695  1.00  0.00     0.161 HD
HETATM   12  C5  UNL     1      -5.387  -0.989   1.773  1.00  0.00     0.148 C 
HETATM   13  N5  UNL     1      -5.563   4.332   2.151  1.00  0.00    -0.195 N 
HETATM   14  C6  UNL     1      -5.669   4.188   3.587  1.00  0.00     0.176 C 
HETATM   15 BR1  UNL     1      -7.055   2.971   4.122  1.00  0.00    -0.068 Br
HETATM   16  C7  UNL     1      -5.907   5.586   4.115  1.00  0.00     0.055 C 
HETATM   17  C8  UNL     1      -5.373   6.450   3.013  1.00  0.00     0.086 C 
HETATM   18 BR2  UNL     1      -6.188   8.201   3.117  1.00  0.00    -0.089 Br
HETATM   19  C9  UNL     1      -5.798   5.704   1.768  1.00  0.00     0.141 C 
ENDROOT
BRANCH  19  20
HETATM   20  C10 UNL     1      -7.264   5.993   1.540  1.00  0.00     0.191 C 
BRANCH  20  21
HETATM   21  O1  UNL     1      -7.589   6.135   0.204  1.00  0.00    -0.399 OA
ATOM     22  H1  UNL     1      -8.386   6.632   0.064  1.00  0.00     0.209 HD
ENDBRANCH  20  21
ENDBRANCH  19  20
TORSDOF 2
ENDMDL
MODEL 4
REMARK VINA RESULT: -3.758820384      3.330      5.153
REMARK  2 active torsions:
REMARK  status: ('A' for Active; 'I' for Inactive)
REMARK       I    between atoms: C3_5  and  N2_6 
REMARK       I    between atoms: C3_5  and  N5_13 
REMARK       I    between atoms: N2_6  and  C4_8 
REMARK    1  A    between atoms: C9_19  and  C10_20 
REMARK    2  A    between atoms: C10_20  and  O1_21 
ROOT
HETATM    1  C1  UNL     1      -6.831   0.122   0.206  1.00  0.00     0.124 C 
HETATM    2  C2  UNL     1      -5.754   0.258   0.777  1.00  0.00    -0.059 C 
HETATM    3  N1  UNL     1      -4.535   0.390   1.434  1.00  0.00    -0.160 N 
ATOM      4  H1  UNL     1      -3.896  -0.403   1.493  1.00  0.00     0.194 HD
HETATM    5  C3  UNL     1      -4.219   1.514   1.964  1.00  0.00     0.691 C 
HETATM    6  N2  UNL     1      -5.149   2.582   1.850  1.00  0.00    -0.163 N 
ATOM      7  H2  UNL     1      -5.616   2.909   2.696  1.00  0.00     0.187 HD
HETATM    8  C4  UNL     1      -5.463   3.214   0.626  1.00  0.00     0.202 C 
HETATM    9  N3  UNL     1      -4.534   3.075  -0.449  1.00  0.00    -0.063 NA
HETATM   10  N4  UNL     1      -6.511   3.900   0.410  1.00  0.00    -0.368 N 
ATOM     11  H4  UNL     1      -6.627   4.309  -0.517  1.00  0.00     0.161 HD
HETATM   12  C5  UNL     1      -7.552   4.142   1.384  1.00  0.00     0.148 C 
HETATM   13  N5  UNL     1      -2.982   1.691   2.646  1.00  0.00    -0.195 N 
HETATM   14  C6  UNL     1      -2.723   2.748   3.600  1.00  0.00     0.176 C 
HETATM   15 BR1  UNL     1      -2.890   4.505   2.843  1.00  0.00    -0.068 Br
HETATM   16  C7  UNL     1      -1.327   2.486   4.122  1.00  0.00     0.055 C 
HETATM   17  C8  UNL     1      -1.137   1.027   3.840  1.00  0.00     0.086 C 
HETATM   18 BR2  UNL     1       0.753   0.630   3.749  1.00  0.00    -0.089 Br
HETATM   19  C9  UNL     1      -1.813   0.857   2.498  1.00  0.00     0.141 C 
ENDROOT
BRANCH  19  20
HETATM   20  C10 UNL     1      -0.868   1.377   1.440  1.00  0.00     0.191 C 
BRANCH  20  21
HETATM   21  O1  UNL     1      -1.519   1.913   0.345  1.00  0.00    -0.399 OA
ATOM     22  H1  UNL     1      -1.141   2.734   0.051  1.00  0.00     0.209 HD
ENDBRANCH  20  21
ENDBRANCH  19  20
TORSDOF 2
ENDMDL
MODEL 5
REMARK VINA RESULT: -3.715844241     12.051     14.402
REMARK  2 active torsions:
REMARK  status: ('A' for Active; 'I' for Inactive)
REMARK       I    between atoms: C3_5  and  N2_6 
REMARK       I    between atoms: C3_5  and  N5_13 
REMARK       I    between atoms: N2_6  and  C4_8 
REMARK    1  A    between atoms: C9_19  and  C10_20 
REMARK    2  A    between atoms: C10_20  and  O1_21 
ROOT
HETATM    1  C1  UNL     1       4.279   0.064   3.383  1.00  0.00     0.124 C 
HETATM    2  C2  UNL     1       4.603  -1.117   3.446  1.00  0.00    -0.059 C 
HETATM    3  N1  UNL     1       4.973  -2.455   3.540  1.00  0.00    -0.160 N 
ATOM      4  H1  UNL     1       4.670  -3.016   4.336  1.00  0.00     0.194 HD
HETATM    5  C3  UNL     1       5.697  -2.980   2.620  1.00  0.00     0.691 C 
HETATM    6  N2  UNL     1       6.088  -2.149   1.536  1.00  0.00    -0.163 N 
ATOM      7  H2  UNL     1       7.074  -1.906   1.446  1.00  0.00     0.187 HD
HETATM    8  C4  UNL     1       5.183  -1.643   0.576  1.00  0.00     0.202 C 
HETATM    9  N3  UNL     1       3.927  -2.305   0.436  1.00  0.00    -0.063 NA
HETATM   10  N4  UNL     1       5.406  -0.641  -0.174  1.00  0.00    -0.368 N 
ATOM     11  H4  UNL     1       4.674  -0.370  -0.830  1.00  0.00     0.161 HD
HETATM   12  C5  UNL     1       6.621   0.142  -0.164  1.00  0.00     0.148 C 
HETATM   13  N5  UNL     1       6.098  -4.344   2.680  1.00  0.00    -0.195 N 
HETATM   14  C6  UNL     1       7.213  -4.896   1.941  1.00  0.00     0.176 C 
HETATM   15 BR1  UNL     1       7.012  -4.736   0.039  1.00  0.00    -0.068 Br
HETATM   16  C7  UNL     1       7.311  -6.341   2.381  1.00  0.00     0.055 C 
HETATM   17  C8  UNL     1       6.614  -6.331   3.708  1.00  0.00     0.086 C 
HETATM   18 BR2  UNL     1       5.989  -8.113   4.120  1.00  0.00    -0.089 Br
HETATM   19  C9  UNL     1       5.468  -5.372   3.473  1.00  0.00     0.141 C 
ENDROOT
BRANCH  19  20
HETATM   20  C10 UNL     1       4.399  -6.115   2.706  1.00  0.00     0.191 C 
BRANCH  20  21
HETATM   21  O1  UNL     1       3.374  -5.297   2.269  1.00  0.00    -0.399 OA
ATOM     22  H1  UNL     1       3.151  -4.613   2.890  1.00  0.00     0.209 HD
ENDBRANCH  20  21
ENDBRANCH  19  20
TORSDOF 2
ENDMDL
