MODEL 1
REMARK VINA RESULT: -6.097338810      0.000      0.000
REMARK  1 active torsions:
REMARK  status: ('A' for Active; 'I' for Inactive)
REMARK       I    between atoms: N3_12  and  C6_13 
REMARK       I    between atoms: C6_13  and  N5_17 
REMARK       I    between atoms: N6_23  and  C12_24 
REMARK    1  A    between atoms: C12_24  and  C13_26 
ROOT
HETATM    1  N1  UNL     1      -4.147   4.171   2.918  1.00  0.00    -0.234 N 
ATOM      2  H11 UNL     1      -4.590   3.403   2.412  1.00  0.00     0.174 HD
ATOM      3  H12 UNL     1      -3.260   4.143   3.420  1.00  0.00     0.174 HD
HETATM    4  C1  UNL     1      -4.831   5.250   2.880  1.00  0.00     0.688 C 
HETATM    5  N2  UNL     1      -4.198   6.349   3.604  1.00  0.00    -0.223 N 
ATOM      6  H2  UNL     1      -3.190   6.303   3.749  1.00  0.00     0.177 HD
HETATM    7  C2  UNL     1      -4.892   7.480   4.122  1.00  0.00     0.175 C 
HETATM    8  C3  UNL     1      -5.615   8.336   3.160  1.00  0.00     0.190 C 
HETATM    9  F1  UNL     1      -4.763   9.389   2.803  1.00  0.00    -0.248 F 
HETATM   10  C4  UNL     1      -6.074   7.713   1.893  1.00  0.00     0.060 C 
HETATM   11  C5  UNL     1      -6.925   6.468   2.079  1.00  0.00     0.169 C 
HETATM   12  N3  UNL     1      -6.050   5.289   2.190  1.00  0.00    -0.014 N 
HETATM   13  C6  UNL     1      -6.524   4.143   1.538  1.00  0.00     0.709 C 
HETATM   14  N4  UNL     1      -7.107   4.464   0.368  1.00  0.00    -0.232 N 
ATOM     15  H41 UNL     1      -7.453   3.630  -0.107  1.00  0.00     0.174 HD
ATOM     16  H42 UNL     1      -7.113   5.437   0.059  1.00  0.00     0.174 HD
HETATM   17  N5  UNL     1      -6.516   2.805   1.962  1.00  0.00    -0.118 N 
HETATM   18  C7  UNL     1      -6.799   2.476   3.379  1.00  0.00     0.173 C 
HETATM   19  C8  UNL     1      -7.878   1.460   3.240  1.00  0.00     0.012 A 
HETATM   20  C9  UNL     1      -8.029   0.126   3.670  1.00  0.00     0.013 A 
HETATM   21  C10 UNL     1      -7.078   0.255   2.630  1.00  0.00     0.012 A 
HETATM   22  C11 UNL     1      -7.136   0.522   1.196  1.00  0.00     0.158 C 
HETATM   23  N6  UNL     1      -6.304   1.781   1.035  1.00  0.00    -0.244 N 
HETATM   24  C12 UNL     1      -5.386   1.745  -0.015  1.00  0.00     0.248 C 
HETATM   25  O1  UNL     1      -5.475   0.680  -0.749  1.00  0.00    -0.271 OA
ENDROOT
BRANCH  24  26
HETATM   26  C13 UNL     1      -4.347   2.674  -0.434  1.00  0.00     0.189 C 
HETATM   27 BR1  UNL     1      -3.525   2.013  -2.097  1.00  0.00    -0.087 Br
ENDBRANCH  24  26
TORSDOF 1
ENDMDL
MODEL 2
REMARK VINA RESULT: -5.209472261      9.188     11.723
REMARK  1 active torsions:
REMARK  status: ('A' for Active; 'I' for Inactive)
REMARK       I    between atoms: N3_12  and  C6_13 
REMARK       I    between atoms: C6_13  and  N5_17 
REMARK       I    between atoms: N6_23  and  C12_24 
REMARK    1  A    between atoms: C12_24  and  C13_26 
ROOT
HETATM    1  N1  UNL     1      -1.548  -0.190  -7.109  1.00  0.00    -0.234 N 
ATOM      2  H11 UNL     1      -1.171  -0.195  -6.161  1.00  0.00     0.174 HD
ATOM      3  H12 UNL     1      -2.390  -0.664  -7.436  1.00  0.00     0.174 HD
HETATM    4  C1  UNL     1      -0.842   0.499  -7.922  1.00  0.00     0.688 C 
HETATM    5  N2  UNL     1      -1.381   0.505  -9.279  1.00  0.00    -0.223 N 
ATOM      6  H2  UNL     1      -2.374   0.306  -9.395  1.00  0.00     0.177 HD
HETATM    7  C2  UNL     1      -0.616   0.771 -10.451  1.00  0.00     0.175 C 
HETATM    8  C3  UNL     1       0.045   2.088 -10.549  1.00  0.00     0.190 C 
HETATM    9  F1  UNL     1      -0.805   2.939 -11.267  1.00  0.00    -0.248 F 
HETATM   10  C4  UNL     1       0.378   2.788  -9.283  1.00  0.00     0.060 C 
HETATM   11  C5  UNL     1       1.208   1.967  -8.312  1.00  0.00     0.169 C 
HETATM   12  N3  UNL     1       0.315   1.150  -7.473  1.00  0.00    -0.014 N 
HETATM   13  C6  UNL     1       0.701   1.049  -6.130  1.00  0.00     0.709 C 
HETATM   14  N4  UNL     1       1.191   2.221  -5.683  1.00  0.00    -0.232 N 
ATOM     15  H41 UNL     1       1.473   2.147  -4.705  1.00  0.00     0.174 HD
ATOM     16  H42 UNL     1       1.197   3.032  -6.301  1.00  0.00     0.174 HD
HETATM   17  N5  UNL     1       0.694  -0.067  -5.279  1.00  0.00    -0.118 N 
HETATM   18  C7  UNL     1       1.087  -1.398  -5.800  1.00  0.00     0.173 C 
HETATM   19  C8  UNL     1       2.123  -1.810  -4.814  1.00  0.00     0.012 A 
HETATM   20  C9  UNL     1       2.274  -2.920  -3.958  1.00  0.00     0.013 A 
HETATM   21  C10 UNL     1       1.242  -2.049  -3.536  1.00  0.00     0.012 A 
HETATM   22  C11 UNL     1       1.185  -0.721  -2.931  1.00  0.00     0.158 C 
HETATM   23  N6  UNL     1       0.376   0.089  -3.927  1.00  0.00    -0.244 N 
HETATM   24  C12 UNL     1      -0.629   0.875  -3.362  1.00  0.00     0.248 C 
HETATM   25  O1  UNL     1      -0.631   0.867  -2.066  1.00  0.00    -0.271 OA
ENDROOT
BRANCH  24  26
HETATM   26  C13 UNL     1      -1.674   1.695  -3.956  1.00  0.00     0.189 C 
HETATM   27 BR1  UNL     1      -3.038   2.089  -2.590  1.00  0.00    -0.087 Br
ENDBRANCH  24  26
TORSDOF 1
ENDMDL
MODEL 3
REMARK VINA RESULT: -5.182845310      9.550     12.239
REMARK  1 active torsions:
REMARK  status: ('A' for Active; 'I' for Inactive)
REMARK       I    between atoms: N3_12  and  C6_13 
REMARK       I    between atoms: C6_13  and  N5_17 
REMARK       I    between atoms: N6_23  and  C12_24 
REMARK    1  A    between atoms: C12_24  and  C13_26 
ROOT
HETATM    1  N1  UNL     1       1.495   0.235  -7.142  1.00  0.00    -0.234 N 
ATOM      2  H11 UNL     1       1.119   0.243  -6.194  1.00  0.00     0.174 HD
ATOM      3  H12 UNL     1       2.329   0.720  -7.474  1.00  0.00     0.174 HD
HETATM    4  C1  UNL     1       0.799  -0.472  -7.948  1.00  0.00     0.688 C 
HETATM    5  N2  UNL     1       1.337  -0.481  -9.305  1.00  0.00    -0.223 N 
ATOM      6  H2  UNL     1       2.327  -0.268  -9.424  1.00  0.00     0.177 HD
HETATM    7  C2  UNL     1       0.575  -0.769 -10.474  1.00  0.00     0.175 C 
HETATM    8  C3  UNL     1      -0.066  -2.098 -10.560  1.00  0.00     0.190 C 
HETATM    9  F1  UNL     1       0.798  -2.942 -11.271  1.00  0.00    -0.248 F 
HETATM   10  C4  UNL     1      -0.386  -2.792  -9.288  1.00  0.00     0.060 C 
HETATM   11  C5  UNL     1      -1.228  -1.975  -8.322  1.00  0.00     0.169 C 
HETATM   12  N3  UNL     1      -0.347  -1.137  -7.492  1.00  0.00    -0.014 N 
HETATM   13  C6  UNL     1      -0.733  -1.031  -6.149  1.00  0.00     0.709 C 
HETATM   14  N4  UNL     1      -1.204  -2.206  -5.691  1.00  0.00    -0.232 N 
ATOM     15  H41 UNL     1      -1.486  -2.128  -4.714  1.00  0.00     0.174 HD
ATOM     16  H42 UNL     1      -1.198  -3.023  -6.303  1.00  0.00     0.174 HD
HETATM   17  N5  UNL     1      -0.743   0.093  -5.308  1.00  0.00    -0.118 N 
HETATM   18  C7  UNL     1      -1.157   1.413  -5.841  1.00  0.00     0.173 C 
HETATM   19  C8  UNL     1      -2.199   1.817  -4.857  1.00  0.00     0.012 A 
HETATM   20  C9  UNL     1      -2.366   2.932  -4.010  1.00  0.00     0.013 A 
HETATM   21  C10 UNL     1      -1.320   2.081  -3.582  1.00  0.00     0.012 A 
HETATM   22  C11 UNL     1      -1.242   0.760  -2.966  1.00  0.00     0.158 C 
HETATM   23  N6  UNL     1      -0.421  -0.046  -3.955  1.00  0.00    -0.244 N 
HETATM   24  C12 UNL     1       0.596  -0.811  -3.385  1.00  0.00     0.248 C 
HETATM   25  O1  UNL     1       0.599  -0.792  -2.089  1.00  0.00    -0.271 OA
ENDROOT
BRANCH  24  26
HETATM   26  C13 UNL     1       1.654  -1.620  -3.972  1.00  0.00     0.189 C 
HETATM   27 BR1  UNL     1       2.892  -2.193  -2.551  1.00  0.00    -0.087 Br
ENDBRANCH  24  26
TORSDOF 1
ENDMDL
MODEL 4
REMARK VINA RESULT: -4.620167896      9.766     12.449
REMARK  1 active torsions:
REMARK  status: ('A' for Active; 'I' for Inactive)
REMARK       I    between atoms: N3_12  and  C6_13 
REMARK       I    between atoms: C6_13  and  N5_17 
REMARK       I    between atoms: N6_23  and  C12_24 
REMARK    1  A    between atoms: C12_24  and  C13_26 
ROOT
HETATM    1  N1  UNL     1      -1.268  -1.710  -7.059  1.00  0.00    -0.234 N 
ATOM      2  H11 UNL     1      -0.947  -1.377  -6.150  1.00  0.00     0.174 HD
ATOM      3  H12 UNL     1      -2.037  -2.356  -7.238  1.00  0.00     0.174 HD
HETATM    4  C1  UNL     1      -0.591  -1.231  -8.032  1.00  0.00     0.688 C 
HETATM    5  N2  UNL     1      -1.051  -1.709  -9.333  1.00  0.00    -0.223 N 
ATOM      6  H2  UNL     1      -2.010  -2.048  -9.402  1.00  0.00     0.177 HD
HETATM    7  C2  UNL     1      -0.252  -1.734 -10.512  1.00  0.00     0.175 C 
HETATM    8  C3  UNL     1       0.275  -0.446 -11.007  1.00  0.00     0.190 C 
HETATM    9  F1  UNL     1      -0.617   0.036 -11.974  1.00  0.00    -0.248 F 
HETATM   10  C4  UNL     1       0.461   0.647 -10.019  1.00  0.00     0.060 C 
HETATM   11  C5  UNL     1       1.315   0.270  -8.821  1.00  0.00     0.169 C 
HETATM   12  N3  UNL     1       0.465  -0.343  -7.787  1.00  0.00    -0.014 N 
HETATM   13  C6  UNL     1       0.783   0.024  -6.472  1.00  0.00     0.709 C 
HETATM   14  N4  UNL     1       1.123   1.324  -6.407  1.00  0.00    -0.232 N 
ATOM     15  H41 UNL     1       1.355   1.592  -5.450  1.00  0.00     0.174 HD
ATOM     16  H42 UNL     1       1.080   1.899  -7.249  1.00  0.00     0.174 HD
HETATM   17  N5  UNL     1       0.842  -0.766  -5.314  1.00  0.00    -0.118 N 
HETATM   18  C7  UNL     1       1.399  -2.138  -5.380  1.00  0.00     0.173 C 
HETATM   19  C8  UNL     1       2.414  -2.100  -4.292  1.00  0.00     0.012 A 
HETATM   20  C9  UNL     1       2.630  -2.864  -3.127  1.00  0.00     0.013 A 
HETATM   21  C10 UNL     1       1.492  -2.030  -3.023  1.00  0.00     0.012 A 
HETATM   22  C11 UNL     1       1.264  -0.597  -2.869  1.00  0.00     0.158 C 
HETATM   23  N6  UNL     1       0.434  -0.235  -4.086  1.00  0.00    -0.244 N 
HETATM   24  C12 UNL     1      -0.677   0.566  -3.820  1.00  0.00     0.248 C 
HETATM   25  O1  UNL     1      -0.751   0.961  -2.588  1.00  0.00    -0.271 OA
ENDROOT
BRANCH  24  26
HETATM   26  C13 UNL     1      -1.765   1.035  -4.664  1.00  0.00     0.189 C 
HETATM   27 BR1  UNL     1      -2.732   2.474  -3.729  1.00  0.00    -0.087 Br
ENDBRANCH  24  26
TORSDOF 1
ENDMDL
MODEL 5
REMARK VINA RESULT: -4.605673800      9.251     11.709
REMARK  1 active torsions:
REMARK  status: ('A' for Active; 'I' for Inactive)
REMARK       I    between atoms: N3_12  and  C6_13 
REMARK       I    between atoms: C6_13  and  N5_17 
REMARK       I    between atoms: N6_23  and  C12_24 
REMARK    1  A    between atoms: C12_24  and  C13_26 
ROOT
HETATM    1  N1  UNL     1       1.261   1.713  -7.057  1.00  0.00    -0.234 N 
ATOM      2  H11 UNL     1       0.940   1.379  -6.148  1.00  0.00     0.174 HD
ATOM      3  H12 UNL     1       2.029   2.359  -7.235  1.00  0.00     0.174 HD
HETATM    4  C1  UNL     1       0.584   1.233  -8.030  1.00  0.00     0.688 C 
HETATM    5  N2  UNL     1       1.043   1.712  -9.330  1.00  0.00    -0.223 N 
ATOM      6  H2  UNL     1       2.002   2.051  -9.400  1.00  0.00     0.177 HD
HETATM    7  C2  UNL     1       0.244   1.737 -10.509  1.00  0.00     0.175 C 
HETATM    8  C3  UNL     1      -0.282   0.448 -11.004  1.00  0.00     0.190 C 
HETATM    9  F1  UNL     1       0.610  -0.033 -11.972  1.00  0.00    -0.248 F 
HETATM   10  C4  UNL     1      -0.468  -0.645 -10.017  1.00  0.00     0.060 C 
HETATM   11  C5  UNL     1      -1.322  -0.268  -8.818  1.00  0.00     0.169 C 
HETATM   12  N3  UNL     1      -0.471   0.345  -7.784  1.00  0.00    -0.014 N 
HETATM   13  C6  UNL     1      -0.789  -0.022  -6.469  1.00  0.00     0.709 C 
HETATM   14  N4  UNL     1      -1.129  -1.323  -6.404  1.00  0.00    -0.232 N 
ATOM     15  H41 UNL     1      -1.360  -1.591  -5.447  1.00  0.00     0.174 HD
ATOM     16  H42 UNL     1      -1.086  -1.897  -7.247  1.00  0.00     0.174 HD
HETATM   17  N5  UNL     1      -0.848   0.767  -5.311  1.00  0.00    -0.118 N 
HETATM   18  C7  UNL     1      -1.406   2.139  -5.377  1.00  0.00     0.173 C 
HETATM   19  C8  UNL     1      -2.421   2.101  -4.289  1.00  0.00     0.012 A 
HETATM   20  C9  UNL     1      -2.637   2.864  -3.123  1.00  0.00     0.013 A 
HETATM   21  C10 UNL     1      -1.498   2.031  -3.020  1.00  0.00     0.012 A 
HETATM   22  C11 UNL     1      -1.270   0.598  -2.866  1.00  0.00     0.158 C 
HETATM   23  N6  UNL     1      -0.440   0.237  -4.084  1.00  0.00    -0.244 N 
HETATM   24  C12 UNL     1       0.672  -0.564  -3.818  1.00  0.00     0.248 C 
HETATM   25  O1  UNL     1       0.747  -0.959  -2.585  1.00  0.00    -0.271 OA
ENDROOT
BRANCH  24  26
HETATM   26  C13 UNL     1       1.760  -1.032  -4.662  1.00  0.00     0.189 C 
HETATM   27 BR1  UNL     1       2.722  -2.477  -3.731  1.00  0.00    -0.087 Br
ENDBRANCH  24  26
TORSDOF 1
ENDMDL
