MODEL 1
REMARK VINA RESULT: -6.175400041      0.000      0.000
REMARK  9 active torsions:
REMARK  status: ('A' for Active; 'I' for Inactive)
REMARK    1  A    between atoms: C1_1  and  N1_2 
REMARK    2  A    between atoms: C1_1  and  N5_12 
REMARK    3  A    between atoms: N1_2  and  C2_4 
REMARK    4  A    between atoms: C2_4  and  C3_5 
REMARK    5  A    between atoms: C3_5  and  N2_6 
REMARK    6  A    between atoms: N5_12  and  C5_14 
REMARK    7  A    between atoms: C5_14  and  C6_15 
REMARK    8  A    between atoms: C6_15  and  C7_16 
REMARK    9  A    between atoms: C7_16  and  N6_17 
ROOT
HETATM    1  C1  UNL     1      -3.192  -3.739  17.592  1.00  0.00     0.171 C 
ENDROOT
BRANCH   1   2
HETATM    2  N1  UNL     1      -3.428  -2.818  18.465  1.00  0.00    -0.385 N 
ATOM      3  H1  UNL     1      -2.726  -2.111  18.685  1.00  0.00     0.160 HD
BRANCH   2   4
HETATM    4  C2  UNL     1      -4.709  -2.816  19.119  1.00  0.00     0.142 C 
BRANCH   4   5
HETATM    5  C3  UNL     1      -4.804  -3.822  20.237  1.00  0.00     0.171 C 
BRANCH   5   6
HETATM    6  N2  UNL     1      -4.172  -3.244  21.404  1.00  0.00    -0.271 N 
HETATM    7  C4  UNL     1      -3.649  -2.030  21.747  1.00  0.00     0.219 A 
HETATM    8  N3  UNL     1      -3.329  -2.481  22.964  1.00  0.00    -0.280 N 
HETATM    9  N4  UNL     1      -3.832  -3.651  22.639  1.00  0.00    -0.239 N 
ATOM     10  H3  UNL     1      -2.885  -2.085  23.793  1.00  0.00     0.189 HD
ATOM     11  H4  UNL     1      -3.928  -4.537  23.137  1.00  0.00     0.208 HD
ENDBRANCH   5   6
ENDBRANCH   4   5
ENDBRANCH   2   4
ENDBRANCH   1   2
BRANCH   1  12
HETATM   12  N5  UNL     1      -3.152  -3.429  16.200  1.00  0.00    -0.386 N 
ATOM     13  H5  UNL     1      -3.934  -2.934  15.772  1.00  0.00     0.160 HD
BRANCH  12  14
HETATM   14  C5  UNL     1      -2.013  -3.807  15.386  1.00  0.00     0.122 C 
BRANCH  14  15
HETATM   15  C6  UNL     1      -2.072  -5.316  15.198  1.00  0.00     0.041 C 
BRANCH  15  16
HETATM   16  C7  UNL     1      -0.994  -6.038  15.968  1.00  0.00     0.151 C 
BRANCH  16  17
HETATM   17  N6  UNL     1      -1.614  -6.886  16.950  1.00  0.00    -0.285 N 
HETATM   18  C8  UNL     1      -1.405  -7.928  17.744  1.00  0.00     0.216 A 
HETATM   19  N7  UNL     1      -2.673  -7.295  17.748  1.00  0.00    -0.292 N 
ATOM     20  H7  UNL     1      -3.632  -7.208  18.082  1.00  0.00     0.188 HD
ENDBRANCH  16  17
ENDBRANCH  15  16
ENDBRANCH  14  15
ENDBRANCH  12  14
ENDBRANCH   1  12
TORSDOF 9
ENDMDL
MODEL 2
REMARK VINA RESULT: -6.132424415      2.016      6.655
REMARK  9 active torsions:
REMARK  status: ('A' for Active; 'I' for Inactive)
REMARK    1  A    between atoms: C1_1  and  N1_2 
REMARK    2  A    between atoms: C1_1  and  N5_12 
REMARK    3  A    between atoms: N1_2  and  C2_4 
REMARK    4  A    between atoms: C2_4  and  C3_5 
REMARK    5  A    between atoms: C3_5  and  N2_6 
REMARK    6  A    between atoms: N5_12  and  C5_14 
REMARK    7  A    between atoms: C5_14  and  C6_15 
REMARK    8  A    between atoms: C6_15  and  C7_16 
REMARK    9  A    between atoms: C7_16  and  N6_17 
ROOT
HETATM    1  C1  UNL     1      -1.364  -2.463  18.479  1.00  0.00     0.171 C 
ENDROOT
BRANCH   1   2
HETATM    2  N1  UNL     1      -1.373  -3.527  17.750  1.00  0.00    -0.385 N 
ATOM      3  H1  UNL     1      -0.594  -4.186  17.773  1.00  0.00     0.160 HD
BRANCH   2   4
HETATM    4  C2  UNL     1      -2.512  -3.759  16.904  1.00  0.00     0.142 C 
BRANCH   4   5
HETATM    5  C3  UNL     1      -2.417  -5.043  16.120  1.00  0.00     0.171 C 
BRANCH   5   6
HETATM    6  N2  UNL     1      -1.491  -4.823  15.028  1.00  0.00    -0.271 N 
HETATM    7  C4  UNL     1      -0.742  -5.602  14.194  1.00  0.00     0.219 A 
HETATM    8  N3  UNL     1      -0.258  -4.522  13.575  1.00  0.00    -0.280 N 
HETATM    9  N4  UNL     1      -0.977  -3.767  14.375  1.00  0.00    -0.239 N 
ATOM     10  H3  UNL     1       0.392  -4.353  12.807  1.00  0.00     0.189 HD
ATOM     11  H4  UNL     1      -1.100  -2.758  14.467  1.00  0.00     0.208 HD
ENDBRANCH   5   6
ENDBRANCH   4   5
ENDBRANCH   2   4
ENDBRANCH   1   2
BRANCH   1  12
HETATM   12  N5  UNL     1      -2.495  -2.118  19.277  1.00  0.00    -0.386 N 
ATOM     13  H5  UNL     1      -3.034  -1.282  19.051  1.00  0.00     0.160 HD
BRANCH  12  14
HETATM   14  C5  UNL     1      -2.889  -2.938  20.406  1.00  0.00     0.122 C 
BRANCH  14  15
HETATM   15  C6  UNL     1      -4.173  -3.657  20.017  1.00  0.00     0.041 C 
BRANCH  15  16
HETATM   16  C7  UNL     1      -5.096  -3.866  21.192  1.00  0.00     0.151 C 
BRANCH  16  17
HETATM   17  N6  UNL     1      -5.030  -2.711  22.046  1.00  0.00    -0.285 N 
HETATM   18  C8  UNL     1      -5.546  -1.507  22.252  1.00  0.00     0.216 A 
HETATM   19  N7  UNL     1      -4.531  -1.985  23.117  1.00  0.00    -0.292 N 
ATOM     20  H7  UNL     1      -3.908  -1.877  23.917  1.00  0.00     0.188 HD
ENDBRANCH  16  17
ENDBRANCH  15  16
ENDBRANCH  14  15
ENDBRANCH  12  14
ENDBRANCH   1  12
TORSDOF 9
ENDMDL
MODEL 3
REMARK VINA RESULT: -6.118553347      1.676      2.204
REMARK  9 active torsions:
REMARK  status: ('A' for Active; 'I' for Inactive)
REMARK    1  A    between atoms: C1_1  and  N1_2 
REMARK    2  A    between atoms: C1_1  and  N5_12 
REMARK    3  A    between atoms: N1_2  and  C2_4 
REMARK    4  A    between atoms: C2_4  and  C3_5 
REMARK    5  A    between atoms: C3_5  and  N2_6 
REMARK    6  A    between atoms: N5_12  and  C5_14 
REMARK    7  A    between atoms: C5_14  and  C6_15 
REMARK    8  A    between atoms: C6_15  and  C7_16 
REMARK    9  A    between atoms: C7_16  and  N6_17 
ROOT
HETATM    1  C1  UNL     1      -2.119  -2.943  18.656  1.00  0.00     0.171 C 
ENDROOT
BRANCH   1   2
HETATM    2  N1  UNL     1      -3.130  -2.266  19.086  1.00  0.00    -0.385 N 
ATOM      3  H1  UNL     1      -3.011  -1.321  19.451  1.00  0.00     0.160 HD
BRANCH   2   4
HETATM    4  C2  UNL     1      -4.428  -2.882  19.037  1.00  0.00     0.142 C 
BRANCH   4   5
HETATM    5  C3  UNL     1      -4.672  -3.840  20.174  1.00  0.00     0.171 C 
BRANCH   5   6
HETATM    6  N2  UNL     1      -4.490  -3.110  21.411  1.00  0.00    -0.271 N 
HETATM    7  C4  UNL     1      -5.017  -1.990  21.986  1.00  0.00     0.219 A 
HETATM    8  N3  UNL     1      -4.240  -2.142  23.062  1.00  0.00    -0.280 N 
HETATM    9  N4  UNL     1      -3.728  -3.222  22.513  1.00  0.00    -0.239 N 
ATOM     10  H3  UNL     1      -4.101  -1.637  23.937  1.00  0.00     0.189 HD
ATOM     11  H4  UNL     1      -3.020  -3.893  22.812  1.00  0.00     0.208 HD
ENDBRANCH   5   6
ENDBRANCH   4   5
ENDBRANCH   2   4
ENDBRANCH   1   2
BRANCH   1  12
HETATM   12  N5  UNL     1      -1.821  -2.999  17.262  1.00  0.00    -0.386 N 
ATOM     13  H5  UNL     1      -1.011  -2.495  16.899  1.00  0.00     0.160 HD
BRANCH  12  14
HETATM   14  C5  UNL     1      -2.653  -3.763  16.352  1.00  0.00     0.122 C 
BRANCH  14  15
HETATM   15  C6  UNL     1      -2.476  -5.233  16.703  1.00  0.00     0.041 C 
BRANCH  15  16
HETATM   16  C7  UNL     1      -1.161  -5.790  16.219  1.00  0.00     0.151 C 
BRANCH  16  17
HETATM   17  N6  UNL     1      -0.897  -5.277  14.901  1.00  0.00    -0.285 N 
HETATM   18  C8  UNL     1      -1.245  -5.384  13.626  1.00  0.00     0.216 A 
HETATM   19  N7  UNL     1      -0.244  -4.452  13.996  1.00  0.00    -0.292 N 
ATOM     20  H7  UNL     1       0.438  -3.728  13.771  1.00  0.00     0.188 HD
ENDBRANCH  16  17
ENDBRANCH  15  16
ENDBRANCH  14  15
ENDBRANCH  12  14
ENDBRANCH   1  12
TORSDOF 9
ENDMDL
MODEL 4
REMARK VINA RESULT: -6.102632110      2.288      6.081
REMARK  9 active torsions:
REMARK  status: ('A' for Active; 'I' for Inactive)
REMARK    1  A    between atoms: C1_1  and  N1_2 
REMARK    2  A    between atoms: C1_1  and  N5_12 
REMARK    3  A    between atoms: N1_2  and  C2_4 
REMARK    4  A    between atoms: C2_4  and  C3_5 
REMARK    5  A    between atoms: C3_5  and  N2_6 
REMARK    6  A    between atoms: N5_12  and  C5_14 
REMARK    7  A    between atoms: C5_14  and  C6_15 
REMARK    8  A    between atoms: C6_15  and  C7_16 
REMARK    9  A    between atoms: C7_16  and  N6_17 
ROOT
HETATM    1  C1  UNL     1      -1.640  -2.463  18.612  1.00  0.00     0.171 C 
ENDROOT
BRANCH   1   2
HETATM    2  N1  UNL     1      -1.490  -3.477  17.828  1.00  0.00    -0.385 N 
ATOM      3  H1  UNL     1      -0.603  -3.978  17.783  1.00  0.00     0.160 HD
BRANCH   2   4
HETATM    4  C2  UNL     1      -2.609  -3.880  17.020  1.00  0.00     0.142 C 
BRANCH   4   5
HETATM    5  C3  UNL     1      -2.367  -5.165  16.272  1.00  0.00     0.171 C 
BRANCH   5   6
HETATM    6  N2  UNL     1      -1.485  -4.869  15.162  1.00  0.00    -0.271 N 
HETATM    7  C4  UNL     1      -0.675  -5.580  14.324  1.00  0.00     0.219 A 
HETATM    8  N3  UNL     1      -0.310  -4.465  13.685  1.00  0.00    -0.280 N 
HETATM    9  N4  UNL     1      -1.088  -3.775  14.490  1.00  0.00    -0.239 N 
ATOM     10  H3  UNL     1       0.308  -4.243  12.905  1.00  0.00     0.189 HD
ATOM     11  H4  UNL     1      -1.308  -2.782  14.573  1.00  0.00     0.208 HD
ENDBRANCH   5   6
ENDBRANCH   4   5
ENDBRANCH   2   4
ENDBRANCH   1   2
BRANCH   1  12
HETATM   12  N5  UNL     1      -2.807  -2.336  19.423  1.00  0.00    -0.386 N 
ATOM     13  H5  UNL     1      -3.688  -2.051  18.996  1.00  0.00     0.160 HD
BRANCH  12  14
HETATM   14  C5  UNL     1      -2.757  -2.606  20.847  1.00  0.00     0.122 C 
BRANCH  14  15
HETATM   15  C6  UNL     1      -4.065  -3.285  21.225  1.00  0.00     0.041 C 
BRANCH  15  16
HETATM   16  C7  UNL     1      -4.788  -3.855  20.030  1.00  0.00     0.151 C 
BRANCH  16  17
HETATM   17  N6  UNL     1      -5.553  -4.998  20.452  1.00  0.00    -0.285 N 
HETATM   18  C8  UNL     1      -5.959  -6.204  20.081  1.00  0.00     0.216 A 
HETATM   19  N7  UNL     1      -6.339  -5.704  21.351  1.00  0.00    -0.292 N 
ATOM     20  H7  UNL     1      -6.822  -5.793  22.245  1.00  0.00     0.188 HD
ENDBRANCH  16  17
ENDBRANCH  15  16
ENDBRANCH  14  15
ENDBRANCH  12  14
ENDBRANCH   1  12
TORSDOF 9
ENDMDL
MODEL 5
REMARK VINA RESULT: -6.012521620      2.102      6.497
REMARK  9 active torsions:
REMARK  status: ('A' for Active; 'I' for Inactive)
REMARK    1  A    between atoms: C1_1  and  N1_2 
REMARK    2  A    between atoms: C1_1  and  N5_12 
REMARK    3  A    between atoms: N1_2  and  C2_4 
REMARK    4  A    between atoms: C2_4  and  C3_5 
REMARK    5  A    between atoms: C3_5  and  N2_6 
REMARK    6  A    between atoms: N5_12  and  C5_14 
REMARK    7  A    between atoms: C5_14  and  C6_15 
REMARK    8  A    between atoms: C6_15  and  C7_16 
REMARK    9  A    between atoms: C7_16  and  N6_17 
ROOT
HETATM    1  C1  UNL     1      -2.905  -3.941  17.393  1.00  0.00     0.171 C 
ENDROOT
BRANCH   1   2
HETATM    2  N1  UNL     1      -2.805  -5.203  17.645  1.00  0.00    -0.385 N 
ATOM      3  H1  UNL     1      -2.978  -5.566  18.583  1.00  0.00     0.160 HD
BRANCH   2   4
HETATM    4  C2  UNL     1      -2.443  -6.082  16.567  1.00  0.00     0.142 C 
BRANCH   4   5
HETATM    5  C3  UNL     1      -0.971  -6.049  16.243  1.00  0.00     0.171 C 
BRANCH   5   6
HETATM    6  N2  UNL     1      -0.823  -5.449  14.934  1.00  0.00    -0.271 N 
HETATM    7  C4  UNL     1      -1.556  -5.389  13.784  1.00  0.00     0.219 A 
HETATM    8  N3  UNL     1      -0.616  -4.647  13.190  1.00  0.00    -0.280 N 
HETATM    9  N4  UNL     1       0.094  -4.702  14.295  1.00  0.00    -0.239 N 
ATOM     10  H3  UNL     1      -0.500  -4.219  12.271  1.00  0.00     0.189 HD
ATOM     11  H4  UNL     1       1.001  -4.320  14.566  1.00  0.00     0.208 HD
ENDBRANCH   5   6
ENDBRANCH   4   5
ENDBRANCH   2   4
ENDBRANCH   1   2
BRANCH   1  12
HETATM   12  N5  UNL     1      -1.805  -3.063  17.623  1.00  0.00    -0.386 N 
ATOM     13  H5  UNL     1      -1.130  -2.897  16.876  1.00  0.00     0.160 HD
BRANCH  12  14
HETATM   14  C5  UNL     1      -1.632  -2.404  18.902  1.00  0.00     0.122 C 
BRANCH  14  15
HETATM   15  C6  UNL     1      -2.926  -2.583  19.683  1.00  0.00     0.041 C 
BRANCH  15  16
HETATM   16  C7  UNL     1      -2.694  -2.685  21.170  1.00  0.00     0.151 C 
BRANCH  16  17
HETATM   17  N6  UNL     1      -3.955  -2.922  21.821  1.00  0.00    -0.285 N 
HETATM   18  C8  UNL     1      -5.058  -2.328  22.257  1.00  0.00     0.216 A 
HETATM   19  N7  UNL     1      -4.912  -3.728  22.420  1.00  0.00    -0.292 N 
ATOM     20  H7  UNL     1      -5.252  -4.636  22.736  1.00  0.00     0.188 HD
ENDBRANCH  16  17
ENDBRANCH  15  16
ENDBRANCH  14  15
ENDBRANCH  12  14
ENDBRANCH   1  12
TORSDOF 9
ENDMDL
