MODEL 1
REMARK VINA RESULT: -6.811132257      0.000      0.000
REMARK  9 active torsions:
REMARK  status: ('A' for Active; 'I' for Inactive)
REMARK    1  A    between atoms: C3_3  and  C4_4 
REMARK    2  A    between atoms: C8_9  and  C9_10 
REMARK    3  A    between atoms: C9_10  and  O2_11 
REMARK    4  A    between atoms: O2_11  and  C10_12 
REMARK    5  A    between atoms: C13_16  and  C14_17 
REMARK    6  A    between atoms: C15_18  and  C16_19 
REMARK    7  A    between atoms: C16_19  and  C17_20 
REMARK    8  A    between atoms: C17_20  and  O4_21 
REMARK    9  A    between atoms: C18_23  and  O5_24 
ROOT
HETATM    1  C4  UNL     1       7.667  52.598  20.173  1.00  0.00    -0.011 A 
HETATM    2  C5  UNL     1       8.039  53.138  19.026  1.00  0.00    -0.006 A 
HETATM    3  C6  UNL     1       8.487  54.560  18.807  1.00  0.00     0.052 C 
HETATM    4  C7  UNL     1       7.948  52.160  17.954  1.00  0.00     0.172 A 
HETATM    5  O1  UNL     1       8.177  52.346  16.737  1.00  0.00    -0.292 OA
HETATM    6  C8  UNL     1       7.535  50.899  18.559  1.00  0.00     0.106 A 
HETATM    7  C12 UNL     1       8.632  49.856  18.554  1.00  0.00     0.192 C 
HETATM    8  O3  UNL     1       9.286  49.991  19.775  1.00  0.00    -0.377 OA
HETATM    9  C13 UNL     1       8.319  50.327  20.705  1.00  0.00     0.184 C 
HETATM   10  C18 UNL     1       7.308  51.177  19.983  1.00  0.00     0.134 A 
ENDROOT
BRANCH   9  11
HETATM   11  C14 UNL     1       7.686  49.124  21.314  1.00  0.00     0.004 C 
HETATM   12  C15 UNL     1       7.900  48.836  22.572  1.00  0.00    -0.026 C 
BRANCH  12  13
HETATM   13  C16 UNL     1       8.749  49.631  23.470  1.00  0.00     0.053 C 
BRANCH  13  14
HETATM   14  C17 UNL     1       9.012  48.792  24.711  1.00  0.00     0.168 C 
BRANCH  14  15
HETATM   15  O4  UNL     1       7.790  48.603  25.376  1.00  0.00    -0.401 OA
ATOM     16  H4  UNL     1       7.549  47.688  25.294  1.00  0.00     0.209 HD
ENDBRANCH  14  15
ENDBRANCH  13  14
ENDBRANCH  12  13
ENDBRANCH   9  11
BRANCH  10  17
HETATM   17  O5  UNL     1       6.006  50.913  20.414  1.00  0.00    -0.381 OA
ATOM     18  H5  UNL     1       5.972  50.148  20.977  1.00  0.00     0.211 HD
ENDBRANCH  10  17
BRANCH   1  19
HETATM   19  C3  UNL     1       7.645  53.359  21.433  1.00  0.00     0.006 C 
HETATM   20  C2  UNL     1       8.448  53.121  22.430  1.00  0.00    -0.030 C 
HETATM   21  C1  UNL     1       8.366  53.941  23.686  1.00  0.00     0.036 C 
ENDBRANCH   1  19
BRANCH   6  22
HETATM   22  C9  UNL     1       6.359  50.282  17.842  1.00  0.00     0.191 C 
BRANCH  22  23
HETATM   23  O2  UNL     1       6.215  48.930  18.135  1.00  0.00    -0.390 OA
BRANCH  23  24
HETATM   24  C10 UNL     1       5.035  48.477  17.548  1.00  0.00     0.163 C 
HETATM   25  C11 UNL     1       3.809  49.032  18.191  1.00  0.00     0.033 C 
ENDBRANCH  23  24
ENDBRANCH  22  23
ENDBRANCH   6  22
TORSDOF 9
ENDMDL
MODEL 2
REMARK VINA RESULT: -6.424380537      0.898      1.265
REMARK  9 active torsions:
REMARK  status: ('A' for Active; 'I' for Inactive)
REMARK    1  A    between atoms: C3_3  and  C4_4 
REMARK    2  A    between atoms: C8_9  and  C9_10 
REMARK    3  A    between atoms: C9_10  and  O2_11 
REMARK    4  A    between atoms: O2_11  and  C10_12 
REMARK    5  A    between atoms: C13_16  and  C14_17 
REMARK    6  A    between atoms: C15_18  and  C16_19 
REMARK    7  A    between atoms: C16_19  and  C17_20 
REMARK    8  A    between atoms: C17_20  and  O4_21 
REMARK    9  A    between atoms: C18_23  and  O5_24 
ROOT
HETATM    1  C4  UNL     1       7.646  52.557  20.344  1.00  0.00    -0.011 A 
HETATM    2  C5  UNL     1       8.053  53.130  19.226  1.00  0.00    -0.006 A 
HETATM    3  C6  UNL     1       8.470  54.569  19.056  1.00  0.00     0.052 C 
HETATM    4  C7  UNL     1       8.038  52.174  18.132  1.00  0.00     0.172 A 
HETATM    5  O1  UNL     1       8.316  52.392  16.931  1.00  0.00    -0.292 OA
HETATM    6  C8  UNL     1       7.635  50.889  18.692  1.00  0.00     0.106 A 
HETATM    7  C12 UNL     1       8.760  49.877  18.716  1.00  0.00     0.192 C 
HETATM    8  O3  UNL     1       9.355  50.004  19.967  1.00  0.00    -0.377 OA
HETATM    9  C13 UNL     1       8.338  50.293  20.859  1.00  0.00     0.184 C 
HETATM   10  C18 UNL     1       7.336  51.130  20.110  1.00  0.00     0.134 A 
ENDROOT
BRANCH   9  11
HETATM   11  C14 UNL     1       7.713  49.060  21.415  1.00  0.00     0.004 C 
HETATM   12  C15 UNL     1       7.846  48.772  22.684  1.00  0.00    -0.026 C 
BRANCH  12  13
HETATM   13  C16 UNL     1       8.591  49.595  23.646  1.00  0.00     0.053 C 
BRANCH  13  14
HETATM   14  C17 UNL     1       8.933  48.711  24.836  1.00  0.00     0.168 C 
BRANCH  14  15
HETATM   15  O4  UNL     1       7.758  48.502  25.574  1.00  0.00    -0.401 OA
ATOM     16  H4  UNL     1       7.953  48.664  26.489  1.00  0.00     0.209 HD
ENDBRANCH  14  15
ENDBRANCH  13  14
ENDBRANCH  12  13
ENDBRANCH   9  11
BRANCH  10  17
HETATM   17  O5  UNL     1       6.025  50.821  20.477  1.00  0.00    -0.381 OA
ATOM     18  H5  UNL     1       5.998  50.178  21.176  1.00  0.00     0.211 HD
ENDBRANCH  10  17
BRANCH   1  19
HETATM   19  C3  UNL     1       7.546  53.290  21.617  1.00  0.00     0.006 C 
HETATM   20  C2  UNL     1       8.466  53.259  22.538  1.00  0.00    -0.030 C 
HETATM   21  C1  UNL     1       8.294  54.034  23.813  1.00  0.00     0.036 C 
ENDBRANCH   1  19
BRANCH   6  22
HETATM   22  C9  UNL     1       6.510  50.255  17.910  1.00  0.00     0.191 C 
BRANCH  22  23
HETATM   23  O2  UNL     1       6.934  49.148  17.182  1.00  0.00    -0.390 OA
BRANCH  23  24
HETATM   24  C10 UNL     1       6.755  49.419  15.828  1.00  0.00     0.163 C 
HETATM   25  C11 UNL     1       8.026  49.380  15.048  1.00  0.00     0.033 C 
ENDBRANCH  23  24
ENDBRANCH  22  23
ENDBRANCH   6  22
TORSDOF 9
ENDMDL
MODEL 3
REMARK VINA RESULT: -5.705176442      1.955      4.521
REMARK  9 active torsions:
REMARK  status: ('A' for Active; 'I' for Inactive)
REMARK    1  A    between atoms: C3_3  and  C4_4 
REMARK    2  A    between atoms: C8_9  and  C9_10 
REMARK    3  A    between atoms: C9_10  and  O2_11 
REMARK    4  A    between atoms: O2_11  and  C10_12 
REMARK    5  A    between atoms: C13_16  and  C14_17 
REMARK    6  A    between atoms: C15_18  and  C16_19 
REMARK    7  A    between atoms: C16_19  and  C17_20 
REMARK    8  A    between atoms: C17_20  and  O4_21 
REMARK    9  A    between atoms: C18_23  and  O5_24 
ROOT
HETATM    1  C4  UNL     1       8.389  51.498  22.057  1.00  0.00    -0.011 A 
HETATM    2  C5  UNL     1       8.586  50.294  22.562  1.00  0.00    -0.006 A 
HETATM    3  C6  UNL     1       8.965  49.968  23.984  1.00  0.00     0.052 C 
HETATM    4  C7  UNL     1       8.397  49.279  21.538  1.00  0.00     0.172 A 
HETATM    5  O1  UNL     1       8.551  48.042  21.660  1.00  0.00    -0.292 OA
HETATM    6  C8  UNL     1       7.988  49.970  20.321  1.00  0.00     0.106 A 
HETATM    7  C12 UNL     1       6.546  49.703  19.947  1.00  0.00     0.192 C 
HETATM    8  O3  UNL     1       5.809  50.727  20.532  1.00  0.00    -0.377 OA
HETATM    9  C13 UNL     1       6.596  51.863  20.471  1.00  0.00     0.184 C 
HETATM   10  C18 UNL     1       8.021  51.406  20.628  1.00  0.00     0.134 A 
ENDROOT
BRANCH   9  11
HETATM   11  C14 UNL     1       6.400  52.611  19.197  1.00  0.00     0.004 C 
HETATM   12  C15 UNL     1       5.514  53.571  19.130  1.00  0.00    -0.026 C 
BRANCH  12  13
HETATM   13  C16 UNL     1       4.660  53.990  20.249  1.00  0.00     0.053 C 
BRANCH  13  14
HETATM   14  C17 UNL     1       3.248  53.510  19.951  1.00  0.00     0.168 C 
BRANCH  14  15
HETATM   15  O4  UNL     1       3.119  52.202  20.445  1.00  0.00    -0.401 OA
ATOM     16  H4  UNL     1       2.254  52.116  20.826  1.00  0.00     0.209 HD
ENDBRANCH  14  15
ENDBRANCH  13  14
ENDBRANCH  12  13
ENDBRANCH   9  11
BRANCH  10  17
HETATM   17  O5  UNL     1       8.893  52.140  19.822  1.00  0.00    -0.381 OA
ATOM     18  H5  UNL     1       9.111  51.673  19.024  1.00  0.00     0.211 HD
ENDBRANCH  10  17
BRANCH   1  19
HETATM   19  C3  UNL     1       8.526  52.724  22.861  1.00  0.00     0.006 C 
HETATM   20  C2  UNL     1       7.785  53.781  22.689  1.00  0.00    -0.030 C 
HETATM   21  C1  UNL     1       7.982  54.997  23.550  1.00  0.00     0.036 C 
ENDBRANCH   1  19
BRANCH   6  22
HETATM   22  C9  UNL     1       8.818  49.561  19.129  1.00  0.00     0.191 C 
BRANCH  22  23
HETATM   23  O2  UNL     1       8.032  49.207  18.037  1.00  0.00    -0.390 OA
BRANCH  23  24
HETATM   24  C10 UNL     1       8.433  49.969  16.942  1.00  0.00     0.163 C 
HETATM   25  C11 UNL     1       7.290  50.562  16.189  1.00  0.00     0.033 C 
ENDBRANCH  23  24
ENDBRANCH  22  23
ENDBRANCH   6  22
TORSDOF 9
ENDMDL
MODEL 4
REMARK VINA RESULT: -5.696146409      1.870      4.582
REMARK  9 active torsions:
REMARK  status: ('A' for Active; 'I' for Inactive)
REMARK    1  A    between atoms: C3_3  and  C4_4 
REMARK    2  A    between atoms: C8_9  and  C9_10 
REMARK    3  A    between atoms: C9_10  and  O2_11 
REMARK    4  A    between atoms: O2_11  and  C10_12 
REMARK    5  A    between atoms: C13_16  and  C14_17 
REMARK    6  A    between atoms: C15_18  and  C16_19 
REMARK    7  A    between atoms: C16_19  and  C17_20 
REMARK    8  A    between atoms: C17_20  and  O4_21 
REMARK    9  A    between atoms: C18_23  and  O5_24 
ROOT
HETATM    1  C4  UNL     1       8.359  51.670  21.794  1.00  0.00    -0.011 A 
HETATM    2  C5  UNL     1       8.522  50.506  22.396  1.00  0.00    -0.006 A 
HETATM    3  C6  UNL     1       8.917  50.287  23.834  1.00  0.00     0.052 C 
HETATM    4  C7  UNL     1       8.280  49.416  21.465  1.00  0.00     0.172 A 
HETATM    5  O1  UNL     1       8.392  48.190  21.688  1.00  0.00    -0.292 OA
HETATM    6  C8  UNL     1       7.872  50.017  20.200  1.00  0.00     0.106 A 
HETATM    7  C12 UNL     1       6.415  49.772  19.873  1.00  0.00     0.192 C 
HETATM    8  O3  UNL     1       5.725  50.869  20.381  1.00  0.00    -0.377 OA
HETATM    9  C13 UNL     1       6.550  51.966  20.211  1.00  0.00     0.184 C 
HETATM   10  C18 UNL     1       7.961  51.472  20.383  1.00  0.00     0.134 A 
ENDROOT
BRANCH   9  11
HETATM   11  C14 UNL     1       6.357  52.611  18.881  1.00  0.00     0.004 C 
HETATM   12  C15 UNL     1       6.100  53.891  18.805  1.00  0.00    -0.026 C 
BRANCH  12  13
HETATM   13  C16 UNL     1       5.980  54.783  19.967  1.00  0.00     0.053 C 
BRANCH  13  14
HETATM   14  C17 UNL     1       7.104  55.803  19.879  1.00  0.00     0.168 C 
BRANCH  14  15
HETATM   15  O4  UNL     1       8.313  55.107  19.727  1.00  0.00    -0.401 OA
ATOM     16  H4  UNL     1       9.013  55.658  20.056  1.00  0.00     0.209 HD
ENDBRANCH  14  15
ENDBRANCH  13  14
ENDBRANCH  12  13
ENDBRANCH   9  11
BRANCH  10  17
HETATM   17  O5  UNL     1       8.843  52.104  19.505  1.00  0.00    -0.381 OA
ATOM     18  H5  UNL     1       8.536  52.970  19.262  1.00  0.00     0.211 HD
ENDBRANCH  10  17
BRANCH   1  19
HETATM   19  C3  UNL     1       8.553  52.953  22.489  1.00  0.00     0.006 C 
HETATM   20  C2  UNL     1       7.580  53.634  23.023  1.00  0.00    -0.030 C 
HETATM   21  C1  UNL     1       7.855  54.938  23.718  1.00  0.00     0.036 C 
ENDBRANCH   1  19
BRANCH   6  22
HETATM   22  C9  UNL     1       8.665  49.480  19.033  1.00  0.00     0.191 C 
BRANCH  22  23
HETATM   23  O2  UNL     1       7.861  49.208  17.931  1.00  0.00    -0.390 OA
BRANCH  23  24
HETATM   24  C10 UNL     1       8.351  49.927  16.844  1.00  0.00     0.163 C 
HETATM   25  C11 UNL     1       8.086  49.264  15.533  1.00  0.00     0.033 C 
ENDBRANCH  23  24
ENDBRANCH  22  23
ENDBRANCH   6  22
TORSDOF 9
ENDMDL
MODEL 5
REMARK VINA RESULT: -5.579593447      2.418      4.984
REMARK  9 active torsions:
REMARK  status: ('A' for Active; 'I' for Inactive)
REMARK    1  A    between atoms: C3_3  and  C4_4 
REMARK    2  A    between atoms: C8_9  and  C9_10 
REMARK    3  A    between atoms: C9_10  and  O2_11 
REMARK    4  A    between atoms: O2_11  and  C10_12 
REMARK    5  A    between atoms: C13_16  and  C14_17 
REMARK    6  A    between atoms: C15_18  and  C16_19 
REMARK    7  A    between atoms: C16_19  and  C17_20 
REMARK    8  A    between atoms: C17_20  and  O4_21 
REMARK    9  A    between atoms: C18_23  and  O5_24 
ROOT
HETATM    1  C4  UNL     1       8.036  52.501  21.613  1.00  0.00    -0.011 A 
HETATM    2  C5  UNL     1       8.179  53.405  22.565  1.00  0.00    -0.006 A 
HETATM    3  C6  UNL     1       8.992  53.260  23.826  1.00  0.00     0.052 C 
HETATM    4  C7  UNL     1       7.418  54.602  22.245  1.00  0.00     0.172 A 
HETATM    5  O1  UNL     1       7.293  55.631  22.948  1.00  0.00    -0.292 OA
HETATM    6  C8  UNL     1       6.817  54.389  20.934  1.00  0.00     0.106 A 
HETATM    7  C12 UNL     1       7.424  55.260  19.856  1.00  0.00     0.192 C 
HETATM    8  O3  UNL     1       8.441  54.501  19.286  1.00  0.00    -0.377 OA
HETATM    9  C13 UNL     1       8.003  53.189  19.291  1.00  0.00     0.184 C 
HETATM   10  C18 UNL     1       7.170  53.020  20.533  1.00  0.00     0.134 A 
ENDROOT
BRANCH   9  11
HETATM   11  C14 UNL     1       7.227  52.853  18.064  1.00  0.00     0.004 C 
HETATM   12  C15 UNL     1       7.510  51.772  17.385  1.00  0.00    -0.026 C 
BRANCH  12  13
HETATM   13  C16 UNL     1       8.572  50.822  17.744  1.00  0.00     0.053 C 
BRANCH  13  14
HETATM   14  C17 UNL     1       7.903  49.588  18.329  1.00  0.00     0.168 C 
BRANCH  14  15
HETATM   15  O4  UNL     1       8.876  48.854  19.024  1.00  0.00    -0.401 OA
ATOM     16  H4  UNL     1       8.449  48.108  19.428  1.00  0.00     0.209 HD
ENDBRANCH  14  15
ENDBRANCH  13  14
ENDBRANCH  12  13
ENDBRANCH   9  11
BRANCH  10  17
HETATM   17  O5  UNL     1       6.069  52.190  20.311  1.00  0.00    -0.381 OA
ATOM     18  H5  UNL     1       5.254  52.616  20.551  1.00  0.00     0.211 HD
ENDBRANCH  10  17
BRANCH   1  19
HETATM   19  C3  UNL     1       8.682  51.180  21.675  1.00  0.00     0.006 C 
HETATM   20  C2  UNL     1       8.186  50.168  22.326  1.00  0.00    -0.030 C 
HETATM   21  C1  UNL     1       8.904  48.848  22.344  1.00  0.00     0.036 C 
ENDBRANCH   1  19
BRANCH   6  22
HETATM   22  C9  UNL     1       5.336  54.683  20.933  1.00  0.00     0.191 C 
BRANCH  22  23
HETATM   23  O2  UNL     1       4.835  54.856  19.647  1.00  0.00    -0.390 OA
BRANCH  23  24
HETATM   24  C10 UNL     1       3.444  54.841  19.713  1.00  0.00     0.163 C 
HETATM   25  C11 UNL     1       2.907  53.721  20.539  1.00  0.00     0.033 C 
ENDBRANCH  23  24
ENDBRANCH  22  23
ENDBRANCH   6  22
TORSDOF 9
ENDMDL
