MODEL 1
REMARK VINA RESULT: -5.670052546      0.000      0.000
REMARK  3 active torsions:
REMARK  status: ('A' for Active; 'I' for Inactive)
REMARK    1  A    between atoms: C7_7  and  C8_8 
REMARK    2  A    between atoms: C8_8  and  N1_10 
REMARK    3  A    between atoms: N1_10  and  N2_11 
ROOT
HETATM    1  C1  UNL     1      16.014  14.655  41.247  1.00  0.00     0.012 C 
HETATM    2  C2  UNL     1      15.033  14.527  41.914  1.00  0.00    -0.112 C 
HETATM    3  C3  UNL     1      13.826  14.379  42.712  1.00  0.00     0.070 C 
HETATM    4  C4  UNL     1      14.094  14.287  44.179  1.00  0.00     0.017 C 
HETATM    5  C5  UNL     1      12.714  13.845  44.689  1.00  0.00     0.002 C 
HETATM    6  C6  UNL     1      12.337  12.794  43.651  1.00  0.00     0.007 C 
HETATM    7  C7  UNL     1      13.058  13.139  42.400  1.00  0.00     0.022 C 
ENDROOT
BRANCH   7   8
HETATM    8  C8  UNL     1      13.904  12.010  41.839  1.00  0.00     0.100 C 
HETATM    9  C9  UNL     1      13.581  11.907  40.366  1.00  0.00     0.030 C 
BRANCH   8  10
HETATM   10  N1  UNL     1      13.740  10.768  42.528  1.00  0.00    -0.143 NA
BRANCH  10  11
HETATM   11  N2  UNL     1      14.332   9.760  41.762  1.00  0.00    -0.348 N 
ATOM     12  H22 UNL     1      15.181   9.867  41.209  1.00  0.00     0.172 HD
ATOM     13  H21 UNL     1      13.769   8.915  41.856  1.00  0.00     0.172 HD
ENDBRANCH  10  11
ENDBRANCH   8  10
ENDBRANCH   7   8
TORSDOF 3
ENDMDL
MODEL 2
REMARK VINA RESULT: -5.598053583      2.975      4.092
REMARK  3 active torsions:
REMARK  status: ('A' for Active; 'I' for Inactive)
REMARK    1  A    between atoms: C7_7  and  C8_8 
REMARK    2  A    between atoms: C8_8  and  N1_10 
REMARK    3  A    between atoms: N1_10  and  N2_11 
ROOT
HETATM    1  C1  UNL     1      13.226  12.170  41.752  1.00  0.00     0.012 C 
HETATM    2  C2  UNL     1      12.996  12.609  42.838  1.00  0.00    -0.112 C 
HETATM    3  C3  UNL     1      12.733  13.139  44.166  1.00  0.00     0.070 C 
HETATM    4  C4  UNL     1      11.278  13.318  44.455  1.00  0.00     0.017 C 
HETATM    5  C5  UNL     1      11.349  14.142  45.750  1.00  0.00     0.002 C 
HETATM    6  C6  UNL     1      12.453  15.136  45.409  1.00  0.00     0.007 C 
HETATM    7  C7  UNL     1      13.323  14.489  44.393  1.00  0.00     0.022 C 
ENDROOT
BRANCH   7   8
HETATM    8  C8  UNL     1      13.510  15.305  43.127  1.00  0.00     0.100 C 
HETATM    9  C9  UNL     1      14.992  15.572  42.990  1.00  0.00     0.030 C 
BRANCH   8  10
HETATM   10  N1  UNL     1      12.728  16.501  43.089  1.00  0.00    -0.143 NA
BRANCH  10  11
HETATM   11  N2  UNL     1      13.463  17.484  42.420  1.00  0.00    -0.348 N 
ATOM     12  H22 UNL     1      14.418  17.373  42.080  1.00  0.00     0.172 HD
ATOM     13  H21 UNL     1      12.881  18.318  42.337  1.00  0.00     0.172 HD
ENDBRANCH  10  11
ENDBRANCH   8  10
ENDBRANCH   7   8
TORSDOF 3
ENDMDL
MODEL 3
REMARK VINA RESULT: -5.372834526      4.096      5.986
REMARK  3 active torsions:
REMARK  status: ('A' for Active; 'I' for Inactive)
REMARK    1  A    between atoms: C7_7  and  C8_8 
REMARK    2  A    between atoms: C8_8  and  N1_10 
REMARK    3  A    between atoms: N1_10  and  N2_11 
ROOT
HETATM    1  C1  UNL     1      10.106  11.817  46.276  1.00  0.00     0.012 C 
HETATM    2  C2  UNL     1      10.649  12.613  45.573  1.00  0.00    -0.112 C 
HETATM    3  C3  UNL     1      11.293  13.588  44.707  1.00  0.00     0.070 C 
HETATM    4  C4  UNL     1      12.777  13.431  44.640  1.00  0.00     0.017 C 
HETATM    5  C5  UNL     1      13.165  14.737  43.930  1.00  0.00     0.002 C 
HETATM    6  C6  UNL     1      12.276  15.743  44.651  1.00  0.00     0.007 C 
HETATM    7  C7  UNL     1      11.091  14.998  45.149  1.00  0.00     0.022 C 
ENDROOT
BRANCH   7   8
HETATM    8  C8  UNL     1      10.843  15.151  46.639  1.00  0.00     0.100 C 
HETATM    9  C9  UNL     1       9.694  16.121  46.797  1.00  0.00     0.030 C 
BRANCH   8  10
HETATM   10  N1  UNL     1      12.001  15.543  47.380  1.00  0.00    -0.143 NA
BRANCH  10  11
HETATM   11  N2  UNL     1      11.814  15.173  48.715  1.00  0.00    -0.348 N 
ATOM     12  H22 UNL     1      11.903  14.224  49.078  1.00  0.00     0.172 HD
ATOM     13  H21 UNL     1      11.576  16.009  49.248  1.00  0.00     0.172 HD
ENDBRANCH  10  11
ENDBRANCH   8  10
ENDBRANCH   7   8
TORSDOF 3
ENDMDL
MODEL 4
REMARK VINA RESULT: -5.183081112      2.636      4.132
REMARK  3 active torsions:
REMARK  status: ('A' for Active; 'I' for Inactive)
REMARK    1  A    between atoms: C7_7  and  C8_8 
REMARK    2  A    between atoms: C8_8  and  N1_10 
REMARK    3  A    between atoms: N1_10  and  N2_11 
ROOT
HETATM    1  C1  UNL     1      13.373  11.824  42.193  1.00  0.00     0.012 C 
HETATM    2  C2  UNL     1      13.588  12.998  42.209  1.00  0.00    -0.112 C 
HETATM    3  C3  UNL     1      13.832  14.431  42.222  1.00  0.00     0.070 C 
HETATM    4  C4  UNL     1      15.284  14.785  42.197  1.00  0.00     0.017 C 
HETATM    5  C5  UNL     1      15.212  16.285  42.518  1.00  0.00     0.002 C 
HETATM    6  C6  UNL     1      14.175  16.301  43.635  1.00  0.00     0.007 C 
HETATM    7  C7  UNL     1      13.308  15.111  43.440  1.00  0.00     0.022 C 
ENDROOT
BRANCH   7   8
HETATM    8  C8  UNL     1      13.208  14.210  44.658  1.00  0.00     0.100 C 
HETATM    9  C9  UNL     1      11.743  14.111  45.015  1.00  0.00     0.030 C 
BRANCH   8  10
HETATM   10  N1  UNL     1      14.017  14.634  45.759  1.00  0.00    -0.143 NA
BRANCH  10  11
HETATM   11  N2  UNL     1      13.177  15.176  46.736  1.00  0.00    -0.348 N 
ATOM     12  H22 UNL     1      12.384  15.791  46.553  1.00  0.00     0.172 HD
ATOM     13  H21 UNL     1      13.496  14.850  47.649  1.00  0.00     0.172 HD
ENDBRANCH  10  11
ENDBRANCH   8  10
ENDBRANCH   7   8
TORSDOF 3
ENDMDL
MODEL 5
REMARK VINA RESULT: -5.151350340      2.975      5.095
REMARK  3 active torsions:
REMARK  status: ('A' for Active; 'I' for Inactive)
REMARK    1  A    between atoms: C7_7  and  C8_8 
REMARK    2  A    between atoms: C8_8  and  N1_10 
REMARK    3  A    between atoms: N1_10  and  N2_11 
ROOT
HETATM    1  C1  UNL     1      10.344  12.594  46.181  1.00  0.00     0.012 C 
HETATM    2  C2  UNL     1      10.965  12.939  45.221  1.00  0.00    -0.112 C 
HETATM    3  C3  UNL     1      11.706  13.372  44.048  1.00  0.00     0.070 C 
HETATM    4  C4  UNL     1      12.763  12.405  43.625  1.00  0.00     0.017 C 
HETATM    5  C5  UNL     1      13.530  13.257  42.603  1.00  0.00     0.002 C 
HETATM    6  C6  UNL     1      13.602  14.596  43.327  1.00  0.00     0.007 C 
HETATM    7  C7  UNL     1      12.440  14.654  44.250  1.00  0.00     0.022 C 
ENDROOT
BRANCH   7   8
HETATM    8  C8  UNL     1      12.810  14.935  45.696  1.00  0.00     0.100 C 
HETATM    9  C9  UNL     1      12.341  16.338  46.006  1.00  0.00     0.030 C 
BRANCH   8  10
HETATM   10  N1  UNL     1      14.196  14.739  45.986  1.00  0.00    -0.143 NA
BRANCH  10  11
HETATM   11  N2  UNL     1      14.438  15.184  47.289  1.00  0.00    -0.348 N 
ATOM     12  H22 UNL     1      14.489  16.161  47.575  1.00  0.00     0.172 HD
ATOM     13  H21 UNL     1      14.554  14.367  47.889  1.00  0.00     0.172 HD
ENDBRANCH  10  11
ENDBRANCH   8  10
ENDBRANCH   7   8
TORSDOF 3
ENDMDL
