MODEL 1
REMARK VINA RESULT: -5.409003287      0.000      0.000
REMARK  2 active torsions:
REMARK  status: ('A' for Active; 'I' for Inactive)
REMARK    1  A    between atoms: C5_8  and  N2_9 
REMARK    2  A    between atoms: N2_9  and  C6_11 
ROOT
HETATM    1  C1  UNL     1      10.833  13.600  45.204  1.00  0.00     0.029 C 
HETATM    2  C2  UNL     1      11.330  15.005  45.398  1.00  0.00     0.232 C 
HETATM    3  N1  UNL     1      12.629  15.082  46.008  1.00  0.00    -0.075 N 
ATOM      4  H11 UNL     1      12.625  14.608  46.912  1.00  0.00     0.277 HD
ATOM      5  H12 UNL     1      12.822  16.037  46.311  1.00  0.00     0.277 HD
HETATM    6  C3  UNL     1      13.700  14.592  45.194  1.00  0.00     0.234 C 
HETATM    7  C4  UNL     1      13.365  14.445  43.741  1.00  0.00     0.052 C 
HETATM    8  C5  UNL     1      12.568  13.204  43.426  1.00  0.00     0.078 C 
HETATM    9  C9  UNL     1      11.842  12.664  44.622  1.00  0.00     0.026 C 
ENDROOT
BRANCH   8  10
HETATM   10  N2  UNL     1      13.345  12.189  42.785  1.00  0.00    -0.413 N 
ATOM     11  H2  UNL     1      14.020  11.616  43.292  1.00  0.00     0.154 HD
BRANCH  10  12
HETATM   12  C6  UNL     1      13.110  12.034  41.382  1.00  0.00     0.077 A 
HETATM   13  C7  UNL     1      13.830  10.906  40.642  1.00  0.00     0.027 A 
HETATM   14  C8  UNL     1      14.351  12.290  40.530  1.00  0.00     0.027 A 
ENDBRANCH  10  12
ENDBRANCH   8  10
TORSDOF 2
ENDMDL
MODEL 2
REMARK VINA RESULT: -4.993251738      1.944      2.731
REMARK  2 active torsions:
REMARK  status: ('A' for Active; 'I' for Inactive)
REMARK    1  A    between atoms: C5_8  and  N2_9 
REMARK    2  A    between atoms: N2_9  and  C6_11 
ROOT
HETATM    1  C1  UNL     1       9.014  12.335  46.375  1.00  0.00     0.029 C 
HETATM    2  C2  UNL     1       8.597  13.721  46.782  1.00  0.00     0.232 C 
HETATM    3  N1  UNL     1       9.517  14.364  47.680  1.00  0.00    -0.075 N 
ATOM      4  H11 UNL     1       9.644  13.800  48.521  1.00  0.00     0.277 HD
ATOM      5  H12 UNL     1       9.090  15.196  48.088  1.00  0.00     0.277 HD
HETATM    6  C3  UNL     1      10.786  14.688  47.101  1.00  0.00     0.234 C 
HETATM    7  C4  UNL     1      10.816  14.664  45.604  1.00  0.00     0.052 C 
HETATM    8  C5  UNL     1      10.915  13.276  45.023  1.00  0.00     0.078 C 
HETATM    9  C9  UNL     1      10.449  12.216  45.976  1.00  0.00     0.026 C 
ENDROOT
BRANCH   8  10
HETATM   10  N2  UNL     1      12.215  12.978  44.506  1.00  0.00    -0.413 N 
ATOM     11  H2  UNL     1      13.009  12.771  45.111  1.00  0.00     0.154 HD
BRANCH  10  12
HETATM   12  C6  UNL     1      12.322  12.991  43.079  1.00  0.00     0.077 A 
HETATM   13  C7  UNL     1      13.375  12.099  42.420  1.00  0.00     0.027 A 
HETATM   14  C8  UNL     1      13.654  13.546  42.579  1.00  0.00     0.027 A 
ENDBRANCH  10  12
ENDBRANCH   8  10
TORSDOF 2
ENDMDL
MODEL 3
REMARK VINA RESULT: -4.936015646      4.584      5.456
REMARK  2 active torsions:
REMARK  status: ('A' for Active; 'I' for Inactive)
REMARK    1  A    between atoms: C5_8  and  N2_9 
REMARK    2  A    between atoms: N2_9  and  C6_11 
ROOT
HETATM    1  C1  UNL     1       9.947  16.677  45.889  1.00  0.00     0.029 C 
HETATM    2  C2  UNL     1       9.884  17.561  47.103  1.00  0.00     0.232 C 
HETATM    3  N1  UNL     1       8.774  17.278  47.971  1.00  0.00    -0.075 N 
ATOM      4  H11 UNL     1       7.895  17.359  47.460  1.00  0.00     0.277 HD
ATOM      5  H12 UNL     1       8.654  18.030  48.650  1.00  0.00     0.277 HD
HETATM    6  C3  UNL     1       8.847  16.012  48.637  1.00  0.00     0.234 C 
HETATM    7  C4  UNL     1      10.204  15.378  48.630  1.00  0.00     0.052 C 
HETATM    8  C5  UNL     1      10.549  14.702  47.326  1.00  0.00     0.078 C 
HETATM    9  C9  UNL     1       9.744  15.224  46.174  1.00  0.00     0.026 C 
ENDROOT
BRANCH   8  10
HETATM   10  N2  UNL     1      10.487  13.276  47.403  1.00  0.00    -0.413 N 
ATOM     11  H2  UNL     1      10.777  12.760  48.234  1.00  0.00     0.154 HD
BRANCH  10  12
HETATM   12  C6  UNL     1       9.991  12.622  46.231  1.00  0.00     0.077 A 
HETATM   13  C7  UNL     1       8.809  11.663  46.377  1.00  0.00     0.027 A 
HETATM   14  C8  UNL     1      10.178  11.107  46.260  1.00  0.00     0.027 A 
ENDBRANCH  10  12
ENDBRANCH   8  10
TORSDOF 2
ENDMDL
MODEL 4
REMARK VINA RESULT: -4.894185287      1.997      2.443
REMARK  2 active torsions:
REMARK  status: ('A' for Active; 'I' for Inactive)
REMARK    1  A    between atoms: C5_8  and  N2_9 
REMARK    2  A    between atoms: N2_9  and  C6_11 
ROOT
HETATM    1  C1  UNL     1      11.649  13.586  44.780  1.00  0.00     0.029 C 
HETATM    2  C2  UNL     1      11.793  14.812  45.637  1.00  0.00     0.232 C 
HETATM    3  N1  UNL     1      13.060  14.904  46.310  1.00  0.00    -0.075 N 
ATOM      4  H11 UNL     1      13.215  14.079  46.889  1.00  0.00     0.277 HD
ATOM      5  H12 UNL     1      13.026  15.624  47.033  1.00  0.00     0.277 HD
HETATM    6  C3  UNL     1      14.179  15.122  45.444  1.00  0.00     0.234 C 
HETATM    7  C4  UNL     1      13.824  15.593  44.067  1.00  0.00     0.052 C 
HETATM    8  C5  UNL     1      13.343  14.491  43.156  1.00  0.00     0.078 C 
HETATM    9  C9  UNL     1      12.829  13.300  43.909  1.00  0.00     0.026 C 
ENDROOT
BRANCH   8  10
HETATM   10  N2  UNL     1      14.315  14.110  42.179  1.00  0.00    -0.413 N 
ATOM     11  H2  UNL     1      14.164  13.338  41.530  1.00  0.00     0.154 HD
BRANCH  10  12
HETATM   12  C6  UNL     1      15.516  14.889  42.176  1.00  0.00     0.077 A 
HETATM   13  C7  UNL     1      15.749  15.864  41.021  1.00  0.00     0.027 A 
HETATM   14  C8  UNL     1      16.448  14.557  41.013  1.00  0.00     0.027 A 
ENDBRANCH  10  12
ENDBRANCH   8  10
TORSDOF 2
ENDMDL
MODEL 5
REMARK VINA RESULT: -4.823846040      2.295      3.498
REMARK  2 active torsions:
REMARK  status: ('A' for Active; 'I' for Inactive)
REMARK    1  A    between atoms: C5_8  and  N2_9 
REMARK    2  A    between atoms: N2_9  and  C6_11 
ROOT
HETATM    1  C1  UNL     1       9.014  12.424  46.364  1.00  0.00     0.029 C 
HETATM    2  C2  UNL     1       8.428  13.719  46.854  1.00  0.00     0.232 C 
HETATM    3  N1  UNL     1       9.217  14.368  47.864  1.00  0.00    -0.075 N 
ATOM      4  H11 UNL     1       9.352  13.747  48.663  1.00  0.00     0.277 HD
ATOM      5  H12 UNL     1       8.680  15.114  48.309  1.00  0.00     0.277 HD
HETATM    6  C3  UNL     1      10.478  14.869  47.406  1.00  0.00     0.234 C 
HETATM    7  C4  UNL     1      10.603  14.982  45.917  1.00  0.00     0.052 C 
HETATM    8  C5  UNL     1      10.884  13.668  45.232  1.00  0.00     0.078 C 
HETATM    9  C9  UNL     1      10.475  12.485  46.059  1.00  0.00     0.026 C 
ENDROOT
BRANCH   8  10
HETATM   10  N2  UNL     1      12.238  13.549  44.785  1.00  0.00    -0.413 N 
ATOM     11  H2  UNL     1      12.792  12.707  44.940  1.00  0.00     0.154 HD
BRANCH  10  12
HETATM   12  C6  UNL     1      12.759  14.695  44.106  1.00  0.00     0.077 A 
HETATM   13  C7  UNL     1      13.851  14.486  43.056  1.00  0.00     0.027 A 
HETATM   14  C8  UNL     1      14.233  14.957  44.409  1.00  0.00     0.027 A 
ENDBRANCH  10  12
ENDBRANCH   8  10
TORSDOF 2
ENDMDL
