MODEL 1
REMARK VINA RESULT: -4.373308436      0.000      0.000
REMARK  2 active torsions:
REMARK  status: ('A' for Active; 'I' for Inactive)
REMARK    1  A    between atoms: N1_1  and  C1_5 
REMARK    2  A    between atoms: C1_5  and  C2_6 
ROOT
HETATM    1  C2  UNL     1      14.669  15.083  43.462  1.00  0.00     0.109 A 
HETATM    2  S1  UNL     1      15.445  14.777  41.820  1.00  0.00    -0.074 SA
HETATM    3  N2  UNL     1      15.586  16.461  42.119  1.00  0.00    -0.249 NA
HETATM    4  C3  UNL     1      15.156  17.383  41.132  1.00  0.00     0.122 C 
HETATM    5  C4  UNL     1      15.034  18.744  41.802  1.00  0.00     0.129 C 
HETATM    6  N3  UNL     1      13.932  18.698  42.698  1.00  0.00    -0.418 N 
ATOM      7  H3  UNL     1      13.300  19.490  42.817  1.00  0.00     0.153 HD
HETATM    8  C5  UNL     1      13.762  17.482  43.421  1.00  0.00     0.135 C 
HETATM    9  C6  UNL     1      14.892  16.525  43.371  1.00  0.00     0.103 A 
ENDROOT
BRANCH   1  10
HETATM   10  C1  UNL     1      13.303  14.496  43.455  1.00  0.00     0.247 C 
BRANCH  10  11
HETATM   11  N1  UNL     1      12.933  13.941  44.750  1.00  0.00    -0.078 N 
ATOM     12  H13 UNL     1      13.713  13.986  45.406  1.00  0.00     0.274 HD
ATOM     13  H12 UNL     1      12.277  14.550  45.238  1.00  0.00     0.274 HD
ATOM     14  H11 UNL     1      12.569  12.992  44.674  1.00  0.00     0.274 HD
ENDBRANCH  10  11
ENDBRANCH   1  10
TORSDOF 2
ENDMDL
MODEL 2
REMARK VINA RESULT: -4.313913908      2.524      3.273
REMARK  2 active torsions:
REMARK  status: ('A' for Active; 'I' for Inactive)
REMARK    1  A    between atoms: N1_1  and  C1_5 
REMARK    2  A    between atoms: C1_5  and  C2_6 
ROOT
HETATM    1  C2  UNL     1      16.156  14.205  41.093  1.00  0.00     0.109 A 
HETATM    2  S1  UNL     1      16.386  15.818  40.235  1.00  0.00    -0.074 SA
HETATM    3  N2  UNL     1      15.547  16.157  41.693  1.00  0.00    -0.249 NA
HETATM    4  C3  UNL     1      14.357  16.927  41.651  1.00  0.00     0.122 C 
HETATM    5  C4  UNL     1      13.645  16.738  42.983  1.00  0.00     0.129 C 
HETATM    6  N3  UNL     1      13.160  15.403  43.038  1.00  0.00    -0.418 N 
ATOM      7  H3  UNL     1      12.254  15.174  43.448  1.00  0.00     0.153 HD
HETATM    8  C5  UNL     1      14.013  14.402  42.489  1.00  0.00     0.135 C 
HETATM    9  C6  UNL     1      15.402  14.819  42.185  1.00  0.00     0.103 A 
ENDROOT
BRANCH   1  10
HETATM   10  C1  UNL     1      15.527  13.250  40.142  1.00  0.00     0.247 C 
BRANCH  10  11
HETATM   11  N1  UNL     1      16.467  12.246  39.663  1.00  0.00    -0.078 N 
ATOM     12  H13 UNL     1      17.175  12.039  40.368  1.00  0.00     0.274 HD
ATOM     13  H12 UNL     1      16.027  11.329  39.601  1.00  0.00     0.274 HD
ATOM     14  H11 UNL     1      16.896  12.510  38.776  1.00  0.00     0.274 HD
ENDBRANCH  10  11
ENDBRANCH   1  10
TORSDOF 2
ENDMDL
MODEL 3
REMARK VINA RESULT: -4.107932581      2.176      3.654
REMARK  2 active torsions:
REMARK  status: ('A' for Active; 'I' for Inactive)
REMARK    1  A    between atoms: N1_1  and  C1_5 
REMARK    2  A    between atoms: C1_5  and  C2_6 
ROOT
HETATM    1  C2  UNL     1      15.190  15.320  43.065  1.00  0.00     0.109 A 
HETATM    2  S1  UNL     1      14.621  17.028  42.680  1.00  0.00    -0.074 SA
HETATM    3  N2  UNL     1      13.849  16.576  44.144  1.00  0.00    -0.249 NA
HETATM    4  C3  UNL     1      12.444  16.724  44.267  1.00  0.00     0.122 C 
HETATM    5  C4  UNL     1      12.003  15.905  45.472  1.00  0.00     0.129 C 
HETATM    6  N3  UNL     1      12.153  14.529  45.150  1.00  0.00    -0.418 N 
ATOM      7  H3  UNL     1      11.476  13.828  45.450  1.00  0.00     0.153 HD
HETATM    8  C5  UNL     1      13.304  14.185  44.384  1.00  0.00     0.135 C 
HETATM    9  C6  UNL     1      14.343  15.235  44.253  1.00  0.00     0.103 A 
ENDROOT
BRANCH   1  10
HETATM   10  C1  UNL     1      14.958  14.464  41.871  1.00  0.00     0.247 C 
BRANCH  10  11
HETATM   11  N1  UNL     1      16.112  14.430  40.983  1.00  0.00    -0.078 N 
ATOM     12  H13 UNL     1      16.106  15.222  40.341  1.00  0.00     0.274 HD
ATOM     13  H12 UNL     1      16.972  14.637  41.489  1.00  0.00     0.274 HD
ATOM     14  H11 UNL     1      16.185  13.546  40.478  1.00  0.00     0.274 HD
ENDBRANCH  10  11
ENDBRANCH   1  10
TORSDOF 2
ENDMDL
MODEL 4
REMARK VINA RESULT: -4.080319645      3.710      4.714
REMARK  2 active torsions:
REMARK  status: ('A' for Active; 'I' for Inactive)
REMARK    1  A    between atoms: N1_1  and  C1_5 
REMARK    2  A    between atoms: C1_5  and  C2_6 
ROOT
HETATM    1  C2  UNL     1      13.367  11.646  41.219  1.00  0.00     0.109 A 
HETATM    2  S1  UNL     1      13.214  12.824  42.626  1.00  0.00    -0.074 SA
HETATM    3  N2  UNL     1      14.154  13.615  41.428  1.00  0.00    -0.249 NA
HETATM    4  C3  UNL     1      15.395  14.200  41.789  1.00  0.00     0.122 C 
HETATM    5  C4  UNL     1      16.163  14.468  40.502  1.00  0.00     0.129 C 
HETATM    6  N3  UNL     1      16.547  13.217  39.948  1.00  0.00    -0.418 N 
ATOM      7  H3  UNL     1      17.454  13.080  39.502  1.00  0.00     0.153 HD
HETATM    8  C5  UNL     1      15.593  12.164  40.052  1.00  0.00     0.135 C 
HETATM    9  C6  UNL     1      14.224  12.558  40.463  1.00  0.00     0.103 A 
ENDROOT
BRANCH   1  10
HETATM   10  C1  UNL     1      13.870  10.348  41.743  1.00  0.00     0.247 C 
BRANCH  10  11
HETATM   11  N1  UNL     1      13.189   9.944  42.965  1.00  0.00    -0.078 N 
ATOM     12  H13 UNL     1      12.318  10.460  43.089  1.00  0.00     0.274 HD
ATOM     13  H12 UNL     1      12.809   9.002  42.882  1.00  0.00     0.274 HD
ATOM     14  H11 UNL     1      13.788  10.029  43.787  1.00  0.00     0.274 HD
ENDBRANCH  10  11
ENDBRANCH   1  10
TORSDOF 2
ENDMDL
MODEL 5
REMARK VINA RESULT: -4.035017630      4.463      5.296
REMARK  2 active torsions:
REMARK  status: ('A' for Active; 'I' for Inactive)
REMARK    1  A    between atoms: N1_1  and  C1_5 
REMARK    2  A    between atoms: C1_5  and  C2_6 
ROOT
HETATM    1  C2  UNL     1      14.049  11.024  40.365  1.00  0.00     0.109 A 
HETATM    2  S1  UNL     1      13.198  11.647  41.874  1.00  0.00    -0.074 SA
HETATM    3  N2  UNL     1      13.959  13.003  41.148  1.00  0.00    -0.249 NA
HETATM    4  C3  UNL     1      14.789  13.842  41.935  1.00  0.00     0.122 C 
HETATM    5  C4  UNL     1      15.612  14.693  40.980  1.00  0.00     0.129 C 
HETATM    6  N3  UNL     1      16.545  13.845  40.324  1.00  0.00    -0.418 N 
ATOM      7  H3  UNL     1      17.499  14.145  40.123  1.00  0.00     0.153 HD
HETATM    8  C5  UNL     1      16.071  12.550  39.964  1.00  0.00     0.135 C 
HETATM    9  C6  UNL     1      14.607  12.339  40.056  1.00  0.00     0.103 A 
ENDROOT
BRANCH   1  10
HETATM   10  C1  UNL     1      14.910   9.874  40.749  1.00  0.00     0.247 C 
BRANCH  10  11
HETATM   11  N1  UNL     1      15.553   9.256  39.597  1.00  0.00    -0.078 N 
ATOM     12  H13 UNL     1      16.264   9.869  39.199  1.00  0.00     0.274 HD
ATOM     13  H12 UNL     1      16.149   8.479  39.881  1.00  0.00     0.274 HD
ATOM     14  H11 UNL     1      14.879   8.964  38.889  1.00  0.00     0.274 HD
ENDBRANCH  10  11
ENDBRANCH   1  10
TORSDOF 2
ENDMDL
