MODEL 1
REMARK VINA RESULT: -4.230536124      0.000      0.000
REMARK  2 active torsions:
REMARK  status: ('A' for Active; 'I' for Inactive)
REMARK    1  A    between atoms: S1_2  and  C2_3 
REMARK    2  A    between atoms: C4_7  and  N2_8 
ROOT
HETATM    1  C2  UNL     1      13.273  12.624  41.923  1.00  0.00     0.281 C 
HETATM    2  N1  UNL     1      13.158  11.553  42.858  1.00  0.00    -0.387 N 
ATOM      3  H1  UNL     1      12.878  11.714  43.825  1.00  0.00     0.156 HD
HETATM    4  C3  UNL     1      13.455  10.249  42.373  1.00  0.00     0.152 C 
HETATM    5  C4  UNL     1      13.705  10.112  40.920  1.00  0.00     0.224 C 
HETATM    6  C5  UNL     1      13.783  11.396  40.148  1.00  0.00     0.205 C 
HETATM    7  O1  UNL     1      14.290  12.367  40.996  1.00  0.00    -0.356 OA
ENDROOT
BRANCH   5   8
HETATM    8  N2  UNL     1      14.988   9.436  40.736  1.00  0.00    -0.071 N 
ATOM      9  H23 UNL     1      15.692   9.743  41.406  1.00  0.00     0.274 HD
ATOM     10  H22 UNL     1      14.956   8.454  41.008  1.00  0.00     0.274 HD
ATOM     11  H21 UNL     1      15.282   9.566  39.768  1.00  0.00     0.274 HD
ENDBRANCH   5   8
BRANCH   1  12
HETATM   12  S1  UNL     1      13.728  14.190  42.745  1.00  0.00    -0.121 SA
HETATM   13  C1  UNL     1      15.264  14.776  41.978  1.00  0.00     0.094 C 
ENDBRANCH   1  12
TORSDOF 2
ENDMDL
MODEL 2
REMARK VINA RESULT: -4.097221413      5.682      6.979
REMARK  2 active torsions:
REMARK  status: ('A' for Active; 'I' for Inactive)
REMARK    1  A    between atoms: S1_2  and  C2_3 
REMARK    2  A    between atoms: C4_7  and  N2_8 
ROOT
HETATM    1  C2  UNL     1      12.337  15.819  45.798  1.00  0.00     0.281 C 
HETATM    2  N1  UNL     1      12.478  15.811  47.217  1.00  0.00    -0.387 N 
ATOM      3  H1  UNL     1      13.393  15.857  47.665  1.00  0.00     0.156 HD
HETATM    4  C3  UNL     1      11.278  15.735  47.977  1.00  0.00     0.152 C 
HETATM    5  C4  UNL     1      10.001  15.825  47.230  1.00  0.00     0.224 C 
HETATM    6  C5  UNL     1      10.120  15.814  45.734  1.00  0.00     0.205 C 
HETATM    7  O1  UNL     1      11.231  15.056  45.405  1.00  0.00    -0.356 OA
ENDROOT
BRANCH   5   8
HETATM    8  N2  UNL     1       9.177  14.673  47.591  1.00  0.00    -0.071 N 
ATOM      9  H23 UNL     1       9.402  13.843  47.042  1.00  0.00     0.274 HD
ATOM     10  H22 UNL     1       9.408  14.297  48.511  1.00  0.00     0.274 HD
ATOM     11  H21 UNL     1       8.197  14.943  47.511  1.00  0.00     0.274 HD
ENDBRANCH   5   8
BRANCH   1  12
HETATM   12  S1  UNL     1      13.783  15.070  44.974  1.00  0.00    -0.121 SA
HETATM   13  C1  UNL     1      13.153  13.936  43.704  1.00  0.00     0.094 C 
ENDBRANCH   1  12
TORSDOF 2
ENDMDL
MODEL 3
REMARK VINA RESULT: -3.943188020      2.432      3.101
REMARK  2 active torsions:
REMARK  status: ('A' for Active; 'I' for Inactive)
REMARK    1  A    between atoms: S1_2  and  C2_3 
REMARK    2  A    between atoms: C4_7  and  N2_8 
ROOT
HETATM    1  C2  UNL     1      14.814  14.705  42.059  1.00  0.00     0.281 C 
HETATM    2  N1  UNL     1      14.117  13.478  41.853  1.00  0.00    -0.387 N 
ATOM      3  H1  UNL     1      13.324  13.209  42.434  1.00  0.00     0.156 HD
HETATM    4  C3  UNL     1      14.586  12.648  40.797  1.00  0.00     0.152 C 
HETATM    5  C4  UNL     1      15.646  13.203  39.924  1.00  0.00     0.224 C 
HETATM    6  C5  UNL     1      16.226  14.517  40.359  1.00  0.00     0.205 C 
HETATM    7  O1  UNL     1      16.170  14.565  41.742  1.00  0.00    -0.356 OA
ENDROOT
BRANCH   5   8
HETATM    8  N2  UNL     1      16.754  12.251  39.886  1.00  0.00    -0.071 N 
ATOM      9  H23 UNL     1      17.618  12.638  40.265  1.00  0.00     0.274 HD
ATOM     10  H22 UNL     1      16.640  11.488  40.553  1.00  0.00     0.274 HD
ATOM     11  H21 UNL     1      16.860  11.921  38.926  1.00  0.00     0.274 HD
ENDBRANCH   5   8
BRANCH   1  12
HETATM   12  S1  UNL     1      14.758  15.227  43.807  1.00  0.00    -0.121 SA
HETATM   13  C1  UNL     1      13.253  14.519  44.533  1.00  0.00     0.094 C 
ENDBRANCH   1  12
TORSDOF 2
ENDMDL
MODEL 4
REMARK VINA RESULT: -3.922784154      2.762      4.675
REMARK  2 active torsions:
REMARK  status: ('A' for Active; 'I' for Inactive)
REMARK    1  A    between atoms: S1_2  and  C2_3 
REMARK    2  A    between atoms: C4_7  and  N2_8 
ROOT
HETATM    1  C2  UNL     1      13.439  13.607  42.368  1.00  0.00     0.281 C 
HETATM    2  N1  UNL     1      14.624  14.397  42.311  1.00  0.00    -0.387 N 
ATOM      3  H1  UNL     1      15.224  14.404  41.487  1.00  0.00     0.156 HD
HETATM    4  C3  UNL     1      14.929  15.175  43.463  1.00  0.00     0.152 C 
HETATM    5  C4  UNL     1      13.914  15.206  44.541  1.00  0.00     0.224 C 
HETATM    6  C5  UNL     1      12.751  14.274  44.368  1.00  0.00     0.205 C 
HETATM    7  O1  UNL     1      13.200  13.163  43.674  1.00  0.00    -0.356 OA
ENDROOT
BRANCH   5   8
HETATM    8  N2  UNL     1      14.565  14.832  45.795  1.00  0.00    -0.071 N 
ATOM      9  H23 UNL     1      14.300  13.899  46.111  1.00  0.00     0.274 HD
ATOM     10  H22 UNL     1      15.564  14.662  45.683  1.00  0.00     0.274 HD
ATOM     11  H21 UNL     1      14.364  15.553  46.488  1.00  0.00     0.274 HD
ENDBRANCH   5   8
BRANCH   1  12
HETATM   12  S1  UNL     1      13.582  12.102  41.345  1.00  0.00    -0.121 SA
HETATM   13  C1  UNL     1      13.304  10.679  42.437  1.00  0.00     0.094 C 
ENDBRANCH   1  12
TORSDOF 2
ENDMDL
MODEL 5
REMARK VINA RESULT: -3.915852678      3.540      4.561
REMARK  2 active torsions:
REMARK  status: ('A' for Active; 'I' for Inactive)
REMARK    1  A    between atoms: S1_2  and  C2_3 
REMARK    2  A    between atoms: C4_7  and  N2_8 
ROOT
HETATM    1  C2  UNL     1      14.984  15.196  42.671  1.00  0.00     0.281 C 
HETATM    2  N1  UNL     1      14.081  14.174  42.253  1.00  0.00    -0.387 N 
ATOM      3  H1  UNL     1      14.072  13.827  41.295  1.00  0.00     0.156 HD
HETATM    4  C3  UNL     1      13.192  13.665  43.240  1.00  0.00     0.152 C 
HETATM    5  C4  UNL     1      13.392  14.132  44.631  1.00  0.00     0.224 C 
HETATM    6  C5  UNL     1      14.405  15.224  44.812  1.00  0.00     0.205 C 
HETATM    7  O1  UNL     1      14.403  15.996  43.662  1.00  0.00    -0.356 OA
ENDROOT
BRANCH   5   8
HETATM    8  N2  UNL     1      12.121  14.657  45.126  1.00  0.00    -0.071 N 
ATOM      9  H23 UNL     1      11.859  15.535  44.680  1.00  0.00     0.274 HD
ATOM     10  H22 UNL     1      11.322  14.102  44.822  1.00  0.00     0.274 HD
ATOM     11  H21 UNL     1      12.181  14.735  46.142  1.00  0.00     0.274 HD
ENDBRANCH   5   8
BRANCH   1  12
HETATM   12  S1  UNL     1      15.408  16.323  41.300  1.00  0.00    -0.121 SA
HETATM   13  C1  UNL     1      16.535  15.428  40.194  1.00  0.00     0.094 C 
ENDBRANCH   1  12
TORSDOF 2
ENDMDL
