MODEL 1
REMARK VINA RESULT: -6.088846108      0.000      0.000
REMARK  3 active torsions:
REMARK  status: ('A' for Active; 'I' for Inactive)
REMARK    1  A    between atoms: C6_8  and  C8_10 
REMARK    2  A    between atoms: C8_10  and  N2_11 
REMARK    3  A    between atoms: N2_11  and  N3_12 
ROOT
HETATM    1  C1  UNL     1      13.468  13.758  43.516  1.00  0.00     0.010 C 
HETATM    2  C2  UNL     1      13.499  12.877  42.261  1.00  0.00    -0.016 C 
HETATM    3  C3  UNL     1      14.734  13.300  41.540  1.00  0.00     0.009 C 
HETATM    4  C4  UNL     1      14.921  12.684  40.194  1.00  0.00     0.044 C 
HETATM    5  C5  UNL     1      13.749  11.786  39.842  1.00  0.00     0.056 C 
HETATM    6  N1  UNL     1      13.924  10.551  40.475  1.00  0.00    -0.392 N 
ATOM      7  H1  UNL     1      14.193   9.746  39.909  1.00  0.00     0.159 HD
HETATM    8  C6  UNL     1      13.747  10.375  41.841  1.00  0.00     0.041 C 
HETATM    9  C7  UNL     1      12.644   9.320  41.986  1.00  0.00     0.039 C 
HETATM   10  C9  UNL     1      13.476  11.477  42.756  1.00  0.00     0.036 C 
ENDROOT
BRANCH   8  11
HETATM   11  C8  UNL     1      14.997   9.638  42.334  1.00  0.00     0.164 C 
BRANCH  11  12
HETATM   12  N2  UNL     1      14.625   8.541  43.224  1.00  0.00    -0.146 NA
BRANCH  12  13
HETATM   13  N3  UNL     1      15.770   8.025  43.818  1.00  0.00    -0.348 N 
ATOM     14  H32 UNL     1      16.702   8.058  43.405  1.00  0.00     0.172 HD
ATOM     15  H31 UNL     1      15.526   7.615  44.719  1.00  0.00     0.172 HD
ENDBRANCH  12  13
ENDBRANCH  11  12
ENDBRANCH   8  11
TORSDOF 3
ENDMDL
MODEL 2
REMARK VINA RESULT: -5.360037375      4.937      6.577
REMARK  3 active torsions:
REMARK  status: ('A' for Active; 'I' for Inactive)
REMARK    1  A    between atoms: C6_8  and  C8_10 
REMARK    2  A    between atoms: C8_10  and  N2_11 
REMARK    3  A    between atoms: N2_11  and  N3_12 
ROOT
HETATM    1  C1  UNL     1      13.280  13.601  43.091  1.00  0.00     0.010 C 
HETATM    2  C2  UNL     1      13.945  14.865  43.651  1.00  0.00    -0.016 C 
HETATM    3  C3  UNL     1      13.181  15.989  43.035  1.00  0.00     0.009 C 
HETATM    4  C4  UNL     1      13.730  17.348  43.311  1.00  0.00     0.044 C 
HETATM    5  C5  UNL     1      15.003  17.263  44.133  1.00  0.00     0.056 C 
HETATM    6  N1  UNL     1      14.658  17.086  45.477  1.00  0.00    -0.392 N 
ATOM      7  H1  UNL     1      14.774  17.871  46.118  1.00  0.00     0.159 HD
HETATM    8  C6  UNL     1      14.165  15.888  45.975  1.00  0.00     0.041 C 
HETATM    9  C7  UNL     1      15.151  15.451  47.064  1.00  0.00     0.039 C 
HETATM   10  C9  UNL     1      13.854  14.743  45.128  1.00  0.00     0.036 C 
ENDROOT
BRANCH   8  11
HETATM   11  C8  UNL     1      12.907  16.251  46.772  1.00  0.00     0.164 C 
BRANCH  11  12
HETATM   12  N2  UNL     1      12.066  15.072  46.961  1.00  0.00    -0.146 NA
BRANCH  12  13
HETATM   13  N3  UNL     1      11.696  14.984  48.298  1.00  0.00    -0.348 N 
ATOM     14  H32 UNL     1      10.958  14.378  48.656  1.00  0.00     0.172 HD
ATOM     15  H31 UNL     1      12.277  15.615  48.849  1.00  0.00     0.172 HD
ENDBRANCH  12  13
ENDBRANCH  11  12
ENDBRANCH   8  11
TORSDOF 3
ENDMDL
MODEL 3
REMARK VINA RESULT: -5.115342734      5.291      6.833
REMARK  3 active torsions:
REMARK  status: ('A' for Active; 'I' for Inactive)
REMARK    1  A    between atoms: C6_8  and  C8_10 
REMARK    2  A    between atoms: C8_10  and  N2_11 
REMARK    3  A    between atoms: N2_11  and  N3_12 
ROOT
HETATM    1  C1  UNL     1      13.706  18.491  43.720  1.00  0.00     0.010 C 
HETATM    2  C2  UNL     1      13.377  17.042  44.099  1.00  0.00    -0.016 C 
HETATM    3  C3  UNL     1      14.574  16.577  44.857  1.00  0.00     0.009 C 
HETATM    4  C4  UNL     1      14.566  15.129  45.221  1.00  0.00     0.044 C 
HETATM    5  C5  UNL     1      13.331  14.439  44.671  1.00  0.00     0.056 C 
HETATM    6  N1  UNL     1      12.254  14.700  45.525  1.00  0.00    -0.392 N 
ATOM      7  H1  UNL     1      11.915  13.950  46.126  1.00  0.00     0.159 HD
HETATM    8  C6  UNL     1      11.628  15.938  45.588  1.00  0.00     0.041 C 
HETATM    9  C7  UNL     1      10.161  15.683  45.224  1.00  0.00     0.039 C 
HETATM   10  C9  UNL     1      12.103  17.108  44.860  1.00  0.00     0.036 C 
ENDROOT
BRANCH   8  11
HETATM   11  C8  UNL     1      11.557  16.296  47.077  1.00  0.00     0.164 C 
BRANCH  11  12
HETATM   12  N2  UNL     1      11.910  15.138  47.896  1.00  0.00    -0.146 NA
BRANCH  12  13
HETATM   13  N3  UNL     1      10.775  14.686  48.561  1.00  0.00    -0.348 N 
ATOM     14  H32 UNL     1       9.889  15.188  48.601  1.00  0.00     0.172 HD
ATOM     15  H31 UNL     1      10.977  13.784  48.992  1.00  0.00     0.172 HD
ENDBRANCH  12  13
ENDBRANCH  11  12
ENDBRANCH   8  11
TORSDOF 3
ENDMDL
MODEL 4
REMARK VINA RESULT: -5.110433053      4.730      6.607
REMARK  3 active torsions:
REMARK  status: ('A' for Active; 'I' for Inactive)
REMARK    1  A    between atoms: C6_8  and  C8_10 
REMARK    2  A    between atoms: C8_10  and  N2_11 
REMARK    3  A    between atoms: N2_11  and  N3_12 
ROOT
HETATM    1  C1  UNL     1      15.817  15.770  46.889  1.00  0.00     0.010 C 
HETATM    2  C2  UNL     1      14.859  15.305  45.786  1.00  0.00    -0.016 C 
HETATM    3  C3  UNL     1      13.546  15.909  46.156  1.00  0.00     0.009 C 
HETATM    4  C4  UNL     1      12.396  15.485  45.306  1.00  0.00     0.044 C 
HETATM    5  C5  UNL     1      12.835  14.467  44.268  1.00  0.00     0.056 C 
HETATM    6  N1  UNL     1      13.426  15.145  43.198  1.00  0.00    -0.392 N 
ATOM      7  H1  UNL     1      12.910  15.220  42.321  1.00  0.00     0.159 HD
HETATM    8  C6  UNL     1      14.687  15.721  43.277  1.00  0.00     0.041 C 
HETATM    9  C7  UNL     1      15.526  15.042  42.189  1.00  0.00     0.039 C 
HETATM   10  C9  UNL     1      15.461  15.773  44.512  1.00  0.00     0.036 C 
ENDROOT
BRANCH   8  11
HETATM   11  C8  UNL     1      14.528  17.152  42.750  1.00  0.00     0.164 C 
BRANCH  11  12
HETATM   12  N2  UNL     1      15.676  17.521  41.925  1.00  0.00    -0.146 NA
BRANCH  12  13
HETATM   13  N3  UNL     1      15.298  18.521  41.036  1.00  0.00    -0.348 N 
ATOM     14  H32 UNL     1      15.902  19.285  40.732  1.00  0.00     0.172 HD
ATOM     15  H31 UNL     1      14.333  18.364  40.745  1.00  0.00     0.172 HD
ENDBRANCH  12  13
ENDBRANCH  11  12
ENDBRANCH   8  11
TORSDOF 3
ENDMDL
MODEL 5
REMARK VINA RESULT: -5.053140560      4.734      6.243
REMARK  3 active torsions:
REMARK  status: ('A' for Active; 'I' for Inactive)
REMARK    1  A    between atoms: C6_8  and  C8_10 
REMARK    2  A    between atoms: C8_10  and  N2_11 
REMARK    3  A    between atoms: N2_11  and  N3_12 
ROOT
HETATM    1  C1  UNL     1      15.645  14.695  41.554  1.00  0.00     0.010 C 
HETATM    2  C2  UNL     1      14.649  15.279  42.563  1.00  0.00    -0.016 C 
HETATM    3  C3  UNL     1      13.828  14.109  42.992  1.00  0.00     0.009 C 
HETATM    4  C4  UNL     1      12.676  14.440  43.881  1.00  0.00     0.044 C 
HETATM    5  C5  UNL     1      12.575  15.939  44.102  1.00  0.00     0.056 C 
HETATM    6  N1  UNL     1      13.494  16.309  45.089  1.00  0.00    -0.392 N 
ATOM      7  H1  UNL     1      13.143  16.553  46.015  1.00  0.00     0.159 HD
HETATM    8  C6  UNL     1      14.863  16.357  44.863  1.00  0.00     0.041 C 
HETATM    9  C7  UNL     1      15.282  17.804  45.147  1.00  0.00     0.039 C 
HETATM   10  C9  UNL     1      15.478  15.919  43.616  1.00  0.00     0.036 C 
ENDROOT
BRANCH   8  11
HETATM   11  C8  UNL     1      15.506  15.578  46.016  1.00  0.00     0.164 C 
BRANCH  11  12
HETATM   12  N2  UNL     1      14.480  15.087  46.933  1.00  0.00    -0.146 NA
BRANCH  12  13
HETATM   13  N3  UNL     1      15.006  15.030  48.219  1.00  0.00    -0.348 N 
ATOM     14  H32 UNL     1      15.868  15.488  48.513  1.00  0.00     0.172 HD
ATOM     15  H31 UNL     1      14.396  14.463  48.806  1.00  0.00     0.172 HD
ENDBRANCH  12  13
ENDBRANCH  11  12
ENDBRANCH   8  11
TORSDOF 3
ENDMDL
