MODEL 1
REMARK VINA RESULT: -6.248559726      0.000      0.000
REMARK  3 active torsions:
REMARK  status: ('A' for Active; 'I' for Inactive)
REMARK       I    between atoms: C1_4  and  N3_6 
REMARK    1  A    between atoms: N3_6  and  C2_8 
REMARK    2  A    between atoms: C7_13  and  C8_14 
REMARK    3  A    between atoms: C8_14  and  N4_15 
ROOT
HETATM    1  C2  UNL     1      14.067  12.199  41.711  1.00  0.00     0.089 C 
HETATM    2  C3  UNL     1      14.619  12.397  40.306  1.00  0.00     0.026 C 
HETATM    3  C4  UNL     1      15.829  13.280  40.314  1.00  0.00     0.002 C 
HETATM    4  C5  UNL     1      15.696  14.513  41.129  1.00  0.00     0.001 C 
HETATM    5  C6  UNL     1      14.945  14.358  42.405  1.00  0.00     0.008 C 
HETATM    6  C7  UNL     1      13.693  13.538  42.293  1.00  0.00     0.034 C 
ENDROOT
BRANCH   1   7
HETATM    7  N3  UNL     1      12.994  11.272  41.631  1.00  0.00    -0.360 N 
HETATM    8  C1  UNL     1      13.085   9.871  41.703  1.00  0.00     0.182 C 
HETATM    9  N1  UNL     1      12.415   9.256  42.606  1.00  0.00    -0.374 N 
HETATM   10  N2  UNL     1      13.876   9.068  40.836  1.00  0.00    -0.064 NA
ATOM     11  H12 UNL     1      12.480   8.240  42.658  1.00  0.00     0.158 HD
ATOM     12  H11 UNL     1      11.847   9.833  43.228  1.00  0.00     0.158 HD
ATOM     13  H3  UNL     1      12.060  11.664  41.509  1.00  0.00     0.162 HD
ENDBRANCH   1   7
BRANCH   6  14
HETATM   14  C8  UNL     1      13.193  13.297  43.715  1.00  0.00     0.236 C 
BRANCH  14  15
HETATM   15  N4  UNL     1      13.250  14.560  44.433  1.00  0.00    -0.079 N 
ATOM     16  H43 UNL     1      14.076  14.639  45.027  1.00  0.00     0.274 HD
ATOM     17  H42 UNL     1      13.446  15.353  43.821  1.00  0.00     0.274 HD
ATOM     18  H41 UNL     1      12.379  14.669  44.953  1.00  0.00     0.274 HD
ENDBRANCH  14  15
ENDBRANCH   6  14
TORSDOF 3
ENDMDL
MODEL 2
REMARK VINA RESULT: -6.094182620      3.033      4.831
REMARK  3 active torsions:
REMARK  status: ('A' for Active; 'I' for Inactive)
REMARK       I    between atoms: C1_4  and  N3_6 
REMARK    1  A    between atoms: N3_6  and  C2_8 
REMARK    2  A    between atoms: C7_13  and  C8_14 
REMARK    3  A    between atoms: C8_14  and  N4_15 
ROOT
HETATM    1  C2  UNL     1      14.584  14.816  42.249  1.00  0.00     0.089 C 
HETATM    2  C3  UNL     1      15.698  14.194  41.417  1.00  0.00     0.026 C 
HETATM    3  C4  UNL     1      15.173  13.117  40.519  1.00  0.00     0.002 C 
HETATM    4  C5  UNL     1      14.248  12.157  41.170  1.00  0.00     0.001 C 
HETATM    5  C6  UNL     1      13.310  12.747  42.163  1.00  0.00     0.008 C 
HETATM    6  C7  UNL     1      13.934  13.748  43.090  1.00  0.00     0.034 C 
ENDROOT
BRANCH   1   7
HETATM    7  N3  UNL     1      15.141  15.891  42.989  1.00  0.00    -0.360 N 
HETATM    8  C1  UNL     1      15.217  17.237  42.592  1.00  0.00     0.182 C 
HETATM    9  N1  UNL     1      14.683  18.131  43.339  1.00  0.00    -0.374 N 
HETATM   10  N2  UNL     1      15.853  17.694  41.405  1.00  0.00    -0.064 NA
ATOM     11  H12 UNL     1      14.738  19.108  43.051  1.00  0.00     0.158 HD
ATOM     12  H11 UNL     1      14.227  17.803  44.191  1.00  0.00     0.158 HD
ATOM     13  H3  UNL     1      15.527  15.663  43.906  1.00  0.00     0.162 HD
ENDBRANCH   1   7
BRANCH   6  14
HETATM   14  C8  UNL     1      12.796  14.404  43.867  1.00  0.00     0.236 C 
BRANCH  14  15
HETATM   15  N4  UNL     1      12.987  14.113  45.278  1.00  0.00    -0.079 N 
ATOM     16  H43 UNL     1      12.349  13.395  45.622  1.00  0.00     0.274 HD
ATOM     17  H42 UNL     1      13.861  13.622  45.465  1.00  0.00     0.274 HD
ATOM     18  H41 UNL     1      12.909  14.990  45.795  1.00  0.00     0.274 HD
ENDBRANCH  14  15
ENDBRANCH   6  14
TORSDOF 3
ENDMDL
MODEL 3
REMARK VINA RESULT: -5.899073745      2.120      4.471
REMARK  3 active torsions:
REMARK  status: ('A' for Active; 'I' for Inactive)
REMARK       I    between atoms: C1_4  and  N3_6 
REMARK    1  A    between atoms: N3_6  and  C2_8 
REMARK    2  A    between atoms: C7_13  and  C8_14 
REMARK    3  A    between atoms: C8_14  and  N4_15 
ROOT
HETATM    1  C2  UNL     1      13.885  12.190  42.034  1.00  0.00     0.089 C 
HETATM    2  C3  UNL     1      12.791  11.172  42.327  1.00  0.00     0.026 C 
HETATM    3  C4  UNL     1      13.275   9.771  42.109  1.00  0.00     0.002 C 
HETATM    4  C5  UNL     1      14.024   9.560  40.846  1.00  0.00     0.001 C 
HETATM    5  C6  UNL     1      14.926  10.673  40.443  1.00  0.00     0.008 C 
HETATM    6  C7  UNL     1      14.332  12.042  40.602  1.00  0.00     0.034 C 
ENDROOT
BRANCH   1   7
HETATM    7  N3  UNL     1      13.383  13.476  42.364  1.00  0.00    -0.360 N 
HETATM    8  C1  UNL     1      13.572  14.169  43.573  1.00  0.00     0.182 C 
HETATM    9  N1  UNL     1      14.108  15.332  43.539  1.00  0.00    -0.374 N 
HETATM   10  N2  UNL     1      13.206  13.671  44.854  1.00  0.00    -0.064 NA
ATOM     11  H12 UNL     1      14.245  15.834  44.416  1.00  0.00     0.158 HD
ATOM     12  H11 UNL     1      14.370  15.689  42.620  1.00  0.00     0.158 HD
ATOM     13  H3  UNL     1      12.828  13.948  41.649  1.00  0.00     0.162 HD
ENDBRANCH   1   7
BRANCH   6  14
HETATM   14  C8  UNL     1      15.460  13.044  40.368  1.00  0.00     0.236 C 
BRANCH  14  15
HETATM   15  N4  UNL     1      16.673  12.298  40.078  1.00  0.00    -0.079 N 
ATOM     16  H43 UNL     1      17.363  12.850  39.568  1.00  0.00     0.274 HD
ATOM     17  H42 UNL     1      17.232  12.115  40.911  1.00  0.00     0.274 HD
ATOM     18  H41 UNL     1      16.409  11.444  39.586  1.00  0.00     0.274 HD
ENDBRANCH  14  15
ENDBRANCH   6  14
TORSDOF 3
ENDMDL
MODEL 4
REMARK VINA RESULT: -5.692416866      2.534      4.289
REMARK  3 active torsions:
REMARK  status: ('A' for Active; 'I' for Inactive)
REMARK       I    between atoms: C1_4  and  N3_6 
REMARK    1  A    between atoms: N3_6  and  C2_8 
REMARK    2  A    between atoms: C7_13  and  C8_14 
REMARK    3  A    between atoms: C8_14  and  N4_15 
ROOT
HETATM    1  C2  UNL     1      14.021  13.066  42.148  1.00  0.00     0.089 C 
HETATM    2  C3  UNL     1      12.870  12.123  41.827  1.00  0.00     0.026 C 
HETATM    3  C4  UNL     1      13.368  10.807  41.313  1.00  0.00     0.002 C 
HETATM    4  C5  UNL     1      14.427  10.902  40.278  1.00  0.00     0.001 C 
HETATM    5  C6  UNL     1      15.424  11.988  40.480  1.00  0.00     0.008 C 
HETATM    6  C7  UNL     1      14.835  13.302  40.903  1.00  0.00     0.034 C 
ENDROOT
BRANCH   1   7
HETATM    7  N3  UNL     1      13.473  14.242  42.725  1.00  0.00    -0.360 N 
HETATM    8  C1  UNL     1      13.561  14.640  44.070  1.00  0.00     0.182 C 
HETATM    9  N1  UNL     1      14.077  15.782  44.342  1.00  0.00    -0.374 N 
HETATM   10  N2  UNL     1      13.114  13.862  45.173  1.00  0.00    -0.064 NA
ATOM     11  H12 UNL     1      14.140  16.070  45.318  1.00  0.00     0.158 HD
ATOM     12  H11 UNL     1      14.397  16.340  43.550  1.00  0.00     0.158 HD
ATOM     13  H3  UNL     1      12.962  14.863  42.097  1.00  0.00     0.162 HD
ENDBRANCH   1   7
BRANCH   6  14
HETATM   14  C8  UNL     1      16.003  14.209  41.282  1.00  0.00     0.236 C 
BRANCH  14  15
HETATM   15  N4  UNL     1      16.388  14.965  40.101  1.00  0.00    -0.079 N 
ATOM     16  H43 UNL     1      17.141  15.628  40.286  1.00  0.00     0.274 HD
ATOM     17  H42 UNL     1      16.874  14.394  39.409  1.00  0.00     0.274 HD
ATOM     18  H41 UNL     1      15.552  15.413  39.725  1.00  0.00     0.274 HD
ENDBRANCH  14  15
ENDBRANCH   6  14
TORSDOF 3
ENDMDL
MODEL 5
REMARK VINA RESULT: -5.589830193      1.345      4.218
REMARK  3 active torsions:
REMARK  status: ('A' for Active; 'I' for Inactive)
REMARK       I    between atoms: C1_4  and  N3_6 
REMARK    1  A    between atoms: N3_6  and  C2_8 
REMARK    2  A    between atoms: C7_13  and  C8_14 
REMARK    3  A    between atoms: C8_14  and  N4_15 
ROOT
HETATM    1  C2  UNL     1      14.149  14.343  42.428  1.00  0.00     0.089 C 
HETATM    2  C3  UNL     1      15.505  15.006  42.226  1.00  0.00     0.026 C 
HETATM    3  C4  UNL     1      16.002  14.819  40.825  1.00  0.00     0.002 C 
HETATM    4  C5  UNL     1      15.880  13.437  40.299  1.00  0.00     0.001 C 
HETATM    5  C6  UNL     1      14.646  12.707  40.698  1.00  0.00     0.008 C 
HETATM    6  C7  UNL     1      14.268  12.868  42.141  1.00  0.00     0.034 C 
ENDROOT
BRANCH   1   7
HETATM    7  N3  UNL     1      13.702  14.654  43.739  1.00  0.00    -0.360 N 
HETATM    8  C1  UNL     1      12.614  15.473  44.085  1.00  0.00     0.182 C 
HETATM    9  N1  UNL     1      11.679  14.981  44.811  1.00  0.00    -0.374 N 
HETATM   10  N2  UNL     1      12.466  16.830  43.687  1.00  0.00    -0.064 NA
ATOM     11  H12 UNL     1      10.890  15.576  45.063  1.00  0.00     0.158 HD
ATOM     12  H11 UNL     1      11.785  14.008  45.097  1.00  0.00     0.158 HD
ATOM     13  H3  UNL     1      14.226  14.239  44.510  1.00  0.00     0.162 HD
ENDBRANCH   1   7
BRANCH   6  14
HETATM   14  C8  UNL     1      12.879  12.254  42.307  1.00  0.00     0.236 C 
BRANCH  14  15
HETATM   15  N4  UNL     1      12.904  10.921  41.728  1.00  0.00    -0.079 N 
ATOM     16  H43 UNL     1      13.833  10.500  41.748  1.00  0.00     0.274 HD
ATOM     17  H42 UNL     1      12.429  10.230  42.309  1.00  0.00     0.274 HD
ATOM     18  H41 UNL     1      12.517  10.978  40.786  1.00  0.00     0.274 HD
ENDBRANCH  14  15
ENDBRANCH   6  14
TORSDOF 3
ENDMDL
