MODEL 1
REMARK VINA RESULT: -4.536613930      0.000      0.000
REMARK  5 active torsions:
REMARK  status: ('A' for Active; 'I' for Inactive)
REMARK    1  A    between atoms: C4_5  and  C5_6 
REMARK    2  A    between atoms: C6_7  and  C7_8 
REMARK    3  A    between atoms: C7_8  and  N2_9 
REMARK    4  A    between atoms: C7_8  and  C8_13 
REMARK    5  A    between atoms: C8_13  and  N3_14 
ROOT
HETATM    1  C5  UNL     1      56.756  27.309  45.528  1.00  0.00    -0.047 C 
HETATM    2  C6  UNL     1      56.323  27.570  46.630  1.00  0.00    -0.065 C 
ENDROOT
BRANCH   2   3
HETATM    3  C7  UNL     1      55.796  27.871  47.973  1.00  0.00     0.287 C 
BRANCH   3   4
HETATM    4  N2  UNL     1      55.882  29.303  48.254  1.00  0.00    -0.063 N 
ATOM      5  H23 UNL     1      56.737  29.539  48.758  1.00  0.00     0.275 HD
ATOM      6  H22 UNL     1      56.050  29.845  47.406  1.00  0.00     0.275 HD
ATOM      7  H21 UNL     1      55.051  29.625  48.750  1.00  0.00     0.275 HD
ENDBRANCH   3   4
BRANCH   3   8
HETATM    8  C8  UNL     1      54.307  27.554  47.913  1.00  0.00     0.275 C 
BRANCH   8   9
HETATM    9  N3  UNL     1      54.144  26.115  47.886  1.00  0.00    -0.076 N 
ATOM     10  H33 UNL     1      53.305  25.826  47.383  1.00  0.00     0.274 HD
ATOM     11  H32 UNL     1      54.831  25.654  47.289  1.00  0.00     0.274 HD
ATOM     12  H31 UNL     1      54.164  25.768  48.845  1.00  0.00     0.274 HD
ENDBRANCH   8   9
ENDBRANCH   3   8
ENDBRANCH   2   3
BRANCH   1  13
HETATM   13  C4  UNL     1      57.254  26.991  44.215  1.00  0.00     0.088 A 
HETATM   14  C3  UNL     1      56.422  26.571  43.194  1.00  0.00     0.056 A 
HETATM   15  C2  UNL     1      56.882  26.264  41.935  1.00  0.00     0.094 A 
HETATM   16  N1  UNL     1      58.193  26.377  41.685  1.00  0.00    -0.357 N 
HETATM   17  C1  UNL     1      58.681  26.052  40.352  1.00  0.00     0.156 C 
HETATM   18  C9  UNL     1      59.005  26.784  42.670  1.00  0.00     0.183 A 
HETATM   19  N4  UNL     1      58.568  27.090  43.914  1.00  0.00    -0.345 N 
ATOM     20  H4  UNL     1      59.231  27.396  44.626  1.00  0.00     0.167 HD
ENDBRANCH   1  13
TORSDOF 5
ENDMDL
MODEL 2
REMARK VINA RESULT: -4.117017219      0.855      1.674
REMARK  5 active torsions:
REMARK  status: ('A' for Active; 'I' for Inactive)
REMARK    1  A    between atoms: C4_5  and  C5_6 
REMARK    2  A    between atoms: C6_7  and  C7_8 
REMARK    3  A    between atoms: C7_8  and  N2_9 
REMARK    4  A    between atoms: C7_8  and  C8_13 
REMARK    5  A    between atoms: C8_13  and  N3_14 
ROOT
HETATM    1  C5  UNL     1      56.534  27.665  45.412  1.00  0.00    -0.047 C 
HETATM    2  C6  UNL     1      56.066  28.053  46.461  1.00  0.00    -0.065 C 
ENDROOT
BRANCH   2   3
HETATM    3  C7  UNL     1      55.480  28.523  47.729  1.00  0.00     0.287 C 
BRANCH   3   4
HETATM    4  N2  UNL     1      54.557  27.527  48.273  1.00  0.00    -0.063 N 
ATOM      5  H23 UNL     1      53.993  27.095  47.541  1.00  0.00     0.275 HD
ATOM      6  H22 UNL     1      55.048  26.695  48.599  1.00  0.00     0.275 HD
ATOM      7  H21 UNL     1      53.977  27.935  49.005  1.00  0.00     0.275 HD
ENDBRANCH   3   4
BRANCH   3   8
HETATM    8  C8  UNL     1      56.637  28.593  48.718  1.00  0.00     0.275 C 
BRANCH   8   9
HETATM    9  N3  UNL     1      57.744  29.278  48.083  1.00  0.00    -0.076 N 
ATOM     10  H33 UNL     1      57.861  29.011  47.106  1.00  0.00     0.274 HD
ATOM     11  H32 UNL     1      57.558  30.270  47.935  1.00  0.00     0.274 HD
ATOM     12  H31 UNL     1      58.585  29.116  48.636  1.00  0.00     0.274 HD
ENDBRANCH   8   9
ENDBRANCH   3   8
ENDBRANCH   2   3
BRANCH   1  13
HETATM   13  C4  UNL     1      57.084  27.219  44.159  1.00  0.00     0.088 A 
HETATM   14  C3  UNL     1      56.287  26.746  43.132  1.00  0.00     0.056 A 
HETATM   15  C2  UNL     1      56.797  26.317  41.929  1.00  0.00     0.094 A 
HETATM   16  N1  UNL     1      58.122  26.357  41.742  1.00  0.00    -0.357 N 
HETATM   17  C1  UNL     1      58.664  25.903  40.469  1.00  0.00     0.156 C 
HETATM   18  C9  UNL     1      58.900  26.814  42.733  1.00  0.00     0.183 A 
HETATM   19  N4  UNL     1      58.414  27.241  43.922  1.00  0.00    -0.345 N 
ATOM     20  H4  UNL     1      59.053  27.579  44.641  1.00  0.00     0.167 HD
ENDBRANCH   1  13
TORSDOF 5
ENDMDL
MODEL 3
REMARK VINA RESULT: -4.065589957      0.754      1.284
REMARK  5 active torsions:
REMARK  status: ('A' for Active; 'I' for Inactive)
REMARK    1  A    between atoms: C4_5  and  C5_6 
REMARK    2  A    between atoms: C6_7  and  C7_8 
REMARK    3  A    between atoms: C7_8  and  N2_9 
REMARK    4  A    between atoms: C7_8  and  C8_13 
REMARK    5  A    between atoms: C8_13  and  N3_14 
ROOT
HETATM    1  C5  UNL     1      56.701  27.302  45.531  1.00  0.00    -0.047 C 
HETATM    2  C6  UNL     1      56.281  27.560  46.639  1.00  0.00    -0.065 C 
ENDROOT
BRANCH   2   3
HETATM    3  C7  UNL     1      55.778  27.858  47.992  1.00  0.00     0.287 C 
BRANCH   3   4
HETATM    4  N2  UNL     1      55.888  29.286  48.281  1.00  0.00    -0.063 N 
ATOM      5  H23 UNL     1      56.321  29.796  47.510  1.00  0.00     0.275 HD
ATOM      6  H22 UNL     1      54.978  29.745  48.276  1.00  0.00     0.275 HD
ATOM      7  H21 UNL     1      56.384  29.439  49.160  1.00  0.00     0.275 HD
ENDBRANCH   3   4
BRANCH   3   8
HETATM    8  C8  UNL     1      54.284  27.561  47.951  1.00  0.00     0.275 C 
BRANCH   8   9
HETATM    9  N3  UNL     1      54.101  26.127  47.872  1.00  0.00    -0.076 N 
ATOM     10  H33 UNL     1      54.575  25.716  47.067  1.00  0.00     0.274 HD
ATOM     11  H32 UNL     1      54.607  25.627  48.603  1.00  0.00     0.274 HD
ATOM     12  H31 UNL     1      53.101  25.927  47.881  1.00  0.00     0.274 HD
ENDBRANCH   8   9
ENDBRANCH   3   8
ENDBRANCH   2   3
BRANCH   1  13
HETATM   13  C4  UNL     1      57.188  26.982  44.215  1.00  0.00     0.088 A 
HETATM   14  C3  UNL     1      58.514  27.149  43.860  1.00  0.00     0.056 A 
HETATM   15  C2  UNL     1      58.995  26.849  42.607  1.00  0.00     0.094 A 
HETATM   16  N1  UNL     1      58.143  26.373  41.690  1.00  0.00    -0.357 N 
HETATM   17  C1  UNL     1      58.651  26.054  40.362  1.00  0.00     0.156 C 
HETATM   18  C9  UNL     1      56.857  26.209  42.027  1.00  0.00     0.183 A 
HETATM   19  N4  UNL     1      56.368  26.499  43.255  1.00  0.00    -0.345 N 
ATOM     20  H4  UNL     1      55.379  26.354  43.457  1.00  0.00     0.167 HD
ENDBRANCH   1  13
TORSDOF 5
ENDMDL
MODEL 4
REMARK VINA RESULT: -3.950164678      1.061      1.109
REMARK  5 active torsions:
REMARK  status: ('A' for Active; 'I' for Inactive)
REMARK    1  A    between atoms: C4_5  and  C5_6 
REMARK    2  A    between atoms: C6_7  and  C7_8 
REMARK    3  A    between atoms: C7_8  and  N2_9 
REMARK    4  A    between atoms: C7_8  and  C8_13 
REMARK    5  A    between atoms: C8_13  and  N3_14 
ROOT
HETATM    1  C5  UNL     1      57.542  27.551  45.599  1.00  0.00    -0.047 C 
HETATM    2  C6  UNL     1      57.325  27.903  46.739  1.00  0.00    -0.065 C 
ENDROOT
BRANCH   2   3
HETATM    3  C7  UNL     1      57.045  28.323  48.123  1.00  0.00     0.287 C 
BRANCH   3   4
HETATM    4  N2  UNL     1      57.941  29.406  48.526  1.00  0.00    -0.063 N 
ATOM      5  H23 UNL     1      57.479  30.315  48.484  1.00  0.00     0.275 HD
ATOM      6  H22 UNL     1      58.139  29.381  49.526  1.00  0.00     0.275 HD
ATOM      7  H21 UNL     1      58.797  29.392  47.971  1.00  0.00     0.275 HD
ENDBRANCH   3   4
BRANCH   3   8
HETATM    8  C8  UNL     1      55.650  28.933  48.097  1.00  0.00     0.275 C 
BRANCH   8   9
HETATM    9  N3  UNL     1      54.683  27.864  47.965  1.00  0.00    -0.076 N 
ATOM     10  H33 UNL     1      55.109  26.939  48.033  1.00  0.00     0.274 HD
ATOM     11  H32 UNL     1      54.065  27.792  48.774  1.00  0.00     0.274 HD
ATOM     12  H31 UNL     1      54.171  27.995  47.093  1.00  0.00     0.274 HD
ENDBRANCH   8   9
ENDBRANCH   3   8
ENDBRANCH   2   3
BRANCH   1  13
HETATM   13  C4  UNL     1      57.787  27.143  44.240  1.00  0.00     0.088 A 
HETATM   14  C3  UNL     1      56.774  26.695  43.413  1.00  0.00     0.056 A 
HETATM   15  C2  UNL     1      56.991  26.302  42.113  1.00  0.00     0.094 A 
HETATM   16  N1  UNL     1      58.237  26.355  41.626  1.00  0.00    -0.357 N 
HETATM   17  C1  UNL     1      58.469  25.939  40.249  1.00  0.00     0.156 C 
HETATM   18  C9  UNL     1      59.224  26.789  42.423  1.00  0.00     0.183 A 
HETATM   19  N4  UNL     1      59.027  27.179  43.703  1.00  0.00    -0.345 N 
ATOM     20  H4  UNL     1      59.815  27.501  44.264  1.00  0.00     0.167 HD
ENDBRANCH   1  13
TORSDOF 5
ENDMDL
MODEL 5
REMARK VINA RESULT: -3.782594085      1.114      2.100
REMARK  5 active torsions:
REMARK  status: ('A' for Active; 'I' for Inactive)
REMARK    1  A    between atoms: C4_5  and  C5_6 
REMARK    2  A    between atoms: C6_7  and  C7_8 
REMARK    3  A    between atoms: C7_8  and  N2_9 
REMARK    4  A    between atoms: C7_8  and  C8_13 
REMARK    5  A    between atoms: C8_13  and  N3_14 
ROOT
HETATM    1  C5  UNL     1      56.452  27.636  45.399  1.00  0.00    -0.047 C 
HETATM    2  C6  UNL     1      55.990  28.019  46.453  1.00  0.00    -0.065 C 
ENDROOT
BRANCH   2   3
HETATM    3  C7  UNL     1      55.414  28.488  47.725  1.00  0.00     0.287 C 
BRANCH   3   4
HETATM    4  N2  UNL     1      54.520  27.479  48.291  1.00  0.00    -0.063 N 
ATOM      5  H23 UNL     1      53.708  27.317  47.696  1.00  0.00     0.275 HD
ATOM      6  H22 UNL     1      54.929  26.546  48.250  1.00  0.00     0.275 HD
ATOM      7  H21 UNL     1      54.248  27.730  49.242  1.00  0.00     0.275 HD
ENDBRANCH   3   4
BRANCH   3   8
HETATM    8  C8  UNL     1      56.584  28.591  48.696  1.00  0.00     0.275 C 
BRANCH   8   9
HETATM    9  N3  UNL     1      57.684  29.248  48.022  1.00  0.00    -0.076 N 
ATOM     10  H33 UNL     1      57.834  28.892  47.078  1.00  0.00     0.274 HD
ATOM     11  H32 UNL     1      57.471  30.214  47.775  1.00  0.00     0.274 HD
ATOM     12  H31 UNL     1      58.517  29.168  48.607  1.00  0.00     0.274 HD
ENDBRANCH   8   9
ENDBRANCH   3   8
ENDBRANCH   2   3
BRANCH   1  13
HETATM   13  C4  UNL     1      56.998  27.198  44.141  1.00  0.00     0.088 A 
HETATM   14  C3  UNL     1      58.354  27.242  43.873  1.00  0.00     0.056 A 
HETATM   15  C2  UNL     1      58.892  26.827  42.677  1.00  0.00     0.094 A 
HETATM   16  N1  UNL     1      58.067  26.360  41.730  1.00  0.00    -0.357 N 
HETATM   17  C1  UNL     1      58.636  25.920  40.463  1.00  0.00     0.156 C 
HETATM   18  C9  UNL     1      56.752  26.315  41.984  1.00  0.00     0.183 A 
HETATM   19  N4  UNL     1      56.208  26.718  43.155  1.00  0.00    -0.345 N 
ATOM     20  H4  UNL     1      55.200  26.661  43.294  1.00  0.00     0.167 HD
ENDBRANCH   1  13
TORSDOF 5
ENDMDL
