MODEL 1
REMARK VINA RESULT: -6.402647389      0.000      0.000
REMARK  3 active torsions:
REMARK  status: ('A' for Active; 'I' for Inactive)
REMARK    1  A    between atoms: S1_3  and  C4_6 
REMARK    2  A    between atoms: C4_6  and  N1_8 
REMARK    3  A    between atoms: N1_8  and  N2_10 
ROOT
HETATM    1  C1  UNL     1      57.758  29.341  46.014  1.00  0.00     0.027 C 
HETATM    2  C2  UNL     1      57.085  28.371  46.185  1.00  0.00    -0.020 C 
HETATM    3  S1  UNL     1      56.115  26.970  46.458  1.00  0.00     0.052 S 
HETATM    4  C3  UNL     1      54.701  27.370  47.418  1.00  0.00     0.134 C 
HETATM    5  O1  UNL     1      56.925  25.920  47.193  1.00  0.00    -0.252 OA
ENDROOT
BRANCH   3   6
HETATM    6  C4  UNL     1      55.819  26.185  45.129  1.00  0.00     0.088 C 
HETATM    7  C5  UNL     1      54.496  26.303  44.546  1.00  0.00     0.080 C 
BRANCH   6   8
HETATM    8  N1  UNL     1      56.837  25.464  44.555  1.00  0.00    -0.294 N 
ATOM      9  H1  UNL     1      57.540  25.022  45.149  1.00  0.00     0.187 HD
BRANCH   8  10
HETATM   10  N2  UNL     1      56.922  25.328  43.156  1.00  0.00    -0.275 N 
HETATM   11  C6  UNL     1      57.711  26.061  42.448  1.00  0.00     0.215 C 
HETATM   12  N3  UNL     1      57.722  25.845  41.043  1.00  0.00    -0.065 NA
HETATM   13  N4  UNL     1      58.556  27.061  43.011  1.00  0.00    -0.065 NA
ATOM     14  H2  UNL     1      56.342  24.630  42.690  1.00  0.00     0.189 HD
ENDBRANCH   8  10
ENDBRANCH   6   8
ENDBRANCH   3   6
TORSDOF 3
ENDMDL
MODEL 2
REMARK VINA RESULT: -6.309608774      1.238      1.953
REMARK  3 active torsions:
REMARK  status: ('A' for Active; 'I' for Inactive)
REMARK    1  A    between atoms: S1_3  and  C4_6 
REMARK    2  A    between atoms: C4_6  and  N1_8 
REMARK    3  A    between atoms: N1_8  and  N2_10 
ROOT
HETATM    1  C1  UNL     1      56.080  29.182  47.772  1.00  0.00     0.027 C 
HETATM    2  C2  UNL     1      56.128  28.215  47.075  1.00  0.00    -0.020 C 
HETATM    3  S1  UNL     1      56.182  26.803  46.084  1.00  0.00     0.052 S 
HETATM    4  C3  UNL     1      54.576  26.377  45.521  1.00  0.00     0.134 C 
HETATM    5  O1  UNL     1      56.748  25.641  46.878  1.00  0.00    -0.252 OA
ENDROOT
BRANCH   3   6
HETATM    6  C4  UNL     1      57.277  26.908  44.962  1.00  0.00     0.088 C 
HETATM    7  C5  UNL     1      58.229  28.000  45.037  1.00  0.00     0.080 C 
BRANCH   6   8
HETATM    8  N1  UNL     1      57.314  25.937  43.992  1.00  0.00    -0.294 N 
ATOM      9  H1  UNL     1      56.645  25.167  44.023  1.00  0.00     0.187 HD
BRANCH   8  10
HETATM   10  N2  UNL     1      58.266  25.993  42.955  1.00  0.00    -0.275 N 
HETATM   11  C6  UNL     1      57.920  26.019  41.715  1.00  0.00     0.215 C 
HETATM   12  N3  UNL     1      58.957  26.075  40.745  1.00  0.00    -0.065 NA
HETATM   13  N4  UNL     1      56.560  25.995  41.288  1.00  0.00    -0.065 NA
ATOM     14  H2  UNL     1      59.258  26.012  43.194  1.00  0.00     0.189 HD
ENDBRANCH   8  10
ENDBRANCH   6   8
ENDBRANCH   3   6
TORSDOF 3
ENDMDL
MODEL 3
REMARK VINA RESULT: -6.270148402      0.689      1.018
REMARK  3 active torsions:
REMARK  status: ('A' for Active; 'I' for Inactive)
REMARK    1  A    between atoms: S1_3  and  C4_6 
REMARK    2  A    between atoms: C4_6  and  N1_8 
REMARK    3  A    between atoms: N1_8  and  N2_10 
ROOT
HETATM    1  C1  UNL     1      57.779  29.218  45.914  1.00  0.00     0.027 C 
HETATM    2  C2  UNL     1      57.112  28.233  46.011  1.00  0.00    -0.020 C 
HETATM    3  S1  UNL     1      56.153  26.809  46.178  1.00  0.00     0.052 S 
HETATM    4  C3  UNL     1      54.802  27.091  47.262  1.00  0.00     0.134 C 
HETATM    5  O1  UNL     1      57.001  25.682  46.735  1.00  0.00    -0.252 OA
ENDROOT
BRANCH   3   6
HETATM    6  C4  UNL     1      55.773  26.183  44.787  1.00  0.00     0.088 C 
HETATM    7  C5  UNL     1      54.542  26.621  44.156  1.00  0.00     0.080 C 
BRANCH   6   8
HETATM    8  N1  UNL     1      56.643  25.291  44.211  1.00  0.00    -0.294 N 
ATOM      9  H1  UNL     1      56.435  24.293  44.242  1.00  0.00     0.187 HD
BRANCH   8  10
HETATM   10  N2  UNL     1      57.819  25.740  43.580  1.00  0.00    -0.275 N 
HETATM   11  C6  UNL     1      57.866  25.970  42.313  1.00  0.00     0.215 C 
HETATM   12  N3  UNL     1      59.101  26.420  41.773  1.00  0.00    -0.065 NA
HETATM   13  N4  UNL     1      56.745  25.791  41.450  1.00  0.00    -0.065 NA
ATOM     14  H2  UNL     1      58.658  25.887  44.141  1.00  0.00     0.189 HD
ENDBRANCH   8  10
ENDBRANCH   6   8
ENDBRANCH   3   6
TORSDOF 3
ENDMDL
MODEL 4
REMARK VINA RESULT: -6.189629593      1.696      2.718
REMARK  3 active torsions:
REMARK  status: ('A' for Active; 'I' for Inactive)
REMARK    1  A    between atoms: S1_3  and  C4_6 
REMARK    2  A    between atoms: C4_6  and  N1_8 
REMARK    3  A    between atoms: N1_8  and  N2_10 
ROOT
HETATM    1  C1  UNL     1      55.383  27.058  47.339  1.00  0.00     0.027 C 
HETATM    2  C2  UNL     1      55.659  26.809  46.205  1.00  0.00    -0.020 C 
HETATM    3  S1  UNL     1      56.035  26.437  44.563  1.00  0.00     0.052 S 
HETATM    4  C3  UNL     1      54.873  27.176  43.475  1.00  0.00     0.134 C 
HETATM    5  O1  UNL     1      56.011  24.934  44.359  1.00  0.00    -0.252 OA
ENDROOT
BRANCH   3   6
HETATM    6  C4  UNL     1      57.543  26.720  44.221  1.00  0.00     0.088 C 
HETATM    7  C5  UNL     1      58.145  27.934  44.739  1.00  0.00     0.080 C 
BRANCH   6   8
HETATM    8  N1  UNL     1      58.235  25.785  43.491  1.00  0.00    -0.294 N 
ATOM      9  H1  UNL     1      58.299  24.825  43.832  1.00  0.00     0.187 HD
BRANCH   8  10
HETATM   10  N2  UNL     1      58.855  26.136  42.277  1.00  0.00    -0.275 N 
HETATM   11  C6  UNL     1      58.242  26.046  41.148  1.00  0.00     0.215 C 
HETATM   12  N3  UNL     1      58.957  26.425  39.980  1.00  0.00    -0.065 NA
HETATM   13  N4  UNL     1      56.897  25.587  41.030  1.00  0.00    -0.065 NA
ATOM     14  H2  UNL     1      59.819  26.472  42.292  1.00  0.00     0.189 HD
ENDBRANCH   8  10
ENDBRANCH   6   8
ENDBRANCH   3   6
TORSDOF 3
ENDMDL
MODEL 5
REMARK VINA RESULT: -5.863651195      1.186      2.392
REMARK  3 active torsions:
REMARK  status: ('A' for Active; 'I' for Inactive)
REMARK    1  A    between atoms: S1_3  and  C4_6 
REMARK    2  A    between atoms: C4_6  and  N1_8 
REMARK    3  A    between atoms: N1_8  and  N2_10 
ROOT
HETATM    1  C1  UNL     1      54.742  27.417  47.986  1.00  0.00     0.027 C 
HETATM    2  C2  UNL     1      55.238  27.141  46.937  1.00  0.00    -0.020 C 
HETATM    3  S1  UNL     1      55.943  26.718  45.420  1.00  0.00     0.052 S 
HETATM    4  C3  UNL     1      54.703  26.476  44.203  1.00  0.00     0.134 C 
HETATM    5  O1  UNL     1      56.743  25.438  45.566  1.00  0.00    -0.252 OA
ENDROOT
BRANCH   3   6
HETATM    6  C4  UNL     1      57.100  27.700  45.009  1.00  0.00     0.088 C 
HETATM    7  C5  UNL     1      57.364  28.840  45.867  1.00  0.00     0.080 C 
BRANCH   6   8
HETATM    8  N1  UNL     1      57.836  27.410  43.887  1.00  0.00    -0.294 N 
ATOM      9  H1  UNL     1      58.818  27.683  43.844  1.00  0.00     0.187 HD
BRANCH   8  10
HETATM   10  N2  UNL     1      57.249  26.740  42.796  1.00  0.00    -0.275 N 
HETATM   11  C6  UNL     1      57.960  26.149  41.899  1.00  0.00     0.215 C 
HETATM   12  N3  UNL     1      57.271  25.501  40.838  1.00  0.00    -0.065 NA
HETATM   13  N4  UNL     1      59.385  26.121  41.932  1.00  0.00    -0.065 NA
ATOM     14  H2  UNL     1      56.233  26.723  42.713  1.00  0.00     0.189 HD
ENDBRANCH   8  10
ENDBRANCH   6   8
ENDBRANCH   3   6
TORSDOF 3
ENDMDL
