MODEL 1
REMARK VINA RESULT: -7.248950432      0.000      0.000
REMARK  1 active torsions:
REMARK  status: ('A' for Active; 'I' for Inactive)
REMARK    1  A    between atoms: N3_4  and  N4_6 
REMARK       I    between atoms: C2_8  and  N6_10 
ROOT
HETATM    1  N4  UNL     1      57.839  26.816  44.146  1.00  0.00    -0.272 N 
ATOM      2  H4  UNL     1      58.222  27.681  44.527  1.00  0.00     0.189 HD
HETATM    3  C2  UNL     1      57.028  26.257  44.920  1.00  0.00     0.205 C 
HETATM    4  N5  UNL     1      56.358  25.052  44.630  1.00  0.00    -0.062 NA
HETATM    5  N6  UNL     1      56.717  26.857  46.198  1.00  0.00    -0.350 N 
HETATM    6  C3  UNL     1      57.803  27.037  47.139  1.00  0.00     0.151 C 
HETATM    7  C4  UNL     1      57.817  28.542  47.442  1.00  0.00     0.187 C 
HETATM    8  O1  UNL     1      56.584  29.005  47.825  1.00  0.00    -0.388 OA
HETATM    9  C5  UNL     1      55.566  28.771  46.941  1.00  0.00     0.187 C 
HETATM   10  C6  UNL     1      55.417  27.296  46.601  1.00  0.00     0.151 C 
ENDROOT
BRANCH   1  11
HETATM   11  N3  UNL     1      58.300  26.533  42.957  1.00  0.00    -0.274 N 
HETATM   12  C1  UNL     1      57.850  26.273  41.827  1.00  0.00     0.215 C 
HETATM   13  N1  UNL     1      58.808  26.012  40.778  1.00  0.00    -0.065 NA
HETATM   14  N2  UNL     1      56.483  26.221  41.533  1.00  0.00    -0.065 NA
ATOM     15  H3  UNL     1      59.320  26.520  42.955  1.00  0.00     0.189 HD
ENDBRANCH   1  11
TORSDOF 1
ENDMDL
MODEL 2
REMARK VINA RESULT: -6.679191497      0.708      1.024
REMARK  1 active torsions:
REMARK  status: ('A' for Active; 'I' for Inactive)
REMARK    1  A    between atoms: N3_4  and  N4_6 
REMARK       I    between atoms: C2_8  and  N6_10 
ROOT
HETATM    1  N4  UNL     1      57.121  26.910  43.908  1.00  0.00    -0.272 N 
ATOM      2  H4  UNL     1      57.402  27.864  44.138  1.00  0.00     0.189 HD
HETATM    3  C2  UNL     1      56.753  26.252  44.908  1.00  0.00     0.205 C 
HETATM    4  N5  UNL     1      56.316  24.914  44.861  1.00  0.00    -0.062 NA
HETATM    5  N6  UNL     1      56.747  26.869  46.217  1.00  0.00    -0.350 N 
HETATM    6  C3  UNL     1      58.009  27.347  46.741  1.00  0.00     0.151 C 
HETATM    7  C4  UNL     1      57.780  28.840  47.020  1.00  0.00     0.187 C 
HETATM    8  O1  UNL     1      56.667  29.058  47.792  1.00  0.00    -0.388 OA
HETATM    9  C5  UNL     1      55.498  28.547  47.297  1.00  0.00     0.187 C 
HETATM   10  C6  UNL     1      55.584  27.051  47.028  1.00  0.00     0.151 C 
ENDROOT
BRANCH   1  11
HETATM   11  N3  UNL     1      57.224  26.641  42.634  1.00  0.00    -0.274 N 
HETATM   12  C1  UNL     1      58.110  26.309  41.826  1.00  0.00     0.215 C 
HETATM   13  N1  UNL     1      57.713  26.121  40.450  1.00  0.00    -0.065 NA
HETATM   14  N2  UNL     1      59.448  26.117  42.183  1.00  0.00    -0.065 NA
ATOM     15  H3  UNL     1      56.320  26.726  42.169  1.00  0.00     0.189 HD
ENDBRANCH   1  11
TORSDOF 1
ENDMDL
MODEL 3
REMARK VINA RESULT: -4.619515939      1.390      2.261
REMARK  1 active torsions:
REMARK  status: ('A' for Active; 'I' for Inactive)
REMARK    1  A    between atoms: N3_4  and  N4_6 
REMARK       I    between atoms: C2_8  and  N6_10 
ROOT
HETATM    1  N4  UNL     1      57.782  26.800  43.621  1.00  0.00    -0.272 N 
ATOM      2  H4  UNL     1      56.914  26.282  43.755  1.00  0.00     0.189 HD
HETATM    3  C2  UNL     1      58.064  27.545  44.588  1.00  0.00     0.205 C 
HETATM    4  N5  UNL     1      59.208  28.363  44.652  1.00  0.00    -0.062 NA
HETATM    5  N6  UNL     1      57.193  27.591  45.741  1.00  0.00    -0.350 N 
HETATM    6  C3  UNL     1      55.828  28.030  45.537  1.00  0.00     0.151 C 
HETATM    7  C4  UNL     1      54.961  26.868  46.044  1.00  0.00     0.187 C 
HETATM    8  O1  UNL     1      55.302  26.482  47.315  1.00  0.00    -0.388 OA
HETATM    9  C5  UNL     1      56.612  26.126  47.490  1.00  0.00     0.187 C 
HETATM   10  C6  UNL     1      57.576  27.225  47.069  1.00  0.00     0.151 C 
ENDROOT
BRANCH   1  11
HETATM   11  N3  UNL     1      58.360  26.542  42.477  1.00  0.00    -0.274 N 
HETATM   12  C1  UNL     1      58.040  26.115  41.353  1.00  0.00     0.215 C 
HETATM   13  N1  UNL     1      59.089  25.997  40.368  1.00  0.00    -0.065 NA
HETATM   14  N2  UNL     1      56.735  25.746  41.010  1.00  0.00    -0.065 NA
ATOM     15  H3  UNL     1      59.357  26.752  42.517  1.00  0.00     0.189 HD
ENDBRANCH   1  11
TORSDOF 1
ENDMDL
MODEL 4
REMARK VINA RESULT: -4.542977547      1.204      1.308
REMARK  1 active torsions:
REMARK  status: ('A' for Active; 'I' for Inactive)
REMARK    1  A    between atoms: N3_4  and  N4_6 
REMARK       I    between atoms: C2_8  and  N6_10 
ROOT
HETATM    1  N4  UNL     1      58.108  27.054  43.801  1.00  0.00    -0.272 N 
ATOM      2  H4  UNL     1      58.841  27.107  44.508  1.00  0.00     0.189 HD
HETATM    3  C2  UNL     1      56.973  27.335  44.248  1.00  0.00     0.205 C 
HETATM    4  N5  UNL     1      55.794  27.337  43.477  1.00  0.00    -0.062 NA
HETATM    5  N6  UNL     1      56.815  27.700  45.639  1.00  0.00    -0.350 N 
HETATM    6  C3  UNL     1      57.191  26.722  46.638  1.00  0.00     0.151 C 
HETATM    7  C4  UNL     1      58.250  27.426  47.499  1.00  0.00     0.187 C 
HETATM    8  O1  UNL     1      57.819  28.644  47.958  1.00  0.00    -0.388 OA
HETATM    9  C5  UNL     1      57.417  29.528  46.993  1.00  0.00     0.187 C 
HETATM   10  C6  UNL     1      56.323  28.960  46.102  1.00  0.00     0.151 C 
ENDROOT
BRANCH   1  11
HETATM   11  N3  UNL     1      58.558  26.707  42.624  1.00  0.00    -0.274 N 
HETATM   12  C1  UNL     1      58.123  26.178  41.585  1.00  0.00     0.215 C 
HETATM   13  N1  UNL     1      59.055  25.992  40.498  1.00  0.00    -0.065 NA
HETATM   14  N2  UNL     1      56.797  25.761  41.428  1.00  0.00    -0.065 NA
ATOM     15  H3  UNL     1      59.548  26.935  42.530  1.00  0.00     0.189 HD
ENDBRANCH   1  11
TORSDOF 1
ENDMDL
MODEL 5
REMARK VINA RESULT: -3.858298820      1.399      2.250
REMARK  1 active torsions:
REMARK  status: ('A' for Active; 'I' for Inactive)
REMARK    1  A    between atoms: N3_4  and  N4_6 
REMARK       I    between atoms: C2_8  and  N6_10 
ROOT
HETATM    1  N4  UNL     1      57.023  27.328  43.973  1.00  0.00    -0.272 N 
ATOM      2  H4  UNL     1      56.144  27.436  44.478  1.00  0.00     0.189 HD
HETATM    3  C2  UNL     1      58.002  27.817  44.581  1.00  0.00     0.205 C 
HETATM    4  N5  UNL     1      59.326  27.798  44.099  1.00  0.00    -0.062 NA
HETATM    5  N6  UNL     1      57.813  28.440  45.873  1.00  0.00    -0.350 N 
HETATM    6  C3  UNL     1      56.936  29.590  45.943  1.00  0.00     0.151 C 
HETATM    7  C4  UNL     1      55.860  29.202  46.968  1.00  0.00     0.187 C 
HETATM    8  O1  UNL     1      56.403  28.766  48.150  1.00  0.00    -0.388 OA
HETATM    9  C5  UNL     1      57.271  27.713  48.045  1.00  0.00     0.187 C 
HETATM   10  C6  UNL     1      58.420  27.998  47.089  1.00  0.00     0.151 C 
ENDROOT
BRANCH   1  11
HETATM   11  N3  UNL     1      56.882  26.710  42.830  1.00  0.00    -0.274 N 
HETATM   12  C1  UNL     1      57.599  26.119  42.002  1.00  0.00     0.215 C 
HETATM   13  N1  UNL     1      56.949  25.579  40.831  1.00  0.00    -0.065 NA
HETATM   14  N2  UNL     1      58.981  25.960  42.152  1.00  0.00    -0.065 NA
ATOM     15  H3  UNL     1      55.907  26.714  42.530  1.00  0.00     0.189 HD
ENDBRANCH   1  11
TORSDOF 1
ENDMDL
