MODEL 1
REMARK VINA RESULT: -6.660996324      0.000      0.000
REMARK  4 active torsions:
REMARK  status: ('A' for Active; 'I' for Inactive)
REMARK    1  A    between atoms: C7_7  and  C8_8 
REMARK    2  A    between atoms: N2_13  and  C10_14 
REMARK    3  A    between atoms: C10_14  and  C11_15 
REMARK    4  A    between atoms: C15_20  and  O1_21 
ROOT
HETATM    1  C8  UNL     1      19.655 -34.587  21.910  1.00  0.00     0.075 A 
HETATM    2  N1  UNL     1      19.160 -33.311  21.917  1.00  0.00    -0.332 N 
ATOM      3  H1  UNL     1      18.234 -33.054  22.259  1.00  0.00     0.168 HD
HETATM    4  C9  UNL     1      20.047 -32.445  21.418  1.00  0.00     0.180 A 
HETATM    5  S1  UNL     1      19.776 -30.816  21.266  1.00  0.00    -0.040 SA
HETATM    6  N2  UNL     1      21.129 -33.147  21.081  1.00  0.00    -0.298 N 
HETATM    7  C15 UNL     1      20.903 -34.448  21.373  1.00  0.00     0.169 A 
ENDROOT
BRANCH   1   8
HETATM    8  C7  UNL     1      18.895 -35.696  22.411  1.00  0.00     0.044 C 
HETATM    9  C2  UNL     1      19.053 -36.127  23.831  1.00  0.00    -0.028 C 
HETATM   10  C1  UNL     1      18.612 -35.061  24.814  1.00  0.00     0.016 C 
HETATM   11  C3  UNL     1      20.366 -36.691  24.243  1.00  0.00     0.016 C 
HETATM   12  C4  UNL     1      17.989 -37.260  23.789  1.00  0.00    -0.003 C 
HETATM   13  C5  UNL     1      16.809 -36.522  23.274  1.00  0.00     0.007 C 
HETATM   14  C17 UNL     1      18.566 -38.056  22.638  1.00  0.00     0.044 C 
HETATM   15  C6  UNL     1      17.389 -35.457  22.367  1.00  0.00     0.020 C 
HETATM   16  C16 UNL     1      19.118 -37.008  21.685  1.00  0.00     0.185 C 
HETATM   17  F1  UNL     1      18.354 -36.993  20.537  1.00  0.00    -0.248 F 
ENDBRANCH   1   8
BRANCH   7  18
HETATM   18  O1  UNL     1      21.831 -35.481  21.145  1.00  0.00    -0.344 OA
ATOM     19  H1  UNL     1      22.488 -35.505  20.459  1.00  0.00     0.219 HD
ENDBRANCH   7  18
BRANCH   6  20
HETATM   20  C10 UNL     1      22.331 -32.622  20.504  1.00  0.00     0.172 C 
BRANCH  20  21
HETATM   21  C11 UNL     1      22.340 -32.734  18.993  1.00  0.00    -0.033 A 
HETATM   22  C12 UNL     1      22.778 -33.817  18.339  1.00  0.00     0.016 A 
HETATM   23  C13 UNL     1      22.726 -33.795  16.971  1.00  0.00     0.050 A 
HETATM   24  S2  UNL     1      22.065 -32.261  16.639  1.00  0.00    -0.113 SA
HETATM   25  C14 UNL     1      21.874 -31.692  18.236  1.00  0.00     0.058 A 
ENDBRANCH  20  21
ENDBRANCH   6  20
TORSDOF 4
ENDMDL
MODEL 2
REMARK VINA RESULT: -6.259142961      1.275      2.057
REMARK  4 active torsions:
REMARK  status: ('A' for Active; 'I' for Inactive)
REMARK    1  A    between atoms: C7_7  and  C8_8 
REMARK    2  A    between atoms: N2_13  and  C10_14 
REMARK    3  A    between atoms: C10_14  and  C11_15 
REMARK    4  A    between atoms: C15_20  and  O1_21 
ROOT
HETATM    1  C8  UNL     1      20.423 -34.945  21.977  1.00  0.00     0.075 A 
HETATM    2  N1  UNL     1      20.002 -33.669  22.238  1.00  0.00    -0.332 N 
ATOM      3  H1  UNL     1      19.176 -33.435  22.788  1.00  0.00     0.168 HD
HETATM    4  C9  UNL     1      20.815 -32.769  21.679  1.00  0.00     0.180 A 
HETATM    5  S1  UNL     1      20.601 -31.127  21.782  1.00  0.00    -0.040 SA
HETATM    6  N2  UNL     1      21.774 -33.447  21.048  1.00  0.00    -0.298 N 
HETATM    7  C15 UNL     1      21.546 -34.769  21.220  1.00  0.00     0.169 A 
ENDROOT
BRANCH   1   8
HETATM    8  C7  UNL     1      19.722 -36.091  22.484  1.00  0.00     0.044 C 
HETATM    9  C2  UNL     1      18.271 -36.268  22.187  1.00  0.00    -0.028 C 
HETATM   10  C1  UNL     1      17.998 -36.447  20.707  1.00  0.00     0.016 C 
HETATM   11  C3  UNL     1      17.319 -35.284  22.768  1.00  0.00     0.016 C 
HETATM   12  C4  UNL     1      18.111 -37.635  22.908  1.00  0.00    -0.003 C 
HETATM   13  C5  UNL     1      19.189 -38.425  22.264  1.00  0.00     0.007 C 
HETATM   14  C17 UNL     1      18.608 -37.219  24.276  1.00  0.00     0.044 C 
HETATM   15  C6  UNL     1      20.270 -37.411  21.950  1.00  0.00     0.020 C 
HETATM   16  C16 UNL     1      19.728 -36.231  23.993  1.00  0.00     0.185 C 
HETATM   17  F1  UNL     1      20.931 -36.794  24.363  1.00  0.00    -0.248 F 
ENDBRANCH   1   8
BRANCH   7  18
HETATM   18  O1  UNL     1      22.358 -35.787  20.686  1.00  0.00    -0.344 OA
ATOM     19  H1  UNL     1      23.275 -35.935  20.884  1.00  0.00     0.219 HD
ENDBRANCH   7  18
BRANCH   6  20
HETATM   20  C10 UNL     1      22.864 -32.883  20.308  1.00  0.00     0.172 C 
BRANCH  20  21
HETATM   21  C11 UNL     1      22.573 -32.808  18.823  1.00  0.00    -0.033 A 
HETATM   22  C12 UNL     1      22.819 -33.814  17.975  1.00  0.00     0.016 A 
HETATM   23  C13 UNL     1      22.503 -33.624  16.657  1.00  0.00     0.050 A 
HETATM   24  S2  UNL     1      21.869 -32.043  16.641  1.00  0.00    -0.113 SA
HETATM   25  C14 UNL     1      22.022 -31.669  18.298  1.00  0.00     0.058 A 
ENDBRANCH  20  21
ENDBRANCH   6  20
TORSDOF 4
ENDMDL
MODEL 3
REMARK VINA RESULT: -5.760878604      2.084      3.567
REMARK  4 active torsions:
REMARK  status: ('A' for Active; 'I' for Inactive)
REMARK    1  A    between atoms: C7_7  and  C8_8 
REMARK    2  A    between atoms: N2_13  and  C10_14 
REMARK    3  A    between atoms: C10_14  and  C11_15 
REMARK    4  A    between atoms: C15_20  and  O1_21 
ROOT
HETATM    1  C8  UNL     1      19.499 -34.646  21.813  1.00  0.00     0.075 A 
HETATM    2  N1  UNL     1      20.815 -34.666  21.437  1.00  0.00    -0.332 N 
ATOM      3  H1  UNL     1      21.424 -35.481  21.513  1.00  0.00     0.168 HD
HETATM    4  C9  UNL     1      21.198 -33.480  20.957  1.00  0.00     0.180 A 
HETATM    5  S1  UNL     1      22.731 -33.143  20.418  1.00  0.00    -0.040 SA
HETATM    6  N2  UNL     1      20.138 -32.674  21.015  1.00  0.00    -0.298 N 
HETATM    7  C15 UNL     1      19.101 -33.370  21.534  1.00  0.00     0.169 A 
ENDROOT
BRANCH   1   8
HETATM    8  C7  UNL     1      18.847 -35.808  22.347  1.00  0.00     0.044 C 
HETATM    9  C2  UNL     1      19.026 -36.168  23.784  1.00  0.00    -0.028 C 
HETATM   10  C1  UNL     1      18.464 -35.118  24.721  1.00  0.00     0.016 C 
HETATM   11  C3  UNL     1      20.382 -36.580  24.232  1.00  0.00     0.016 C 
HETATM   12  C4  UNL     1      18.083 -37.404  23.773  1.00  0.00    -0.003 C 
HETATM   13  C5  UNL     1      16.842 -36.810  23.217  1.00  0.00     0.007 C 
HETATM   14  C17 UNL     1      18.755 -38.179  22.659  1.00  0.00     0.044 C 
HETATM   15  C6  UNL     1      17.325 -35.725  22.277  1.00  0.00     0.020 C 
HETATM   16  C16 UNL     1      19.213 -37.115  21.673  1.00  0.00     0.185 C 
HETATM   17  F1  UNL     1      18.469 -37.221  20.517  1.00  0.00    -0.248 F 
ENDBRANCH   1   8
BRANCH   7  18
HETATM   18  O1  UNL     1      17.817 -32.833  21.746  1.00  0.00    -0.344 OA
ATOM     19  H1  UNL     1      17.074 -32.907  21.160  1.00  0.00     0.219 HD
ENDBRANCH   7  18
BRANCH   6  20
HETATM   20  C10 UNL     1      20.093 -31.303  20.601  1.00  0.00     0.172 C 
BRANCH  20  21
HETATM   21  C11 UNL     1      19.824 -30.363  21.759  1.00  0.00    -0.033 A 
HETATM   22  C12 UNL     1      18.812 -29.488  21.775  1.00  0.00     0.016 A 
HETATM   23  C13 UNL     1      18.672 -28.699  22.884  1.00  0.00     0.050 A 
HETATM   24  S2  UNL     1      19.961 -29.205  23.876  1.00  0.00    -0.113 SA
HETATM   25  C14 UNL     1      20.638 -30.397  22.860  1.00  0.00     0.058 A 
ENDBRANCH  20  21
ENDBRANCH   6  20
TORSDOF 4
ENDMDL
MODEL 4
REMARK VINA RESULT: -5.742334375      7.363      8.928
REMARK  4 active torsions:
REMARK  status: ('A' for Active; 'I' for Inactive)
REMARK    1  A    between atoms: C7_7  and  C8_8 
REMARK    2  A    between atoms: N2_13  and  C10_14 
REMARK    3  A    between atoms: C10_14  and  C11_15 
REMARK    4  A    between atoms: C15_20  and  O1_21 
ROOT
HETATM    1  C8  UNL     1      22.919 -30.864  15.498  1.00  0.00     0.075 A 
HETATM    2  N1  UNL     1      22.566 -30.969  16.817  1.00  0.00    -0.332 N 
ATOM      3  H1  UNL     1      22.228 -31.825  17.257  1.00  0.00     0.168 HD
HETATM    4  C9  UNL     1      22.721 -29.805  17.453  1.00  0.00     0.180 A 
HETATM    5  S1  UNL     1      22.379 -29.566  19.058  1.00  0.00    -0.040 SA
HETATM    6  N2  UNL     1      23.177 -28.929  16.558  1.00  0.00    -0.298 N 
HETATM    7  C15 UNL     1      23.299 -29.559  15.368  1.00  0.00     0.169 A 
ENDROOT
BRANCH   1   8
HETATM    8  C7  UNL     1      22.854 -31.986  14.606  1.00  0.00     0.044 C 
HETATM    9  C2  UNL     1      23.857 -33.084  14.715  1.00  0.00    -0.028 C 
HETATM   10  C1  UNL     1      23.776 -33.817  16.040  1.00  0.00     0.016 C 
HETATM   11  C3  UNL     1      25.274 -32.763  14.395  1.00  0.00     0.016 C 
HETATM   12  C4  UNL     1      23.260 -33.980  13.595  1.00  0.00    -0.003 C 
HETATM   13  C5  UNL     1      21.852 -34.099  14.046  1.00  0.00     0.007 C 
HETATM   14  C17 UNL     1      23.293 -32.968  12.468  1.00  0.00     0.044 C 
HETATM   15  C6  UNL     1      21.562 -32.786  14.745  1.00  0.00     0.020 C 
HETATM   16  C16 UNL     1      22.960 -31.642  13.134  1.00  0.00     0.185 C 
HETATM   17  F1  UNL     1      21.720 -31.220  12.705  1.00  0.00    -0.248 F 
ENDBRANCH   1   8
BRANCH   7  18
HETATM   18  O1  UNL     1      23.751 -28.938  14.187  1.00  0.00    -0.344 OA
ATOM     19  H1  UNL     1      23.548 -28.054  13.905  1.00  0.00     0.219 HD
ENDBRANCH   7  18
BRANCH   6  20
HETATM   20  C10 UNL     1      23.485 -27.551  16.803  1.00  0.00     0.172 C 
BRANCH  20  21
HETATM   21  C11 UNL     1      22.344 -26.630  16.422  1.00  0.00    -0.033 A 
HETATM   22  C12 UNL     1      22.223 -26.073  15.211  1.00  0.00     0.016 A 
HETATM   23  C13 UNL     1      21.140 -25.265  14.990  1.00  0.00     0.050 A 
HETATM   24  S2  UNL     1      20.323 -25.307  16.484  1.00  0.00    -0.113 SA
HETATM   25  C14 UNL     1      21.371 -26.344  17.342  1.00  0.00     0.058 A 
ENDBRANCH  20  21
ENDBRANCH   6  20
TORSDOF 4
ENDMDL
MODEL 5
REMARK VINA RESULT: -5.650896562      9.462     11.245
REMARK  4 active torsions:
REMARK  status: ('A' for Active; 'I' for Inactive)
REMARK    1  A    between atoms: C7_7  and  C8_8 
REMARK    2  A    between atoms: N2_13  and  C10_14 
REMARK    3  A    between atoms: C10_14  and  C11_15 
REMARK    4  A    between atoms: C15_20  and  O1_21 
ROOT
HETATM    1  C8  UNL     1      21.763 -26.114  15.896  1.00  0.00     0.075 A 
HETATM    2  N1  UNL     1      21.682 -27.281  16.607  1.00  0.00    -0.332 N 
ATOM      3  H1  UNL     1      21.148 -27.396  17.468  1.00  0.00     0.168 HD
HETATM    4  C9  UNL     1      22.393 -28.251  16.024  1.00  0.00     0.180 A 
HETATM    5  S1  UNL     1      22.527 -29.794  16.618  1.00  0.00    -0.040 SA
HETATM    6  N2  UNL     1      22.944 -27.727  14.929  1.00  0.00    -0.298 N 
HETATM    7  C15 UNL     1      22.570 -26.431  14.842  1.00  0.00     0.169 A 
ENDROOT
BRANCH   1   8
HETATM    8  C7  UNL     1      21.072 -24.926  16.312  1.00  0.00     0.044 C 
HETATM    9  C2  UNL     1      21.650 -24.064  17.382  1.00  0.00    -0.028 C 
HETATM   10  C1  UNL     1      22.976 -23.449  16.982  1.00  0.00     0.016 C 
HETATM   11  C3  UNL     1      21.742 -24.630  18.755  1.00  0.00     0.016 C 
HETATM   12  C4  UNL     1      20.545 -22.972  17.343  1.00  0.00    -0.003 C 
HETATM   13  C5  UNL     1      20.548 -22.616  15.903  1.00  0.00     0.007 C 
HETATM   14  C17 UNL     1      19.348 -23.866  17.588  1.00  0.00     0.044 C 
HETATM   15  C6  UNL     1      20.919 -23.901  15.192  1.00  0.00     0.020 C 
HETATM   16  C16 UNL     1      19.672 -25.153  16.847  1.00  0.00     0.185 C 
HETATM   17  F1  UNL     1      18.821 -25.281  15.770  1.00  0.00    -0.248 F 
ENDBRANCH   1   8
BRANCH   7  18
HETATM   18  O1  UNL     1      22.971 -25.561  13.810  1.00  0.00    -0.344 OA
ATOM     19  H1  UNL     1      23.235 -25.814  12.933  1.00  0.00     0.219 HD
ENDBRANCH   7  18
BRANCH   6  20
HETATM   20  C10 UNL     1      23.791 -28.412  13.998  1.00  0.00     0.172 C 
BRANCH  20  21
HETATM   21  C11 UNL     1      23.020 -28.950  12.809  1.00  0.00    -0.033 A 
HETATM   22  C12 UNL     1      22.412 -30.142  12.806  1.00  0.00     0.016 A 
HETATM   23  C13 UNL     1      21.741 -30.509  11.670  1.00  0.00     0.050 A 
HETATM   24  S2  UNL     1      21.981 -29.175  10.639  1.00  0.00    -0.113 SA
HETATM   25  C14 UNL     1      22.919 -28.193  11.671  1.00  0.00     0.058 A 
ENDBRANCH  20  21
ENDBRANCH   6  20
TORSDOF 4
ENDMDL
