MODEL 1
REMARK VINA RESULT: -5.325640619      0.000      0.000
REMARK  8 active torsions:
REMARK  status: ('A' for Active; 'I' for Inactive)
REMARK    1  A    between atoms: N1_1  and  C1_5 
REMARK    2  A    between atoms: C1_5  and  C2_6 
REMARK    3  A    between atoms: C2_6  and  C3_7 
REMARK    4  A    between atoms: C3_7  and  C4_8 
REMARK    5  A    between atoms: C3_7  and  C9_13 
REMARK    6  A    between atoms: C4_8  and  C5_9 
REMARK    7  A    between atoms: C5_9  and  C6_10 
REMARK    8  A    between atoms: C9_13  and  C10_14 
ROOT
HETATM    1  C3  UNL     1     -27.131   6.146 -16.094  1.00  0.00    -0.013 C 
ENDROOT
BRANCH   1   2
HETATM    2  C2  UNL     1     -28.042   6.378 -14.904  1.00  0.00     0.032 C 
BRANCH   2   3
HETATM    3  C1  UNL     1     -29.420   6.812 -15.155  1.00  0.00     0.230 C 
BRANCH   3   4
HETATM    4  N1  UNL     1     -29.727   8.189 -14.838  1.00  0.00    -0.079 N 
ATOM      5  H13 UNL     1     -29.318   8.434 -13.936  1.00  0.00     0.274 HD
ATOM      6  H12 UNL     1     -29.202   8.809 -15.455  1.00  0.00     0.274 HD
ATOM      7  H11 UNL     1     -30.713   8.447 -14.850  1.00  0.00     0.274 HD
ENDBRANCH   3   4
ENDBRANCH   2   3
ENDBRANCH   1   2
BRANCH   1   8
HETATM    8  C4  UNL     1     -27.304   7.163 -17.126  1.00  0.00     0.005 C 
BRANCH   8   9
HETATM    9  C5  UNL     1     -26.189   8.034 -17.522  1.00  0.00     0.005 C 
BRANCH   9  10
HETATM   10  C6  UNL     1     -25.560   7.946 -18.852  1.00  0.00    -0.014 A 
HETATM   11  C7  UNL     1     -24.118   7.849 -19.123  1.00  0.00     0.005 A 
HETATM   12  C8  UNL     1     -24.691   9.205 -19.180  1.00  0.00     0.005 A 
ENDBRANCH   9  10
ENDBRANCH   8   9
ENDBRANCH   1   8
BRANCH   1  13
HETATM   13  C9  UNL     1     -25.713   5.943 -15.681  1.00  0.00     0.009 C 
BRANCH  13  14
HETATM   14  C10 UNL     1     -25.166   4.583 -16.078  1.00  0.00    -0.014 A 
HETATM   15  C11 UNL     1     -23.768   4.683 -16.694  1.00  0.00     0.005 A 
HETATM   16  C12 UNL     1     -24.915   4.394 -17.556  1.00  0.00     0.005 A 
ENDBRANCH  13  14
ENDBRANCH   1  13
TORSDOF 8
ENDMDL
MODEL 2
REMARK VINA RESULT: -5.314741553      2.822      4.838
REMARK  8 active torsions:
REMARK  status: ('A' for Active; 'I' for Inactive)
REMARK    1  A    between atoms: N1_1  and  C1_5 
REMARK    2  A    between atoms: C1_5  and  C2_6 
REMARK    3  A    between atoms: C2_6  and  C3_7 
REMARK    4  A    between atoms: C3_7  and  C4_8 
REMARK    5  A    between atoms: C3_7  and  C9_13 
REMARK    6  A    between atoms: C4_8  and  C5_9 
REMARK    7  A    between atoms: C5_9  and  C6_10 
REMARK    8  A    between atoms: C9_13  and  C10_14 
ROOT
HETATM    1  C3  UNL     1     -24.588   8.436 -19.023  1.00  0.00    -0.013 C 
ENDROOT
BRANCH   1   2
HETATM    2  C2  UNL     1     -24.778   9.504 -20.083  1.00  0.00     0.032 C 
BRANCH   2   3
HETATM    3  C1  UNL     1     -25.932   9.398 -20.981  1.00  0.00     0.230 C 
BRANCH   3   4
HETATM    4  N1  UNL     1     -25.642   9.102 -22.367  1.00  0.00    -0.079 N 
ATOM      5  H13 UNL     1     -25.585   9.970 -22.899  1.00  0.00     0.274 HD
ATOM      6  H12 UNL     1     -24.683   8.767 -22.453  1.00  0.00     0.274 HD
ATOM      7  H11 UNL     1     -26.276   8.454 -22.833  1.00  0.00     0.274 HD
ENDBRANCH   3   4
ENDBRANCH   2   3
ENDBRANCH   1   2
BRANCH   1   8
HETATM    8  C4  UNL     1     -25.742   8.329 -18.137  1.00  0.00     0.005 C 
BRANCH   8   9
HETATM    9  C5  UNL     1     -26.582   7.125 -18.134  1.00  0.00     0.005 C 
BRANCH   9  10
HETATM   10  C6  UNL     1     -26.776   6.306 -16.923  1.00  0.00    -0.014 A 
HETATM   11  C7  UNL     1     -25.735   5.938 -15.952  1.00  0.00     0.005 A 
HETATM   12  C8  UNL     1     -26.013   4.942 -17.001  1.00  0.00     0.005 A 
ENDBRANCH   9  10
ENDBRANCH   8   9
ENDBRANCH   1   8
BRANCH   1  13
HETATM   13  C9  UNL     1     -24.159   7.135 -19.612  1.00  0.00     0.009 C 
BRANCH  13  14
HETATM   14  C10 UNL     1     -22.750   6.736 -19.212  1.00  0.00    -0.014 A 
HETATM   15  C11 UNL     1     -22.672   5.274 -18.765  1.00  0.00     0.005 A 
HETATM   16  C12 UNL     1     -22.578   6.338 -17.764  1.00  0.00     0.005 A 
ENDBRANCH  13  14
ENDBRANCH   1  13
TORSDOF 8
ENDMDL
MODEL 3
REMARK VINA RESULT: -5.309646150      3.413      5.699
REMARK  8 active torsions:
REMARK  status: ('A' for Active; 'I' for Inactive)
REMARK    1  A    between atoms: N1_1  and  C1_5 
REMARK    2  A    between atoms: C1_5  and  C2_6 
REMARK    3  A    between atoms: C2_6  and  C3_7 
REMARK    4  A    between atoms: C3_7  and  C4_8 
REMARK    5  A    between atoms: C3_7  and  C9_13 
REMARK    6  A    between atoms: C4_8  and  C5_9 
REMARK    7  A    between atoms: C5_9  and  C6_10 
REMARK    8  A    between atoms: C9_13  and  C10_14 
ROOT
HETATM    1  C3  UNL     1     -23.154   4.409 -17.372  1.00  0.00    -0.013 C 
ENDROOT
BRANCH   1   2
HETATM    2  C2  UNL     1     -22.012   3.416 -17.473  1.00  0.00     0.032 C 
BRANCH   2   3
HETATM    3  C1  UNL     1     -20.639   3.924 -17.408  1.00  0.00     0.230 C 
BRANCH   3   4
HETATM    4  N1  UNL     1     -19.885   3.588 -16.220  1.00  0.00    -0.079 N 
ATOM      5  H13 UNL     1     -20.454   3.006 -15.605  1.00  0.00     0.274 HD
ATOM      6  H12 UNL     1     -19.141   2.933 -16.459  1.00  0.00     0.274 HD
ATOM      7  H11 UNL     1     -19.498   4.370 -15.692  1.00  0.00     0.274 HD
ENDBRANCH   3   4
ENDBRANCH   2   3
ENDBRANCH   1   2
BRANCH   1   8
HETATM    8  C4  UNL     1     -24.035   4.124 -16.245  1.00  0.00     0.005 C 
BRANCH   8   9
HETATM    9  C5  UNL     1     -25.156   5.013 -15.918  1.00  0.00     0.005 C 
BRANCH   9  10
HETATM   10  C6  UNL     1     -26.299   5.202 -16.830  1.00  0.00    -0.014 A 
HETATM   11  C7  UNL     1     -26.952   6.481 -17.146  1.00  0.00     0.005 A 
HETATM   12  C8  UNL     1     -27.583   5.686 -16.079  1.00  0.00     0.005 A 
ENDBRANCH   9  10
ENDBRANCH   8   9
ENDBRANCH   1   8
BRANCH   1  13
HETATM   13  C9  UNL     1     -22.673   5.819 -17.419  1.00  0.00     0.009 C 
BRANCH  13  14
HETATM   14  C10 UNL     1     -22.728   6.423 -18.811  1.00  0.00    -0.014 A 
HETATM   15  C11 UNL     1     -23.859   7.445 -18.950  1.00  0.00     0.005 A 
HETATM   16  C12 UNL     1     -23.990   6.135 -19.590  1.00  0.00     0.005 A 
ENDBRANCH  13  14
ENDBRANCH   1  13
TORSDOF 8
ENDMDL
MODEL 4
REMARK VINA RESULT: -5.309075621      3.307      5.003
REMARK  8 active torsions:
REMARK  status: ('A' for Active; 'I' for Inactive)
REMARK    1  A    between atoms: N1_1  and  C1_5 
REMARK    2  A    between atoms: C1_5  and  C2_6 
REMARK    3  A    between atoms: C2_6  and  C3_7 
REMARK    4  A    between atoms: C3_7  and  C4_8 
REMARK    5  A    between atoms: C3_7  and  C9_13 
REMARK    6  A    between atoms: C4_8  and  C5_9 
REMARK    7  A    between atoms: C5_9  and  C6_10 
REMARK    8  A    between atoms: C9_13  and  C10_14 
ROOT
HETATM    1  C3  UNL     1     -23.281   5.077 -16.878  1.00  0.00    -0.013 C 
ENDROOT
BRANCH   1   2
HETATM    2  C2  UNL     1     -22.350   3.881 -16.927  1.00  0.00     0.032 C 
BRANCH   2   3
HETATM    3  C1  UNL     1     -20.933   4.113 -17.222  1.00  0.00     0.230 C 
BRANCH   3   4
HETATM    4  N1  UNL     1     -19.984   3.614 -16.251  1.00  0.00    -0.079 N 
ATOM      5  H13 UNL     1     -20.072   4.142 -15.383  1.00  0.00     0.274 HD
ATOM      6  H12 UNL     1     -20.271   2.688 -15.935  1.00  0.00     0.274 HD
ATOM      7  H11 UNL     1     -19.007   3.592 -16.542  1.00  0.00     0.274 HD
ENDBRANCH   3   4
ENDBRANCH   2   3
ENDBRANCH   1   2
BRANCH   1   8
HETATM    8  C4  UNL     1     -22.808   6.178 -17.709  1.00  0.00     0.005 C 
BRANCH   8   9
HETATM    9  C5  UNL     1     -23.528   6.567 -18.928  1.00  0.00     0.005 C 
BRANCH   9  10
HETATM   10  C6  UNL     1     -24.177   7.884 -19.069  1.00  0.00    -0.014 A 
HETATM   11  C7  UNL     1     -25.065   8.521 -18.085  1.00  0.00     0.005 A 
HETATM   12  C8  UNL     1     -25.734   7.770 -19.161  1.00  0.00     0.005 A 
ENDBRANCH   9  10
ENDBRANCH   8   9
ENDBRANCH   1   8
BRANCH   1  13
HETATM   13  C9  UNL     1     -24.698   4.693 -17.137  1.00  0.00     0.009 C 
BRANCH  13  14
HETATM   14  C10 UNL     1     -25.571   4.760 -15.897  1.00  0.00    -0.014 A 
HETATM   15  C11 UNL     1     -26.998   5.210 -16.222  1.00  0.00     0.005 A 
HETATM   16  C12 UNL     1     -26.087   6.136 -15.545  1.00  0.00     0.005 A 
ENDBRANCH  13  14
ENDBRANCH   1  13
TORSDOF 8
ENDMDL
MODEL 5
REMARK VINA RESULT: -5.283546366      3.343      5.315
REMARK  8 active torsions:
REMARK  status: ('A' for Active; 'I' for Inactive)
REMARK    1  A    between atoms: N1_1  and  C1_5 
REMARK    2  A    between atoms: C1_5  and  C2_6 
REMARK    3  A    between atoms: C2_6  and  C3_7 
REMARK    4  A    between atoms: C3_7  and  C4_8 
REMARK    5  A    between atoms: C3_7  and  C9_13 
REMARK    6  A    between atoms: C4_8  and  C5_9 
REMARK    7  A    between atoms: C5_9  and  C6_10 
REMARK    8  A    between atoms: C9_13  and  C10_14 
ROOT
HETATM    1  C3  UNL     1     -23.403   3.377 -17.406  1.00  0.00    -0.013 C 
ENDROOT
BRANCH   1   2
HETATM    2  C2  UNL     1     -23.060   2.837 -18.782  1.00  0.00     0.032 C 
BRANCH   2   3
HETATM    3  C1  UNL     1     -24.160   2.502 -19.693  1.00  0.00     0.230 C 
BRANCH   3   4
HETATM    4  N1  UNL     1     -24.284   3.322 -20.878  1.00  0.00    -0.079 N 
ATOM      5  H13 UNL     1     -24.022   4.283 -20.661  1.00  0.00     0.274 HD
ATOM      6  H12 UNL     1     -23.552   3.076 -21.544  1.00  0.00     0.274 HD
ATOM      7  H11 UNL     1     -25.191   3.310 -21.344  1.00  0.00     0.274 HD
ENDBRANCH   3   4
ENDBRANCH   2   3
ENDBRANCH   1   2
BRANCH   1   8
HETATM    8  C4  UNL     1     -22.281   4.083 -16.797  1.00  0.00     0.005 C 
BRANCH   8   9
HETATM    9  C5  UNL     1     -21.311   4.813 -17.622  1.00  0.00     0.005 C 
BRANCH   9  10
HETATM   10  C6  UNL     1     -21.543   6.201 -18.062  1.00  0.00    -0.014 A 
HETATM   11  C7  UNL     1     -22.433   6.626 -19.153  1.00  0.00     0.005 A 
HETATM   12  C8  UNL     1     -21.014   6.460 -19.512  1.00  0.00     0.005 A 
ENDBRANCH   9  10
ENDBRANCH   8   9
ENDBRANCH   1   8
BRANCH   1  13
HETATM   13  C9  UNL     1     -24.673   4.158 -17.414  1.00  0.00     0.009 C 
BRANCH  13  14
HETATM   14  C10 UNL     1     -24.826   5.059 -16.201  1.00  0.00    -0.014 A 
HETATM   15  C11 UNL     1     -26.244   5.621 -16.078  1.00  0.00     0.005 A 
HETATM   16  C12 UNL     1     -25.156   6.502 -16.507  1.00  0.00     0.005 A 
ENDBRANCH  13  14
ENDBRANCH   1  13
TORSDOF 8
ENDMDL
