MODEL 1
REMARK VINA RESULT: -7.283419911      0.000      0.000
REMARK  2 active torsions:
REMARK  status: ('A' for Active; 'I' for Inactive)
REMARK    1  A    between atoms: C2_2  and  C3_3 
REMARK    2  A    between atoms: C3_3  and  C4_4 
ROOT
HETATM    1  C4  UNL     1      -4.703   4.094  12.748  1.00  0.00     0.006 A 
HETATM    2  C5  UNL     1      -4.534   3.177  11.491  1.00  0.00     0.190 C 
HETATM    3  C6  UNL     1      -3.243   2.625  11.282  1.00  0.00     0.307 C 
HETATM    4  N1  UNL     1      -1.942   2.999  10.995  1.00  0.00     0.093 N 
HETATM    5  C7  UNL     1      -1.221   1.723  11.100  1.00  0.00     0.272 C 
HETATM    6  C8  UNL     1      -1.909   0.550  10.472  1.00  0.00     0.032 C 
HETATM    7  C9  UNL     1      -2.817  -0.303  11.261  1.00  0.00     0.023 C 
HETATM    8  C10 UNL     1      -4.323  -0.067  11.142  1.00  0.00     0.146 C 
HETATM    9  N2  UNL     1      -4.858   0.929  12.012  1.00  0.00    -0.302 N 
ATOM     10  H2  UNL     1      -4.837   0.752  13.016  1.00  0.00     0.187 HD
HETATM   11  O1  UNL     1      -5.374   2.052  11.597  1.00  0.00    -0.277 OA
HETATM   12  C11 UNL     1      -1.353   3.959  11.920  1.00  0.00     0.309 C 
HETATM   13  C12 UNL     1      -2.418   4.964  12.074  1.00  0.00     0.261 C 
HETATM   14  N3  UNL     1      -2.155   6.142  12.842  1.00  0.00     0.096 N 
HETATM   15  C13 UNL     1      -1.542   5.524  14.030  1.00  0.00     0.274 C 
HETATM   16  C14 UNL     1      -2.654   4.502  14.336  1.00  0.00     0.043 C 
HETATM   17  C15 UNL     1      -3.408   4.389  13.073  1.00  0.00     0.011 A 
HETATM   18  C16 UNL     1      -4.458   5.506  12.700  1.00  0.00     0.037 A 
HETATM   19  C17 UNL     1      -3.519   6.480  13.317  1.00  0.00     0.279 C 
ENDROOT
BRANCH   1  20
HETATM   20  C3  UNL     1      -5.689   3.538  13.695  1.00  0.00     0.013 C 
BRANCH  20  21
HETATM   21  C2  UNL     1      -6.401   4.415  14.641  1.00  0.00    -0.004 C 
HETATM   22  C1  UNL     1      -6.228   4.089  16.104  1.00  0.00     0.005 C 
ENDBRANCH  20  21
ENDBRANCH   1  20
TORSDOF 2
ENDMDL
MODEL 2
REMARK VINA RESULT: -6.871050411      1.752      2.339
REMARK  2 active torsions:
REMARK  status: ('A' for Active; 'I' for Inactive)
REMARK    1  A    between atoms: C2_2  and  C3_3 
REMARK    2  A    between atoms: C3_3  and  C4_4 
ROOT
HETATM    1  C4  UNL     1      -5.114   2.477  14.167  1.00  0.00     0.006 A 
HETATM    2  C5  UNL     1      -4.883   2.030  12.684  1.00  0.00     0.190 C 
HETATM    3  C6  UNL     1      -3.802   2.645  12.001  1.00  0.00     0.307 C 
HETATM    4  N1  UNL     1      -3.380   3.877  11.535  1.00  0.00     0.093 N 
HETATM    5  C7  UNL     1      -2.025   3.580  11.053  1.00  0.00     0.272 C 
HETATM    6  C8  UNL     1      -1.890   2.305  10.278  1.00  0.00     0.032 C 
HETATM    7  C9  UNL     1      -1.544   1.042  10.957  1.00  0.00     0.023 C 
HETATM    8  C10 UNL     1      -2.671   0.066  11.293  1.00  0.00     0.146 C 
HETATM    9  N2  UNL     1      -3.333   0.297  12.536  1.00  0.00    -0.302 N 
ATOM     10  H2  UNL     1      -2.798   0.174  13.395  1.00  0.00     0.187 HD
HETATM   11  O1  UNL     1      -4.582   0.655  12.635  1.00  0.00    -0.277 OA
HETATM   12  C11 UNL     1      -3.310   4.930  12.539  1.00  0.00     0.309 C 
HETATM   13  C12 UNL     1      -4.586   4.785  13.259  1.00  0.00     0.261 C 
HETATM   14  N3  UNL     1      -4.928   5.739  14.269  1.00  0.00     0.096 N 
HETATM   15  C13 UNL     1      -3.657   5.769  15.012  1.00  0.00     0.274 C 
HETATM   16  C14 UNL     1      -3.512   4.253  15.246  1.00  0.00     0.043 C 
HETATM   17  C15 UNL     1      -4.397   3.639  14.238  1.00  0.00     0.011 A 
HETATM   18  C16 UNL     1      -5.951   3.590  14.506  1.00  0.00     0.037 A 
HETATM   19  C17 UNL     1      -5.800   4.923  15.147  1.00  0.00     0.279 C 
ENDROOT
BRANCH   1  20
HETATM   20  C3  UNL     1      -4.955   1.347  15.103  1.00  0.00     0.013 C 
BRANCH  20  21
HETATM   21  C2  UNL     1      -5.304   1.496  16.528  1.00  0.00    -0.004 C 
HETATM   22  C1  UNL     1      -6.613   0.879  16.957  1.00  0.00     0.005 C 
ENDBRANCH  20  21
ENDBRANCH   1  20
TORSDOF 2
ENDMDL
MODEL 3
REMARK VINA RESULT: -6.632844798      1.478      4.460
REMARK  2 active torsions:
REMARK  status: ('A' for Active; 'I' for Inactive)
REMARK    1  A    between atoms: C2_2  and  C3_3 
REMARK    2  A    between atoms: C3_3  and  C4_4 
ROOT
HETATM    1  C4  UNL     1      -3.274   2.175  11.740  1.00  0.00     0.006 A 
HETATM    2  C5  UNL     1      -3.569   2.433  13.256  1.00  0.00     0.190 C 
HETATM    3  C6  UNL     1      -3.497   3.782  13.692  1.00  0.00     0.307 C 
HETATM    4  N1  UNL     1      -2.596   4.821  13.846  1.00  0.00     0.093 N 
HETATM    5  C7  UNL     1      -3.468   5.931  14.254  1.00  0.00     0.272 C 
HETATM    6  C8  UNL     1      -4.517   5.580  15.264  1.00  0.00     0.032 C 
HETATM    7  C9  UNL     1      -5.861   5.147  14.837  1.00  0.00     0.023 C 
HETATM    8  C10 UNL     1      -6.170   3.649  14.819  1.00  0.00     0.146 C 
HETATM    9  N2  UNL     1      -5.808   2.962  13.622  1.00  0.00    -0.302 N 
ATOM     10  H2  UNL     1      -6.301   3.203  12.762  1.00  0.00     0.187 HD
HETATM   11  O1  UNL     1      -4.885   2.043  13.565  1.00  0.00    -0.277 OA
HETATM   12  C11 UNL     1      -1.871   5.199  12.641  1.00  0.00     0.309 C 
HETATM   13  C12 UNL     1      -1.449   3.901  12.089  1.00  0.00     0.261 C 
HETATM   14  N3  UNL     1      -0.601   3.878  10.937  1.00  0.00     0.096 N 
HETATM   15  C13 UNL     1      -1.319   4.846  10.090  1.00  0.00     0.274 C 
HETATM   16  C14 UNL     1      -2.716   4.201  10.168  1.00  0.00     0.043 C 
HETATM   17  C15 UNL     1      -2.655   3.334  11.360  1.00  0.00     0.011 A 
HETATM   18  C16 UNL     1      -1.949   1.927  11.253  1.00  0.00     0.037 A 
HETATM   19  C17 UNL     1      -0.976   2.576  10.335  1.00  0.00     0.279 C 
ENDROOT
BRANCH   1  20
HETATM   20  C3  UNL     1      -4.445   1.597  11.052  1.00  0.00     0.013 C 
BRANCH  20  21
HETATM   21  C2  UNL     1      -4.413   0.212  10.549  1.00  0.00    -0.004 C 
HETATM   22  C1  UNL     1      -4.158  -0.861  11.579  1.00  0.00     0.005 C 
ENDBRANCH  20  21
ENDBRANCH   1  20
TORSDOF 2
ENDMDL
MODEL 4
REMARK VINA RESULT: -6.537674923      2.336      4.992
REMARK  2 active torsions:
REMARK  status: ('A' for Active; 'I' for Inactive)
REMARK    1  A    between atoms: C2_2  and  C3_3 
REMARK    2  A    between atoms: C3_3  and  C4_4 
ROOT
HETATM    1  C4  UNL     1      -3.692   2.956  13.666  1.00  0.00     0.006 A 
HETATM    2  C5  UNL     1      -3.771   2.608  15.190  1.00  0.00     0.190 C 
HETATM    3  C6  UNL     1      -4.883   3.131  15.900  1.00  0.00     0.307 C 
HETATM    4  N1  UNL     1      -5.441   4.332  16.300  1.00  0.00     0.093 N 
HETATM    5  C7  UNL     1      -6.712   3.900  16.898  1.00  0.00     0.272 C 
HETATM    6  C8  UNL     1      -6.625   2.688  17.774  1.00  0.00     0.032 C 
HETATM    7  C9  UNL     1      -6.835   1.339  17.217  1.00  0.00     0.023 C 
HETATM    8  C10 UNL     1      -5.607   0.494  16.877  1.00  0.00     0.146 C 
HETATM    9  N2  UNL     1      -5.058   0.705  15.577  1.00  0.00    -0.302 N 
ATOM     10  H2  UNL     1      -5.621   0.441  14.769  1.00  0.00     0.187 HD
HETATM   11  O1  UNL     1      -3.877   1.215  15.363  1.00  0.00    -0.277 OA
HETATM   12  C11 UNL     1      -5.714   5.279  15.227  1.00  0.00     0.309 C 
HETATM   13  C12 UNL     1      -4.475   5.242  14.432  1.00  0.00     0.261 C 
HETATM   14  N3  UNL     1      -4.329   6.145  13.332  1.00  0.00     0.096 N 
HETATM   15  C13 UNL     1      -5.634   5.945  12.680  1.00  0.00     0.274 C 
HETATM   16  C14 UNL     1      -5.584   4.409  12.571  1.00  0.00     0.043 C 
HETATM   17  C15 UNL     1      -4.564   4.003  13.558  1.00  0.00     0.011 A 
HETATM   18  C16 UNL     1      -3.037   4.137  13.186  1.00  0.00     0.037 A 
HETATM   19  C17 UNL     1      -3.406   5.380  12.459  1.00  0.00     0.279 C 
ENDROOT
BRANCH   1  20
HETATM   20  C3  UNL     1      -3.750   1.740  12.830  1.00  0.00     0.013 C 
BRANCH  20  21
HETATM   21  C2  UNL     1      -3.291   1.767  11.430  1.00  0.00    -0.004 C 
HETATM   22  C1  UNL     1      -2.039   0.980  11.128  1.00  0.00     0.005 C 
ENDBRANCH  20  21
ENDBRANCH   1  20
TORSDOF 2
ENDMDL
MODEL 5
REMARK VINA RESULT: -6.271110419      2.566      4.243
REMARK  2 active torsions:
REMARK  status: ('A' for Active; 'I' for Inactive)
REMARK    1  A    between atoms: C2_2  and  C3_3 
REMARK    2  A    between atoms: C3_3  and  C4_4 
ROOT
HETATM    1  C4  UNL     1      -5.798   3.789  14.643  1.00  0.00     0.006 A 
HETATM    2  C5  UNL     1      -4.608   3.232  13.791  1.00  0.00     0.190 C 
HETATM    3  C6  UNL     1      -4.417   1.826  13.819  1.00  0.00     0.307 C 
HETATM    4  N1  UNL     1      -4.081   0.798  14.682  1.00  0.00     0.093 N 
HETATM    5  C7  UNL     1      -4.265  -0.390  13.837  1.00  0.00     0.272 C 
HETATM    6  C8  UNL     1      -3.737  -0.268  12.441  1.00  0.00     0.032 C 
HETATM    7  C9  UNL     1      -4.602   0.210  11.346  1.00  0.00     0.023 C 
HETATM    8  C10 UNL     1      -4.493   1.674  10.920  1.00  0.00     0.146 C 
HETATM    9  N2  UNL     1      -5.298   2.591  11.660  1.00  0.00    -0.302 N 
ATOM     10  H2  UNL     1      -6.311   2.511  11.583  1.00  0.00     0.187 HD
HETATM   11  O1  UNL     1      -4.811   3.524  12.429  1.00  0.00    -0.277 OA
HETATM   12  C11 UNL     1      -4.922   0.680  15.865  1.00  0.00     0.309 C 
HETATM   13  C12 UNL     1      -5.022   2.071  16.339  1.00  0.00     0.261 C 
HETATM   14  N3  UNL     1      -5.697   2.338  17.572  1.00  0.00     0.096 N 
HETATM   15  C13 UNL     1      -6.915   1.539  17.357  1.00  0.00     0.274 C 
HETATM   16  C14 UNL     1      -7.315   2.123  15.989  1.00  0.00     0.043 C 
HETATM   17  C15 UNL     1      -6.078   2.742  15.477  1.00  0.00     0.011 A 
HETATM   18  C16 UNL     1      -5.643   4.158  16.019  1.00  0.00     0.037 A 
HETATM   19  C17 UNL     1      -6.171   3.724  17.340  1.00  0.00     0.279 C 
ENDROOT
BRANCH   1  20
HETATM   20  C3  UNL     1      -6.801   4.463  13.795  1.00  0.00     0.013 C 
BRANCH  20  21
HETATM   21  C2  UNL     1      -6.814   5.932  13.670  1.00  0.00    -0.004 C 
HETATM   22  C1  UNL     1      -6.661   6.478  12.272  1.00  0.00     0.005 C 
ENDBRANCH  20  21
ENDBRANCH   1  20
TORSDOF 2
ENDMDL
