MODEL 1
REMARK VINA RESULT: -7.507251009      0.000      0.000
REMARK  13 active torsions:
REMARK  status: ('A' for Active; 'I' for Inactive)
REMARK    1  A    between atoms: C2_2  and  S1_3 
REMARK    2  A    between atoms: S1_3  and  C3_4 
REMARK    3  A    between atoms: C3_4  and  N1_5 
REMARK    4  A    between atoms: C3_4  and  N6_29 
REMARK    5  A    between atoms: N1_5  and  N2_7 
REMARK    6  A    between atoms: C4_9  and  S2_10 
REMARK    7  A    between atoms: C4_9  and  S3_24 
REMARK    8  A    between atoms: S2_10  and  N3_11 
REMARK    9  A    between atoms: N4_13  and  N5_15 
REMARK   10  A    between atoms: C5_17  and  C6_18 
REMARK   11  A    between atoms: C5_17  and  C8_20 
REMARK   12  A    between atoms: S3_24  and  C9_27 
REMARK   13  A    between atoms: N6_29  and  C11_31 
ROOT
HETATM    1  N2  UNL     1      15.005  10.678  28.903  1.00  0.00    -0.285 N 
ATOM      2  H2  UNL     1      15.645  10.131  29.480  1.00  0.00     0.188 HD
HETATM    3  C4  UNL     1      13.783  10.669  29.228  1.00  0.00     0.202 C 
ENDROOT
BRANCH   3   4
HETATM    4  S2  UNL     1      13.312   9.687  30.673  1.00  0.00     0.035 SA
BRANCH   4   5
HETATM    5  N3  UNL     1      12.349   8.333  30.118  1.00  0.00    -0.253 N 
HETATM    6  N4  UNL     1      11.108   8.326  30.328  1.00  0.00    -0.236 N 
ATOM      7  H4  UNL     1      10.536   7.544  30.010  1.00  0.00     0.209 HD
ATOM      8  H3  UNL     1      12.791   7.556  29.627  1.00  0.00     0.197 HD
BRANCH   6   9
HETATM    9  N5  UNL     1      10.526   9.397  31.000  1.00  0.00    -0.285 N 
HETATM   10  C5  UNL     1       9.261   9.529  31.219  1.00  0.00     0.110 C 
ATOM     11  H5  UNL     1      11.144  10.131  31.345  1.00  0.00     0.188 HD
BRANCH  10  12
HETATM   12  C6  UNL     1       8.374   8.474  30.721  1.00  0.00     0.059 C 
HETATM   13  C7  UNL     1       7.798   7.602  31.800  1.00  0.00     0.011 C 
ENDBRANCH  10  12
BRANCH  10  14
HETATM   14  C8  UNL     1       8.820  10.731  31.949  1.00  0.00     0.430 C 
HETATM   15  F1  UNL     1       8.926  10.502  33.302  1.00  0.00    -0.165 F 
HETATM   16  F2  UNL     1       7.510  11.063  31.700  1.00  0.00    -0.165 F 
HETATM   17  F3  UNL     1       9.680  11.764  31.629  1.00  0.00    -0.165 F 
ENDBRANCH  10  14
ENDBRANCH   6   9
ENDBRANCH   4   5
ENDBRANCH   3   4
BRANCH   3  18
HETATM   18  S3  UNL     1      12.482  11.495  28.416  1.00  0.00     0.200 S 
HETATM   19  O1  UNL     1      12.798  11.769  26.967  1.00  0.00    -0.221 OA
HETATM   20  O2  UNL     1      11.270  10.587  28.437  1.00  0.00    -0.221 OA
BRANCH  18  21
HETATM   21  C9  UNL     1      12.038  12.979  29.234  1.00  0.00     0.143 C 
HETATM   22  C10 UNL     1      13.080  13.551  30.132  1.00  0.00     0.021 C 
ENDBRANCH  18  21
ENDBRANCH   3  18
BRANCH   1  23
HETATM   23  N1  UNL     1      15.545  11.361  27.839  1.00  0.00    -0.303 N 
ATOM     24  H1  UNL     1      15.213  11.164  26.895  1.00  0.00     0.183 HD
BRANCH  23  25
HETATM   25  C3  UNL     1      16.586  12.362  28.040  1.00  0.00     0.261 C 
BRANCH  25  26
HETATM   26  S1  UNL     1      17.713  11.778  29.314  1.00  0.00    -0.122 SA
BRANCH  26  27
HETATM   27  C2  UNL     1      19.436  11.826  28.763  1.00  0.00     0.073 C 
HETATM   28  C1  UNL     1      19.879  13.274  28.690  1.00  0.00     0.016 C 
ENDBRANCH  26  27
ENDBRANCH  25  26
BRANCH  25  29
HETATM   29  N6  UNL     1      16.040  13.659  28.272  1.00  0.00    -0.357 N 
ATOM     30  H6  UNL     1      15.544  13.849  29.143  1.00  0.00     0.162 HD
BRANCH  29  31
HETATM   31  C11 UNL     1      16.180  14.688  27.304  1.00  0.00     0.069 A 
HETATM   32  C12 UNL     1      17.350  14.877  26.600  1.00  0.00     0.032 A 
HETATM   33  C13 UNL     1      17.446  15.887  25.658  1.00  0.00     0.002 A 
HETATM   34  C14 UNL     1      16.351  16.695  25.440  1.00  0.00     0.003 A 
HETATM   35  C15 UNL     1      15.164  16.534  26.126  1.00  0.00     0.044 A 
HETATM   36  C16 UNL     1      15.088  15.529  27.055  1.00  0.00     0.142 A 
HETATM   37  F4  UNL     1      13.946  15.343  27.742  1.00  0.00    -0.204 F 
ENDBRANCH  29  31
ENDBRANCH  25  29
ENDBRANCH  23  25
ENDBRANCH   1  23
TORSDOF 13
ENDMDL
MODEL 2
REMARK VINA RESULT: -7.356588208      4.914      7.050
REMARK  13 active torsions:
REMARK  status: ('A' for Active; 'I' for Inactive)
REMARK    1  A    between atoms: C2_2  and  S1_3 
REMARK    2  A    between atoms: S1_3  and  C3_4 
REMARK    3  A    between atoms: C3_4  and  N1_5 
REMARK    4  A    between atoms: C3_4  and  N6_29 
REMARK    5  A    between atoms: N1_5  and  N2_7 
REMARK    6  A    between atoms: C4_9  and  S2_10 
REMARK    7  A    between atoms: C4_9  and  S3_24 
REMARK    8  A    between atoms: S2_10  and  N3_11 
REMARK    9  A    between atoms: N4_13  and  N5_15 
REMARK   10  A    between atoms: C5_17  and  C6_18 
REMARK   11  A    between atoms: C5_17  and  C8_20 
REMARK   12  A    between atoms: S3_24  and  C9_27 
REMARK   13  A    between atoms: N6_29  and  C11_31 
ROOT
HETATM    1  N2  UNL     1      15.692  17.301  26.276  1.00  0.00    -0.285 N 
ATOM      2  H2  UNL     1      14.779  17.748  26.185  1.00  0.00     0.188 HD
HETATM    3  C4  UNL     1      15.715  16.119  26.726  1.00  0.00     0.202 C 
ENDROOT
BRANCH   3   4
HETATM    4  S2  UNL     1      14.129  15.361  27.157  1.00  0.00     0.035 SA
BRANCH   4   5
HETATM    5  N3  UNL     1      13.962  15.408  28.900  1.00  0.00    -0.253 N 
HETATM    6  N4  UNL     1      13.501  14.407  29.507  1.00  0.00    -0.236 N 
ATOM      7  H4  UNL     1      13.399  14.421  30.522  1.00  0.00     0.209 HD
ATOM      8  H3  UNL     1      14.237  16.242  29.419  1.00  0.00     0.197 HD
BRANCH   6   9
HETATM    9  N5  UNL     1      13.133  13.280  28.778  1.00  0.00    -0.285 N 
HETATM   10  C5  UNL     1      13.496  12.073  29.054  1.00  0.00     0.110 C 
ATOM     11  H5  UNL     1      12.531  13.418  27.966  1.00  0.00     0.188 HD
BRANCH  10  12
HETATM   12  C6  UNL     1      14.361  11.876  30.220  1.00  0.00     0.059 C 
HETATM   13  C7  UNL     1      15.433  10.844  30.018  1.00  0.00     0.011 C 
ENDBRANCH  10  12
BRANCH  10  14
HETATM   14  C8  UNL     1      13.009  10.998  28.171  1.00  0.00     0.430 C 
HETATM   15  F1  UNL     1      11.771  11.344  27.678  1.00  0.00    -0.165 F 
HETATM   16  F2  UNL     1      12.861   9.795  28.816  1.00  0.00    -0.165 F 
HETATM   17  F3  UNL     1      13.876  10.901  27.100  1.00  0.00    -0.165 F 
ENDBRANCH  10  14
ENDBRANCH   6   9
ENDBRANCH   4   5
ENDBRANCH   3   4
BRANCH   3  18
HETATM   18  S3  UNL     1      17.125  15.134  26.997  1.00  0.00     0.200 S 
HETATM   19  O1  UNL     1      17.852  14.814  25.716  1.00  0.00    -0.221 OA
HETATM   20  O2  UNL     1      18.085  15.924  27.862  1.00  0.00    -0.221 OA
BRANCH  18  21
HETATM   21  C9  UNL     1      16.736  13.660  27.861  1.00  0.00     0.143 C 
HETATM   22  C10 UNL     1      17.900  12.810  28.233  1.00  0.00     0.021 C 
ENDBRANCH  18  21
ENDBRANCH   3  18
BRANCH   1  23
HETATM   23  N1  UNL     1      16.792  18.035  25.900  1.00  0.00    -0.303 N 
ATOM     24  H1  UNL     1      17.709  17.796  26.277  1.00  0.00     0.183 HD
BRANCH  23  25
HETATM   25  C3  UNL     1      16.668  19.151  24.970  1.00  0.00     0.261 C 
BRANCH  25  26
HETATM   26  S1  UNL     1      17.281  18.635  23.360  1.00  0.00    -0.122 SA
BRANCH  26  27
HETATM   27  C2  UNL     1      18.971  17.995  23.457  1.00  0.00     0.073 C 
HETATM   28  C1  UNL     1      18.925  16.488  23.305  1.00  0.00     0.016 C 
ENDBRANCH  26  27
ENDBRANCH  25  26
BRANCH  25  29
HETATM   29  N6  UNL     1      17.263  20.341  25.484  1.00  0.00    -0.357 N 
ATOM     30  H6  UNL     1      17.548  20.381  26.463  1.00  0.00     0.162 HD
BRANCH  29  31
HETATM   31  C11 UNL     1      17.464  21.470  24.648  1.00  0.00     0.069 A 
HETATM   32  C12 UNL     1      16.440  22.027  23.910  1.00  0.00     0.032 A 
HETATM   33  C13 UNL     1      16.674  23.134  23.112  1.00  0.00     0.002 A 
HETATM   34  C14 UNL     1      17.945  23.665  23.070  1.00  0.00     0.003 A 
HETATM   35  C15 UNL     1      18.992  23.134  23.796  1.00  0.00     0.044 A 
HETATM   36  C16 UNL     1      18.743  22.038  24.581  1.00  0.00     0.142 A 
HETATM   37  F4  UNL     1      19.741  21.495  25.301  1.00  0.00    -0.204 F 
ENDBRANCH  29  31
ENDBRANCH  25  29
ENDBRANCH  23  25
ENDBRANCH   1  23
TORSDOF 13
ENDMDL
MODEL 3
REMARK VINA RESULT: -7.213846005      4.914      6.979
REMARK  13 active torsions:
REMARK  status: ('A' for Active; 'I' for Inactive)
REMARK    1  A    between atoms: C2_2  and  S1_3 
REMARK    2  A    between atoms: S1_3  and  C3_4 
REMARK    3  A    between atoms: C3_4  and  N1_5 
REMARK    4  A    between atoms: C3_4  and  N6_29 
REMARK    5  A    between atoms: N1_5  and  N2_7 
REMARK    6  A    between atoms: C4_9  and  S2_10 
REMARK    7  A    between atoms: C4_9  and  S3_24 
REMARK    8  A    between atoms: S2_10  and  N3_11 
REMARK    9  A    between atoms: N4_13  and  N5_15 
REMARK   10  A    between atoms: C5_17  and  C6_18 
REMARK   11  A    between atoms: C5_17  and  C8_20 
REMARK   12  A    between atoms: S3_24  and  C9_27 
REMARK   13  A    between atoms: N6_29  and  C11_31 
ROOT
HETATM    1  N2  UNL     1      15.658  17.287  26.158  1.00  0.00    -0.285 N 
ATOM      2  H2  UNL     1      14.736  17.688  25.984  1.00  0.00     0.188 HD
HETATM    3  C4  UNL     1      15.701  16.101  26.594  1.00  0.00     0.202 C 
ENDROOT
BRANCH   3   4
HETATM    4  S2  UNL     1      14.124  15.255  26.860  1.00  0.00     0.035 SA
BRANCH   4   5
HETATM    5  N3  UNL     1      13.455  15.819  28.378  1.00  0.00    -0.253 N 
HETATM    6  N4  UNL     1      13.314  15.012  29.333  1.00  0.00    -0.236 N 
ATOM      7  H4  UNL     1      12.926  15.327  30.222  1.00  0.00     0.209 HD
ATOM      8  H3  UNL     1      13.183  16.796  28.486  1.00  0.00     0.197 HD
BRANCH   6   9
HETATM    9  N5  UNL     1      13.693  13.683  29.162  1.00  0.00    -0.285 N 
HETATM   10  C5  UNL     1      12.879  12.682  29.145  1.00  0.00     0.110 C 
ATOM     11  H5  UNL     1      14.686  13.487  29.042  1.00  0.00     0.188 HD
BRANCH  10  12
HETATM   12  C6  UNL     1      11.452  12.965  29.319  1.00  0.00     0.059 C 
HETATM   13  C7  UNL     1      10.782  12.108  30.354  1.00  0.00     0.011 C 
ENDBRANCH  10  12
BRANCH  10  14
HETATM   14  C8  UNL     1      13.457  11.340  28.952  1.00  0.00     0.430 C 
HETATM   15  F1  UNL     1      14.588  11.442  28.174  1.00  0.00    -0.165 F 
HETATM   16  F2  UNL     1      12.607  10.472  28.312  1.00  0.00    -0.165 F 
HETATM   17  F3  UNL     1      13.843  10.860  30.190  1.00  0.00    -0.165 F 
ENDBRANCH  10  14
ENDBRANCH   6   9
ENDBRANCH   4   5
ENDBRANCH   3   4
BRANCH   3  18
HETATM   18  S3  UNL     1      17.129  15.186  26.989  1.00  0.00     0.200 S 
HETATM   19  O1  UNL     1      17.888  14.755  25.760  1.00  0.00    -0.221 OA
HETATM   20  O2  UNL     1      18.053  16.086  27.783  1.00  0.00    -0.221 OA
BRANCH  18  21
HETATM   21  C9  UNL     1      16.759  13.799  27.994  1.00  0.00     0.143 C 
HETATM   22  C10 UNL     1      17.857  12.805  28.141  1.00  0.00     0.021 C 
ENDBRANCH  18  21
ENDBRANCH   3  18
BRANCH   1  23
HETATM   23  N1  UNL     1      16.749  18.084  25.899  1.00  0.00    -0.303 N 
ATOM     24  H1  UNL     1      17.632  17.896  26.372  1.00  0.00     0.183 HD
BRANCH  23  25
HETATM   25  C3  UNL     1      16.661  19.195  24.959  1.00  0.00     0.261 C 
BRANCH  25  26
HETATM   26  S1  UNL     1      17.256  18.644  23.354  1.00  0.00    -0.122 SA
BRANCH  26  27
HETATM   27  C2  UNL     1      18.951  18.014  23.444  1.00  0.00     0.073 C 
HETATM   28  C1  UNL     1      18.911  16.503  23.328  1.00  0.00     0.016 C 
ENDBRANCH  26  27
ENDBRANCH  25  26
BRANCH  25  29
HETATM   29  N6  UNL     1      17.295  20.369  25.461  1.00  0.00    -0.357 N 
ATOM     30  H6  UNL     1      17.617  20.394  26.429  1.00  0.00     0.162 HD
BRANCH  29  31
HETATM   31  C11 UNL     1      17.483  21.504  24.629  1.00  0.00     0.069 A 
HETATM   32  C12 UNL     1      16.452  22.054  23.897  1.00  0.00     0.032 A 
HETATM   33  C13 UNL     1      16.673  23.167  23.103  1.00  0.00     0.002 A 
HETATM   34  C14 UNL     1      17.939  23.709  23.060  1.00  0.00     0.003 A 
HETATM   35  C15 UNL     1      18.994  23.184  23.780  1.00  0.00     0.044 A 
HETATM   36  C16 UNL     1      18.757  22.083  24.561  1.00  0.00     0.142 A 
HETATM   37  F4  UNL     1      19.762  21.546  25.275  1.00  0.00    -0.204 F 
ENDBRANCH  29  31
ENDBRANCH  25  29
ENDBRANCH  23  25
ENDBRANCH   1  23
TORSDOF 13
ENDMDL
MODEL 4
REMARK VINA RESULT: -7.094199132      0.848      1.203
REMARK  13 active torsions:
REMARK  status: ('A' for Active; 'I' for Inactive)
REMARK    1  A    between atoms: C2_2  and  S1_3 
REMARK    2  A    between atoms: S1_3  and  C3_4 
REMARK    3  A    between atoms: C3_4  and  N1_5 
REMARK    4  A    between atoms: C3_4  and  N6_29 
REMARK    5  A    between atoms: N1_5  and  N2_7 
REMARK    6  A    between atoms: C4_9  and  S2_10 
REMARK    7  A    between atoms: C4_9  and  S3_24 
REMARK    8  A    between atoms: S2_10  and  N3_11 
REMARK    9  A    between atoms: N4_13  and  N5_15 
REMARK   10  A    between atoms: C5_17  and  C6_18 
REMARK   11  A    between atoms: C5_17  and  C8_20 
REMARK   12  A    between atoms: S3_24  and  C9_27 
REMARK   13  A    between atoms: N6_29  and  C11_31 
ROOT
HETATM    1  N2  UNL     1      14.981  10.747  28.946  1.00  0.00    -0.285 N 
ATOM      2  H2  UNL     1      15.623  10.210  29.529  1.00  0.00     0.188 HD
HETATM    3  C4  UNL     1      13.753  10.705  29.246  1.00  0.00     0.202 C 
ENDROOT
BRANCH   3   4
HETATM    4  S2  UNL     1      13.278   9.696  30.671  1.00  0.00     0.035 SA
BRANCH   4   5
HETATM    5  N3  UNL     1      12.334   8.342  30.086  1.00  0.00    -0.253 N 
HETATM    6  N4  UNL     1      11.094   8.310  30.302  1.00  0.00    -0.236 N 
ATOM      7  H4  UNL     1      10.532   7.527  29.967  1.00  0.00     0.209 HD
ATOM      8  H3  UNL     1      12.785   7.585  29.573  1.00  0.00     0.197 HD
BRANCH   6   9
HETATM    9  N5  UNL     1      10.499   9.354  31.004  1.00  0.00    -0.285 N 
HETATM   10  C5  UNL     1       9.235   9.453  31.245  1.00  0.00     0.110 C 
ATOM     11  H5  UNL     1      11.105  10.095  31.354  1.00  0.00     0.188 HD
BRANCH  10  12
HETATM   12  C6  UNL     1       8.364   8.388  30.740  1.00  0.00     0.059 C 
HETATM   13  C7  UNL     1       7.885   7.438  31.799  1.00  0.00     0.011 C 
ENDBRANCH  10  12
BRANCH  10  14
HETATM   14  C8  UNL     1       8.779  10.630  32.005  1.00  0.00     0.430 C 
HETATM   15  F1  UNL     1       8.907  10.375  33.352  1.00  0.00    -0.165 F 
HETATM   16  F2  UNL     1       7.460  10.940  31.780  1.00  0.00    -0.165 F 
HETATM   17  F3  UNL     1       9.613  11.687  31.697  1.00  0.00    -0.165 F 
ENDBRANCH  10  14
ENDBRANCH   6   9
ENDBRANCH   4   5
ENDBRANCH   3   4
BRANCH   3  18
HETATM   18  S3  UNL     1      12.449  11.506  28.416  1.00  0.00     0.200 S 
HETATM   19  O1  UNL     1      12.775  11.779  26.969  1.00  0.00    -0.221 OA
HETATM   20  O2  UNL     1      11.250  10.581  28.429  1.00  0.00    -0.221 OA
BRANCH  18  21
HETATM   21  C9  UNL     1      11.974  12.988  29.222  1.00  0.00     0.143 C 
HETATM   22  C10 UNL     1      13.055  13.680  29.977  1.00  0.00     0.021 C 
ENDBRANCH  18  21
ENDBRANCH   3  18
BRANCH   1  23
HETATM   23  N1  UNL     1      15.525  11.454  27.900  1.00  0.00    -0.303 N 
ATOM     24  H1  UNL     1      15.140  11.341  26.962  1.00  0.00     0.183 HD
BRANCH  23  25
HETATM   25  C3  UNL     1      16.645  12.364  28.110  1.00  0.00     0.261 C 
BRANCH  25  26
HETATM   26  S1  UNL     1      17.808  11.598  29.249  1.00  0.00    -0.122 SA
BRANCH  26  27
HETATM   27  C2  UNL     1      19.513  11.725  28.656  1.00  0.00     0.073 C 
HETATM   28  C1  UNL     1      19.993  13.147  28.870  1.00  0.00     0.016 C 
ENDBRANCH  26  27
ENDBRANCH  25  26
BRANCH  25  29
HETATM   29  N6  UNL     1      16.207  13.668  28.489  1.00  0.00    -0.357 N 
ATOM     30  H6  UNL     1      16.014  13.870  29.471  1.00  0.00     0.162 HD
BRANCH  29  31
HETATM   31  C11 UNL     1      16.038  14.687  27.516  1.00  0.00     0.069 A 
HETATM   32  C12 UNL     1      14.804  15.239  27.241  1.00  0.00     0.032 A 
HETATM   33  C13 UNL     1      14.680  16.238  26.290  1.00  0.00     0.002 A 
HETATM   34  C14 UNL     1      15.810  16.665  25.627  1.00  0.00     0.003 A 
HETATM   35  C15 UNL     1      17.060  16.135  25.877  1.00  0.00     0.044 A 
HETATM   36  C16 UNL     1      17.164  15.147  26.822  1.00  0.00     0.142 A 
HETATM   37  F4  UNL     1      18.367  14.608  27.091  1.00  0.00    -0.204 F 
ENDBRANCH  29  31
ENDBRANCH  25  29
ENDBRANCH  23  25
ENDBRANCH   1  23
TORSDOF 13
ENDMDL
MODEL 5
REMARK VINA RESULT: -7.092983469      2.147      2.908
REMARK  13 active torsions:
REMARK  status: ('A' for Active; 'I' for Inactive)
REMARK    1  A    between atoms: C2_2  and  S1_3 
REMARK    2  A    between atoms: S1_3  and  C3_4 
REMARK    3  A    between atoms: C3_4  and  N1_5 
REMARK    4  A    between atoms: C3_4  and  N6_29 
REMARK    5  A    between atoms: N1_5  and  N2_7 
REMARK    6  A    between atoms: C4_9  and  S2_10 
REMARK    7  A    between atoms: C4_9  and  S3_24 
REMARK    8  A    between atoms: S2_10  and  N3_11 
REMARK    9  A    between atoms: N4_13  and  N5_15 
REMARK   10  A    between atoms: C5_17  and  C6_18 
REMARK   11  A    between atoms: C5_17  and  C8_20 
REMARK   12  A    between atoms: S3_24  and  C9_27 
REMARK   13  A    between atoms: N6_29  and  C11_31 
ROOT
HETATM    1  N2  UNL     1      15.214  11.721  27.648  1.00  0.00    -0.285 N 
ATOM      2  H2  UNL     1      14.993  12.223  26.788  1.00  0.00     0.188 HD
HETATM    3  C4  UNL     1      14.241  11.300  28.338  1.00  0.00     0.202 C 
ENDROOT
BRANCH   3   4
HETATM    4  S2  UNL     1      12.574  11.638  27.722  1.00  0.00     0.035 SA
BRANCH   4   5
HETATM    5  N3  UNL     1      11.806  12.761  28.825  1.00  0.00    -0.253 N 
HETATM    6  N4  UNL     1      10.779  12.404  29.459  1.00  0.00    -0.236 N 
ATOM      7  H4  UNL     1      10.321  13.048  30.105  1.00  0.00     0.209 HD
ATOM      8  H3  UNL     1      12.189  13.697  28.954  1.00  0.00     0.197 HD
BRANCH   6   9
HETATM    9  N5  UNL     1      10.273  11.122  29.268  1.00  0.00    -0.285 N 
HETATM   10  C5  UNL     1       9.302  10.605  29.943  1.00  0.00     0.110 C 
ATOM     11  H5  UNL     1      10.701  10.548  28.542  1.00  0.00     0.188 HD
BRANCH  10  12
HETATM   12  C6  UNL     1       8.689  11.429  30.987  1.00  0.00     0.059 C 
HETATM   13  C7  UNL     1       8.664  10.780  32.341  1.00  0.00     0.011 C 
ENDBRANCH  10  12
BRANCH  10  14
HETATM   14  C8  UNL     1       8.896   9.229  29.604  1.00  0.00     0.430 C 
HETATM   15  F1  UNL     1       9.134   9.004  28.267  1.00  0.00    -0.165 F 
HETATM   16  F2  UNL     1       7.560   8.992  29.818  1.00  0.00    -0.165 F 
HETATM   17  F3  UNL     1       9.693   8.360  30.325  1.00  0.00    -0.165 F 
ENDBRANCH  10  14
ENDBRANCH   6   9
ENDBRANCH   4   5
ENDBRANCH   3   4
BRANCH   3  18
HETATM   18  S3  UNL     1      14.331  10.435  29.847  1.00  0.00     0.200 S 
HETATM   19  O1  UNL     1      15.191  11.145  30.862  1.00  0.00    -0.221 OA
HETATM   20  O2  UNL     1      12.934  10.364  30.427  1.00  0.00    -0.221 OA
BRANCH  18  21
HETATM   21  C9  UNL     1      14.887   8.788  29.623  1.00  0.00     0.143 C 
HETATM   22  C10 UNL     1      14.934   7.955  30.856  1.00  0.00     0.021 C 
ENDBRANCH  18  21
ENDBRANCH   3  18
BRANCH   1  23
HETATM   23  N1  UNL     1      16.544  11.561  27.958  1.00  0.00    -0.303 N 
ATOM     24  H1  UNL     1      16.887  10.644  28.243  1.00  0.00     0.183 HD
BRANCH  23  25
HETATM   25  C3  UNL     1      17.472  12.683  27.886  1.00  0.00     0.261 C 
BRANCH  25  26
HETATM   26  S1  UNL     1      18.961  12.263  28.804  1.00  0.00    -0.122 SA
BRANCH  26  27
HETATM   27  C2  UNL     1      18.589  11.275  30.274  1.00  0.00     0.073 C 
HETATM   28  C1  UNL     1      18.548   9.813  29.874  1.00  0.00     0.016 C 
ENDBRANCH  26  27
ENDBRANCH  25  26
BRANCH  25  29
HETATM   29  N6  UNL     1      16.857  13.910  28.274  1.00  0.00    -0.357 N 
ATOM     30  H6  UNL     1      16.600  14.059  29.250  1.00  0.00     0.162 HD
BRANCH  29  31
HETATM   31  C11 UNL     1      16.597  14.925  27.316  1.00  0.00     0.069 A 
HETATM   32  C12 UNL     1      17.574  15.395  26.464  1.00  0.00     0.032 A 
HETATM   33  C13 UNL     1      17.280  16.381  25.537  1.00  0.00     0.002 A 
HETATM   34  C14 UNL     1      15.997  16.880  25.485  1.00  0.00     0.003 A 
HETATM   35  C15 UNL     1      14.994  16.432  26.322  1.00  0.00     0.044 A 
HETATM   36  C16 UNL     1      15.303  15.455  27.233  1.00  0.00     0.142 A 
HETATM   37  F4  UNL     1      14.350  14.996  28.065  1.00  0.00    -0.204 F 
ENDBRANCH  29  31
ENDBRANCH  25  29
ENDBRANCH  23  25
ENDBRANCH   1  23
TORSDOF 13
ENDMDL
