MODEL 1
REMARK VINA RESULT: -8.888179801      0.000      0.000
REMARK  9 active torsions:
REMARK  status: ('A' for Active; 'I' for Inactive)
REMARK    1  A    between atoms: C4_4  and  C5_5 
REMARK    2  A    between atoms: C5_5  and  C6_6 
REMARK    3  A    between atoms: C6_6  and  C7_7 
REMARK    4  A    between atoms: C9_9  and  C10_10 
REMARK    5  A    between atoms: C10_10  and  C11_11 
REMARK    6  A    between atoms: C11_11  and  O1_13 
REMARK    7  A    between atoms: O1_13  and  C13_14 
REMARK    8  A    between atoms: C13_14  and  C14_15 
REMARK    9  A    between atoms: N4_22  and  C15_23 
ROOT
HETATM    1  C13 UNL     1      44.970 -47.486   4.106  1.00  0.00     0.247 C 
ENDROOT
BRANCH   1   2
HETATM    2  O1  UNL     1      45.624 -46.278   4.192  1.00  0.00    -0.379 OA
BRANCH   2   3
HETATM    3  C11 UNL     1      45.213 -45.302   3.321  1.00  0.00     0.121 C 
HETATM    4  C12 UNL     1      43.755 -45.346   3.041  1.00  0.00     0.040 C 
BRANCH   3   5
HETATM    5  C10 UNL     1      45.625 -43.925   3.873  1.00  0.00     0.059 C 
BRANCH   5   6
HETATM    6  C9  UNL     1      45.366 -43.925   5.326  1.00  0.00    -0.022 C 
HETATM    7  C7  UNL     1      44.420 -43.194   5.931  1.00  0.00    -0.087 C 
HETATM    8  C8  UNL     1      43.553 -42.276   5.151  1.00  0.00     0.043 C 
BRANCH   7   9
HETATM    9  C6  UNL     1      44.277 -43.294   7.388  1.00  0.00     0.037 C 
BRANCH   9  10
HETATM   10  C5  UNL     1      45.410 -43.970   8.062  1.00  0.00     0.031 C 
BRANCH  10  11
HETATM   11  C4  UNL     1      45.150 -44.678   9.312  1.00  0.00    -0.024 C 
HETATM   12  C2  UNL     1      45.034 -46.017   9.332  1.00  0.00    -0.091 C 
HETATM   13  C1  UNL     1      45.181 -46.741   8.041  1.00  0.00     0.042 C 
HETATM   14  C3  UNL     1      44.772 -46.722  10.592  1.00  0.00     0.042 C 
ENDBRANCH  10  11
ENDBRANCH   9  10
ENDBRANCH   7   9
ENDBRANCH   5   6
ENDBRANCH   3   5
ENDBRANCH   2   3
ENDBRANCH   1   2
BRANCH   1  15
HETATM   15  C14 UNL     1      45.600 -48.398   3.149  1.00  0.00     0.139 A 
HETATM   16  N1  UNL     1      45.523 -48.470   1.821  1.00  0.00    -0.270 N 
HETATM   17  N2  UNL     1      46.277 -49.472   1.416  1.00  0.00    -0.227 N 
ATOM     18  H1  UNL     1      44.975 -47.854   1.221  1.00  0.00     0.190 HD
HETATM   19  N3  UNL     1      46.823 -50.027   2.483  1.00  0.00    -0.224 N 
ATOM     20  H2  UNL     1      46.414 -49.766   0.449  1.00  0.00     0.210 HD
HETATM   21  N4  UNL     1      46.436 -49.401   3.578  1.00  0.00    -0.257 N 
ATOM     22  H3  UNL     1      47.455 -50.827   2.462  1.00  0.00     0.210 HD
BRANCH  21  23
HETATM   23  C15 UNL     1      46.818 -49.712   4.930  1.00  0.00     0.111 C 
HETATM   24  C16 UNL     1      46.468 -51.115   5.338  1.00  0.00     0.027 C 
HETATM   25  C17 UNL     1      47.609 -51.583   6.227  1.00  0.00     0.002 C 
HETATM   26  C18 UNL     1      48.817 -50.811   5.761  1.00  0.00     0.002 C 
HETATM   27  C19 UNL     1      48.305 -49.574   5.088  1.00  0.00     0.027 C 
ENDBRANCH  21  23
ENDBRANCH   1  15
TORSDOF 9
ENDMDL
MODEL 2
REMARK VINA RESULT: -8.813794659      2.377      4.495
REMARK  9 active torsions:
REMARK  status: ('A' for Active; 'I' for Inactive)
REMARK    1  A    between atoms: C4_4  and  C5_5 
REMARK    2  A    between atoms: C5_5  and  C6_6 
REMARK    3  A    between atoms: C6_6  and  C7_7 
REMARK    4  A    between atoms: C9_9  and  C10_10 
REMARK    5  A    between atoms: C10_10  and  C11_11 
REMARK    6  A    between atoms: C11_11  and  O1_13 
REMARK    7  A    between atoms: O1_13  and  C13_14 
REMARK    8  A    between atoms: C13_14  and  C14_15 
REMARK    9  A    between atoms: N4_22  and  C15_23 
ROOT
HETATM    1  C13 UNL     1      45.044 -47.270   5.302  1.00  0.00     0.247 C 
ENDROOT
BRANCH   1   2
HETATM    2  O1  UNL     1      45.611 -46.925   4.096  1.00  0.00    -0.379 OA
BRANCH   2   3
HETATM    3  C11 UNL     1      44.766 -46.383   3.161  1.00  0.00     0.121 C 
HETATM    4  C12 UNL     1      43.352 -46.334   3.611  1.00  0.00     0.040 C 
BRANCH   3   5
HETATM    5  C10 UNL     1      45.270 -44.979   2.779  1.00  0.00     0.059 C 
BRANCH   5   6
HETATM    6  C9  UNL     1      44.368 -43.989   3.401  1.00  0.00    -0.022 C 
HETATM    7  C7  UNL     1      44.651 -43.294   4.510  1.00  0.00    -0.087 C 
HETATM    8  C8  UNL     1      45.930 -43.501   5.234  1.00  0.00     0.043 C 
BRANCH   7   9
HETATM    9  C6  UNL     1      43.656 -42.341   5.016  1.00  0.00     0.037 C 
BRANCH   9  10
HETATM   10  C5  UNL     1      42.598 -42.957   5.850  1.00  0.00     0.031 C 
BRANCH  10  11
HETATM   11  C4  UNL     1      42.675 -42.794   7.299  1.00  0.00    -0.024 C 
HETATM   12  C2  UNL     1      41.676 -42.204   7.978  1.00  0.00    -0.091 C 
HETATM   13  C1  UNL     1      40.500 -41.729   7.200  1.00  0.00     0.042 C 
HETATM   14  C3  UNL     1      41.759 -42.043   9.434  1.00  0.00     0.042 C 
ENDBRANCH  10  11
ENDBRANCH   9  10
ENDBRANCH   7   9
ENDBRANCH   5   6
ENDBRANCH   3   5
ENDBRANCH   2   3
ENDBRANCH   1   2
BRANCH   1  15
HETATM   15  C14 UNL     1      45.971 -47.998   6.171  1.00  0.00     0.139 A 
HETATM   16  N1  UNL     1      46.973 -48.829   5.887  1.00  0.00    -0.270 N 
HETATM   17  N2  UNL     1      47.511 -49.231   7.020  1.00  0.00    -0.227 N 
ATOM     18  H1  UNL     1      47.273 -49.105   4.952  1.00  0.00     0.190 HD
HETATM   19  N3  UNL     1      46.851 -48.657   8.010  1.00  0.00    -0.224 N 
ATOM     20  H2  UNL     1      48.298 -49.873   7.116  1.00  0.00     0.210 HD
HETATM   21  N4  UNL     1      45.890 -47.887   7.538  1.00  0.00    -0.257 N 
ATOM     22  H3  UNL     1      47.055 -48.792   9.000  1.00  0.00     0.210 HD
BRANCH  21  23
HETATM   23  C15 UNL     1      44.960 -47.099   8.303  1.00  0.00     0.111 C 
HETATM   24  C16 UNL     1      45.141 -47.243   9.788  1.00  0.00     0.027 C 
HETATM   25  C17 UNL     1      44.872 -45.866  10.373  1.00  0.00     0.002 C 
HETATM   26  C18 UNL     1      45.236 -44.893   9.281  1.00  0.00     0.002 C 
HETATM   27  C19 UNL     1      45.139 -45.642   7.987  1.00  0.00     0.027 C 
ENDBRANCH  21  23
ENDBRANCH   1  15
TORSDOF 9
ENDMDL
MODEL 3
REMARK VINA RESULT: -8.796332758      2.155      5.272
REMARK  9 active torsions:
REMARK  status: ('A' for Active; 'I' for Inactive)
REMARK    1  A    between atoms: C4_4  and  C5_5 
REMARK    2  A    between atoms: C5_5  and  C6_6 
REMARK    3  A    between atoms: C6_6  and  C7_7 
REMARK    4  A    between atoms: C9_9  and  C10_10 
REMARK    5  A    between atoms: C10_10  and  C11_11 
REMARK    6  A    between atoms: C11_11  and  O1_13 
REMARK    7  A    between atoms: O1_13  and  C13_14 
REMARK    8  A    between atoms: C13_14  and  C14_15 
REMARK    9  A    between atoms: N4_22  and  C15_23 
ROOT
HETATM    1  C13 UNL     1      44.987 -47.257   6.273  1.00  0.00     0.247 C 
ENDROOT
BRANCH   1   2
HETATM    2  O1  UNL     1      45.849 -47.314   7.344  1.00  0.00    -0.379 OA
BRANCH   2   3
HETATM    3  C11 UNL     1      45.293 -47.115   8.583  1.00  0.00     0.121 C 
HETATM    4  C12 UNL     1      45.507 -48.256   9.509  1.00  0.00     0.040 C 
BRANCH   3   5
HETATM    5  C10 UNL     1      45.849 -45.810   9.182  1.00  0.00     0.059 C 
BRANCH   5   6
HETATM    6  C9  UNL     1      44.729 -44.859   9.314  1.00  0.00    -0.022 C 
HETATM    7  C7  UNL     1      44.460 -43.875   8.445  1.00  0.00    -0.087 C 
HETATM    8  C8  UNL     1      45.323 -43.649   7.259  1.00  0.00     0.043 C 
BRANCH   7   9
HETATM    9  C6  UNL     1      43.309 -43.002   8.705  1.00  0.00     0.037 C 
BRANCH   9  10
HETATM   10  C5  UNL     1      42.526 -42.655   7.497  1.00  0.00     0.031 C 
BRANCH  10  11
HETATM   11  C4  UNL     1      42.188 -41.254   7.268  1.00  0.00    -0.024 C 
HETATM   12  C2  UNL     1      42.604 -40.620   6.158  1.00  0.00    -0.091 C 
HETATM   13  C1  UNL     1      43.413 -41.398   5.181  1.00  0.00     0.042 C 
HETATM   14  C3  UNL     1      42.261 -39.211   5.934  1.00  0.00     0.042 C 
ENDBRANCH  10  11
ENDBRANCH   9  10
ENDBRANCH   7   9
ENDBRANCH   5   6
ENDBRANCH   3   5
ENDBRANCH   2   3
ENDBRANCH   1   2
BRANCH   1  15
HETATM   15  C14 UNL     1      45.576 -47.802   5.048  1.00  0.00     0.139 A 
HETATM   16  N1  UNL     1      46.465 -48.775   4.857  1.00  0.00    -0.270 N 
HETATM   17  N2  UNL     1      46.679 -48.893   3.563  1.00  0.00    -0.227 N 
ATOM     18  H1  UNL     1      46.904 -49.334   5.589  1.00  0.00     0.190 HD
HETATM   19  N3  UNL     1      45.929 -47.998   2.944  1.00  0.00    -0.224 N 
ATOM     20  H2  UNL     1      47.312 -49.557   3.117  1.00  0.00     0.210 HD
HETATM   21  N4  UNL     1      45.230 -47.299   3.817  1.00  0.00    -0.257 N 
ATOM     22  H3  UNL     1      45.897 -47.867   1.933  1.00  0.00     0.210 HD
BRANCH  21  23
HETATM   23  C15 UNL     1      44.302 -46.237   3.528  1.00  0.00     0.111 C 
HETATM   24  C16 UNL     1      44.972 -44.969   3.079  1.00  0.00     0.027 C 
HETATM   25  C17 UNL     1      44.062 -44.375   2.017  1.00  0.00     0.002 C 
HETATM   26  C18 UNL     1      43.347 -45.551   1.403  1.00  0.00     0.002 C 
HETATM   27  C19 UNL     1      43.377 -46.651   2.420  1.00  0.00     0.027 C 
ENDBRANCH  21  23
ENDBRANCH   1  15
TORSDOF 9
ENDMDL
MODEL 4
REMARK VINA RESULT: -8.726279205      1.640      5.062
REMARK  9 active torsions:
REMARK  status: ('A' for Active; 'I' for Inactive)
REMARK    1  A    between atoms: C4_4  and  C5_5 
REMARK    2  A    between atoms: C5_5  and  C6_6 
REMARK    3  A    between atoms: C6_6  and  C7_7 
REMARK    4  A    between atoms: C9_9  and  C10_10 
REMARK    5  A    between atoms: C10_10  and  C11_11 
REMARK    6  A    between atoms: C11_11  and  O1_13 
REMARK    7  A    between atoms: O1_13  and  C13_14 
REMARK    8  A    between atoms: C13_14  and  C14_15 
REMARK    9  A    between atoms: N4_22  and  C15_23 
ROOT
HETATM    1  C13 UNL     1      45.206 -47.689   5.489  1.00  0.00     0.247 C 
ENDROOT
BRANCH   1   2
HETATM    2  O1  UNL     1      46.288 -47.652   6.338  1.00  0.00    -0.379 OA
BRANCH   2   3
HETATM    3  C11 UNL     1      46.324 -48.611   7.318  1.00  0.00     0.121 C 
HETATM    4  C12 UNL     1      47.685 -49.157   7.552  1.00  0.00     0.040 C 
BRANCH   3   5
HETATM    5  C10 UNL     1      45.736 -48.027   8.617  1.00  0.00     0.059 C 
BRANCH   5   6
HETATM    6  C9  UNL     1      45.642 -46.564   8.453  1.00  0.00    -0.022 C 
HETATM    7  C7  UNL     1      45.161 -45.724   9.380  1.00  0.00    -0.087 C 
HETATM    8  C8  UNL     1      44.641 -46.234  10.673  1.00  0.00     0.043 C 
BRANCH   7   9
HETATM    9  C6  UNL     1      45.127 -44.288   9.078  1.00  0.00     0.037 C 
BRANCH   9  10
HETATM   10  C5  UNL     1      44.500 -43.957   7.777  1.00  0.00     0.031 C 
BRANCH  10  11
HETATM   11  C4  UNL     1      43.307 -43.116   7.777  1.00  0.00    -0.024 C 
HETATM   12  C2  UNL     1      42.611 -42.912   6.645  1.00  0.00    -0.091 C 
HETATM   13  C1  UNL     1      43.102 -43.572   5.405  1.00  0.00     0.042 C 
HETATM   14  C3  UNL     1      41.412 -42.065   6.651  1.00  0.00     0.042 C 
ENDBRANCH  10  11
ENDBRANCH   9  10
ENDBRANCH   7   9
ENDBRANCH   5   6
ENDBRANCH   3   5
ENDBRANCH   2   3
ENDBRANCH   1   2
BRANCH   1  15
HETATM   15  C14 UNL     1      45.555 -48.183   4.155  1.00  0.00     0.139 A 
HETATM   16  N1  UNL     1      46.340 -49.188   3.767  1.00  0.00    -0.270 N 
HETATM   17  N2  UNL     1      46.335 -49.232   2.450  1.00  0.00    -0.227 N 
ATOM     18  H1  UNL     1      46.855 -49.815   4.384  1.00  0.00     0.190 HD
HETATM   19  N3  UNL     1      45.553 -48.262   2.013  1.00  0.00    -0.224 N 
ATOM     20  H2  UNL     1      46.846 -49.899   1.871  1.00  0.00     0.210 HD
HETATM   21  N4  UNL     1      45.048 -47.585   3.027  1.00  0.00    -0.257 N 
ATOM     22  H3  UNL     1      45.366 -48.064   1.031  1.00  0.00     0.210 HD
BRANCH  21  23
HETATM   23  C15 UNL     1      44.154 -46.460   2.953  1.00  0.00     0.111 C 
HETATM   24  C16 UNL     1      44.858 -45.157   2.696  1.00  0.00     0.027 C 
HETATM   25  C17 UNL     1      43.939 -44.364   1.782  1.00  0.00     0.002 C 
HETATM   26  C18 UNL     1      43.159 -45.397   1.010  1.00  0.00     0.002 C 
HETATM   27  C19 UNL     1      43.178 -46.652   1.828  1.00  0.00     0.027 C 
ENDBRANCH  21  23
ENDBRANCH   1  15
TORSDOF 9
ENDMDL
MODEL 5
REMARK VINA RESULT: -8.674687667      7.289      9.723
REMARK  9 active torsions:
REMARK  status: ('A' for Active; 'I' for Inactive)
REMARK    1  A    between atoms: C4_4  and  C5_5 
REMARK    2  A    between atoms: C5_5  and  C6_6 
REMARK    3  A    between atoms: C6_6  and  C7_7 
REMARK    4  A    between atoms: C9_9  and  C10_10 
REMARK    5  A    between atoms: C10_10  and  C11_11 
REMARK    6  A    between atoms: C11_11  and  O1_13 
REMARK    7  A    between atoms: O1_13  and  C13_14 
REMARK    8  A    between atoms: C13_14  and  C14_15 
REMARK    9  A    between atoms: N4_22  and  C15_23 
ROOT
HETATM    1  C13 UNL     1      38.872 -41.396   6.953  1.00  0.00     0.247 C 
ENDROOT
BRANCH   1   2
HETATM    2  O1  UNL     1      39.823 -40.444   6.662  1.00  0.00    -0.379 OA
BRANCH   2   3
HETATM    3  C11 UNL     1      41.010 -40.907   6.155  1.00  0.00     0.121 C 
HETATM    4  C12 UNL     1      42.184 -40.115   6.603  1.00  0.00     0.040 C 
BRANCH   3   5
HETATM    5  C10 UNL     1      41.175 -42.392   6.527  1.00  0.00     0.059 C 
BRANCH   5   6
HETATM    6  C9  UNL     1      42.473 -42.545   7.213  1.00  0.00    -0.022 C 
HETATM    7  C7  UNL     1      43.523 -43.211   6.713  1.00  0.00    -0.087 C 
HETATM    8  C8  UNL     1      43.437 -43.891   5.397  1.00  0.00     0.043 C 
BRANCH   7   9
HETATM    9  C6  UNL     1      44.754 -43.282   7.509  1.00  0.00     0.037 C 
BRANCH   9  10
HETATM   10  C5  UNL     1      44.718 -44.293   8.591  1.00  0.00     0.031 C 
BRANCH  10  11
HETATM   11  C4  UNL     1      45.153 -45.652   8.284  1.00  0.00    -0.024 C 
HETATM   12  C2  UNL     1      45.162 -46.602   9.235  1.00  0.00    -0.091 C 
HETATM   13  C1  UNL     1      44.714 -46.215  10.601  1.00  0.00     0.042 C 
HETATM   14  C3  UNL     1      45.600 -47.967   8.920  1.00  0.00     0.042 C 
ENDBRANCH  10  11
ENDBRANCH   9  10
ENDBRANCH   7   9
ENDBRANCH   5   6
ENDBRANCH   3   5
ENDBRANCH   2   3
ENDBRANCH   1   2
BRANCH   1  15
HETATM   15  C14 UNL     1      37.510 -40.863   6.903  1.00  0.00     0.139 A 
HETATM   16  N1  UNL     1      37.040 -39.689   6.484  1.00  0.00    -0.270 N 
HETATM   17  N2  UNL     1      35.732 -39.685   6.645  1.00  0.00    -0.227 N 
ATOM     18  H1  UNL     1      37.597 -38.924   6.104  1.00  0.00     0.190 HD
HETATM   19  N3  UNL     1      35.382 -40.849   7.162  1.00  0.00    -0.224 N 
ATOM     20  H2  UNL     1      35.101 -38.918   6.411  1.00  0.00     0.210 HD
HETATM   21  N4  UNL     1      36.444 -41.612   7.341  1.00  0.00    -0.257 N 
ATOM     22  H3  UNL     1      34.426 -41.120   7.390  1.00  0.00     0.210 HD
BRANCH  21  23
HETATM   23  C15 UNL     1      36.467 -42.945   7.881  1.00  0.00     0.111 C 
HETATM   24  C16 UNL     1      35.919 -43.031   9.277  1.00  0.00     0.027 C 
HETATM   25  C17 UNL     1      35.171 -44.352   9.347  1.00  0.00     0.002 C 
HETATM   26  C18 UNL     1      34.714 -44.625   7.937  1.00  0.00     0.002 C 
HETATM   27  C19 UNL     1      35.630 -43.858   7.032  1.00  0.00     0.027 C 
ENDBRANCH  21  23
ENDBRANCH   1  15
TORSDOF 9
ENDMDL
