MODEL 1
REMARK VINA RESULT: -6.195082797      0.000      0.000
REMARK  9 active torsions:
REMARK  status: ('A' for Active; 'I' for Inactive)
REMARK    1  A    between atoms: C2_2  and  C4_4 
REMARK    2  A    between atoms: C4_4  and  C5_5 
REMARK    3  A    between atoms: C7_8  and  C8_9 
REMARK    4  A    between atoms: C8_9  and  S2_10 
REMARK    5  A    between atoms: S2_10  and  S3_11 
REMARK    6  A    between atoms: S3_11  and  C9_12 
REMARK    7  A    between atoms: C9_12  and  C10_13 
REMARK    8  A    between atoms: C10_13  and  N1_14 
REMARK    9  A    between atoms: N1_14  and  C12_16 
ROOT
HETATM    1  C8  UNL     1      33.570 -41.752   9.256  1.00  0.00     0.102 C 
ENDROOT
BRANCH   1   2
HETATM    2  C7  UNL     1      34.101 -42.637   8.152  1.00  0.00     0.068 C 
HETATM    3  C6  UNL     1      33.526 -44.024   8.198  1.00  0.00     0.091 C 
HETATM    4  S1  UNL     1      34.065 -44.696   9.789  1.00  0.00    -0.152 SA
HETATM    5  C5  UNL     1      35.630 -43.881  10.124  1.00  0.00     0.109 C 
HETATM    6  S4  UNL     1      35.849 -42.948   8.548  1.00  0.00    -0.147 SA
BRANCH   5   7
HETATM    7  C4  UNL     1      36.731 -44.825  10.353  1.00  0.00     0.029 C 
BRANCH   7   8
HETATM    8  C2  UNL     1      36.270 -46.207  10.681  1.00  0.00    -0.021 C 
HETATM    9  C1  UNL     1      36.390 -46.337  12.212  1.00  0.00     0.009 C 
HETATM   10  C3  UNL     1      37.009 -47.335  10.035  1.00  0.00     0.009 C 
ENDBRANCH   7   8
ENDBRANCH   5   7
ENDBRANCH   1   2
BRANCH   1  11
HETATM   11  S2  UNL     1      31.798 -41.535   9.237  1.00  0.00    -0.096 SA
BRANCH  11  12
HETATM   12  S3  UNL     1      30.943 -42.382  10.965  1.00  0.00    -0.092 SA
BRANCH  12  13
HETATM   13  C9  UNL     1      32.191 -42.424  12.275  1.00  0.00     0.130 C 
BRANCH  13  14
HETATM   14  C10 UNL     1      31.698 -41.676  13.492  1.00  0.00     0.069 C 
BRANCH  14  15
HETATM   15  N1  UNL     1      30.675 -42.310  14.217  1.00  0.00    -0.393 N 
HETATM   16  C11 UNL     1      30.911 -43.580  14.783  1.00  0.00     0.149 C 
BRANCH  15  17
HETATM   17  C12 UNL     1      29.613 -41.531  14.727  1.00  0.00     0.074 C 
HETATM   18  C13 UNL     1      29.460 -40.305  13.838  1.00  0.00     0.032 C 
HETATM   19  C14 UNL     1      28.326 -42.338  14.642  1.00  0.00     0.032 C 
ENDBRANCH  15  17
ENDBRANCH  14  15
ENDBRANCH  13  14
ENDBRANCH  12  13
ENDBRANCH  11  12
ENDBRANCH   1  11
TORSDOF 9
ENDMDL
MODEL 2
REMARK VINA RESULT: -6.180099323      1.577      2.101
REMARK  9 active torsions:
REMARK  status: ('A' for Active; 'I' for Inactive)
REMARK    1  A    between atoms: C2_2  and  C4_4 
REMARK    2  A    between atoms: C4_4  and  C5_5 
REMARK    3  A    between atoms: C7_8  and  C8_9 
REMARK    4  A    between atoms: C8_9  and  S2_10 
REMARK    5  A    between atoms: S2_10  and  S3_11 
REMARK    6  A    between atoms: S3_11  and  C9_12 
REMARK    7  A    between atoms: C9_12  and  C10_13 
REMARK    8  A    between atoms: C10_13  and  N1_14 
REMARK    9  A    between atoms: N1_14  and  C12_16 
ROOT
HETATM    1  C8  UNL     1      32.504 -43.040  10.182  1.00  0.00     0.102 C 
ENDROOT
BRANCH   1   2
HETATM    2  C7  UNL     1      33.395 -42.746   8.999  1.00  0.00     0.068 C 
HETATM    3  C6  UNL     1      33.445 -43.883   8.017  1.00  0.00     0.091 C 
HETATM    4  S1  UNL     1      34.153 -45.265   8.946  1.00  0.00    -0.152 SA
HETATM    5  C5  UNL     1      35.226 -44.496  10.165  1.00  0.00     0.109 C 
HETATM    6  S4  UNL     1      35.099 -42.733   9.637  1.00  0.00    -0.147 SA
BRANCH   5   7
HETATM    7  C4  UNL     1      36.610 -44.983  10.100  1.00  0.00     0.029 C 
BRANCH   7   8
HETATM    8  C2  UNL     1      36.927 -46.009  11.138  1.00  0.00    -0.021 C 
HETATM    9  C1  UNL     1      37.033 -47.349  10.384  1.00  0.00     0.009 C 
HETATM   10  C3  UNL     1      35.950 -46.155  12.260  1.00  0.00     0.009 C 
ENDBRANCH   7   8
ENDBRANCH   5   7
ENDBRANCH   1   2
BRANCH   1  11
HETATM   11  S2  UNL     1      32.827 -42.027  11.617  1.00  0.00    -0.096 SA
BRANCH  11  12
HETATM   12  S3  UNL     1      32.885 -43.222  13.351  1.00  0.00    -0.092 SA
BRANCH  12  13
HETATM   13  C9  UNL     1      31.348 -42.984  14.277  1.00  0.00     0.130 C 
BRANCH  13  14
HETATM   14  C10 UNL     1      30.190 -42.783  13.329  1.00  0.00     0.069 C 
BRANCH  14  15
HETATM   15  N1  UNL     1      29.563 -41.527  13.398  1.00  0.00    -0.393 N 
HETATM   16  C11 UNL     1      30.196 -40.474  14.091  1.00  0.00     0.149 C 
BRANCH  15  17
HETATM   17  C12 UNL     1      28.562 -41.208  12.455  1.00  0.00     0.074 C 
HETATM   18  C13 UNL     1      28.355 -39.700  12.482  1.00  0.00     0.032 C 
HETATM   19  C14 UNL     1      29.054 -41.591  11.066  1.00  0.00     0.032 C 
ENDBRANCH  15  17
ENDBRANCH  14  15
ENDBRANCH  13  14
ENDBRANCH  12  13
ENDBRANCH  11  12
ENDBRANCH   1  11
TORSDOF 9
ENDMDL
MODEL 3
REMARK VINA RESULT: -6.170474407      0.782      1.038
REMARK  9 active torsions:
REMARK  status: ('A' for Active; 'I' for Inactive)
REMARK    1  A    between atoms: C2_2  and  C4_4 
REMARK    2  A    between atoms: C4_4  and  C5_5 
REMARK    3  A    between atoms: C7_8  and  C8_9 
REMARK    4  A    between atoms: C8_9  and  S2_10 
REMARK    5  A    between atoms: S2_10  and  S3_11 
REMARK    6  A    between atoms: S3_11  and  C9_12 
REMARK    7  A    between atoms: C9_12  and  C10_13 
REMARK    8  A    between atoms: C10_13  and  N1_14 
REMARK    9  A    between atoms: N1_14  and  C12_16 
ROOT
HETATM    1  C8  UNL     1      33.802 -41.754   8.960  1.00  0.00     0.102 C 
ENDROOT
BRANCH   1   2
HETATM    2  C7  UNL     1      34.279 -42.781   7.961  1.00  0.00     0.068 C 
HETATM    3  C6  UNL     1      33.634 -44.123   8.162  1.00  0.00     0.091 C 
HETATM    4  S1  UNL     1      34.149 -44.642   9.817  1.00  0.00    -0.152 SA
HETATM    5  C5  UNL     1      35.756 -43.876  10.058  1.00  0.00     0.109 C 
HETATM    6  S4  UNL     1      36.012 -43.136   8.387  1.00  0.00    -0.147 SA
BRANCH   5   7
HETATM    7  C4  UNL     1      36.809 -44.844  10.389  1.00  0.00     0.029 C 
BRANCH   7   8
HETATM    8  C2  UNL     1      36.286 -46.210  10.690  1.00  0.00    -0.021 C 
HETATM    9  C1  UNL     1      36.405 -46.378  12.217  1.00  0.00     0.009 C 
HETATM   10  C3  UNL     1      36.971 -47.357  10.017  1.00  0.00     0.009 C 
ENDBRANCH   7   8
ENDBRANCH   5   7
ENDBRANCH   1   2
BRANCH   1  11
HETATM   11  S2  UNL     1      32.033 -41.510   8.977  1.00  0.00    -0.096 SA
BRANCH  11  12
HETATM   12  S3  UNL     1      31.217 -42.235  10.778  1.00  0.00    -0.092 SA
BRANCH  12  13
HETATM   13  C9  UNL     1      32.462 -42.094  12.084  1.00  0.00     0.130 C 
BRANCH  13  14
HETATM   14  C10 UNL     1      31.981 -42.778  13.342  1.00  0.00     0.069 C 
BRANCH  14  15
HETATM   15  N1  UNL     1      30.826 -42.229  13.924  1.00  0.00    -0.393 N 
HETATM   16  C11 UNL     1      29.867 -43.087  14.502  1.00  0.00     0.149 C 
BRANCH  15  17
HETATM   17  C12 UNL     1      30.829 -40.869  14.303  1.00  0.00     0.074 C 
HETATM   18  C13 UNL     1      29.386 -40.444  14.541  1.00  0.00     0.032 C 
HETATM   19  C14 UNL     1      31.585 -40.726  15.616  1.00  0.00     0.032 C 
ENDBRANCH  15  17
ENDBRANCH  14  15
ENDBRANCH  13  14
ENDBRANCH  12  13
ENDBRANCH  11  12
ENDBRANCH   1  11
TORSDOF 9
ENDMDL
MODEL 4
REMARK VINA RESULT: -6.137844355      1.604      2.263
REMARK  9 active torsions:
REMARK  status: ('A' for Active; 'I' for Inactive)
REMARK    1  A    between atoms: C2_2  and  C4_4 
REMARK    2  A    between atoms: C4_4  and  C5_5 
REMARK    3  A    between atoms: C7_8  and  C8_9 
REMARK    4  A    between atoms: C8_9  and  S2_10 
REMARK    5  A    between atoms: S2_10  and  S3_11 
REMARK    6  A    between atoms: S3_11  and  C9_12 
REMARK    7  A    between atoms: C9_12  and  C10_13 
REMARK    8  A    between atoms: C10_13  and  N1_14 
REMARK    9  A    between atoms: N1_14  and  C12_16 
ROOT
HETATM    1  C8  UNL     1      32.529 -43.058  10.350  1.00  0.00     0.102 C 
ENDROOT
BRANCH   1   2
HETATM    2  C7  UNL     1      33.371 -42.740   9.137  1.00  0.00     0.068 C 
HETATM    3  C6  UNL     1      33.366 -43.851   8.125  1.00  0.00     0.091 C 
HETATM    4  S1  UNL     1      34.100 -45.263   8.984  1.00  0.00    -0.152 SA
HETATM    5  C5  UNL     1      35.233 -44.538  10.175  1.00  0.00     0.109 C 
HETATM    6  S4  UNL     1      35.101 -42.760   9.701  1.00  0.00    -0.147 SA
BRANCH   5   7
HETATM    7  C4  UNL     1      36.607 -45.036  10.036  1.00  0.00     0.029 C 
BRANCH   7   8
HETATM    8  C2  UNL     1      36.967 -46.074  11.048  1.00  0.00    -0.021 C 
HETATM    9  C1  UNL     1      37.032 -47.406  10.276  1.00  0.00     0.009 C 
HETATM   10  C3  UNL     1      36.042 -46.228  12.213  1.00  0.00     0.009 C 
ENDBRANCH   7   8
ENDBRANCH   5   7
ENDBRANCH   1   2
BRANCH   1  11
HETATM   11  S2  UNL     1      32.897 -42.061  11.785  1.00  0.00    -0.096 SA
BRANCH  11  12
HETATM   12  S3  UNL     1      32.364 -43.091  13.543  1.00  0.00    -0.092 SA
BRANCH  12  13
HETATM   13  C9  UNL     1      30.996 -42.216  14.342  1.00  0.00     0.130 C 
BRANCH  13  14
HETATM   14  C10 UNL     1      29.676 -42.832  13.941  1.00  0.00     0.069 C 
BRANCH  14  15
HETATM   15  N1  UNL     1      28.743 -41.946  13.376  1.00  0.00    -0.393 N 
HETATM   16  C11 UNL     1      27.515 -41.721  14.034  1.00  0.00     0.149 C 
BRANCH  15  17
HETATM   17  C12 UNL     1      29.185 -40.995  12.432  1.00  0.00     0.074 C 
HETATM   18  C13 UNL     1      29.073 -41.620  11.048  1.00  0.00     0.032 C 
HETATM   19  C14 UNL     1      28.262 -39.786  12.479  1.00  0.00     0.032 C 
ENDBRANCH  15  17
ENDBRANCH  14  15
ENDBRANCH  13  14
ENDBRANCH  12  13
ENDBRANCH  11  12
ENDBRANCH   1  11
TORSDOF 9
ENDMDL
MODEL 5
REMARK VINA RESULT: -6.081595983      1.522      2.161
REMARK  9 active torsions:
REMARK  status: ('A' for Active; 'I' for Inactive)
REMARK    1  A    between atoms: C2_2  and  C4_4 
REMARK    2  A    between atoms: C4_4  and  C5_5 
REMARK    3  A    between atoms: C7_8  and  C8_9 
REMARK    4  A    between atoms: C8_9  and  S2_10 
REMARK    5  A    between atoms: S2_10  and  S3_11 
REMARK    6  A    between atoms: S3_11  and  C9_12 
REMARK    7  A    between atoms: C9_12  and  C10_13 
REMARK    8  A    between atoms: C10_13  and  N1_14 
REMARK    9  A    between atoms: N1_14  and  C12_16 
ROOT
HETATM    1  C8  UNL     1      32.251 -43.574   9.971  1.00  0.00     0.102 C 
ENDROOT
BRANCH   1   2
HETATM    2  C7  UNL     1      33.217 -42.975   8.977  1.00  0.00     0.068 C 
HETATM    3  C6  UNL     1      33.564 -43.925   7.866  1.00  0.00     0.091 C 
HETATM    4  S1  UNL     1      34.369 -45.322   8.685  1.00  0.00    -0.152 SA
HETATM    5  C5  UNL     1      35.153 -44.612  10.137  1.00  0.00     0.109 C 
HETATM    6  S4  UNL     1      34.809 -42.823   9.845  1.00  0.00    -0.147 SA
BRANCH   5   7
HETATM    7  C4  UNL     1      36.595 -44.884  10.202  1.00  0.00     0.029 C 
BRANCH   7   8
HETATM    8  C2  UNL     1      36.953 -45.963  11.170  1.00  0.00    -0.021 C 
HETATM    9  C1  UNL     1      37.162 -47.233  10.323  1.00  0.00     0.009 C 
HETATM   10  C3  UNL     1      35.961 -46.254  12.250  1.00  0.00     0.009 C 
ENDBRANCH   7   8
ENDBRANCH   5   7
ENDBRANCH   1   2
BRANCH   1  11
HETATM   11  S2  UNL     1      31.282 -42.374  10.872  1.00  0.00    -0.096 SA
BRANCH  11  12
HETATM   12  S3  UNL     1      32.115 -42.052  12.779  1.00  0.00    -0.092 SA
BRANCH  12  13
HETATM   13  C9  UNL     1      30.882 -42.474  14.036  1.00  0.00     0.130 C 
BRANCH  13  14
HETATM   14  C10 UNL     1      29.559 -42.797  13.383  1.00  0.00     0.069 C 
BRANCH  14  15
HETATM   15  N1  UNL     1      28.498 -41.934  13.707  1.00  0.00    -0.393 N 
HETATM   16  C11 UNL     1      28.340 -41.503  15.041  1.00  0.00     0.149 C 
BRANCH  15  17
HETATM   17  C12 UNL     1      27.884 -41.186  12.680  1.00  0.00     0.074 C 
HETATM   18  C13 UNL     1      26.435 -40.943  13.078  1.00  0.00     0.032 C 
HETATM   19  C14 UNL     1      28.577 -39.836  12.572  1.00  0.00     0.032 C 
ENDBRANCH  15  17
ENDBRANCH  14  15
ENDBRANCH  13  14
ENDBRANCH  12  13
ENDBRANCH  11  12
ENDBRANCH   1  11
TORSDOF 9
ENDMDL
