MODEL 1
REMARK VINA RESULT: -5.388181796      0.000      0.000
REMARK  2 active torsions:
REMARK  status: ('A' for Active; 'I' for Inactive)
REMARK    1  A    between atoms: N1_1  and  N2_4 
REMARK    2  A    between atoms: N2_4  and  N3_6 
ROOT
HETATM    1  N3  UNL     1     -29.688 -32.665   8.123  1.00  0.00    -0.275 N 
ATOM      2  H3  UNL     1     -28.870 -33.271   8.054  1.00  0.00     0.189 HD
HETATM    3  C1  UNL     1     -29.516 -31.409   8.362  1.00  0.00     0.093 C 
HETATM    4  C2  UNL     1     -28.184 -30.779   8.544  1.00  0.00     0.079 C 
HETATM    5  C3  UNL     1     -28.413 -29.296   8.411  1.00  0.00     0.027 C 
HETATM    6  C4  UNL     1     -29.890 -29.092   8.193  1.00  0.00     0.121 C 
HETATM    7  N4  UNL     1     -30.477 -30.368   8.504  1.00  0.00    -0.379 N 
ATOM      8  H4  UNL     1     -31.447 -30.508   8.788  1.00  0.00     0.160 HD
ENDROOT
BRANCH   1   9
HETATM    9  N2  UNL     1     -30.962 -33.221   7.958  1.00  0.00    -0.248 N 
ATOM     10  H2  UNL     1     -31.799 -32.690   8.200  1.00  0.00     0.207 HD
BRANCH   9  11
HETATM   11  N1  UNL     1     -31.054 -34.420   7.494  1.00  0.00    -0.331 N 
ATOM     12  H12 UNL     1     -30.219 -35.003   7.425  1.00  0.00     0.178 HD
ATOM     13  H11 UNL     1     -31.970 -34.760   7.203  1.00  0.00     0.178 HD
ENDBRANCH   9  11
ENDBRANCH   1   9
TORSDOF 2
ENDMDL
MODEL 2
REMARK VINA RESULT: -5.374250885      1.161      1.161
REMARK  2 active torsions:
REMARK  status: ('A' for Active; 'I' for Inactive)
REMARK    1  A    between atoms: N1_1  and  N2_4 
REMARK    2  A    between atoms: N2_4  and  N3_6 
ROOT
HETATM    1  N3  UNL     1     -29.834 -32.593   8.121  1.00  0.00    -0.275 N 
ATOM      2  H3  UNL     1     -29.476 -32.702   7.172  1.00  0.00     0.189 HD
HETATM    3  C1  UNL     1     -29.522 -31.535   8.789  1.00  0.00     0.093 C 
HETATM    4  C2  UNL     1     -28.661 -30.449   8.258  1.00  0.00     0.079 C 
HETATM    5  C3  UNL     1     -28.871 -29.276   9.179  1.00  0.00     0.027 C 
HETATM    6  C4  UNL     1     -29.825 -29.722  10.257  1.00  0.00     0.121 C 
HETATM    7  N4  UNL     1     -29.886 -31.152  10.111  1.00  0.00    -0.379 N 
ATOM      8  H4  UNL     1     -30.153 -31.801  10.851  1.00  0.00     0.160 HD
ENDROOT
BRANCH   1   9
HETATM    9  N2  UNL     1     -30.650 -33.597   8.658  1.00  0.00    -0.248 N 
ATOM     10  H2  UNL     1     -30.572 -33.863   9.640  1.00  0.00     0.207 HD
BRANCH   9  11
HETATM   11  N1  UNL     1     -31.500 -34.178   7.884  1.00  0.00    -0.331 N 
ATOM     12  H12 UNL     1     -32.496 -33.980   7.984  1.00  0.00     0.178 HD
ATOM     13  H11 UNL     1     -31.152 -34.830   7.181  1.00  0.00     0.178 HD
ENDBRANCH   9  11
ENDBRANCH   1   9
TORSDOF 2
ENDMDL
MODEL 3
REMARK VINA RESULT: -5.297688140      1.580      2.356
REMARK  2 active torsions:
REMARK  status: ('A' for Active; 'I' for Inactive)
REMARK    1  A    between atoms: N1_1  and  N2_4 
REMARK    2  A    between atoms: N2_4  and  N3_6 
ROOT
HETATM    1  N3  UNL     1     -31.002 -33.077   7.974  1.00  0.00    -0.275 N 
ATOM      2  H3  UNL     1     -31.662 -32.410   7.575  1.00  0.00     0.189 HD
HETATM    3  C1  UNL     1     -29.877 -32.645   8.432  1.00  0.00     0.093 C 
HETATM    4  C2  UNL     1     -29.474 -31.216   8.417  1.00  0.00     0.079 C 
HETATM    5  C3  UNL     1     -28.311 -31.110   9.367  1.00  0.00     0.027 C 
HETATM    6  C4  UNL     1     -28.034 -32.497   9.887  1.00  0.00     0.121 C 
HETATM    7  N4  UNL     1     -28.800 -33.361   9.028  1.00  0.00    -0.379 N 
ATOM      8  H4  UNL     1     -28.600 -34.348   8.869  1.00  0.00     0.160 HD
ENDROOT
BRANCH   1   9
HETATM    9  N2  UNL     1     -31.344 -34.435   8.005  1.00  0.00    -0.248 N 
ATOM     10  H2  UNL     1     -30.690 -35.146   7.678  1.00  0.00     0.207 HD
BRANCH   9  11
HETATM   11  N1  UNL     1     -32.505 -34.766   8.458  1.00  0.00    -0.331 N 
ATOM     12  H12 UNL     1     -33.342 -34.326   8.077  1.00  0.00     0.178 HD
ATOM     13  H11 UNL     1     -32.557 -35.468   9.196  1.00  0.00     0.178 HD
ENDBRANCH   9  11
ENDBRANCH   1   9
TORSDOF 2
ENDMDL
MODEL 4
REMARK VINA RESULT: -5.233020118      1.426      1.931
REMARK  2 active torsions:
REMARK  status: ('A' for Active; 'I' for Inactive)
REMARK    1  A    between atoms: N1_1  and  N2_4 
REMARK    2  A    between atoms: N2_4  and  N3_6 
ROOT
HETATM    1  N3  UNL     1     -30.453 -34.221   8.575  1.00  0.00    -0.275 N 
ATOM      2  H3  UNL     1     -30.032 -35.075   8.941  1.00  0.00     0.189 HD
HETATM    3  C1  UNL     1     -29.844 -33.098   8.752  1.00  0.00     0.093 C 
HETATM    4  C2  UNL     1     -28.548 -32.966   9.464  1.00  0.00     0.079 C 
HETATM    5  C3  UNL     1     -28.025 -31.599   9.108  1.00  0.00     0.027 C 
HETATM    6  C4  UNL     1     -29.054 -30.946   8.223  1.00  0.00     0.121 C 
HETATM    7  N4  UNL     1     -30.217 -31.786   8.345  1.00  0.00    -0.379 N 
ATOM      8  H4  UNL     1     -31.174 -31.483   8.167  1.00  0.00     0.160 HD
ENDROOT
BRANCH   1   9
HETATM    9  N2  UNL     1     -31.676 -34.304   7.898  1.00  0.00    -0.248 N 
ATOM     10  H2  UNL     1     -31.762 -33.979   6.935  1.00  0.00     0.207 HD
BRANCH   9  11
HETATM   11  N1  UNL     1     -32.690 -34.800   8.519  1.00  0.00    -0.331 N 
ATOM     12  H12 UNL     1     -32.550 -35.524   9.223  1.00  0.00     0.178 HD
ATOM     13  H11 UNL     1     -33.621 -34.451   8.288  1.00  0.00     0.178 HD
ENDBRANCH   9  11
ENDBRANCH   1   9
TORSDOF 2
ENDMDL
MODEL 5
REMARK VINA RESULT: -5.067171037      1.235      1.376
REMARK  2 active torsions:
REMARK  status: ('A' for Active; 'I' for Inactive)
REMARK    1  A    between atoms: N1_1  and  N2_4 
REMARK    2  A    between atoms: N2_4  and  N3_6 
ROOT
HETATM    1  N3  UNL     1     -30.149 -32.362   9.230  1.00  0.00    -0.275 N 
ATOM      2  H3  UNL     1     -30.473 -32.683  10.142  1.00  0.00     0.189 HD
HETATM    3  C1  UNL     1     -29.726 -31.149   9.108  1.00  0.00     0.093 C 
HETATM    4  C2  UNL     1     -29.681 -30.176  10.228  1.00  0.00     0.079 C 
HETATM    5  C3  UNL     1     -28.789 -29.056   9.759  1.00  0.00     0.027 C 
HETATM    6  C4  UNL     1     -28.363 -29.387   8.352  1.00  0.00     0.121 C 
HETATM    7  N4  UNL     1     -29.228 -30.468   7.961  1.00  0.00    -0.379 N 
ATOM      8  H4  UNL     1     -29.454 -30.714   6.997  1.00  0.00     0.160 HD
ENDROOT
BRANCH   1   9
HETATM    9  N2  UNL     1     -30.176 -33.251   8.148  1.00  0.00    -0.248 N 
ATOM     10  H2  UNL     1     -29.334 -33.432   7.601  1.00  0.00     0.207 HD
BRANCH   9  11
HETATM   11  N1  UNL     1     -31.289 -33.833   7.859  1.00  0.00    -0.331 N 
ATOM     12  H12 UNL     1     -31.822 -34.300   8.592  1.00  0.00     0.178 HD
ATOM     13  H11 UNL     1     -31.612 -33.812   6.892  1.00  0.00     0.178 HD
ENDBRANCH   9  11
ENDBRANCH   1   9
TORSDOF 2
ENDMDL
