MODEL 1
REMARK VINA RESULT: -5.471121178      0.000      0.000
REMARK  1 active torsions:
REMARK  status: ('A' for Active; 'I' for Inactive)
REMARK    1  A    between atoms: C2_2  and  C3_3 
REMARK       I    between atoms: N1_5  and  C5_6 
ROOT
HETATM    1  C3  UNL     1      29.517  28.529   7.727  1.00  0.00     0.129 A 
HETATM    2  C4  UNL     1      28.264  28.326   8.412  1.00  0.00     0.157 A 
HETATM    3  N1  UNL     1      28.621  29.692   7.990  1.00  0.00    -0.325 N 
HETATM    4  C5  UNL     1      28.307  31.066   7.917  1.00  0.00     0.331 C 
HETATM    5  N2  UNL     1      29.219  31.958   7.289  1.00  0.00    -0.040 NA
HETATM    6  O1  UNL     1      27.245  31.483   8.395  1.00  0.00    -0.251 OA
ENDROOT
BRANCH   1   7
HETATM    7  C2  UNL     1      30.814  28.516   8.433  1.00  0.00    -0.010 C 
HETATM    8  C1  UNL     1      30.973  28.055   9.666  1.00  0.00     0.009 C 
ENDBRANCH   1   7
TORSDOF 1
ENDMDL
MODEL 2
REMARK VINA RESULT: -5.248768170      1.230      1.237
REMARK  1 active torsions:
REMARK  status: ('A' for Active; 'I' for Inactive)
REMARK    1  A    between atoms: C2_2  and  C3_3 
REMARK       I    between atoms: N1_5  and  C5_6 
ROOT
HETATM    1  C3  UNL     1      29.657  29.179   8.155  1.00  0.00     0.129 A 
HETATM    2  C4  UNL     1      28.241  29.383   7.972  1.00  0.00     0.157 A 
HETATM    3  N1  UNL     1      29.134  30.553   7.903  1.00  0.00    -0.325 N 
HETATM    4  C5  UNL     1      29.313  31.941   7.726  1.00  0.00     0.331 C 
HETATM    5  N2  UNL     1      30.622  32.491   7.790  1.00  0.00    -0.040 NA
HETATM    6  O1  UNL     1      28.333  32.667   7.517  1.00  0.00    -0.251 OA
ENDROOT
BRANCH   1   7
HETATM    7  C2  UNL     1      30.254  28.927   9.482  1.00  0.00    -0.010 C 
HETATM    8  C1  UNL     1      31.119  27.952   9.723  1.00  0.00     0.009 C 
ENDBRANCH   1   7
TORSDOF 1
ENDMDL
MODEL 3
REMARK VINA RESULT: -5.186932121      1.813      1.981
REMARK  1 active torsions:
REMARK  status: ('A' for Active; 'I' for Inactive)
REMARK    1  A    between atoms: C2_2  and  C3_3 
REMARK       I    between atoms: N1_5  and  C5_6 
ROOT
HETATM    1  C3  UNL     1      30.101  30.005   8.439  1.00  0.00     0.129 A 
HETATM    2  C4  UNL     1      28.840  30.189   7.764  1.00  0.00     0.157 A 
HETATM    3  N1  UNL     1      29.347  31.280   8.614  1.00  0.00    -0.325 N 
HETATM    4  C5  UNL     1      29.191  32.571   9.163  1.00  0.00     0.331 C 
HETATM    5  N2  UNL     1      30.192  33.088  10.028  1.00  0.00    -0.040 NA
HETATM    6  O1  UNL     1      28.188  33.241   8.886  1.00  0.00    -0.251 OA
ENDROOT
BRANCH   1   7
HETATM    7  C2  UNL     1      30.241  29.146   9.631  1.00  0.00    -0.010 C 
HETATM    8  C1  UNL     1      31.002  28.060   9.667  1.00  0.00     0.009 C 
ENDBRANCH   1   7
TORSDOF 1
ENDMDL
MODEL 4
REMARK VINA RESULT: -5.102905991      1.961      2.504
REMARK  1 active torsions:
REMARK  status: ('A' for Active; 'I' for Inactive)
REMARK    1  A    between atoms: C2_2  and  C3_3 
REMARK       I    between atoms: N1_5  and  C5_6 
ROOT
HETATM    1  C3  UNL     1      28.823  29.172   9.621  1.00  0.00     0.129 A 
HETATM    2  C4  UNL     1      30.213  29.457   9.877  1.00  0.00     0.157 A 
HETATM    3  N1  UNL     1      29.303  30.584   9.606  1.00  0.00    -0.325 N 
HETATM    4  C5  UNL     1      29.091  31.970   9.452  1.00  0.00     0.331 C 
HETATM    5  N2  UNL     1      27.787  32.450   9.154  1.00  0.00    -0.040 NA
HETATM    6  O1  UNL     1      30.039  32.756   9.580  1.00  0.00    -0.251 OA
ENDROOT
BRANCH   1   7
HETATM    7  C2  UNL     1      28.354  28.614   8.336  1.00  0.00    -0.010 C 
HETATM    8  C1  UNL     1      29.145  27.985   7.478  1.00  0.00     0.009 C 
ENDBRANCH   1   7
TORSDOF 1
ENDMDL
MODEL 5
REMARK VINA RESULT: -5.045698672      1.967      2.443
REMARK  1 active torsions:
REMARK  status: ('A' for Active; 'I' for Inactive)
REMARK    1  A    between atoms: C2_2  and  C3_3 
REMARK       I    between atoms: N1_5  and  C5_6 
ROOT
HETATM    1  C3  UNL     1      28.575  29.905   8.997  1.00  0.00     0.129 A 
HETATM    2  C4  UNL     1      29.897  30.036   9.557  1.00  0.00     0.157 A 
HETATM    3  N1  UNL     1      29.469  31.003   8.531  1.00  0.00    -0.325 N 
HETATM    4  C5  UNL     1      29.745  32.129   7.726  1.00  0.00     0.331 C 
HETATM    5  N2  UNL     1      28.754  32.605   6.826  1.00  0.00    -0.040 NA
HETATM    6  O1  UNL     1      30.844  32.693   7.811  1.00  0.00    -0.251 OA
ENDROOT
BRANCH   1   7
HETATM    7  C2  UNL     1      28.234  28.860   8.010  1.00  0.00    -0.010 C 
HETATM    8  C1  UNL     1      29.106  27.969   7.557  1.00  0.00     0.009 C 
ENDBRANCH   1   7
TORSDOF 1
ENDMDL
