MODEL 1
REMARK VINA RESULT: -7.445254171      0.000      0.000
REMARK  6 active torsions:
REMARK  status: ('A' for Active; 'I' for Inactive)
REMARK       I    between atoms: C1_2  and  N1_3 
REMARK    1  A    between atoms: C1_2  and  C12_18 
REMARK    2  A    between atoms: N1_3  and  C2_5 
REMARK    3  A    between atoms: C5_8  and  C6_9 
REMARK       I    between atoms: C6_9  and  N2_11 
REMARK    4  A    between atoms: C16_22  and  C17_23 
REMARK    5  A    between atoms: C17_23  and  O3_24 
REMARK    6  A    between atoms: N3_26  and  O4_28 
ROOT
HETATM    1  O1  UNL     1      33.124  -9.941  -8.126  1.00  0.00    -0.273 OA
HETATM    2  C1  UNL     1      32.611  -8.863  -8.491  1.00  0.00     0.223 C 
HETATM    3  N1  UNL     1      31.541  -8.340  -7.738  1.00  0.00    -0.356 N 
ATOM      4  H1  UNL     1      31.124  -7.460  -8.039  1.00  0.00     0.162 HD
ENDROOT
BRANCH   3   5
HETATM    5  C2  UNL     1      31.000  -8.985  -6.559  1.00  0.00     0.085 C 
HETATM    6  C3  UNL     1      29.591  -9.445  -6.717  1.00  0.00     0.026 C 
HETATM    7  C4  UNL     1      29.150  -9.685  -5.279  1.00  0.00     0.016 C 
HETATM    8  C5  UNL     1      29.835  -8.628  -4.475  1.00  0.00     0.080 C 
HETATM    9  C11 UNL     1      30.852  -7.983  -5.406  1.00  0.00     0.039 C 
BRANCH   8  10
HETATM   10  C6  UNL     1      30.478  -9.126  -3.246  1.00  0.00     0.224 C 
HETATM   11  O2  UNL     1      31.305 -10.094  -3.375  1.00  0.00    -0.273 OA
HETATM   12  N2  UNL     1      30.246  -8.609  -1.953  1.00  0.00    -0.350 N 
HETATM   13  C7  UNL     1      30.935  -9.184  -0.798  1.00  0.00     0.136 C 
HETATM   14  C10 UNL     1      29.340  -7.513  -1.740  1.00  0.00     0.136 C 
HETATM   15  C8  UNL     1      30.635  -8.458   0.481  1.00  0.00     0.093 C 
HETATM   16  S1  UNL     1      28.812  -8.444   0.703  1.00  0.00    -0.166 SA
HETATM   17  C9  UNL     1      28.134  -8.053  -0.960  1.00  0.00     0.093 C 
ENDBRANCH   8  10
ENDBRANCH   3   5
BRANCH   2  18
HETATM   18  C12 UNL     1      33.104  -8.168  -9.659  1.00  0.00     0.089 C 
HETATM   19  C13 UNL     1      32.887  -6.687  -9.706  1.00  0.00     0.015 C 
HETATM   20  C14 UNL     1      32.889  -6.358 -11.193  1.00  0.00     0.002 C 
HETATM   21  C15 UNL     1      33.299  -7.651 -11.911  1.00  0.00     0.013 C 
HETATM   22  C16 UNL     1      32.596  -8.672 -10.988  1.00  0.00     0.075 C 
BRANCH  22  23
HETATM   23  C17 UNL     1      31.162  -8.471 -11.211  1.00  0.00     0.140 C 
HETATM   24  N3  UNL     1      30.649  -7.730 -12.128  1.00  0.00    -0.251 N 
ATOM     25  H3  UNL     1      31.289  -7.241 -12.754  1.00  0.00     0.196 HD
BRANCH  23  26
HETATM   26  O3  UNL     1      30.285  -9.135 -10.362  1.00  0.00    -0.348 OA
ATOM     27  H3  UNL     1      29.361  -8.935 -10.445  1.00  0.00     0.219 HD
ENDBRANCH  23  26
BRANCH  24  28
HETATM   28  O4  UNL     1      29.325  -7.552 -12.326  1.00  0.00    -0.288 OA
ATOM     29  H4  UNL     1      28.946  -6.933 -12.939  1.00  0.00     0.244 HD
ENDBRANCH  24  28
ENDBRANCH  22  23
ENDBRANCH   2  18
TORSDOF 6
ENDMDL
MODEL 2
REMARK VINA RESULT: -7.281813084      1.140      1.289
REMARK  6 active torsions:
REMARK  status: ('A' for Active; 'I' for Inactive)
REMARK       I    between atoms: C1_2  and  N1_3 
REMARK    1  A    between atoms: C1_2  and  C12_18 
REMARK    2  A    between atoms: N1_3  and  C2_5 
REMARK    3  A    between atoms: C5_8  and  C6_9 
REMARK       I    between atoms: C6_9  and  N2_11 
REMARK    4  A    between atoms: C16_22  and  C17_23 
REMARK    5  A    between atoms: C17_23  and  O3_24 
REMARK    6  A    between atoms: N3_26  and  O4_28 
ROOT
HETATM    1  O1  UNL     1      33.550  -9.637  -7.999  1.00  0.00    -0.273 OA
HETATM    2  C1  UNL     1      32.888  -8.652  -8.387  1.00  0.00     0.223 C 
HETATM    3  N1  UNL     1      31.763  -8.261  -7.634  1.00  0.00    -0.356 N 
ATOM      4  H1  UNL     1      31.225  -7.456  -7.954  1.00  0.00     0.162 HD
ENDROOT
BRANCH   3   5
HETATM    5  C2  UNL     1      31.329  -8.940  -6.431  1.00  0.00     0.085 C 
HETATM    6  C3  UNL     1      29.847  -9.023  -6.288  1.00  0.00     0.026 C 
HETATM    7  C4  UNL     1      29.669  -9.379  -4.818  1.00  0.00     0.016 C 
HETATM    8  C5  UNL     1      30.763  -8.656  -4.101  1.00  0.00     0.080 C 
HETATM    9  C11 UNL     1      31.697  -8.130  -5.181  1.00  0.00     0.039 C 
BRANCH   8  10
HETATM   10  C6  UNL     1      31.492  -9.482  -3.122  1.00  0.00     0.224 C 
HETATM   11  O2  UNL     1      31.714 -10.700  -3.441  1.00  0.00    -0.273 OA
HETATM   12  N2  UNL     1      31.957  -9.020  -1.872  1.00  0.00    -0.350 N 
HETATM   13  C7  UNL     1      32.666  -9.928  -0.971  1.00  0.00     0.136 C 
HETATM   14  C10 UNL     1      31.752  -7.658  -1.456  1.00  0.00     0.136 C 
HETATM   15  C8  UNL     1      33.161  -9.249   0.273  1.00  0.00     0.093 C 
HETATM   16  S1  UNL     1      31.720  -8.454   1.088  1.00  0.00    -0.166 SA
HETATM   17  C9  UNL     1      30.771  -7.675  -0.278  1.00  0.00     0.093 C 
ENDBRANCH   8  10
ENDBRANCH   3   5
BRANCH   2  18
HETATM   18  C12 UNL     1      33.268  -7.930  -9.580  1.00  0.00     0.089 C 
HETATM   19  C13 UNL     1      32.920  -6.473  -9.629  1.00  0.00     0.015 C 
HETATM   20  C14 UNL     1      32.831  -6.162 -11.117  1.00  0.00     0.002 C 
HETATM   21  C15 UNL     1      33.323  -7.422 -11.842  1.00  0.00     0.013 C 
HETATM   22  C16 UNL     1      32.752  -8.490 -10.883  1.00  0.00     0.075 C 
BRANCH  22  23
HETATM   23  C17 UNL     1      31.297  -8.419 -11.045  1.00  0.00     0.140 C 
HETATM   24  N3  UNL     1      30.683  -7.733 -11.944  1.00  0.00    -0.251 N 
ATOM     25  H3  UNL     1      31.251  -7.195 -12.598  1.00  0.00     0.196 HD
BRANCH  23  26
HETATM   26  O3  UNL     1      30.519  -9.150 -10.157  1.00  0.00    -0.348 OA
ATOM     27  H3  UNL     1      30.794 -10.039  -9.966  1.00  0.00     0.219 HD
ENDBRANCH  23  26
BRANCH  24  28
HETATM   28  O4  UNL     1      29.341  -7.674 -12.085  1.00  0.00    -0.288 OA
ATOM     29  H4  UNL     1      28.831  -6.872 -12.091  1.00  0.00     0.244 HD
ENDBRANCH  24  28
ENDBRANCH  22  23
ENDBRANCH   2  18
TORSDOF 6
ENDMDL
MODEL 3
REMARK VINA RESULT: -7.280081328      2.022      2.357
REMARK  6 active torsions:
REMARK  status: ('A' for Active; 'I' for Inactive)
REMARK       I    between atoms: C1_2  and  N1_3 
REMARK    1  A    between atoms: C1_2  and  C12_18 
REMARK    2  A    between atoms: N1_3  and  C2_5 
REMARK    3  A    between atoms: C5_8  and  C6_9 
REMARK       I    between atoms: C6_9  and  N2_11 
REMARK    4  A    between atoms: C16_22  and  C17_23 
REMARK    5  A    between atoms: C17_23  and  O3_24 
REMARK    6  A    between atoms: N3_26  and  O4_28 
ROOT
HETATM    1  O1  UNL     1      32.830  -9.927  -8.255  1.00  0.00    -0.273 OA
HETATM    2  C1  UNL     1      31.909  -9.248  -8.754  1.00  0.00     0.223 C 
HETATM    3  N1  UNL     1      30.772  -8.976  -7.967  1.00  0.00    -0.356 N 
ATOM      4  H1  UNL     1      30.022  -8.421  -8.378  1.00  0.00     0.162 HD
ENDROOT
BRANCH   3   5
HETATM    5  C2  UNL     1      30.612  -9.441  -6.604  1.00  0.00     0.085 C 
HETATM    6  C3  UNL     1      29.200  -9.426  -6.126  1.00  0.00     0.026 C 
HETATM    7  C4  UNL     1      29.354  -9.544  -4.615  1.00  0.00     0.016 C 
HETATM    8  C5  UNL     1      30.592  -8.776  -4.283  1.00  0.00     0.080 C 
HETATM    9  C11 UNL     1      31.266  -8.468  -5.613  1.00  0.00     0.039 C 
BRANCH   8  10
HETATM   10  C6  UNL     1      31.512  -9.478  -3.371  1.00  0.00     0.224 C 
HETATM   11  O2  UNL     1      31.876 -10.657  -3.708  1.00  0.00    -0.273 OA
HETATM   12  N2  UNL     1      32.013  -8.940  -2.166  1.00  0.00    -0.350 N 
HETATM   13  C7  UNL     1      32.917  -9.727  -1.329  1.00  0.00     0.136 C 
HETATM   14  C10 UNL     1      31.654  -7.615  -1.735  1.00  0.00     0.136 C 
HETATM   15  C8  UNL     1      33.416  -8.969  -0.134  1.00  0.00     0.093 C 
HETATM   16  S1  UNL     1      31.953  -8.375   0.803  1.00  0.00    -0.166 SA
HETATM   17  C9  UNL     1      30.789  -7.755  -0.476  1.00  0.00     0.093 C 
ENDBRANCH   8  10
ENDBRANCH   3   5
BRANCH   2  18
HETATM   18  C12 UNL     1      32.007  -8.753 -10.110  1.00  0.00     0.089 C 
HETATM   19  C13 UNL     1      33.339  -8.882 -10.782  1.00  0.00     0.015 C 
HETATM   20  C14 UNL     1      33.335  -7.777 -11.830  1.00  0.00     0.002 C 
HETATM   21  C15 UNL     1      31.914  -7.197 -11.826  1.00  0.00     0.013 C 
HETATM   22  C16 UNL     1      31.612  -7.311 -10.315  1.00  0.00     0.075 C 
BRANCH  22  23
HETATM   23  C17 UNL     1      32.496  -6.337  -9.668  1.00  0.00     0.140 C 
HETATM   24  N3  UNL     1      32.830  -5.197 -10.160  1.00  0.00    -0.251 N 
ATOM     25  H3  UNL     1      32.452  -4.947 -11.073  1.00  0.00     0.196 HD
BRANCH  23  26
HETATM   26  O3  UNL     1      33.014  -6.673  -8.424  1.00  0.00    -0.348 OA
ATOM     27  H3  UNL     1      32.395  -6.895  -7.738  1.00  0.00     0.219 HD
ENDBRANCH  23  26
BRANCH  24  28
HETATM   28  O4  UNL     1      33.645  -4.305  -9.556  1.00  0.00    -0.288 OA
ATOM     29  H4  UNL     1      34.558  -4.462  -9.343  1.00  0.00     0.244 HD
ENDBRANCH  24  28
ENDBRANCH  22  23
ENDBRANCH   2  18
TORSDOF 6
ENDMDL
MODEL 4
REMARK VINA RESULT: -6.921907883      2.430      2.839
REMARK  6 active torsions:
REMARK  status: ('A' for Active; 'I' for Inactive)
REMARK       I    between atoms: C1_2  and  N1_3 
REMARK    1  A    between atoms: C1_2  and  C12_18 
REMARK    2  A    between atoms: N1_3  and  C2_5 
REMARK    3  A    between atoms: C5_8  and  C6_9 
REMARK       I    between atoms: C6_9  and  N2_11 
REMARK    4  A    between atoms: C16_22  and  C17_23 
REMARK    5  A    between atoms: C17_23  and  O3_24 
REMARK    6  A    between atoms: N3_26  and  O4_28 
ROOT
HETATM    1  O1  UNL     1      33.909  -9.174 -10.046  1.00  0.00    -0.273 OA
HETATM    2  C1  UNL     1      32.841  -8.540  -9.926  1.00  0.00     0.223 C 
HETATM    3  N1  UNL     1      32.166  -8.590  -8.690  1.00  0.00    -0.356 N 
ATOM      4  H1  UNL     1      31.293  -8.071  -8.595  1.00  0.00     0.162 HD
ENDROOT
BRANCH   3   5
HETATM    5  C2  UNL     1      32.644  -9.340  -7.546  1.00  0.00     0.085 C 
HETATM    6  C3  UNL     1      32.066 -10.710  -7.441  1.00  0.00     0.026 C 
HETATM    7  C4  UNL     1      32.383 -11.101  -6.003  1.00  0.00     0.016 C 
HETATM    8  C5  UNL     1      32.263  -9.838  -5.215  1.00  0.00     0.080 C 
HETATM    9  C11 UNL     1      32.150  -8.714  -6.235  1.00  0.00     0.039 C 
BRANCH   8  10
HETATM   10  C6  UNL     1      33.378  -9.599  -4.281  1.00  0.00     0.224 C 
HETATM   11  O2  UNL     1      34.549  -9.922  -4.681  1.00  0.00    -0.273 OA
HETATM   12  N2  UNL     1      33.238  -9.043  -2.991  1.00  0.00    -0.350 N 
HETATM   13  C7  UNL     1      34.413  -8.856  -2.141  1.00  0.00     0.136 C 
HETATM   14  C10 UNL     1      31.952  -8.647  -2.484  1.00  0.00     0.136 C 
HETATM   15  C8  UNL     1      34.093  -8.177  -0.842  1.00  0.00     0.093 C 
HETATM   16  S1  UNL     1      32.786  -9.158  -0.004  1.00  0.00    -0.166 SA
HETATM   17  C9  UNL     1      31.594  -9.594  -1.332  1.00  0.00     0.093 C 
ENDBRANCH   8  10
ENDBRANCH   3   5
BRANCH   2  18
HETATM   18  C12 UNL     1      32.309  -7.771 -11.029  1.00  0.00     0.089 C 
HETATM   19  C13 UNL     1      30.859  -7.402 -10.959  1.00  0.00     0.015 C 
HETATM   20  C14 UNL     1      30.452  -7.213 -12.414  1.00  0.00     0.002 C 
HETATM   21  C15 UNL     1      31.750  -7.301 -13.229  1.00  0.00     0.013 C 
HETATM   22  C16 UNL     1      32.483  -8.378 -12.400  1.00  0.00     0.075 C 
BRANCH  22  23
HETATM   23  C17 UNL     1      31.731  -9.616 -12.620  1.00  0.00     0.140 C 
HETATM   24  N3  UNL     1      31.329 -10.047 -13.764  1.00  0.00    -0.251 N 
ATOM     25  H3  UNL     1      31.549  -9.484 -14.585  1.00  0.00     0.196 HD
BRANCH  23  26
HETATM   26  O3  UNL     1      31.428 -10.386 -11.505  1.00  0.00    -0.348 OA
ATOM     27  H3  UNL     1      30.532 -10.366 -11.190  1.00  0.00     0.219 HD
ENDBRANCH  23  26
BRANCH  24  28
HETATM   28  O4  UNL     1      30.636 -11.190 -13.957  1.00  0.00    -0.288 OA
ATOM     29  H4  UNL     1      29.795 -11.247 -14.396  1.00  0.00     0.244 HD
ENDBRANCH  24  28
ENDBRANCH  22  23
ENDBRANCH   2  18
TORSDOF 6
ENDMDL
MODEL 5
REMARK VINA RESULT: -6.918148820      2.607      3.046
REMARK  6 active torsions:
REMARK  status: ('A' for Active; 'I' for Inactive)
REMARK       I    between atoms: C1_2  and  N1_3 
REMARK    1  A    between atoms: C1_2  and  C12_18 
REMARK    2  A    between atoms: N1_3  and  C2_5 
REMARK    3  A    between atoms: C5_8  and  C6_9 
REMARK       I    between atoms: C6_9  and  N2_11 
REMARK    4  A    between atoms: C16_22  and  C17_23 
REMARK    5  A    between atoms: C17_23  and  O3_24 
REMARK    6  A    between atoms: N3_26  and  O4_28 
ROOT
HETATM    1  O1  UNL     1      33.738  -9.617  -9.881  1.00  0.00    -0.273 OA
HETATM    2  C1  UNL     1      32.545  -9.247  -9.864  1.00  0.00     0.223 C 
HETATM    3  N1  UNL     1      31.802  -9.431  -8.681  1.00  0.00    -0.356 N 
ATOM      4  H1  UNL     1      30.829  -9.128  -8.671  1.00  0.00     0.162 HD
ENDROOT
BRANCH   3   5
HETATM    5  C2  UNL     1      32.347 -10.026  -7.478  1.00  0.00     0.085 C 
HETATM    6  C3  UNL     1      31.788 -11.373  -7.167  1.00  0.00     0.026 C 
HETATM    7  C4  UNL     1      32.183 -11.575  -5.710  1.00  0.00     0.016 C 
HETATM    8  C5  UNL     1      32.092 -10.221  -5.085  1.00  0.00     0.080 C 
HETATM    9  C11 UNL     1      31.916  -9.238  -6.233  1.00  0.00     0.039 C 
BRANCH   8  10
HETATM   10  C6  UNL     1      33.252  -9.862  -4.250  1.00  0.00     0.224 C 
HETATM   11  O2  UNL     1      34.411 -10.115  -4.727  1.00  0.00    -0.273 OA
HETATM   12  N2  UNL     1      33.167  -9.263  -2.974  1.00  0.00    -0.350 N 
HETATM   13  C7  UNL     1      34.384  -8.954  -2.226  1.00  0.00     0.136 C 
HETATM   14  C10 UNL     1      31.895  -8.940  -2.385  1.00  0.00     0.136 C 
HETATM   15  C8  UNL     1      34.110  -8.245  -0.931  1.00  0.00     0.093 C 
HETATM   16  S1  UNL     1      32.948  -9.283   0.041  1.00  0.00    -0.166 SA
HETATM   17  C9  UNL     1      31.698  -9.861  -1.174  1.00  0.00     0.093 C 
ENDBRANCH   8  10
ENDBRANCH   3   5
BRANCH   2  18
HETATM   18  C12 UNL     1      31.941  -8.645 -11.032  1.00  0.00     0.089 C 
HETATM   19  C13 UNL     1      32.865  -8.254 -12.145  1.00  0.00     0.015 C 
HETATM   20  C14 UNL     1      32.121  -7.141 -12.871  1.00  0.00     0.002 C 
HETATM   21  C15 UNL     1      30.722  -7.088 -12.242  1.00  0.00     0.013 C 
HETATM   22  C16 UNL     1      31.103  -7.416 -10.781  1.00  0.00     0.075 C 
BRANCH  22  23
HETATM   23  C17 UNL     1      31.853  -6.251 -10.304  1.00  0.00     0.140 C 
HETATM   24  N3  UNL     1      31.521  -5.024 -10.500  1.00  0.00    -0.251 N 
ATOM     25  H3  UNL     1      30.668  -4.844 -11.029  1.00  0.00     0.196 HD
BRANCH  23  26
HETATM   26  O3  UNL     1      33.015  -6.492  -9.583  1.00  0.00    -0.348 OA
ATOM     27  H3  UNL     1      33.218  -7.395  -9.370  1.00  0.00     0.219 HD
ENDBRANCH  23  26
BRANCH  24  28
HETATM   28  O4  UNL     1      32.219  -3.956 -10.056  1.00  0.00    -0.288 OA
ATOM     29  H4  UNL     1      32.729  -3.937  -9.255  1.00  0.00     0.244 HD
ENDBRANCH  24  28
ENDBRANCH  22  23
ENDBRANCH   2  18
TORSDOF 6
ENDMDL
