MODEL 1
REMARK VINA RESULT: -6.615993428      0.000      0.000
REMARK  5 active torsions:
REMARK  status: ('A' for Active; 'I' for Inactive)
REMARK    1  A    between atoms: C2_2  and  C3_3 
REMARK    2  A    between atoms: C14_14  and  O1_15 
REMARK    3  A    between atoms: C16_18  and  O2_19 
REMARK    4  A    between atoms: C19_24  and  C21_26 
REMARK    5  A    between atoms: C21_26  and  O4_27 
ROOT
HETATM    1  C3  UNL     1       0.008   0.375  27.518  1.00  0.00    -0.022 C 
HETATM    2  C4  UNL     1      -0.872   1.510  27.831  1.00  0.00     0.020 C 
HETATM    3  C5  UNL     1      -0.015  -0.560  28.746  1.00  0.00     0.014 C 
HETATM    4  C6  UNL     1       1.027   0.114  29.602  1.00  0.00     0.014 C 
HETATM    5  C7  UNL     1       2.186   0.254  28.612  1.00  0.00    -0.006 C 
HETATM    6  C8  UNL     1       2.775  -1.124  28.546  1.00  0.00     0.019 C 
HETATM    7  C9  UNL     1       1.453   0.577  27.312  1.00  0.00     0.020 C 
HETATM    8  C10 UNL     1       1.938   1.817  26.669  1.00  0.00     0.057 C 
HETATM    9  C11 UNL     1       1.545   1.981  25.266  1.00  0.00    -0.077 C 
HETATM   10  C12 UNL     1       0.269   2.762  24.959  1.00  0.00     0.043 C 
HETATM   11  C13 UNL     1       2.181   1.570  24.181  1.00  0.00     0.007 C 
HETATM   12  C14 UNL     1       3.440   0.844  23.989  1.00  0.00     0.143 C 
HETATM   13  C15 UNL     1       4.569   1.625  24.689  1.00  0.00     0.070 C 
HETATM   14  C16 UNL     1       4.401   1.377  26.139  1.00  0.00     0.155 C 
HETATM   15  C17 UNL     1       3.388   2.121  26.905  1.00  0.00     0.092 C 
HETATM   16  C18 UNL     1       3.540   3.618  26.550  1.00  0.00     0.049 C 
HETATM   17  O3  UNL     1       3.767   2.063  28.216  1.00  0.00    -0.364 OA
HETATM   18  C19 UNL     1       3.069   1.333  29.102  1.00  0.00     0.087 C 
HETATM   19  C20 UNL     1       2.335   2.368  29.989  1.00  0.00     0.049 C 
ENDROOT
BRANCH  18  20
HETATM   20  C21 UNL     1       4.075   0.777  30.123  1.00  0.00     0.205 C 
BRANCH  20  21
HETATM   21  O4  UNL     1       4.988   1.718  30.557  1.00  0.00    -0.393 OA
HETATM   22  C22 UNL     1       5.046   1.655  31.925  1.00  0.00     0.201 C 
ENDBRANCH  20  21
ENDBRANCH  18  20
BRANCH   1  23
HETATM   23  C2  UNL     1      -0.640  -0.444  26.451  1.00  0.00    -0.027 C 
HETATM   24  C1  UNL     1      -1.819  -0.965  26.685  1.00  0.00     0.007 C 
ENDBRANCH   1  23
BRANCH  14  25
HETATM   25  O2  UNL     1       5.655   1.740  26.708  1.00  0.00    -0.392 OA
ATOM     26  H2  UNL     1       5.478   2.549  27.173  1.00  0.00     0.210 HD
ENDBRANCH  14  25
BRANCH  12  27
HETATM   27  O1  UNL     1       3.436  -0.488  24.310  1.00  0.00    -0.392 OA
ATOM     28  H1  UNL     1       4.029  -0.761  25.000  1.00  0.00     0.210 HD
ENDBRANCH  12  27
TORSDOF 5
ENDMDL
MODEL 2
REMARK VINA RESULT: -5.983918034      2.015      5.809
REMARK  5 active torsions:
REMARK  status: ('A' for Active; 'I' for Inactive)
REMARK    1  A    between atoms: C2_2  and  C3_3 
REMARK    2  A    between atoms: C14_14  and  O1_15 
REMARK    3  A    between atoms: C16_18  and  O2_19 
REMARK    4  A    between atoms: C19_24  and  C21_26 
REMARK    5  A    between atoms: C21_26  and  O4_27 
ROOT
HETATM    1  C3  UNL     1       4.489   2.687  25.066  1.00  0.00    -0.022 C 
HETATM    2  C4  UNL     1       4.220   4.125  24.938  1.00  0.00     0.020 C 
HETATM    3  C5  UNL     1       4.542   2.112  23.635  1.00  0.00     0.014 C 
HETATM    4  C6  UNL     1       3.071   1.896  23.390  1.00  0.00     0.014 C 
HETATM    5  C7  UNL     1       2.668   1.119  24.645  1.00  0.00    -0.006 C 
HETATM    6  C8  UNL     1       3.167  -0.272  24.388  1.00  0.00     0.019 C 
HETATM    7  C9  UNL     1       3.516   1.794  25.720  1.00  0.00     0.020 C 
HETATM    8  C10 UNL     1       2.716   2.287  26.861  1.00  0.00     0.057 C 
HETATM    9  C11 UNL     1       3.488   2.604  28.067  1.00  0.00    -0.077 C 
HETATM   10  C12 UNL     1       3.968   4.041  28.262  1.00  0.00     0.043 C 
HETATM   11  C13 UNL     1       3.807   1.804  29.072  1.00  0.00     0.007 C 
HETATM   12  C14 UNL     1       3.523   0.391  29.339  1.00  0.00     0.143 C 
HETATM   13  C15 UNL     1       1.997   0.179  29.294  1.00  0.00     0.070 C 
HETATM   14  C16 UNL     1       1.621   0.204  27.862  1.00  0.00     0.155 C 
HETATM   15  C17 UNL     1       1.481   1.487  27.155  1.00  0.00     0.092 C 
HETATM   16  C18 UNL     1       0.611   2.413  28.036  1.00  0.00     0.049 C 
HETATM   17  O3  UNL     1       0.694   1.250  26.065  1.00  0.00    -0.364 OA
HETATM   18  C19 UNL     1       1.209   1.280  24.824  1.00  0.00     0.087 C 
HETATM   19  C20 UNL     1       0.654   2.577  24.187  1.00  0.00     0.049 C 
ENDROOT
BRANCH  18  20
HETATM   20  C21 UNL     1       0.450   0.231  23.994  1.00  0.00     0.205 C 
BRANCH  20  21
HETATM   21  O4  UNL     1      -0.922   0.335  24.109  1.00  0.00    -0.393 OA
HETATM   22  C22 UNL     1      -1.436  -0.932  24.218  1.00  0.00     0.201 C 
ENDBRANCH  20  21
ENDBRANCH  18  20
BRANCH   1  23
HETATM   23  C2  UNL     1       5.887   2.510  25.560  1.00  0.00    -0.027 C 
HETATM   24  C1  UNL     1       6.641   3.572  25.707  1.00  0.00     0.007 C 
ENDBRANCH   1  23
BRANCH  14  25
HETATM   25  O2  UNL     1       0.332  -0.397  27.825  1.00  0.00    -0.392 OA
ATOM     26  H2  UNL     1      -0.104   0.022  27.092  1.00  0.00     0.210 HD
ENDBRANCH  14  25
BRANCH  12  27
HETATM   27  O1  UNL     1       4.210  -0.526  28.587  1.00  0.00    -0.392 OA
ATOM     28  H1  UNL     1       4.898  -0.186  28.027  1.00  0.00     0.210 HD
ENDBRANCH  12  27
TORSDOF 5
ENDMDL
MODEL 3
REMARK VINA RESULT: -5.747478505      2.712      4.491
REMARK  5 active torsions:
REMARK  status: ('A' for Active; 'I' for Inactive)
REMARK    1  A    between atoms: C2_2  and  C3_3 
REMARK    2  A    between atoms: C14_14  and  O1_15 
REMARK    3  A    between atoms: C16_18  and  O2_19 
REMARK    4  A    between atoms: C19_24  and  C21_26 
REMARK    5  A    between atoms: C21_26  and  O4_27 
ROOT
HETATM    1  C3  UNL     1       2.324   1.685  26.861  1.00  0.00    -0.022 C 
HETATM    2  C4  UNL     1       1.009   2.332  26.967  1.00  0.00     0.020 C 
HETATM    3  C5  UNL     1       3.238   2.356  27.908  1.00  0.00     0.014 C 
HETATM    4  C6  UNL     1       3.682   3.565  27.125  1.00  0.00     0.014 C 
HETATM    5  C7  UNL     1       4.150   2.922  25.817  1.00  0.00    -0.006 C 
HETATM    6  C8  UNL     1       5.491   2.343  26.157  1.00  0.00     0.019 C 
HETATM    7  C9  UNL     1       3.125   1.805  25.630  1.00  0.00     0.020 C 
HETATM    8  C10 UNL     1       2.452   1.855  24.315  1.00  0.00     0.057 C 
HETATM    9  C11 UNL     1       1.746   0.627  23.935  1.00  0.00    -0.077 C 
HETATM   10  C12 UNL     1       0.261   0.511  24.275  1.00  0.00     0.043 C 
HETATM   11  C13 UNL     1       2.216  -0.420  23.277  1.00  0.00     0.007 C 
HETATM   12  C14 UNL     1       3.536  -0.724  22.714  1.00  0.00     0.143 C 
HETATM   13  C15 UNL     1       3.930   0.408  21.746  1.00  0.00     0.070 C 
HETATM   14  C16 UNL     1       4.320   1.558  22.593  1.00  0.00     0.155 C 
HETATM   15  C17 UNL     1       3.288   2.413  23.202  1.00  0.00     0.092 C 
HETATM   16  C18 UNL     1       2.275   2.782  22.094  1.00  0.00     0.049 C 
HETATM   17  O3  UNL     1       3.889   3.604  23.494  1.00  0.00    -0.364 OA
HETATM   18  C19 UNL     1       4.121   3.963  24.769  1.00  0.00     0.087 C 
HETATM   19  C20 UNL     1       3.106   5.096  25.060  1.00  0.00     0.049 C 
ENDROOT
BRANCH  18  20
HETATM   20  C21 UNL     1       5.429   4.770  24.781  1.00  0.00     0.205 C 
BRANCH  20  21
HETATM   21  O4  UNL     1       6.088   4.758  23.567  1.00  0.00    -0.393 OA
HETATM   22  C22 UNL     1       7.414   4.503  23.805  1.00  0.00     0.201 C 
ENDBRANCH  20  21
ENDBRANCH  18  20
BRANCH   1  23
HETATM   23  C2  UNL     1       2.202   0.283  27.359  1.00  0.00    -0.027 C 
HETATM   24  C1  UNL     1       3.029  -0.129  28.289  1.00  0.00     0.007 C 
ENDBRANCH   1  23
BRANCH  14  25
HETATM   25  O2  UNL     1       5.057   2.407  21.721  1.00  0.00    -0.392 OA
ATOM     26  H2  UNL     1       4.531   3.195  21.658  1.00  0.00     0.210 HD
ENDBRANCH  14  25
BRANCH  12  27
HETATM   27  O1  UNL     1       4.528  -1.028  23.609  1.00  0.00    -0.392 OA
ATOM     28  H1  UNL     1       5.420  -0.989  23.284  1.00  0.00     0.210 HD
ENDBRANCH  12  27
TORSDOF 5
ENDMDL
MODEL 4
REMARK VINA RESULT: -5.654319511      2.387      5.202
REMARK  5 active torsions:
REMARK  status: ('A' for Active; 'I' for Inactive)
REMARK    1  A    between atoms: C2_2  and  C3_3 
REMARK    2  A    between atoms: C14_14  and  O1_15 
REMARK    3  A    between atoms: C16_18  and  O2_19 
REMARK    4  A    between atoms: C19_24  and  C21_26 
REMARK    5  A    between atoms: C21_26  and  O4_27 
ROOT
HETATM    1  C3  UNL     1       3.695   2.567  22.595  1.00  0.00    -0.022 C 
HETATM    2  C4  UNL     1       4.611   1.460  22.289  1.00  0.00     0.020 C 
HETATM    3  C5  UNL     1       4.503   3.873  22.437  1.00  0.00     0.014 C 
HETATM    4  C6  UNL     1       5.159   3.936  23.792  1.00  0.00     0.014 C 
HETATM    5  C7  UNL     1       3.955   3.742  24.718  1.00  0.00    -0.006 C 
HETATM    6  C8  UNL     1       3.273   5.077  24.713  1.00  0.00     0.019 C 
HETATM    7  C9  UNL     1       3.124   2.721  23.945  1.00  0.00     0.020 C 
HETATM    8  C10 UNL     1       2.792   1.522  24.744  1.00  0.00     0.057 C 
HETATM    9  C11 UNL     1       1.711   0.695  24.199  1.00  0.00    -0.077 C 
HETATM   10  C12 UNL     1       2.084  -0.473  23.287  1.00  0.00     0.043 C 
HETATM   11  C13 UNL     1       0.411   0.790  24.423  1.00  0.00     0.007 C 
HETATM   12  C14 UNL     1      -0.385   1.700  25.252  1.00  0.00     0.143 C 
HETATM   13  C15 UNL     1       0.138   1.632  26.699  1.00  0.00     0.070 C 
HETATM   14  C16 UNL     1       1.410   2.391  26.713  1.00  0.00     0.155 C 
HETATM   15  C17 UNL     1       2.648   1.770  26.217  1.00  0.00     0.092 C 
HETATM   16  C18 UNL     1       2.760   0.370  26.864  1.00  0.00     0.049 C 
HETATM   17  O3  UNL     1       3.685   2.463  26.773  1.00  0.00    -0.364 OA
HETATM   18  C19 UNL     1       4.463   3.259  26.020  1.00  0.00     0.087 C 
HETATM   19  C20 UNL     1       5.816   2.514  25.910  1.00  0.00     0.049 C 
ENDROOT
BRANCH  18  20
HETATM   20  C21 UNL     1       4.885   4.445  26.902  1.00  0.00     0.205 C 
BRANCH  20  21
HETATM   21  O4  UNL     1       4.259   4.459  28.133  1.00  0.00    -0.393 OA
HETATM   22  C22 UNL     1       5.214   4.676  29.092  1.00  0.00     0.201 C 
ENDBRANCH  20  21
ENDBRANCH  18  20
BRANCH   1  23
HETATM   23  C2  UNL     1       2.681   2.656  21.503  1.00  0.00    -0.027 C 
HETATM   24  C1  UNL     1       2.786   1.846  20.479  1.00  0.00     0.007 C 
ENDBRANCH   1  23
BRANCH  14  25
HETATM   25  O2  UNL     1       1.643   2.667  28.089  1.00  0.00    -0.392 OA
ATOM     26  H2  UNL     1       2.340   3.312  28.087  1.00  0.00     0.210 HD
ENDBRANCH  14  25
BRANCH  12  27
HETATM   27  O1  UNL     1      -0.521   2.985  24.795  1.00  0.00    -0.392 OA
ATOM     28  H1  UNL     1      -1.334   3.428  25.008  1.00  0.00     0.210 HD
ENDBRANCH  12  27
TORSDOF 5
ENDMDL
MODEL 5
REMARK VINA RESULT: -5.646806977      3.036      5.847
REMARK  5 active torsions:
REMARK  status: ('A' for Active; 'I' for Inactive)
REMARK    1  A    between atoms: C2_2  and  C3_3 
REMARK    2  A    between atoms: C14_14  and  O1_15 
REMARK    3  A    between atoms: C16_18  and  O2_19 
REMARK    4  A    between atoms: C19_24  and  C21_26 
REMARK    5  A    between atoms: C21_26  and  O4_27 
ROOT
HETATM    1  C3  UNL     1       3.937   3.707  24.748  1.00  0.00    -0.022 C 
HETATM    2  C4  UNL     1       5.179   3.256  25.389  1.00  0.00     0.020 C 
HETATM    3  C5  UNL     1       3.034   4.266  25.867  1.00  0.00     0.014 C 
HETATM    4  C6  UNL     1       2.409   2.986  26.359  1.00  0.00     0.014 C 
HETATM    5  C7  UNL     1       1.919   2.367  25.048  1.00  0.00    -0.006 C 
HETATM    6  C8  UNL     1       0.675   3.139  24.724  1.00  0.00     0.019 C 
HETATM    7  C9  UNL     1       3.041   2.744  24.082  1.00  0.00     0.020 C 
HETATM    8  C10 UNL     1       3.610   1.578  23.374  1.00  0.00     0.057 C 
HETATM    9  C11 UNL     1       4.413   1.903  22.192  1.00  0.00    -0.077 C 
HETATM   10  C12 UNL     1       5.922   2.065  22.364  1.00  0.00     0.043 C 
HETATM   11  C13 UNL     1       4.011   2.041  20.939  1.00  0.00     0.007 C 
HETATM   12  C14 UNL     1       2.694   1.926  20.304  1.00  0.00     0.143 C 
HETATM   13  C15 UNL     1       2.114   0.535  20.626  1.00  0.00     0.070 C 
HETATM   14  C16 UNL     1       1.665   0.593  22.036  1.00  0.00     0.155 C 
HETATM   15  C17 UNL     1       2.641   0.458  23.129  1.00  0.00     0.092 C 
HETATM   16  C18 UNL     1       3.528  -0.769  22.816  1.00  0.00     0.049 C 
HETATM   17  O3  UNL     1       1.939   0.071  24.235  1.00  0.00    -0.364 OA
HETATM   18  C19 UNL     1       1.763   0.913  25.268  1.00  0.00     0.087 C 
HETATM   19  C20 UNL     1       2.669   0.365  26.397  1.00  0.00     0.049 C 
ENDROOT
BRANCH  18  20
HETATM   20  C21 UNL     1       0.380   0.610  25.867  1.00  0.00     0.205 C 
BRANCH  20  21
HETATM   21  O4  UNL     1      -0.444  -0.092  25.010  1.00  0.00    -0.393 OA
HETATM   22  C22 UNL     1      -1.489  -0.594  25.741  1.00  0.00     0.201 C 
ENDBRANCH  20  21
ENDBRANCH  18  20
BRANCH   1  23
HETATM   23  C2  UNL     1       4.243   4.910  23.919  1.00  0.00    -0.027 C 
HETATM   24  C1  UNL     1       5.462   5.392  23.934  1.00  0.00     0.007 C 
ENDBRANCH   1  23
BRANCH  14  25
HETATM   25  O2  UNL     1       0.781  -0.514  22.172  1.00  0.00    -0.392 OA
ATOM     26  H2  UNL     1       0.322  -0.351  22.987  1.00  0.00     0.210 HD
ENDBRANCH  14  25
BRANCH  12  27
HETATM   27  O1  UNL     1       1.806   2.941  20.545  1.00  0.00    -0.392 OA
ATOM     28  H1  UNL     1       1.231   3.181  19.828  1.00  0.00     0.210 HD
ENDBRANCH  12  27
TORSDOF 5
ENDMDL
