MODEL 1
REMARK VINA RESULT: -5.138567991      0.000      0.000
REMARK  5 active torsions:
REMARK  status: ('A' for Active; 'I' for Inactive)
REMARK    1  A    between atoms: C2_2  and  S1_3 
REMARK    2  A    between atoms: S1_3  and  C3_4 
REMARK    3  A    between atoms: C3_4  and  N1_6 
REMARK    4  A    between atoms: N1_6  and  C4_8 
REMARK    5  A    between atoms: C5_12  and  S4_13 
ROOT
HETATM    1  C4  UNL     1      24.779   7.137  17.943  1.00  0.00     0.116 A 
HETATM    2  S3  UNL     1      25.347   6.255  16.601  1.00  0.00     0.006 SA
HETATM    3  N2  UNL     1      25.307   4.713  17.253  1.00  0.00    -0.318 N 
ATOM      4  H2  UNL     1      25.566   3.835  16.804  1.00  0.00     0.175 HD
HETATM    5  C5  UNL     1      24.859   4.897  18.491  1.00  0.00     0.099 A 
HETATM    6  C7  UNL     1      24.575   6.155  18.880  1.00  0.00     0.113 A 
HETATM    7  C8  UNL     1      24.070   6.531  20.214  1.00  0.00     0.105 C 
HETATM    8  N3  UNL     1      23.675   6.833  21.281  1.00  0.00    -0.191 NA
ENDROOT
BRANCH   1   9
HETATM    9  N1  UNL     1      24.578   8.428  18.078  1.00  0.00    -0.334 N 
ATOM     10  H1  UNL     1      25.243   9.024  18.572  1.00  0.00     0.168 HD
BRANCH   9  11
HETATM   11  C3  UNL     1      23.390   8.955  17.505  1.00  0.00     0.139 C 
HETATM   12  S2  UNL     1      23.401   9.370  15.929  1.00  0.00    -0.053 SA
BRANCH  11  13
HETATM   13  S1  UNL     1      21.874   9.194  18.411  1.00  0.00    -0.101 SA
BRANCH  13  14
HETATM   14  C2  UNL     1      22.184   9.842  20.071  1.00  0.00     0.077 C 
HETATM   15  C1  UNL     1      21.090   9.434  21.027  1.00  0.00     0.016 C 
ENDBRANCH  13  14
ENDBRANCH  11  13
ENDBRANCH   9  11
ENDBRANCH   1   9
BRANCH   5  16
HETATM   16  S4  UNL     1      24.646   3.471  19.605  1.00  0.00    -0.115 SA
HETATM   17  C6  UNL     1      26.009   3.358  20.757  1.00  0.00     0.097 C 
ENDBRANCH   5  16
TORSDOF 5
ENDMDL
MODEL 2
REMARK VINA RESULT: -4.991579205      1.568      2.503
REMARK  5 active torsions:
REMARK  status: ('A' for Active; 'I' for Inactive)
REMARK    1  A    between atoms: C2_2  and  S1_3 
REMARK    2  A    between atoms: S1_3  and  C3_4 
REMARK    3  A    between atoms: C3_4  and  N1_6 
REMARK    4  A    between atoms: N1_6  and  C4_8 
REMARK    5  A    between atoms: C5_12  and  S4_13 
ROOT
HETATM    1  C4  UNL     1      24.685   6.448  18.765  1.00  0.00     0.116 A 
HETATM    2  S3  UNL     1      23.588   6.062  20.010  1.00  0.00     0.006 SA
HETATM    3  N2  UNL     1      23.761   4.397  20.018  1.00  0.00    -0.318 N 
ATOM      4  H2  UNL     1      23.288   3.720  20.616  1.00  0.00     0.175 HD
HETATM    5  C5  UNL     1      24.657   4.161  19.065  1.00  0.00     0.099 A 
HETATM    6  C7  UNL     1      25.158   5.215  18.393  1.00  0.00     0.113 A 
HETATM    7  C8  UNL     1      26.158   5.128  17.311  1.00  0.00     0.105 C 
HETATM    8  N3  UNL     1      26.949   5.058  16.442  1.00  0.00    -0.191 NA
ENDROOT
BRANCH   1   9
HETATM    9  N1  UNL     1      25.015   7.617  18.266  1.00  0.00    -0.334 N 
ATOM     10  H1  UNL     1      25.890   8.079  18.519  1.00  0.00     0.168 HD
BRANCH   9  11
HETATM   11  C3  UNL     1      24.098   8.209  17.358  1.00  0.00     0.139 C 
HETATM   12  S2  UNL     1      24.335   7.998  15.759  1.00  0.00    -0.053 SA
BRANCH  11  13
HETATM   13  S1  UNL     1      22.690   9.179  17.862  1.00  0.00    -0.101 SA
BRANCH  13  14
HETATM   14  C2  UNL     1      22.778   9.622  19.614  1.00  0.00     0.077 C 
HETATM   15  C1  UNL     1      21.414   9.567  20.258  1.00  0.00     0.016 C 
ENDBRANCH  13  14
ENDBRANCH  11  13
ENDBRANCH   9  11
ENDBRANCH   1   9
BRANCH   5  16
HETATM   16  S4  UNL     1      25.174   2.451  18.703  1.00  0.00    -0.115 SA
HETATM   17  C6  UNL     1      26.846   2.162  19.269  1.00  0.00     0.097 C 
ENDBRANCH   5  16
TORSDOF 5
ENDMDL
MODEL 3
REMARK VINA RESULT: -4.954933040      2.116      3.892
REMARK  5 active torsions:
REMARK  status: ('A' for Active; 'I' for Inactive)
REMARK    1  A    between atoms: C2_2  and  S1_3 
REMARK    2  A    between atoms: S1_3  and  C3_4 
REMARK    3  A    between atoms: C3_4  and  N1_6 
REMARK    4  A    between atoms: N1_6  and  C4_8 
REMARK    5  A    between atoms: C5_12  and  S4_13 
ROOT
HETATM    1  C4  UNL     1      24.639   7.381  18.484  1.00  0.00     0.116 A 
HETATM    2  S3  UNL     1      23.488   7.386  19.741  1.00  0.00     0.006 SA
HETATM    3  N2  UNL     1      23.541   5.767  20.164  1.00  0.00    -0.318 N 
ATOM      4  H2  UNL     1      23.007   5.291  20.891  1.00  0.00     0.175 HD
HETATM    5  C5  UNL     1      24.440   5.245  19.335  1.00  0.00     0.099 A 
HETATM    6  C7  UNL     1      25.030   6.066  18.445  1.00  0.00     0.113 A 
HETATM    7  C8  UNL     1      26.045   5.650  17.459  1.00  0.00     0.105 C 
HETATM    8  N3  UNL     1      26.850   5.317  16.666  1.00  0.00    -0.191 NA
ENDROOT
BRANCH   1   9
HETATM    9  N1  UNL     1      25.063   8.366  17.727  1.00  0.00    -0.334 N 
ATOM     10  H1  UNL     1      25.918   8.879  17.947  1.00  0.00     0.168 HD
BRANCH   9  11
HETATM   11  C3  UNL     1      24.277   8.685  16.588  1.00  0.00     0.139 C 
HETATM   12  S2  UNL     1      22.977   9.650  16.781  1.00  0.00    -0.053 SA
BRANCH  11  13
HETATM   13  S1  UNL     1      24.626   8.090  14.944  1.00  0.00    -0.101 SA
BRANCH  13  14
HETATM   14  C2  UNL     1      23.493   8.798  13.724  1.00  0.00     0.077 C 
HETATM   15  C1  UNL     1      23.950   8.495  12.318  1.00  0.00     0.016 C 
ENDBRANCH  13  14
ENDBRANCH  11  13
ENDBRANCH   9  11
ENDBRANCH   1   9
BRANCH   5  16
HETATM   16  S4  UNL     1      24.841   3.470  19.425  1.00  0.00    -0.115 SA
HETATM   17  C6  UNL     1      26.289   3.199  20.439  1.00  0.00     0.097 C 
ENDBRANCH   5  16
TORSDOF 5
ENDMDL
MODEL 4
REMARK VINA RESULT: -4.927280141      2.210      3.711
REMARK  5 active torsions:
REMARK  status: ('A' for Active; 'I' for Inactive)
REMARK    1  A    between atoms: C2_2  and  S1_3 
REMARK    2  A    between atoms: S1_3  and  C3_4 
REMARK    3  A    between atoms: C3_4  and  N1_6 
REMARK    4  A    between atoms: N1_6  and  C4_8 
REMARK    5  A    between atoms: C5_12  and  S4_13 
ROOT
HETATM    1  C4  UNL     1      24.632   5.503  19.137  1.00  0.00     0.116 A 
HETATM    2  S3  UNL     1      23.420   4.785  20.097  1.00  0.00     0.006 SA
HETATM    3  N2  UNL     1      23.608   3.190  19.622  1.00  0.00    -0.318 N 
ATOM      4  H2  UNL     1      23.085   2.375  19.941  1.00  0.00     0.175 HD
HETATM    5  C5  UNL     1      24.597   3.231  18.734  1.00  0.00     0.099 A 
HETATM    6  C7  UNL     1      25.151   4.428  18.460  1.00  0.00     0.113 A 
HETATM    7  C8  UNL     1      26.253   4.648  17.505  1.00  0.00     0.105 C 
HETATM    8  N3  UNL     1      27.128   4.825  16.736  1.00  0.00    -0.191 NA
ENDROOT
BRANCH   1   9
HETATM    9  N1  UNL     1      24.998   6.761  19.046  1.00  0.00    -0.334 N 
ATOM     10  H1  UNL     1      25.821   7.115  19.535  1.00  0.00     0.168 HD
BRANCH   9  11
HETATM   11  C3  UNL     1      24.196   7.606  18.234  1.00  0.00     0.139 C 
HETATM   12  S2  UNL     1      23.076   8.546  18.953  1.00  0.00    -0.053 SA
BRANCH  11  13
HETATM   13  S1  UNL     1      24.339   7.703  16.460  1.00  0.00    -0.101 SA
BRANCH  13  14
HETATM   14  C2  UNL     1      23.638   9.242  15.817  1.00  0.00     0.077 C 
HETATM   15  C1  UNL     1      23.280   9.109  14.357  1.00  0.00     0.016 C 
ENDBRANCH  13  14
ENDBRANCH  11  13
ENDBRANCH   9  11
ENDBRANCH   1   9
BRANCH   5  16
HETATM   16  S4  UNL     1      25.163   1.698  17.929  1.00  0.00    -0.115 SA
HETATM   17  C6  UNL     1      26.672   1.106  18.686  1.00  0.00     0.097 C 
ENDBRANCH   5  16
TORSDOF 5
ENDMDL
MODEL 5
REMARK VINA RESULT: -4.911447216      1.984      3.260
REMARK  5 active torsions:
REMARK  status: ('A' for Active; 'I' for Inactive)
REMARK    1  A    between atoms: C2_2  and  S1_3 
REMARK    2  A    between atoms: S1_3  and  C3_4 
REMARK    3  A    between atoms: C3_4  and  N1_6 
REMARK    4  A    between atoms: N1_6  and  C4_8 
REMARK    5  A    between atoms: C5_12  and  S4_13 
ROOT
HETATM    1  C4  UNL     1      24.336   6.880  19.236  1.00  0.00     0.116 A 
HETATM    2  S3  UNL     1      24.041   5.963  20.642  1.00  0.00     0.006 SA
HETATM    3  N2  UNL     1      24.383   4.436  20.047  1.00  0.00    -0.318 N 
ATOM      4  H2  UNL     1      24.344   3.546  20.543  1.00  0.00     0.175 HD
HETATM    5  C5  UNL     1      24.718   4.651  18.778  1.00  0.00     0.099 A 
HETATM    6  C7  UNL     1      24.702   5.920  18.326  1.00  0.00     0.113 A 
HETATM    7  C8  UNL     1      25.046   6.330  16.952  1.00  0.00     0.105 C 
HETATM    8  N3  UNL     1      25.312   6.657  15.852  1.00  0.00    -0.191 NA
ENDROOT
BRANCH   1   9
HETATM    9  N1  UNL     1      24.245   8.175  19.042  1.00  0.00    -0.334 N 
ATOM     10  H1  UNL     1      25.006   8.708  18.620  1.00  0.00     0.168 HD
BRANCH   9  11
HETATM   11  C3  UNL     1      23.035   8.801  19.446  1.00  0.00     0.139 C 
HETATM   12  S2  UNL     1      22.791   9.076  21.034  1.00  0.00    -0.053 SA
BRANCH  11  13
HETATM   13  S1  UNL     1      21.756   9.310  18.314  1.00  0.00    -0.101 SA
BRANCH  13  14
HETATM   14  C2  UNL     1      22.381  10.481  17.083  1.00  0.00     0.077 C 
HETATM   15  C1  UNL     1      23.161   9.770  16.005  1.00  0.00     0.016 C 
ENDBRANCH  13  14
ENDBRANCH  11  13
ENDBRANCH   9  11
ENDBRANCH   1   9
BRANCH   5  16
HETATM   16  S4  UNL     1      25.180   3.251  17.708  1.00  0.00    -0.115 SA
HETATM   17  C6  UNL     1      26.951   3.202  17.460  1.00  0.00     0.097 C 
ENDBRANCH   5  16
TORSDOF 5
ENDMDL
