MODEL 1
REMARK VINA RESULT: -5.364716052      0.000      0.000
REMARK  2 active torsions:
REMARK  status: ('A' for Active; 'I' for Inactive)
REMARK    1  A    between atoms: C4_4  and  C5_5 
REMARK    2  A    between atoms: C5_5  and  C6_6 
ROOT
HETATM    1  C1  UNL     1       1.242  23.463  44.089  1.00  0.00     0.070 C 
HETATM    2  C2  UNL     1       0.758  24.442  45.108  1.00  0.00     0.024 A 
HETATM    3  C3  UNL     1       0.068  24.143  46.268  1.00  0.00     0.052 A 
HETATM    4  C4  UNL     1      -0.197  25.322  46.935  1.00  0.00     0.033 A 
HETATM    5  N3  UNL     1       0.328  26.309  46.186  1.00  0.00    -0.304 N 
ATOM      6  H3  UNL     1       0.299  27.303  46.410  1.00  0.00     0.186 HD
HETATM    7  N4  UNL     1       0.887  25.778  45.112  1.00  0.00    -0.305 N 
ATOM      8  H4  UNL     1       1.356  26.314  44.381  1.00  0.00     0.186 HD
ENDROOT
BRANCH   4   9
HETATM    9  C5  UNL     1      -0.925  25.428  48.231  1.00  0.00     0.117 C 
BRANCH   9  10
HETATM   10  C6  UNL     1       0.017  25.446  49.381  1.00  0.00     0.031 A 
HETATM   11  C7  UNL     1      -0.245  26.097  50.560  1.00  0.00     0.114 A 
HETATM   12  N1  UNL     1       0.796  25.915  51.374  1.00  0.00    -0.360 N 
HETATM   13  C8  UNL     1       1.691  25.163  50.712  1.00  0.00     0.180 A 
ATOM     14  H1  UNL     1       0.894  26.279  52.321  1.00  0.00     0.166 HD
HETATM   15  N2  UNL     1       1.223  24.869  49.490  1.00  0.00    -0.354 N 
ATOM     16  H2  UNL     1       1.695  24.312  48.777  1.00  0.00     0.166 HD
ENDBRANCH   9  10
ENDBRANCH   4   9
TORSDOF 2
ENDMDL
MODEL 2
REMARK VINA RESULT: -5.331548852      1.580      4.906
REMARK  2 active torsions:
REMARK  status: ('A' for Active; 'I' for Inactive)
REMARK    1  A    between atoms: C4_4  and  C5_5 
REMARK    2  A    between atoms: C5_5  and  C6_6 
ROOT
HETATM    1  C1  UNL     1       0.102  25.375  51.685  1.00  0.00     0.070 C 
HETATM    2  C2  UNL     1      -0.550  25.071  50.376  1.00  0.00     0.024 A 
HETATM    3  C3  UNL     1      -0.358  25.752  49.188  1.00  0.00     0.052 A 
HETATM    4  C4  UNL     1      -1.139  25.162  48.216  1.00  0.00     0.033 A 
HETATM    5  N3  UNL     1      -1.786  24.145  48.812  1.00  0.00    -0.304 N 
ATOM      6  H3  UNL     1      -2.442  23.511  48.357  1.00  0.00     0.186 HD
HETATM    7  N4  UNL     1      -1.431  24.101  50.085  1.00  0.00    -0.305 N 
ATOM      8  H4  UNL     1      -1.781  23.420  50.759  1.00  0.00     0.186 HD
ENDROOT
BRANCH   4   9
HETATM    9  C5  UNL     1      -1.215  25.604  46.794  1.00  0.00     0.117 C 
BRANCH   9  10
HETATM   10  C6  UNL     1       0.050  25.315  46.069  1.00  0.00     0.031 A 
HETATM   11  C7  UNL     1       0.450  24.048  45.725  1.00  0.00     0.114 A 
HETATM   12  N1  UNL     1       1.619  24.142  45.088  1.00  0.00    -0.360 N 
HETATM   13  C8  UNL     1       1.941  25.445  45.038  1.00  0.00     0.180 A 
ATOM     14  H1  UNL     1       2.166  23.368  44.711  1.00  0.00     0.166 HD
HETATM   15  N2  UNL     1       0.985  26.173  45.636  1.00  0.00    -0.354 N 
ATOM     16  H2  UNL     1       0.973  27.187  45.741  1.00  0.00     0.166 HD
ENDBRANCH   9  10
ENDBRANCH   4   9
TORSDOF 2
ENDMDL
MODEL 3
REMARK VINA RESULT: -5.291726532      1.530      1.901
REMARK  2 active torsions:
REMARK  status: ('A' for Active; 'I' for Inactive)
REMARK    1  A    between atoms: C4_4  and  C5_5 
REMARK    2  A    between atoms: C5_5  and  C6_6 
ROOT
HETATM    1  C1  UNL     1       0.586  24.941  44.576  1.00  0.00     0.070 C 
HETATM    2  C2  UNL     1       0.695  24.668  46.040  1.00  0.00     0.024 A 
HETATM    3  C3  UNL     1      -0.329  24.255  46.874  1.00  0.00     0.052 A 
HETATM    4  C4  UNL     1       0.177  24.114  48.150  1.00  0.00     0.033 A 
HETATM    5  N3  UNL     1       1.482  24.436  48.079  1.00  0.00    -0.304 N 
ATOM      6  H3  UNL     1       2.137  24.431  48.860  1.00  0.00     0.186 HD
HETATM    7  N4  UNL     1       1.775  24.761  46.831  1.00  0.00    -0.305 N 
ATOM      8  H4  UNL     1       2.701  25.045  46.511  1.00  0.00     0.186 HD
ENDROOT
BRANCH   4   9
HETATM    9  C5  UNL     1      -0.609  23.685  49.340  1.00  0.00     0.117 C 
BRANCH   9  10
HETATM   10  C6  UNL     1      -0.464  24.650  50.461  1.00  0.00     0.031 A 
HETATM   11  C7  UNL     1      -0.439  26.011  50.286  1.00  0.00     0.114 A 
HETATM   12  N1  UNL     1      -0.300  26.580  51.485  1.00  0.00    -0.360 N 
HETATM   13  C8  UNL     1      -0.240  25.590  52.390  1.00  0.00     0.180 A 
ATOM     14  H1  UNL     1      -0.249  27.581  51.677  1.00  0.00     0.166 HD
HETATM   15  N2  UNL     1      -0.340  24.403  51.773  1.00  0.00    -0.354 N 
ATOM     16  H2  UNL     1      -0.325  23.485  52.218  1.00  0.00     0.166 HD
ENDBRANCH   9  10
ENDBRANCH   4   9
TORSDOF 2
ENDMDL
MODEL 4
REMARK VINA RESULT: -5.287602050      1.316      1.391
REMARK  2 active torsions:
REMARK  status: ('A' for Active; 'I' for Inactive)
REMARK    1  A    between atoms: C4_4  and  C5_5 
REMARK    2  A    between atoms: C5_5  and  C6_6 
ROOT
HETATM    1  C1  UNL     1       2.360  25.009  45.111  1.00  0.00     0.070 C 
HETATM    2  C2  UNL     1       1.150  25.321  45.930  1.00  0.00     0.024 A 
HETATM    3  C3  UNL     1       0.632  24.547  46.952  1.00  0.00     0.052 A 
HETATM    4  C4  UNL     1      -0.486  25.179  47.455  1.00  0.00     0.033 A 
HETATM    5  N3  UNL     1      -0.634  26.312  46.745  1.00  0.00    -0.304 N 
ATOM      6  H3  UNL     1      -1.373  27.002  46.877  1.00  0.00     0.186 HD
HETATM    7  N4  UNL     1       0.336  26.384  45.849  1.00  0.00    -0.305 N 
ATOM      8  H4  UNL     1       0.450  27.149  45.183  1.00  0.00     0.186 HD
ENDROOT
BRANCH   4   9
HETATM    9  C5  UNL     1      -1.332  24.665  48.570  1.00  0.00     0.117 C 
BRANCH   9  10
HETATM   10  C6  UNL     1      -0.701  24.923  49.891  1.00  0.00     0.031 A 
HETATM   11  C7  UNL     1       0.002  26.065  50.181  1.00  0.00     0.114 A 
HETATM   12  N1  UNL     1       0.430  25.979  51.442  1.00  0.00    -0.360 N 
HETATM   13  C8  UNL     1      -0.000  24.803  51.928  1.00  0.00     0.180 A 
ATOM     14  H1  UNL     1       0.980  26.676  51.943  1.00  0.00     0.166 HD
HETATM   15  N2  UNL     1      -0.695  24.148  50.985  1.00  0.00    -0.354 N 
ATOM     16  H2  UNL     1      -1.136  23.233  51.082  1.00  0.00     0.166 HD
ENDBRANCH   9  10
ENDBRANCH   4   9
TORSDOF 2
ENDMDL
MODEL 5
REMARK VINA RESULT: -5.253710251      4.060      5.010
REMARK  2 active torsions:
REMARK  status: ('A' for Active; 'I' for Inactive)
REMARK    1  A    between atoms: C4_4  and  C5_5 
REMARK    2  A    between atoms: C5_5  and  C6_6 
ROOT
HETATM    1  C1  UNL     1      -2.943  20.500  49.522  1.00  0.00     0.070 C 
HETATM    2  C2  UNL     1      -1.680  20.999  50.142  1.00  0.00     0.024 A 
HETATM    3  C3  UNL     1      -1.052  22.201  49.868  1.00  0.00     0.052 A 
HETATM    4  C4  UNL     1       0.084  22.288  50.646  1.00  0.00     0.033 A 
HETATM    5  N3  UNL     1       0.134  21.157  51.374  1.00  0.00    -0.304 N 
ATOM      6  H3  UNL     1       0.859  20.919  52.050  1.00  0.00     0.186 HD
HETATM    7  N4  UNL     1      -0.910  20.406  51.068  1.00  0.00    -0.305 N 
ATOM      8  H4  UNL     1      -1.105  19.494  51.481  1.00  0.00     0.186 HD
ENDROOT
BRANCH   4   9
HETATM    9  C5  UNL     1       1.038  23.433  50.644  1.00  0.00     0.117 C 
BRANCH   9  10
HETATM   10  C6  UNL     1       0.429  24.645  51.252  1.00  0.00     0.031 A 
HETATM   11  C7  UNL     1       0.449  25.880  50.653  1.00  0.00     0.114 A 
HETATM   12  N1  UNL     1      -0.180  26.740  51.457  1.00  0.00    -0.360 N 
HETATM   13  C8  UNL     1      -0.585  26.051  52.537  1.00  0.00     0.180 A 
ATOM     14  H1  UNL     1      -0.326  27.734  51.283  1.00  0.00     0.166 HD
HETATM   15  N2  UNL     1      -0.217  24.766  52.421  1.00  0.00    -0.354 N 
ATOM     16  H2  UNL     1      -0.395  24.021  53.095  1.00  0.00     0.166 HD
ENDBRANCH   9  10
ENDBRANCH   4   9
TORSDOF 2
ENDMDL
