MODEL 1
REMARK VINA RESULT: -7.859284815      0.000      0.000
REMARK  11 active torsions:
REMARK  status: ('A' for Active; 'I' for Inactive)
REMARK    1  A    between atoms: C2_2  and  C3_3 
REMARK    2  A    between atoms: C3_3  and  C4_4 
REMARK    3  A    between atoms: C4_4  and  C5_5 
REMARK    4  A    between atoms: C5_5  and  C6_6 
REMARK    5  A    between atoms: C6_6  and  C7_7 
REMARK    6  A    between atoms: C7_7  and  C8_8 
REMARK       I    between atoms: C8_8  and  N1_10 
REMARK    7  A    between atoms: N1_10  and  C9_12 
REMARK    8  A    between atoms: C11_14  and  O2_15 
REMARK    9  A    between atoms: C15_24  and  C16_25 
REMARK   10  A    between atoms: C16_25  and  C17_26 
REMARK   11  A    between atoms: C17_26  and  S1_27 
ROOT
HETATM    1  C9  UNL     1      13.342  20.650  18.563  1.00  0.00     0.137 C 
HETATM    2  C10 UNL     1      14.538  19.855  18.868  1.00  0.00     0.055 C 
HETATM    3  C11 UNL     1      13.310  22.078  18.810  1.00  0.00     0.148 C 
HETATM    4  N2  UNL     1      14.278  23.095  18.802  1.00  0.00    -0.359 N 
HETATM    5  C12 UNL     1      13.903  24.428  18.273  1.00  0.00     0.152 C 
HETATM    6  C13 UNL     1      15.645  22.993  19.268  1.00  0.00     0.227 C 
HETATM    7  C14 UNL     1      16.338  24.276  19.469  1.00  0.00     0.236 C 
HETATM    8  O3  UNL     1      15.919  24.995  20.443  1.00  0.00    -0.272 OA
HETATM    9  N3  UNL     1      17.413  24.762  18.679  1.00  0.00    -0.346 N 
ATOM     10  H3  UNL     1      18.165  25.247  19.167  1.00  0.00     0.163 HD
HETATM   11  C15 UNL     1      17.534  24.630  17.246  1.00  0.00     0.177 C 
HETATM   12  C19 UNL     1      18.047  23.343  16.776  1.00  0.00     0.240 C 
HETATM   13  O4  UNL     1      19.073  22.877  17.367  1.00  0.00    -0.271 OA
HETATM   14  N4  UNL     1      17.491  22.570  15.715  1.00  0.00    -0.359 N 
ATOM     15  H4  UNL     1      18.067  21.817  15.338  1.00  0.00     0.162 HD
HETATM   16  C20 UNL     1      16.203  22.754  15.134  1.00  0.00     0.123 C 
HETATM   17  C21 UNL     1      15.481  21.502  14.741  1.00  0.00     0.025 C 
HETATM   18  C22 UNL     1      15.137  20.609  15.928  1.00  0.00     0.050 C 
HETATM   19  C23 UNL     1      13.706  20.357  16.088  1.00  0.00     0.009 A 
HETATM   20  S2  UNL     1      12.649  19.970  14.774  1.00  0.00    -0.087 SA
HETATM   21  C24 UNL     1      11.188  19.818  15.642  1.00  0.00     0.138 A 
HETATM   22  N5  UNL     1      11.590  20.070  16.873  1.00  0.00    -0.360 N 
ATOM     23  H5  UNL     1      10.913  20.053  17.637  1.00  0.00     0.165 HD
HETATM   24  C25 UNL     1      12.860  20.346  17.130  1.00  0.00     0.059 A 
ENDROOT
BRANCH   1  25
HETATM   25  N1  UNL     1      12.340  20.101  19.525  1.00  0.00    -0.339 N 
HETATM   26  C8  UNL     1      11.979  18.754  19.514  1.00  0.00     0.218 C 
HETATM   27  O1  UNL     1      12.468  17.906  18.702  1.00  0.00    -0.274 OA
ATOM     28  H1  UNL     1      11.909  20.726  20.206  1.00  0.00     0.164 HD
BRANCH  26  29
HETATM   29  C7  UNL     1      10.976  18.280  20.498  1.00  0.00     0.103 C 
BRANCH  29  30
HETATM   30  C6  UNL     1      10.254  19.474  21.064  1.00  0.00     0.009 C 
BRANCH  30  31
HETATM   31  C5  UNL     1       8.782  19.395  20.769  1.00  0.00     0.000 C 
BRANCH  31  32
HETATM   32  C4  UNL     1       8.354  17.973  20.618  1.00  0.00     0.000 C 
BRANCH  32  33
HETATM   33  C3  UNL     1       7.271  17.548  21.556  1.00  0.00    -0.000 C 
BRANCH  33  34
HETATM   34  C2  UNL     1       7.582  16.156  22.128  1.00  0.00    -0.005 C 
HETATM   35  C1  UNL     1       7.130  16.162  23.563  1.00  0.00     0.005 C 
ENDBRANCH  33  34
ENDBRANCH  32  33
ENDBRANCH  31  32
ENDBRANCH  30  31
ENDBRANCH  29  30
ENDBRANCH  26  29
ENDBRANCH   1  25
BRANCH   3  36
HETATM   36  O2  UNL     1      12.142  22.568  19.107  1.00  0.00    -0.347 OA
ATOM     37  H2  UNL     1      11.774  23.164  18.465  1.00  0.00     0.219 HD
ENDBRANCH   3  36
BRANCH  11  38
HETATM   38  C16 UNL     1      18.502  25.697  16.706  1.00  0.00     0.045 C 
BRANCH  38  39
HETATM   39  C17 UNL     1      18.793  26.644  17.832  1.00  0.00     0.076 C 
BRANCH  39  40
HETATM   40  S1  UNL     1      18.792  28.328  17.127  1.00  0.00    -0.173 SA
HETATM   41  C18 UNL     1      19.725  29.398  18.265  1.00  0.00     0.089 C 
ENDBRANCH  39  40
ENDBRANCH  38  39
ENDBRANCH  11  38
TORSDOF 11
ENDMDL
MODEL 2
REMARK VINA RESULT: -7.773117482      0.844      1.455
REMARK  11 active torsions:
REMARK  status: ('A' for Active; 'I' for Inactive)
REMARK    1  A    between atoms: C2_2  and  C3_3 
REMARK    2  A    between atoms: C3_3  and  C4_4 
REMARK    3  A    between atoms: C4_4  and  C5_5 
REMARK    4  A    between atoms: C5_5  and  C6_6 
REMARK    5  A    between atoms: C6_6  and  C7_7 
REMARK    6  A    between atoms: C7_7  and  C8_8 
REMARK       I    between atoms: C8_8  and  N1_10 
REMARK    7  A    between atoms: N1_10  and  C9_12 
REMARK    8  A    between atoms: C11_14  and  O2_15 
REMARK    9  A    between atoms: C15_24  and  C16_25 
REMARK   10  A    between atoms: C16_25  and  C17_26 
REMARK   11  A    between atoms: C17_26  and  S1_27 
ROOT
HETATM    1  C9  UNL     1      13.346  20.691  18.612  1.00  0.00     0.137 C 
HETATM    2  C10 UNL     1      14.540  19.893  18.917  1.00  0.00     0.055 C 
HETATM    3  C11 UNL     1      13.322  22.122  18.846  1.00  0.00     0.148 C 
HETATM    4  N2  UNL     1      14.295  23.134  18.823  1.00  0.00    -0.359 N 
HETATM    5  C12 UNL     1      13.923  24.463  18.284  1.00  0.00     0.152 C 
HETATM    6  C13 UNL     1      15.664  23.030  19.281  1.00  0.00     0.227 C 
HETATM    7  C14 UNL     1      16.365  24.311  19.465  1.00  0.00     0.236 C 
HETATM    8  O3  UNL     1      15.955  25.041  20.435  1.00  0.00    -0.272 OA
HETATM    9  N3  UNL     1      17.437  24.785  18.664  1.00  0.00    -0.346 N 
ATOM     10  H3  UNL     1      18.194  25.271  19.142  1.00  0.00     0.163 HD
HETATM   11  C15 UNL     1      17.548  24.640  17.232  1.00  0.00     0.177 C 
HETATM   12  C19 UNL     1      18.052  23.345  16.770  1.00  0.00     0.240 C 
HETATM   13  O4  UNL     1      19.080  22.880  17.359  1.00  0.00    -0.271 OA
HETATM   14  N4  UNL     1      17.486  22.565  15.720  1.00  0.00    -0.359 N 
ATOM     15  H4  UNL     1      18.056  21.807  15.346  1.00  0.00     0.162 HD
HETATM   16  C20 UNL     1      16.195  22.750  15.145  1.00  0.00     0.123 C 
HETATM   17  C21 UNL     1      15.465  21.498  14.769  1.00  0.00     0.025 C 
HETATM   18  C22 UNL     1      15.124  20.618  15.966  1.00  0.00     0.050 C 
HETATM   19  C23 UNL     1      13.693  20.374  16.138  1.00  0.00     0.009 A 
HETATM   20  S2  UNL     1      12.625  19.980  14.834  1.00  0.00    -0.087 SA
HETATM   21  C24 UNL     1      11.170  19.843  15.712  1.00  0.00     0.138 A 
HETATM   22  N5  UNL     1      11.580  20.104  16.938  1.00  0.00    -0.360 N 
ATOM     23  H5  UNL     1      10.909  20.097  17.706  1.00  0.00     0.165 HD
HETATM   24  C25 UNL     1      12.853  20.376  17.184  1.00  0.00     0.059 A 
ENDROOT
BRANCH   1  25
HETATM   25  N1  UNL     1      12.347  20.156  19.585  1.00  0.00    -0.339 N 
HETATM   26  C8  UNL     1      11.983  18.809  19.591  1.00  0.00     0.218 C 
HETATM   27  O1  UNL     1      12.464  17.952  18.785  1.00  0.00    -0.274 OA
ATOM     28  H1  UNL     1      11.922  20.790  20.262  1.00  0.00     0.164 HD
BRANCH  26  29
HETATM   29  C7  UNL     1      10.984  18.350  20.585  1.00  0.00     0.103 C 
BRANCH  29  30
HETATM   30  C6  UNL     1      10.067  19.498  20.914  1.00  0.00     0.009 C 
BRANCH  30  31
HETATM   31  C5  UNL     1       8.745  19.340  20.216  1.00  0.00     0.000 C 
BRANCH  31  32
HETATM   32  C4  UNL     1       8.283  17.923  20.283  1.00  0.00     0.000 C 
BRANCH  32  33
HETATM   33  C3  UNL     1       7.804  17.363  18.983  1.00  0.00    -0.000 C 
BRANCH  33  34
HETATM   34  C2  UNL     1       8.610  17.964  17.819  1.00  0.00    -0.005 C 
HETATM   35  C1  UNL     1       9.444  16.852  17.245  1.00  0.00     0.005 C 
ENDBRANCH  33  34
ENDBRANCH  32  33
ENDBRANCH  31  32
ENDBRANCH  30  31
ENDBRANCH  29  30
ENDBRANCH  26  29
ENDBRANCH   1  25
BRANCH   3  36
HETATM   36  O2  UNL     1      12.158  22.619  19.146  1.00  0.00    -0.347 OA
ATOM     37  H2  UNL     1      12.112  23.568  19.159  1.00  0.00     0.219 HD
ENDBRANCH   3  36
BRANCH  11  38
HETATM   38  C16 UNL     1      18.518  25.696  16.676  1.00  0.00     0.045 C 
BRANCH  38  39
HETATM   39  C17 UNL     1      18.826  26.648  17.792  1.00  0.00     0.076 C 
BRANCH  39  40
HETATM   40  S1  UNL     1      18.830  28.328  17.077  1.00  0.00    -0.173 SA
HETATM   41  C18 UNL     1      19.694  29.419  18.250  1.00  0.00     0.089 C 
ENDBRANCH  39  40
ENDBRANCH  38  39
ENDBRANCH  11  38
TORSDOF 11
ENDMDL
MODEL 3
REMARK VINA RESULT: -7.684571337      3.586     10.525
REMARK  11 active torsions:
REMARK  status: ('A' for Active; 'I' for Inactive)
REMARK    1  A    between atoms: C2_2  and  C3_3 
REMARK    2  A    between atoms: C3_3  and  C4_4 
REMARK    3  A    between atoms: C4_4  and  C5_5 
REMARK    4  A    between atoms: C5_5  and  C6_6 
REMARK    5  A    between atoms: C6_6  and  C7_7 
REMARK    6  A    between atoms: C7_7  and  C8_8 
REMARK       I    between atoms: C8_8  and  N1_10 
REMARK    7  A    between atoms: N1_10  and  C9_12 
REMARK    8  A    between atoms: C11_14  and  O2_15 
REMARK    9  A    between atoms: C15_24  and  C16_25 
REMARK   10  A    between atoms: C16_25  and  C17_26 
REMARK   11  A    between atoms: C17_26  and  S1_27 
ROOT
HETATM    1  C9  UNL     1      12.160  18.877  17.163  1.00  0.00     0.137 C 
HETATM    2  C10 UNL     1      12.598  17.785  18.040  1.00  0.00     0.055 C 
HETATM    3  C11 UNL     1      11.051  18.701  16.246  1.00  0.00     0.148 C 
HETATM    4  N2  UNL     1       9.879  17.927  16.264  1.00  0.00    -0.359 N 
HETATM    5  C12 UNL     1       8.634  18.510  15.711  1.00  0.00     0.152 C 
HETATM    6  C13 UNL     1       9.739  16.579  16.773  1.00  0.00     0.227 C 
HETATM    7  C14 UNL     1       8.512  15.876  16.365  1.00  0.00     0.236 C 
HETATM    8  O3  UNL     1       8.432  15.560  15.126  1.00  0.00    -0.272 OA
HETATM    9  N3  UNL     1       7.437  15.533  17.225  1.00  0.00    -0.346 N 
ATOM     10  H3  UNL     1       6.993  14.627  17.075  1.00  0.00     0.163 HD
HETATM   11  C15 UNL     1       6.915  16.353  18.293  1.00  0.00     0.177 C 
HETATM   12  C19 UNL     1       7.663  16.296  19.550  1.00  0.00     0.240 C 
HETATM   13  O4  UNL     1       7.992  15.142  19.977  1.00  0.00    -0.271 OA
HETATM   14  N4  UNL     1       8.054  17.422  20.331  1.00  0.00    -0.359 N 
ATOM     15  H4  UNL     1       8.363  17.240  21.286  1.00  0.00     0.162 HD
HETATM   16  C20 UNL     1       8.051  18.780  19.898  1.00  0.00     0.123 C 
HETATM   17  C21 UNL     1       9.181  19.625  20.400  1.00  0.00     0.025 C 
HETATM   18  C22 UNL     1      10.544  19.165  19.897  1.00  0.00     0.050 C 
HETATM   19  C23 UNL     1      11.267  20.176  19.128  1.00  0.00     0.009 A 
HETATM   20  S2  UNL     1      11.376  21.839  19.595  1.00  0.00    -0.087 SA
HETATM   21  C24 UNL     1      12.318  22.421  18.297  1.00  0.00     0.138 A 
HETATM   22  N5  UNL     1      12.491  21.321  17.589  1.00  0.00    -0.360 N 
ATOM     23  H5  UNL     1      13.032  21.359  16.724  1.00  0.00     0.165 HD
HETATM   24  C25 UNL     1      11.971  20.169  17.985  1.00  0.00     0.059 A 
ENDROOT
BRANCH   1  25
HETATM   25  N1  UNL     1      13.338  19.058  16.263  1.00  0.00    -0.339 N 
HETATM   26  C8  UNL     1      14.585  19.439  16.761  1.00  0.00     0.218 C 
HETATM   27  O1  UNL     1      14.808  19.655  17.993  1.00  0.00    -0.274 OA
ATOM     28  H1  UNL     1      13.229  18.898  15.262  1.00  0.00     0.164 HD
BRANCH  26  29
HETATM   29  C7  UNL     1      15.709  19.600  15.808  1.00  0.00     0.103 C 
BRANCH  29  30
HETATM   30  C6  UNL     1      15.199  20.294  14.573  1.00  0.00     0.009 C 
BRANCH  30  31
HETATM   31  C5  UNL     1      16.331  20.926  13.812  1.00  0.00     0.000 C 
BRANCH  31  32
HETATM   32  C4  UNL     1      17.374  21.433  14.752  1.00  0.00     0.000 C 
BRANCH  32  33
HETATM   33  C3  UNL     1      17.349  22.911  14.969  1.00  0.00    -0.000 C 
BRANCH  33  34
HETATM   34  C2  UNL     1      17.508  23.229  16.465  1.00  0.00    -0.005 C 
HETATM   35  C1  UNL     1      16.159  23.027  17.100  1.00  0.00     0.005 C 
ENDBRANCH  33  34
ENDBRANCH  32  33
ENDBRANCH  31  32
ENDBRANCH  30  31
ENDBRANCH  29  30
ENDBRANCH  26  29
ENDBRANCH   1  25
BRANCH   3  36
HETATM   36  O2  UNL     1      11.115  19.399  15.150  1.00  0.00    -0.347 OA
ATOM     37  H2  UNL     1      10.458  20.080  15.061  1.00  0.00     0.219 HD
ENDBRANCH   3  36
BRANCH  11  38
HETATM   38  C16 UNL     1       5.480  15.915  18.632  1.00  0.00     0.045 C 
BRANCH  38  39
HETATM   39  C17 UNL     1       4.658  17.161  18.778  1.00  0.00     0.076 C 
BRANCH  39  40
HETATM   40  S1  UNL     1       3.326  17.072  17.532  1.00  0.00    -0.173 SA
HETATM   41  C18 UNL     1       4.006  16.240  16.064  1.00  0.00     0.089 C 
ENDBRANCH  39  40
ENDBRANCH  38  39
ENDBRANCH  11  38
TORSDOF 11
ENDMDL
MODEL 4
REMARK VINA RESULT: -7.628703465      3.926     10.525
REMARK  11 active torsions:
REMARK  status: ('A' for Active; 'I' for Inactive)
REMARK    1  A    between atoms: C2_2  and  C3_3 
REMARK    2  A    between atoms: C3_3  and  C4_4 
REMARK    3  A    between atoms: C4_4  and  C5_5 
REMARK    4  A    between atoms: C5_5  and  C6_6 
REMARK    5  A    between atoms: C6_6  and  C7_7 
REMARK    6  A    between atoms: C7_7  and  C8_8 
REMARK       I    between atoms: C8_8  and  N1_10 
REMARK    7  A    between atoms: N1_10  and  C9_12 
REMARK    8  A    between atoms: C11_14  and  O2_15 
REMARK    9  A    between atoms: C15_24  and  C16_25 
REMARK   10  A    between atoms: C16_25  and  C17_26 
REMARK   11  A    between atoms: C17_26  and  S1_27 
ROOT
HETATM    1  C9  UNL     1      12.151  18.871  17.119  1.00  0.00     0.137 C 
HETATM    2  C10 UNL     1      12.595  17.777  17.990  1.00  0.00     0.055 C 
HETATM    3  C11 UNL     1      11.037  18.697  16.206  1.00  0.00     0.148 C 
HETATM    4  N2  UNL     1       9.867  17.921  16.228  1.00  0.00    -0.359 N 
HETATM    5  C12 UNL     1       8.619  18.505  15.683  1.00  0.00     0.152 C 
HETATM    6  C13 UNL     1       9.731  16.572  16.733  1.00  0.00     0.227 C 
HETATM    7  C14 UNL     1       8.503  15.869  16.329  1.00  0.00     0.236 C 
HETATM    8  O3  UNL     1       8.417  15.556  15.089  1.00  0.00    -0.272 OA
HETATM    9  N3  UNL     1       7.432  15.521  17.193  1.00  0.00    -0.346 N 
ATOM     10  H3  UNL     1       6.989  14.616  17.042  1.00  0.00     0.163 HD
HETATM   11  C15 UNL     1       6.915  16.337  18.266  1.00  0.00     0.177 C 
HETATM   12  C19 UNL     1       7.669  16.277  19.519  1.00  0.00     0.240 C 
HETATM   13  O4  UNL     1       8.001  15.122  19.941  1.00  0.00    -0.271 OA
HETATM   14  N4  UNL     1       8.062  17.401  20.302  1.00  0.00    -0.359 N 
ATOM     15  H4  UNL     1       8.376  17.216  21.255  1.00  0.00     0.162 HD
HETATM   16  C20 UNL     1       8.055  18.760  19.873  1.00  0.00     0.123 C 
HETATM   17  C21 UNL     1       9.187  19.605  20.373  1.00  0.00     0.025 C 
HETATM   18  C22 UNL     1      10.548  19.149  19.862  1.00  0.00     0.050 C 
HETATM   19  C23 UNL     1      11.267  20.163  19.092  1.00  0.00     0.009 A 
HETATM   20  S2  UNL     1      11.376  21.824  19.564  1.00  0.00    -0.087 SA
HETATM   21  C24 UNL     1      12.310  22.411  18.263  1.00  0.00     0.138 A 
HETATM   22  N5  UNL     1      12.481  21.314  17.551  1.00  0.00    -0.360 N 
ATOM     23  H5  UNL     1      13.018  21.356  16.684  1.00  0.00     0.165 HD
HETATM   24  C25 UNL     1      11.965  20.160  17.946  1.00  0.00     0.059 A 
ENDROOT
BRANCH   1  25
HETATM   25  N1  UNL     1      13.324  19.056  16.214  1.00  0.00    -0.339 N 
HETATM   26  C8  UNL     1      14.568  19.455  16.704  1.00  0.00     0.218 C 
HETATM   27  O1  UNL     1      14.794  19.685  17.934  1.00  0.00    -0.274 OA
ATOM     28  H1  UNL     1      13.214  18.887  15.214  1.00  0.00     0.164 HD
BRANCH  26  29
HETATM   29  C7  UNL     1      15.688  19.619  15.746  1.00  0.00     0.103 C 
BRANCH  29  30
HETATM   30  C6  UNL     1      16.082  21.072  15.709  1.00  0.00     0.009 C 
BRANCH  30  31
HETATM   31  C5  UNL     1      17.085  21.323  14.618  1.00  0.00     0.000 C 
BRANCH  31  32
HETATM   32  C4  UNL     1      16.775  22.598  13.906  1.00  0.00     0.000 C 
BRANCH  32  33
HETATM   33  C3  UNL     1      15.359  22.724  13.445  1.00  0.00    -0.000 C 
BRANCH  33  34
HETATM   34  C2  UNL     1      14.987  21.532  12.549  1.00  0.00    -0.005 C 
HETATM   35  C1  UNL     1      13.603  21.099  12.950  1.00  0.00     0.005 C 
ENDBRANCH  33  34
ENDBRANCH  32  33
ENDBRANCH  31  32
ENDBRANCH  30  31
ENDBRANCH  29  30
ENDBRANCH  26  29
ENDBRANCH   1  25
BRANCH   3  36
HETATM   36  O2  UNL     1      11.095  19.398  15.113  1.00  0.00    -0.347 OA
ATOM     37  H2  UNL     1      10.310  19.386  14.578  1.00  0.00     0.219 HD
ENDBRANCH   3  36
BRANCH  11  38
HETATM   38  C16 UNL     1       5.482  15.896  18.611  1.00  0.00     0.045 C 
BRANCH  38  39
HETATM   39  C17 UNL     1       4.665  17.141  18.788  1.00  0.00     0.076 C 
BRANCH  39  40
HETATM   40  S1  UNL     1       3.338  17.093  17.535  1.00  0.00    -0.173 SA
HETATM   41  C18 UNL     1       4.005  16.256  16.064  1.00  0.00     0.089 C 
ENDBRANCH  39  40
ENDBRANCH  38  39
ENDBRANCH  11  38
TORSDOF 11
ENDMDL
MODEL 5
REMARK VINA RESULT: -7.617571422      1.346      2.125
REMARK  11 active torsions:
REMARK  status: ('A' for Active; 'I' for Inactive)
REMARK    1  A    between atoms: C2_2  and  C3_3 
REMARK    2  A    between atoms: C3_3  and  C4_4 
REMARK    3  A    between atoms: C4_4  and  C5_5 
REMARK    4  A    between atoms: C5_5  and  C6_6 
REMARK    5  A    between atoms: C6_6  and  C7_7 
REMARK    6  A    between atoms: C7_7  and  C8_8 
REMARK       I    between atoms: C8_8  and  N1_10 
REMARK    7  A    between atoms: N1_10  and  C9_12 
REMARK    8  A    between atoms: C11_14  and  O2_15 
REMARK    9  A    between atoms: C15_24  and  C16_25 
REMARK   10  A    between atoms: C16_25  and  C17_26 
REMARK   11  A    between atoms: C17_26  and  S1_27 
ROOT
HETATM    1  C9  UNL     1      13.331  20.698  18.551  1.00  0.00     0.137 C 
HETATM    2  C10 UNL     1      14.521  19.905  18.886  1.00  0.00     0.055 C 
HETATM    3  C11 UNL     1      13.297  22.129  18.782  1.00  0.00     0.148 C 
HETATM    4  N2  UNL     1      14.267  23.144  18.779  1.00  0.00    -0.359 N 
HETATM    5  C12 UNL     1      13.904  24.472  18.228  1.00  0.00     0.152 C 
HETATM    6  C13 UNL     1      15.625  23.046  19.269  1.00  0.00     0.227 C 
HETATM    7  C14 UNL     1      16.318  24.330  19.466  1.00  0.00     0.236 C 
HETATM    8  O3  UNL     1      15.883  25.060  20.425  1.00  0.00    -0.272 OA
HETATM    9  N3  UNL     1      17.406  24.805  18.690  1.00  0.00    -0.346 N 
ATOM     10  H3  UNL     1      18.151  25.295  19.185  1.00  0.00     0.163 HD
HETATM   11  C15 UNL     1      17.552  24.657  17.261  1.00  0.00     0.177 C 
HETATM   12  C19 UNL     1      18.070  23.364  16.814  1.00  0.00     0.240 C 
HETATM   13  O4  UNL     1      19.086  22.903  17.428  1.00  0.00    -0.271 OA
HETATM   14  N4  UNL     1      17.531  22.580  15.752  1.00  0.00    -0.359 N 
ATOM     15  H4  UNL     1      18.112  21.822  15.394  1.00  0.00     0.162 HD
HETATM   16  C20 UNL     1      16.253  22.759  15.148  1.00  0.00     0.123 C 
HETATM   17  C21 UNL     1      15.537  21.504  14.757  1.00  0.00     0.025 C 
HETATM   18  C22 UNL     1      15.171  20.625  15.947  1.00  0.00     0.050 C 
HETATM   19  C23 UNL     1      13.737  20.377  16.086  1.00  0.00     0.009 A 
HETATM   20  S2  UNL     1      12.701  19.977  14.759  1.00  0.00    -0.087 SA
HETATM   21  C24 UNL     1      11.226  19.837  15.603  1.00  0.00     0.138 A 
HETATM   22  N5  UNL     1      11.607  20.102  16.838  1.00  0.00    -0.360 N 
ATOM     23  H5  UNL     1      10.918  20.094  17.590  1.00  0.00     0.165 HD
HETATM   24  C25 UNL     1      12.873  20.379  17.113  1.00  0.00     0.059 A 
ENDROOT
BRANCH   1  25
HETATM   25  N1  UNL     1      12.312  20.162  19.502  1.00  0.00    -0.339 N 
HETATM   26  C8  UNL     1      11.931  18.820  19.483  1.00  0.00     0.218 C 
HETATM   27  O1  UNL     1      12.413  17.968  18.672  1.00  0.00    -0.274 OA
ATOM     28  H1  UNL     1      11.885  20.791  20.181  1.00  0.00     0.164 HD
BRANCH  26  29
HETATM   29  C7  UNL     1      10.912  18.359  20.456  1.00  0.00     0.103 C 
BRANCH  29  30
HETATM   30  C6  UNL     1       9.565  18.876  20.026  1.00  0.00     0.009 C 
BRANCH  30  31
HETATM   31  C5  UNL     1       8.758  17.786  19.377  1.00  0.00     0.000 C 
BRANCH  31  32
HETATM   32  C4  UNL     1       8.739  17.961  17.895  1.00  0.00     0.000 C 
BRANCH  32  33
HETATM   33  C3  UNL     1       9.441  16.885  17.133  1.00  0.00    -0.000 C 
BRANCH  33  34
HETATM   34  C2  UNL     1       8.570  16.414  15.957  1.00  0.00    -0.005 C 
HETATM   35  C1  UNL     1       8.217  17.639  15.158  1.00  0.00     0.005 C 
ENDBRANCH  33  34
ENDBRANCH  32  33
ENDBRANCH  31  32
ENDBRANCH  30  31
ENDBRANCH  29  30
ENDBRANCH  26  29
ENDBRANCH   1  25
BRANCH   3  36
HETATM   36  O2  UNL     1      12.125  22.624  19.053  1.00  0.00    -0.347 OA
ATOM     37  H2  UNL     1      11.600  22.117  19.661  1.00  0.00     0.219 HD
ENDBRANCH   3  36
BRANCH  11  38
HETATM   38  C16 UNL     1      18.531  25.716  16.725  1.00  0.00     0.045 C 
BRANCH  38  39
HETATM   39  C17 UNL     1      18.862  26.633  17.865  1.00  0.00     0.076 C 
BRANCH  39  40
HETATM   40  S1  UNL     1      18.838  28.336  17.206  1.00  0.00    -0.173 SA
HETATM   41  C18 UNL     1      18.715  28.219  15.395  1.00  0.00     0.089 C 
ENDBRANCH  39  40
ENDBRANCH  38  39
ENDBRANCH  11  38
TORSDOF 11
ENDMDL
