MODEL 1
REMARK VINA RESULT: -9.304682894      0.000      0.000
REMARK  14 active torsions:
REMARK  status: ('A' for Active; 'I' for Inactive)
REMARK    1  A    between atoms: O1_2  and  C2_3 
REMARK    2  A    between atoms: C5_6  and  C6_7 
REMARK    3  A    between atoms: C6_7  and  C7_8 
REMARK    4  A    between atoms: C7_8  and  N1_9 
REMARK    5  A    between atoms: N1_9  and  C8_10 
REMARK    6  A    between atoms: C9_13  and  N3_14 
REMARK    7  A    between atoms: N3_14  and  C10_16 
REMARK    8  A    between atoms: C10_16  and  C11_17 
REMARK    9  A    between atoms: C11_17  and  C12_18 
REMARK   10  A    between atoms: C12_18  and  C13_19 
REMARK   11  A    between atoms: C13_19  and  N4_20 
REMARK   12  A    between atoms: C18_28  and  N6_29 
REMARK   13  A    between atoms: N6_29  and  C19_31 
REMARK   14  A    between atoms: C28_43  and  O3_44 
ROOT
HETATM    1  C19 UNL     1       8.405  18.410  20.724  1.00  0.00     0.051 A 
HETATM    2  C20 UNL     1       7.335  18.972  20.028  1.00  0.00     0.037 A 
HETATM    3  C21 UNL     1       6.039  18.726  20.370  1.00  0.00    -0.058 A 
HETATM    4  C22 UNL     1       4.887  19.344  19.641  1.00  0.00     0.048 C 
HETATM    5  C23 UNL     1       5.747  17.899  21.430  1.00  0.00     0.029 A 
HETATM    6  C24 UNL     1       6.783  17.320  22.147  1.00  0.00     0.047 A 
HETATM    7  C25 UNL     1       6.525  16.457  23.253  1.00  0.00     0.099 C 
HETATM    8  N7  UNL     1       6.288  15.755  24.148  1.00  0.00    -0.191 NA
HETATM    9  C26 UNL     1       8.086  17.591  21.774  1.00  0.00     0.052 A 
ENDROOT
BRANCH   1  10
HETATM   10  N6  UNL     1       9.721  18.691  20.381  1.00  0.00    -0.191 N 
ATOM     11  H6  UNL     1      10.224  19.276  21.048  1.00  0.00     0.184 HD
BRANCH  10  12
HETATM   12  C18 UNL     1      10.396  18.332  19.366  1.00  0.00     0.700 A 
HETATM   13  N5  UNL     1      11.735  18.523  19.442  1.00  0.00    -0.022 N 
HETATM   14  C9  UNL     1      12.603  18.192  18.477  1.00  0.00     0.700 A 
ATOM     15  H5  UNL     1      12.108  18.945  20.292  1.00  0.00     0.203 HD
HETATM   16  N2  UNL     1      12.029  17.622  17.367  1.00  0.00    -0.148 N 
HETATM   17  C8  UNL     1      10.728  17.404  17.207  1.00  0.00     0.287 A 
ATOM     18  H2  UNL     1      12.649  17.346  16.606  1.00  0.00     0.188 HD
HETATM   19  N8  UNL     1       9.922  17.787  18.270  1.00  0.00    -0.148 N 
ATOM     20  H8  UNL     1       8.916  17.638  18.196  1.00  0.00     0.188 HD
BRANCH  14  21
HETATM   21  N3  UNL     1      13.859  18.376  18.476  1.00  0.00    -0.205 N 
ATOM     22  H3  UNL     1      14.384  17.567  18.812  1.00  0.00     0.183 HD
BRANCH  21  23
HETATM   23  C10 UNL     1      14.680  19.455  18.113  1.00  0.00     0.079 C 
BRANCH  23  24
HETATM   24  C11 UNL     1      14.023  20.778  17.921  1.00  0.00     0.047 C 
BRANCH  24  25
HETATM   25  C12 UNL     1      14.640  21.818  18.882  1.00  0.00     0.035 C 
BRANCH  25  26
HETATM   26  C13 UNL     1      14.551  23.148  18.220  1.00  0.00     0.273 C 
BRANCH  26  27
HETATM   27  N4  UNL     1      15.159  24.202  18.944  1.00  0.00     0.092 N 
HETATM   28  C14 UNL     1      15.485  23.818  20.269  1.00  0.00     0.298 C 
HETATM   29  C15 UNL     1      16.674  24.494  20.883  1.00  0.00     0.198 C 
HETATM   30  O2  UNL     1      17.804  24.445  20.099  1.00  0.00    -0.388 OA
HETATM   31  C16 UNL     1      17.527  24.252  18.757  1.00  0.00     0.198 C 
HETATM   32  C17 UNL     1      16.226  24.897  18.343  1.00  0.00     0.298 C 
ENDBRANCH  26  27
ENDBRANCH  25  26
ENDBRANCH  24  25
ENDBRANCH  23  24
ENDBRANCH  21  23
ENDBRANCH  14  21
BRANCH  17  33
HETATM   33  N1  UNL     1      10.215  16.941  16.193  1.00  0.00    -0.387 NA
BRANCH  33  34
HETATM   34  C7  UNL     1       9.660  16.462  15.143  1.00  0.00     0.163 C 
BRANCH  34  35
HETATM   35  C6  UNL     1       8.846  15.143  15.171  1.00  0.00     0.098 C 
BRANCH  35  36
HETATM   36  C5  UNL     1       7.648  15.407  15.976  1.00  0.00    -0.050 A 
HETATM   37  C4  UNL     1       7.702  15.368  17.352  1.00  0.00     0.010 A 
HETATM   38  C3  UNL     1       6.559  15.703  18.084  1.00  0.00     0.040 A 
HETATM   39  C2  UNL     1       5.395  16.063  17.426  1.00  0.00     0.101 A 
HETATM   40  C28 UNL     1       5.322  16.100  16.037  1.00  0.00     0.102 A 
HETATM   41  C27 UNL     1       6.460  15.767  15.381  1.00  0.00     0.047 A 
BRANCH  39  42
HETATM   42  O1  UNL     1       4.292  16.408  18.256  1.00  0.00    -0.353 OA
HETATM   43  C1  UNL     1       3.491  15.383  18.765  1.00  0.00     0.210 C 
ENDBRANCH  39  42
BRANCH  40  44
HETATM   44  O3  UNL     1       4.124  16.465  15.489  1.00  0.00    -0.353 OA
HETATM   45  C29 UNL     1       3.114  15.566  15.100  1.00  0.00     0.210 C 
ENDBRANCH  40  44
ENDBRANCH  35  36
ENDBRANCH  34  35
ENDBRANCH  33  34
ENDBRANCH  17  33
ENDBRANCH  10  12
ENDBRANCH   1  10
TORSDOF 14
ENDMDL
MODEL 2
REMARK VINA RESULT: -9.264716067      1.022      1.688
REMARK  14 active torsions:
REMARK  status: ('A' for Active; 'I' for Inactive)
REMARK    1  A    between atoms: O1_2  and  C2_3 
REMARK    2  A    between atoms: C5_6  and  C6_7 
REMARK    3  A    between atoms: C6_7  and  C7_8 
REMARK    4  A    between atoms: C7_8  and  N1_9 
REMARK    5  A    between atoms: N1_9  and  C8_10 
REMARK    6  A    between atoms: C9_13  and  N3_14 
REMARK    7  A    between atoms: N3_14  and  C10_16 
REMARK    8  A    between atoms: C10_16  and  C11_17 
REMARK    9  A    between atoms: C11_17  and  C12_18 
REMARK   10  A    between atoms: C12_18  and  C13_19 
REMARK   11  A    between atoms: C13_19  and  N4_20 
REMARK   12  A    between atoms: C18_28  and  N6_29 
REMARK   13  A    between atoms: N6_29  and  C19_31 
REMARK   14  A    between atoms: C28_43  and  O3_44 
ROOT
HETATM    1  C19 UNL     1       8.441  18.603  20.508  1.00  0.00     0.051 A 
HETATM    2  C20 UNL     1       8.370  17.640  21.515  1.00  0.00     0.037 A 
HETATM    3  C21 UNL     1       7.180  17.191  22.004  1.00  0.00    -0.058 A 
HETATM    4  C22 UNL     1       7.097  16.142  23.070  1.00  0.00     0.048 C 
HETATM    5  C23 UNL     1       5.995  17.686  21.510  1.00  0.00     0.029 A 
HETATM    6  C24 UNL     1       6.024  18.645  20.509  1.00  0.00     0.047 A 
HETATM    7  C25 UNL     1       4.820  19.184  19.967  1.00  0.00     0.099 C 
HETATM    8  N7  UNL     1       3.824  19.610  19.545  1.00  0.00    -0.191 NA
HETATM    9  C26 UNL     1       7.248  19.078  20.034  1.00  0.00     0.052 A 
ENDROOT
BRANCH   1  10
HETATM   10  N6  UNL     1       9.660  19.032  20.000  1.00  0.00    -0.191 N 
ATOM     11  H6  UNL     1      10.041  19.867  20.445  1.00  0.00     0.184 HD
BRANCH  10  12
HETATM   12  C18 UNL     1      10.375  18.547  19.068  1.00  0.00     0.700 A 
HETATM   13  N5  UNL     1      11.716  18.672  19.217  1.00  0.00    -0.022 N 
HETATM   14  C9  UNL     1      12.621  18.208  18.345  1.00  0.00     0.700 A 
ATOM     15  H5  UNL     1      12.059  19.151  20.050  1.00  0.00     0.203 HD
HETATM   16  N2  UNL     1      12.083  17.571  17.254  1.00  0.00    -0.148 N 
HETATM   17  C8  UNL     1      10.784  17.408  17.027  1.00  0.00     0.287 A 
ATOM     18  H2  UNL     1      12.732  17.193  16.563  1.00  0.00     0.188 HD
HETATM   19  N8  UNL     1       9.938  17.929  17.996  1.00  0.00    -0.148 N 
ATOM     20  H8  UNL     1       8.931  17.827  17.868  1.00  0.00     0.188 HD
BRANCH  14  21
HETATM   21  N3  UNL     1      13.883  18.325  18.412  1.00  0.00    -0.205 N 
ATOM     22  H3  UNL     1      14.353  17.457  18.674  1.00  0.00     0.183 HD
BRANCH  21  23
HETATM   23  C10 UNL     1      14.769  19.393  18.203  1.00  0.00     0.079 C 
BRANCH  23  24
HETATM   24  C11 UNL     1      14.176  20.716  17.863  1.00  0.00     0.047 C 
BRANCH  24  25
HETATM   25  C12 UNL     1      14.680  21.790  18.851  1.00  0.00     0.035 C 
BRANCH  25  26
HETATM   26  C13 UNL     1      14.663  23.097  18.139  1.00  0.00     0.273 C 
BRANCH  26  27
HETATM   27  N4  UNL     1      15.244  24.165  18.866  1.00  0.00     0.092 N 
HETATM   28  C14 UNL     1      15.507  23.811  20.213  1.00  0.00     0.298 C 
HETATM   29  C15 UNL     1      16.671  24.495  20.864  1.00  0.00     0.198 C 
HETATM   30  O2  UNL     1      17.836  24.420  20.134  1.00  0.00    -0.388 OA
HETATM   31  C16 UNL     1      17.619  24.197  18.785  1.00  0.00     0.198 C 
HETATM   32  C17 UNL     1      16.343  24.840  18.297  1.00  0.00     0.298 C 
ENDBRANCH  26  27
ENDBRANCH  25  26
ENDBRANCH  24  25
ENDBRANCH  23  24
ENDBRANCH  21  23
ENDBRANCH  14  21
BRANCH  17  33
HETATM   33  N1  UNL     1      10.309  16.881  16.026  1.00  0.00    -0.387 NA
BRANCH  33  34
HETATM   34  C7  UNL     1       9.794  16.343  14.984  1.00  0.00     0.163 C 
BRANCH  34  35
HETATM   35  C6  UNL     1       8.961  15.038  15.057  1.00  0.00     0.098 C 
BRANCH  35  36
HETATM   36  C5  UNL     1       7.788  15.335  15.887  1.00  0.00    -0.050 A 
HETATM   37  C4  UNL     1       7.875  15.323  17.261  1.00  0.00     0.010 A 
HETATM   38  C3  UNL     1       6.757  15.689  18.015  1.00  0.00     0.040 A 
HETATM   39  C2  UNL     1       5.582  16.055  17.378  1.00  0.00     0.101 A 
HETATM   40  C28 UNL     1       5.475  16.066  15.991  1.00  0.00     0.102 A 
HETATM   41  C27 UNL     1       6.591  15.702  15.314  1.00  0.00     0.047 A 
BRANCH  39  42
HETATM   42  O1  UNL     1       4.506  16.432  18.229  1.00  0.00    -0.353 OA
HETATM   43  C1  UNL     1       3.719  15.429  18.799  1.00  0.00     0.210 C 
ENDBRANCH  39  42
BRANCH  40  44
HETATM   44  O3  UNL     1       4.269  16.439  15.466  1.00  0.00    -0.353 OA
HETATM   45  C29 UNL     1       3.247  15.547  15.092  1.00  0.00     0.210 C 
ENDBRANCH  40  44
ENDBRANCH  35  36
ENDBRANCH  34  35
ENDBRANCH  33  34
ENDBRANCH  17  33
ENDBRANCH  10  12
ENDBRANCH   1  10
TORSDOF 14
ENDMDL
MODEL 3
REMARK VINA RESULT: -9.173602564      2.287      3.018
REMARK  14 active torsions:
REMARK  status: ('A' for Active; 'I' for Inactive)
REMARK    1  A    between atoms: O1_2  and  C2_3 
REMARK    2  A    between atoms: C5_6  and  C6_7 
REMARK    3  A    between atoms: C6_7  and  C7_8 
REMARK    4  A    between atoms: C7_8  and  N1_9 
REMARK    5  A    between atoms: N1_9  and  C8_10 
REMARK    6  A    between atoms: C9_13  and  N3_14 
REMARK    7  A    between atoms: N3_14  and  C10_16 
REMARK    8  A    between atoms: C10_16  and  C11_17 
REMARK    9  A    between atoms: C11_17  and  C12_18 
REMARK   10  A    between atoms: C12_18  and  C13_19 
REMARK   11  A    between atoms: C13_19  and  N4_20 
REMARK   12  A    between atoms: C18_28  and  N6_29 
REMARK   13  A    between atoms: N6_29  and  C19_31 
REMARK   14  A    between atoms: C28_43  and  O3_44 
ROOT
HETATM    1  C19 UNL     1       8.505  18.437  20.708  1.00  0.00     0.051 A 
HETATM    2  C20 UNL     1       8.322  17.505  21.730  1.00  0.00     0.037 A 
HETATM    3  C21 UNL     1       7.084  17.131  22.155  1.00  0.00    -0.058 A 
HETATM    4  C22 UNL     1       6.880  16.114  23.236  1.00  0.00     0.048 C 
HETATM    5  C23 UNL     1       5.958  17.675  21.580  1.00  0.00     0.029 A 
HETATM    6  C24 UNL     1       6.098  18.607  20.562  1.00  0.00     0.047 A 
HETATM    7  C25 UNL     1       4.959  19.195  19.937  1.00  0.00     0.099 C 
HETATM    8  N7  UNL     1       4.015  19.663  19.447  1.00  0.00    -0.191 NA
HETATM    9  C26 UNL     1       7.370  18.963  20.153  1.00  0.00     0.052 A 
ENDROOT
BRANCH   1  10
HETATM   10  N6  UNL     1       9.774  18.789  20.266  1.00  0.00    -0.191 N 
ATOM     11  H6  UNL     1      10.250  19.487  20.838  1.00  0.00     0.184 HD
BRANCH  10  12
HETATM   12  C18 UNL     1      10.434  18.377  19.261  1.00  0.00     0.700 A 
HETATM   13  N5  UNL     1      11.777  18.539  19.323  1.00  0.00    -0.022 N 
HETATM   14  C9  UNL     1      12.631  18.151  18.365  1.00  0.00     0.700 A 
ATOM     15  H5  UNL     1      12.166  18.984  20.154  1.00  0.00     0.203 HD
HETATM   16  N2  UNL     1      12.035  17.554  17.281  1.00  0.00    -0.148 N 
HETATM   17  C8  UNL     1      10.728  17.361  17.137  1.00  0.00     0.287 A 
ATOM     18  H2  UNL     1      12.644  17.235  16.527  1.00  0.00     0.188 HD
HETATM   19  N8  UNL     1       9.940  17.802  18.190  1.00  0.00    -0.148 N 
ATOM     20  H8  UNL     1       8.929  17.674  18.128  1.00  0.00     0.188 HD
BRANCH  14  21
HETATM   21  N3  UNL     1      13.891  18.306  18.350  1.00  0.00    -0.205 N 
ATOM     22  H3  UNL     1      14.399  17.499  18.712  1.00  0.00     0.183 HD
BRANCH  21  23
HETATM   23  C10 UNL     1      14.733  19.351  17.941  1.00  0.00     0.079 C 
BRANCH  23  24
HETATM   24  C11 UNL     1      15.199  19.339  16.525  1.00  0.00     0.047 C 
BRANCH  24  25
HETATM   25  C12 UNL     1      14.496  20.460  15.729  1.00  0.00     0.035 C 
BRANCH  25  26
HETATM   26  C13 UNL     1      14.308  21.614  16.649  1.00  0.00     0.273 C 
BRANCH  26  27
HETATM   27  N4  UNL     1      12.983  22.113  16.696  1.00  0.00     0.092 N 
HETATM   28  C14 UNL     1      12.031  21.129  16.332  1.00  0.00     0.298 C 
HETATM   29  C15 UNL     1      10.679  21.246  16.968  1.00  0.00     0.198 C 
HETATM   30  O2  UNL     1      10.721  21.360  18.340  1.00  0.00    -0.388 OA
HETATM   31  C16 UNL     1      11.932  21.837  18.809  1.00  0.00     0.198 C 
HETATM   32  C17 UNL     1      12.574  22.810  17.850  1.00  0.00     0.298 C 
ENDBRANCH  26  27
ENDBRANCH  25  26
ENDBRANCH  24  25
ENDBRANCH  23  24
ENDBRANCH  21  23
ENDBRANCH  14  21
BRANCH  17  33
HETATM   33  N1  UNL     1      10.198  16.872  16.145  1.00  0.00    -0.387 NA
BRANCH  33  34
HETATM   34  C7  UNL     1       9.630  16.379  15.108  1.00  0.00     0.163 C 
BRANCH  34  35
HETATM   35  C6  UNL     1       8.801  15.070  15.168  1.00  0.00     0.098 C 
BRANCH  35  36
HETATM   36  C5  UNL     1       7.612  15.363  15.976  1.00  0.00    -0.050 A 
HETATM   37  C4  UNL     1       7.673  15.340  17.351  1.00  0.00     0.010 A 
HETATM   38  C3  UNL     1       6.540  15.702  18.086  1.00  0.00     0.040 A 
HETATM   39  C2  UNL     1       5.379  16.075  17.430  1.00  0.00     0.101 A 
HETATM   40  C28 UNL     1       5.299  16.097  16.041  1.00  0.00     0.102 A 
HETATM   41  C27 UNL     1       6.428  15.737  15.383  1.00  0.00     0.047 A 
BRANCH  39  42
HETATM   42  O1  UNL     1       4.287  16.448  18.262  1.00  0.00    -0.353 OA
HETATM   43  C1  UNL     1       3.475  15.443  18.792  1.00  0.00     0.210 C 
ENDBRANCH  39  42
BRANCH  40  44
HETATM   44  O3  UNL     1       4.104  16.476  15.495  1.00  0.00    -0.353 OA
HETATM   45  C29 UNL     1       3.081  15.590  15.112  1.00  0.00     0.210 C 
ENDBRANCH  40  44
ENDBRANCH  35  36
ENDBRANCH  34  35
ENDBRANCH  33  34
ENDBRANCH  17  33
ENDBRANCH  10  12
ENDBRANCH   1  10
TORSDOF 14
ENDMDL
MODEL 4
REMARK VINA RESULT: -9.122021121      1.775      2.274
REMARK  14 active torsions:
REMARK  status: ('A' for Active; 'I' for Inactive)
REMARK    1  A    between atoms: O1_2  and  C2_3 
REMARK    2  A    between atoms: C5_6  and  C6_7 
REMARK    3  A    between atoms: C6_7  and  C7_8 
REMARK    4  A    between atoms: C7_8  and  N1_9 
REMARK    5  A    between atoms: N1_9  and  C8_10 
REMARK    6  A    between atoms: C9_13  and  N3_14 
REMARK    7  A    between atoms: N3_14  and  C10_16 
REMARK    8  A    between atoms: C10_16  and  C11_17 
REMARK    9  A    between atoms: C11_17  and  C12_18 
REMARK   10  A    between atoms: C12_18  and  C13_19 
REMARK   11  A    between atoms: C13_19  and  N4_20 
REMARK   12  A    between atoms: C18_28  and  N6_29 
REMARK   13  A    between atoms: N6_29  and  C19_31 
REMARK   14  A    between atoms: C28_43  and  O3_44 
ROOT
HETATM    1  C19 UNL     1       8.455  18.376  20.722  1.00  0.00     0.051 A 
HETATM    2  C20 UNL     1       7.376  18.939  20.041  1.00  0.00     0.037 A 
HETATM    3  C21 UNL     1       6.085  18.695  20.400  1.00  0.00    -0.058 A 
HETATM    4  C22 UNL     1       4.923  19.314  19.687  1.00  0.00     0.048 C 
HETATM    5  C23 UNL     1       5.806  17.867  21.464  1.00  0.00     0.029 A 
HETATM    6  C24 UNL     1       6.851  17.287  22.166  1.00  0.00     0.047 A 
HETATM    7  C25 UNL     1       6.608  16.424  23.275  1.00  0.00     0.099 C 
HETATM    8  N7  UNL     1       6.381  15.722  24.173  1.00  0.00    -0.191 NA
HETATM    9  C26 UNL     1       8.150  17.557  21.776  1.00  0.00     0.052 A 
ENDROOT
BRANCH   1  10
HETATM   10  N6  UNL     1       9.766  18.655  20.361  1.00  0.00    -0.191 N 
ATOM     11  H6  UNL     1      10.279  19.240  21.022  1.00  0.00     0.184 HD
BRANCH  10  12
HETATM   12  C18 UNL     1      10.428  18.298  19.337  1.00  0.00     0.700 A 
HETATM   13  N5  UNL     1      11.767  18.495  19.392  1.00  0.00    -0.022 N 
HETATM   14  C9  UNL     1      12.621  18.165  18.414  1.00  0.00     0.700 A 
ATOM     15  H5  UNL     1      12.151  18.923  20.234  1.00  0.00     0.203 HD
HETATM   16  N2  UNL     1      12.032  17.590  17.315  1.00  0.00    -0.148 N 
HETATM   17  C8  UNL     1      10.730  17.364  17.176  1.00  0.00     0.287 A 
ATOM     18  H2  UNL     1      12.642  17.314  16.545  1.00  0.00     0.188 HD
HETATM   19  N8  UNL     1       9.939  17.747  18.250  1.00  0.00    -0.148 N 
ATOM     20  H8  UNL     1       8.932  17.592  18.193  1.00  0.00     0.188 HD
BRANCH  14  21
HETATM   21  N3  UNL     1      13.876  18.356  18.393  1.00  0.00    -0.205 N 
ATOM     22  H3  UNL     1      14.412  17.537  18.681  1.00  0.00     0.183 HD
BRANCH  21  23
HETATM   23  C10 UNL     1      14.683  19.454  18.057  1.00  0.00     0.079 C 
BRANCH  23  24
HETATM   24  C11 UNL     1      14.473  20.715  18.822  1.00  0.00     0.047 C 
BRANCH  24  25
HETATM   25  C12 UNL     1      14.621  21.932  17.884  1.00  0.00     0.035 C 
BRANCH  25  26
HETATM   26  C13 UNL     1      13.963  21.587  16.594  1.00  0.00     0.273 C 
BRANCH  26  27
HETATM   27  N4  UNL     1      14.669  22.018  15.445  1.00  0.00     0.092 N 
HETATM   28  C14 UNL     1      15.970  22.481  15.762  1.00  0.00     0.298 C 
HETATM   29  C15 UNL     1      17.015  22.304  14.702  1.00  0.00     0.198 C 
HETATM   30  O2  UNL     1      17.091  21.020  14.210  1.00  0.00    -0.388 OA
HETATM   31  C16 UNL     1      15.925  20.298  14.392  1.00  0.00     0.198 C 
HETATM   32  C17 UNL     1      14.694  21.169  14.321  1.00  0.00     0.298 C 
ENDBRANCH  26  27
ENDBRANCH  25  26
ENDBRANCH  24  25
ENDBRANCH  23  24
ENDBRANCH  21  23
ENDBRANCH  14  21
BRANCH  17  33
HETATM   33  N1  UNL     1      10.203  16.895  16.172  1.00  0.00    -0.387 NA
BRANCH  33  34
HETATM   34  C7  UNL     1       9.639  16.422  15.124  1.00  0.00     0.163 C 
BRANCH  34  35
HETATM   35  C6  UNL     1       8.806  15.115  15.157  1.00  0.00     0.098 C 
BRANCH  35  36
HETATM   36  C5  UNL     1       7.616  15.396  15.967  1.00  0.00    -0.050 A 
HETATM   37  C4  UNL     1       7.676  15.360  17.342  1.00  0.00     0.010 A 
HETATM   38  C3  UNL     1       6.541  15.711  18.080  1.00  0.00     0.040 A 
HETATM   39  C2  UNL     1       5.379  16.087  17.426  1.00  0.00     0.101 A 
HETATM   40  C28 UNL     1       5.300  16.122  16.038  1.00  0.00     0.102 A 
HETATM   41  C27 UNL     1       6.430  15.772  15.377  1.00  0.00     0.047 A 
BRANCH  39  42
HETATM   42  O1  UNL     1       4.286  16.448  18.261  1.00  0.00    -0.353 OA
HETATM   43  C1  UNL     1       3.494  15.434  18.804  1.00  0.00     0.210 C 
ENDBRANCH  39  42
BRANCH  40  44
HETATM   44  O3  UNL     1       4.104  16.503  15.495  1.00  0.00    -0.353 OA
HETATM   45  C29 UNL     1       3.079  15.618  15.115  1.00  0.00     0.210 C 
ENDBRANCH  40  44
ENDBRANCH  35  36
ENDBRANCH  34  35
ENDBRANCH  33  34
ENDBRANCH  17  33
ENDBRANCH  10  12
ENDBRANCH   1  10
TORSDOF 14
ENDMDL
MODEL 5
REMARK VINA RESULT: -9.089400191      2.019      2.801
REMARK  14 active torsions:
REMARK  status: ('A' for Active; 'I' for Inactive)
REMARK    1  A    between atoms: O1_2  and  C2_3 
REMARK    2  A    between atoms: C5_6  and  C6_7 
REMARK    3  A    between atoms: C6_7  and  C7_8 
REMARK    4  A    between atoms: C7_8  and  N1_9 
REMARK    5  A    between atoms: N1_9  and  C8_10 
REMARK    6  A    between atoms: C9_13  and  N3_14 
REMARK    7  A    between atoms: N3_14  and  C10_16 
REMARK    8  A    between atoms: C10_16  and  C11_17 
REMARK    9  A    between atoms: C11_17  and  C12_18 
REMARK   10  A    between atoms: C12_18  and  C13_19 
REMARK   11  A    between atoms: C13_19  and  N4_20 
REMARK   12  A    between atoms: C18_28  and  N6_29 
REMARK   13  A    between atoms: N6_29  and  C19_31 
REMARK   14  A    between atoms: C28_43  and  O3_44 
ROOT
HETATM    1  C19 UNL     1       8.406  18.611  20.443  1.00  0.00     0.051 A 
HETATM    2  C20 UNL     1       8.366  17.662  21.465  1.00  0.00     0.037 A 
HETATM    3  C21 UNL     1       7.192  17.204  21.982  1.00  0.00    -0.058 A 
HETATM    4  C22 UNL     1       7.142  16.169  23.063  1.00  0.00     0.048 C 
HETATM    5  C23 UNL     1       5.991  17.675  21.502  1.00  0.00     0.029 A 
HETATM    6  C24 UNL     1       5.988  18.620  20.488  1.00  0.00     0.047 A 
HETATM    7  C25 UNL     1       4.768  19.136  19.960  1.00  0.00     0.099 C 
HETATM    8  N7  UNL     1       3.759  19.542  19.551  1.00  0.00    -0.191 NA
HETATM    9  C26 UNL     1       7.198  19.064  19.985  1.00  0.00     0.052 A 
ENDROOT
BRANCH   1  10
HETATM   10  N6  UNL     1       9.610  19.049  19.908  1.00  0.00    -0.191 N 
ATOM     11  H6  UNL     1       9.980  19.904  20.324  1.00  0.00     0.184 HD
BRANCH  10  12
HETATM   12  C18 UNL     1      10.322  18.552  18.980  1.00  0.00     0.700 A 
HETATM   13  N5  UNL     1      11.663  18.673  19.128  1.00  0.00    -0.022 N 
HETATM   14  C9  UNL     1      12.566  18.197  18.260  1.00  0.00     0.700 A 
ATOM     15  H5  UNL     1      12.009  19.158  19.956  1.00  0.00     0.203 HD
HETATM   16  N2  UNL     1      12.026  17.551  17.175  1.00  0.00    -0.148 N 
HETATM   17  C8  UNL     1      10.725  17.392  16.950  1.00  0.00     0.287 A 
ATOM     18  H2  UNL     1      12.673  17.164  16.488  1.00  0.00     0.188 HD
HETATM   19  N8  UNL     1       9.882  17.926  17.914  1.00  0.00    -0.148 N 
ATOM     20  H8  UNL     1       8.875  17.828  17.787  1.00  0.00     0.188 HD
BRANCH  14  21
HETATM   21  N3  UNL     1      13.829  18.308  18.326  1.00  0.00    -0.205 N 
ATOM     22  H3  UNL     1      14.292  17.452  18.634  1.00  0.00     0.183 HD
BRANCH  21  23
HETATM   23  C10 UNL     1      14.723  19.358  18.065  1.00  0.00     0.079 C 
BRANCH  23  24
HETATM   24  C11 UNL     1      14.602  20.583  18.905  1.00  0.00     0.047 C 
BRANCH  24  25
HETATM   25  C12 UNL     1      14.949  21.833  18.068  1.00  0.00     0.035 C 
BRANCH  25  26
HETATM   26  C13 UNL     1      14.132  21.781  16.825  1.00  0.00     0.273 C 
BRANCH  26  27
HETATM   27  N4  UNL     1      14.825  22.176  15.654  1.00  0.00     0.092 N 
HETATM   28  C14 UNL     1      16.197  22.427  15.908  1.00  0.00     0.298 C 
HETATM   29  C15 UNL     1      17.141  22.166  14.772  1.00  0.00     0.198 C 
HETATM   30  O2  UNL     1      16.998  20.918  14.210  1.00  0.00    -0.388 OA
HETATM   31  C16 UNL     1      15.751  20.361  14.432  1.00  0.00     0.198 C 
HETATM   32  C17 UNL     1      14.660  21.403  14.488  1.00  0.00     0.298 C 
ENDBRANCH  26  27
ENDBRANCH  25  26
ENDBRANCH  24  25
ENDBRANCH  23  24
ENDBRANCH  21  23
ENDBRANCH  14  21
BRANCH  17  33
HETATM   33  N1  UNL     1      10.248  16.858  15.954  1.00  0.00    -0.387 NA
BRANCH  33  34
HETATM   34  C7  UNL     1       9.729  16.310  14.919  1.00  0.00     0.163 C 
BRANCH  34  35
HETATM   35  C6  UNL     1       8.894  15.007  15.010  1.00  0.00     0.098 C 
BRANCH  35  36
HETATM   36  C5  UNL     1       7.731  15.312  15.852  1.00  0.00    -0.050 A 
HETATM   37  C4  UNL     1       7.821  15.250  17.225  1.00  0.00     0.010 A 
HETATM   38  C3  UNL     1       6.716  15.624  17.994  1.00  0.00     0.040 A 
HETATM   39  C2  UNL     1       5.552  16.047  17.374  1.00  0.00     0.101 A 
HETATM   40  C28 UNL     1       5.442  16.107  15.988  1.00  0.00     0.102 A 
HETATM   41  C27 UNL     1       6.545  15.733  15.296  1.00  0.00     0.047 A 
BRANCH  39  42
HETATM   42  O1  UNL     1       4.489  16.428  18.240  1.00  0.00    -0.353 OA
HETATM   43  C1  UNL     1       3.686  15.429  18.795  1.00  0.00     0.210 C 
ENDBRANCH  39  42
BRANCH  40  44
HETATM   44  O3  UNL     1       4.247  16.534  15.480  1.00  0.00    -0.353 OA
HETATM   45  C29 UNL     1       3.170  15.690  15.148  1.00  0.00     0.210 C 
ENDBRANCH  40  44
ENDBRANCH  35  36
ENDBRANCH  34  35
ENDBRANCH  33  34
ENDBRANCH  17  33
ENDBRANCH  10  12
ENDBRANCH   1  10
TORSDOF 14
ENDMDL
