MODEL 1
REMARK VINA RESULT: -9.462137039      0.000      0.000
REMARK  12 active torsions:
REMARK  status: ('A' for Active; 'I' for Inactive)
REMARK    1  A    between atoms: C2_2  and  N1_3 
REMARK    2  A    between atoms: N1_3  and  C3_5 
REMARK    3  A    between atoms: C3_5  and  C5_7 
REMARK    4  A    between atoms: C8_10  and  C9_11 
REMARK    5  A    between atoms: C9_11  and  C10_12 
REMARK       I    between atoms: C10_12  and  N2_14 
REMARK    6  A    between atoms: N2_14  and  C11_16 
REMARK    7  A    between atoms: C12_21  and  C13_22 
REMARK    8  A    between atoms: C13_22  and  C14_23 
REMARK    9  A    between atoms: C14_23  and  C15_24 
REMARK   10  A    between atoms: C15_24  and  C16_25 
REMARK   11  A    between atoms: C16_25  and  C17_26 
REMARK       I    between atoms: N7_32  and  C19_34 
REMARK   12  A    between atoms: C19_34  and  C20_36 
REMARK       I    between atoms: C20_36  and  N8_38 
ROOT
HETATM    1  C11 UNL     1       6.393  16.213  17.756  1.00  0.00     0.167 A 
HETATM    2  N3  UNL     1       5.779  17.221  18.197  1.00  0.00    -0.279 N 
ATOM      3  H3  UNL     1       4.910  17.496  17.739  1.00  0.00     0.189 HD
HETATM    4  N4  UNL     1       6.190  17.920  19.192  1.00  0.00    -0.296 N 
ATOM      5  H4  UNL     1       5.649  18.725  19.509  1.00  0.00     0.187 HD
HETATM    6  C12 UNL     1       7.299  17.601  19.799  1.00  0.00     0.069 A 
HETATM    7  S2  UNL     1       7.781  16.204  18.883  1.00  0.00    -0.038 SA
ENDROOT
BRANCH   6   8
HETATM    8  C13 UNL     1       8.032  18.054  21.025  1.00  0.00     0.066 C 
BRANCH   8   9
HETATM    9  C14 UNL     1       8.958  19.154  20.840  1.00  0.00     0.007 C 
BRANCH   9  10
HETATM   10  C15 UNL     1      10.427  18.828  20.902  1.00  0.00     0.007 C 
BRANCH  10  11
HETATM   11  C16 UNL     1      10.910  18.364  19.530  1.00  0.00     0.066 C 
BRANCH  11  12
HETATM   12  C17 UNL     1      12.239  18.996  19.216  1.00  0.00     0.069 A 
HETATM   13  N5  UNL     1      13.261  18.341  18.685  1.00  0.00    -0.296 N 
HETATM   14  N6  UNL     1      14.344  18.924  18.408  1.00  0.00    -0.279 N 
ATOM     15  H5  UNL     1      13.170  17.343  18.498  1.00  0.00     0.187 HD
HETATM   16  C18 UNL     1      14.447  20.223  18.661  1.00  0.00     0.168 A 
ATOM     17  H6  UNL     1      15.123  18.408  17.999  1.00  0.00     0.189 HD
HETATM   18  N7  UNL     1      15.469  21.051  18.458  1.00  0.00    -0.298 N 
HETATM   19  S1  UNL     1      12.877  20.556  19.319  1.00  0.00    -0.038 SA
HETATM   20  C19 UNL     1      15.197  22.409  18.860  1.00  0.00     0.315 C 
ATOM     21  H7  UNL     1      16.358  20.754  18.057  1.00  0.00     0.171 HD
HETATM   22  O2  UNL     1      14.987  23.442  19.183  1.00  0.00    -0.262 OA
BRANCH  20  23
HETATM   23  C20 UNL     1      15.348  22.972  17.184  1.00  0.00     0.311 C 
HETATM   24  O3  UNL     1      14.302  23.072  16.659  1.00  0.00    -0.262 OA
HETATM   25  N8  UNL     1      16.646  23.149  16.848  1.00  0.00    -0.353 N 
HETATM   26  C21 UNL     1      17.128  23.064  15.453  1.00  0.00     0.152 C 
HETATM   27  C22 UNL     1      17.675  23.659  17.800  1.00  0.00     0.152 C 
ENDBRANCH  20  23
ENDBRANCH  11  12
ENDBRANCH  10  11
ENDBRANCH   9  10
ENDBRANCH   8   9
ENDBRANCH   6   8
BRANCH   1  28
HETATM   28  N2  UNL     1       6.305  15.172  16.933  1.00  0.00    -0.306 N 
HETATM   29  C10 UNL     1       7.391  15.148  15.933  1.00  0.00     0.228 C 
HETATM   30  O1  UNL     1       8.112  14.181  15.875  1.00  0.00    -0.273 OA
ATOM     31  H2  UNL     1       5.569  14.468  16.986  1.00  0.00     0.171 HD
BRANCH  29  32
HETATM   32  C9  UNL     1       7.451  16.346  15.115  1.00  0.00     0.149 C 
BRANCH  32  33
HETATM   33  C8  UNL     1       8.783  17.016  15.224  1.00  0.00    -0.008 A 
HETATM   34  C7  UNL     1      10.019  16.582  14.890  1.00  0.00     0.016 A 
HETATM   35  C6  UNL     1      11.057  17.425  15.083  1.00  0.00     0.018 A 
HETATM   36  C5  UNL     1      10.769  18.671  15.598  1.00  0.00     0.005 A 
HETATM   37  S3  UNL     1       9.082  18.630  15.804  1.00  0.00    -0.097 SA
BRANCH  36  38
HETATM   38  C3  UNL     1      11.697  19.832  15.885  1.00  0.00     0.116 C 
HETATM   39  C4  UNL     1      10.853  20.927  16.405  1.00  0.00     0.038 C 
BRANCH  38  40
HETATM   40  N1  UNL     1      12.441  20.181  14.739  1.00  0.00    -0.394 N 
ATOM     41  H1  UNL     1      11.955  20.217  13.843  1.00  0.00     0.159 HD
BRANCH  40  42
HETATM   42  C2  UNL     1      13.802  20.479  14.762  1.00  0.00     0.052 C 
HETATM   43  C1  UNL     1      14.396  21.278  13.664  1.00  0.00     0.054 C 
ENDBRANCH  40  42
ENDBRANCH  38  40
ENDBRANCH  36  38
ENDBRANCH  32  33
ENDBRANCH  29  32
ENDBRANCH   1  28
TORSDOF 12
ENDMDL
MODEL 2
REMARK VINA RESULT: -9.017022549      2.380      7.911
REMARK  12 active torsions:
REMARK  status: ('A' for Active; 'I' for Inactive)
REMARK    1  A    between atoms: C2_2  and  N1_3 
REMARK    2  A    between atoms: N1_3  and  C3_5 
REMARK    3  A    between atoms: C3_5  and  C5_7 
REMARK    4  A    between atoms: C8_10  and  C9_11 
REMARK    5  A    between atoms: C9_11  and  C10_12 
REMARK       I    between atoms: C10_12  and  N2_14 
REMARK    6  A    between atoms: N2_14  and  C11_16 
REMARK    7  A    between atoms: C12_21  and  C13_22 
REMARK    8  A    between atoms: C13_22  and  C14_23 
REMARK    9  A    between atoms: C14_23  and  C15_24 
REMARK   10  A    between atoms: C15_24  and  C16_25 
REMARK   11  A    between atoms: C16_25  and  C17_26 
REMARK       I    between atoms: N7_32  and  C19_34 
REMARK   12  A    between atoms: C19_34  and  C20_36 
REMARK       I    between atoms: C20_36  and  N8_38 
ROOT
HETATM    1  C11 UNL     1      10.935  18.762  18.543  1.00  0.00     0.167 A 
HETATM    2  N3  UNL     1      11.721  17.788  18.395  1.00  0.00    -0.279 N 
ATOM      3  H3  UNL     1      12.194  17.419  19.220  1.00  0.00     0.189 HD
HETATM    4  N4  UNL     1      11.957  17.236  17.261  1.00  0.00    -0.296 N 
ATOM      5  H4  UNL     1      12.601  16.447  17.201  1.00  0.00     0.187 HD
HETATM    6  C12 UNL     1      11.375  17.684  16.184  1.00  0.00     0.069 A 
HETATM    7  S2  UNL     1      10.422  18.980  16.845  1.00  0.00    -0.038 SA
ENDROOT
BRANCH   6   8
HETATM    8  C13 UNL     1      11.280  17.264  14.749  1.00  0.00     0.066 C 
BRANCH   8   9
HETATM    9  C14 UNL     1      10.502  16.068  14.488  1.00  0.00     0.007 C 
BRANCH   9  10
HETATM   10  C15 UNL     1       9.017  16.245  14.314  1.00  0.00     0.007 C 
BRANCH  10  11
HETATM   11  C16 UNL     1       8.282  15.053  14.925  1.00  0.00     0.066 C 
BRANCH  11  12
HETATM   12  C17 UNL     1       7.585  15.477  16.190  1.00  0.00     0.069 A 
HETATM   13  N5  UNL     1       6.627  14.775  16.777  1.00  0.00    -0.296 N 
HETATM   14  N6  UNL     1       6.099  15.156  17.855  1.00  0.00    -0.279 N 
ATOM     15  H5  UNL     1       6.311  13.907  16.345  1.00  0.00     0.187 HD
HETATM   16  C18 UNL     1       6.521  16.289  18.402  1.00  0.00     0.168 A 
ATOM     17  H6  UNL     1       5.363  14.605  18.298  1.00  0.00     0.189 HD
HETATM   18  N7  UNL     1       6.129  16.891  19.522  1.00  0.00    -0.298 N 
HETATM   19  S1  UNL     1       7.739  16.771  17.265  1.00  0.00    -0.038 SA
HETATM   20  C19 UNL     1       6.836  18.119  19.793  1.00  0.00     0.315 C 
ATOM     21  H7  UNL     1       5.400  16.520  20.131  1.00  0.00     0.171 HD
HETATM   22  O2  UNL     1       7.370  19.064  19.985  1.00  0.00    -0.262 OA
BRANCH  20  23
HETATM   23  C20 UNL     1       7.540  17.429  21.268  1.00  0.00     0.311 C 
HETATM   24  O3  UNL     1       8.670  17.145  21.123  1.00  0.00    -0.262 OA
HETATM   25  N8  UNL     1       6.618  17.352  22.255  1.00  0.00    -0.353 N 
HETATM   26  C21 UNL     1       6.706  16.368  23.355  1.00  0.00     0.152 C 
HETATM   27  C22 UNL     1       5.553  18.377  22.461  1.00  0.00     0.152 C 
ENDBRANCH  20  23
ENDBRANCH  11  12
ENDBRANCH  10  11
ENDBRANCH   9  10
ENDBRANCH   8   9
ENDBRANCH   6   8
BRANCH   1  28
HETATM   28  N2  UNL     1      10.301  19.509  19.443  1.00  0.00    -0.306 N 
HETATM   29  C10 UNL     1      10.893  20.854  19.580  1.00  0.00     0.228 C 
HETATM   30  O1  UNL     1      10.198  21.822  19.388  1.00  0.00    -0.273 OA
ATOM     31  H2  UNL     1       9.495  19.188  19.979  1.00  0.00     0.171 HD
BRANCH  29  32
HETATM   32  C9  UNL     1      12.299  20.833  19.943  1.00  0.00     0.149 C 
BRANCH  32  33
HETATM   33  C8  UNL     1      13.138  21.531  18.923  1.00  0.00    -0.008 A 
HETATM   34  C7  UNL     1      13.430  22.843  18.768  1.00  0.00     0.016 A 
HETATM   35  C6  UNL     1      14.247  23.190  17.749  1.00  0.00     0.018 A 
HETATM   36  C5  UNL     1      14.729  22.173  16.953  1.00  0.00     0.005 A 
HETATM   37  S3  UNL     1      14.031  20.779  17.631  1.00  0.00    -0.097 SA
BRANCH  36  38
HETATM   38  C3  UNL     1      15.679  22.240  15.776  1.00  0.00     0.116 C 
HETATM   39  C4  UNL     1      16.904  22.907  16.263  1.00  0.00     0.038 C 
BRANCH  38  40
HETATM   40  N1  UNL     1      15.078  22.886  14.676  1.00  0.00    -0.394 N 
ATOM     41  H1  UNL     1      14.673  23.810  14.824  1.00  0.00     0.159 HD
BRANCH  40  42
HETATM   42  C2  UNL     1      15.007  22.333  13.399  1.00  0.00     0.052 C 
HETATM   43  C1  UNL     1      13.932  21.364  13.079  1.00  0.00     0.054 C 
ENDBRANCH  40  42
ENDBRANCH  38  40
ENDBRANCH  36  38
ENDBRANCH  32  33
ENDBRANCH  29  32
ENDBRANCH   1  28
TORSDOF 12
ENDMDL
MODEL 3
REMARK VINA RESULT: -8.983155239      2.221      7.408
REMARK  12 active torsions:
REMARK  status: ('A' for Active; 'I' for Inactive)
REMARK    1  A    between atoms: C2_2  and  N1_3 
REMARK    2  A    between atoms: N1_3  and  C3_5 
REMARK    3  A    between atoms: C3_5  and  C5_7 
REMARK    4  A    between atoms: C8_10  and  C9_11 
REMARK    5  A    between atoms: C9_11  and  C10_12 
REMARK       I    between atoms: C10_12  and  N2_14 
REMARK    6  A    between atoms: N2_14  and  C11_16 
REMARK    7  A    between atoms: C12_21  and  C13_22 
REMARK    8  A    between atoms: C13_22  and  C14_23 
REMARK    9  A    between atoms: C14_23  and  C15_24 
REMARK   10  A    between atoms: C15_24  and  C16_25 
REMARK   11  A    between atoms: C16_25  and  C17_26 
REMARK       I    between atoms: N7_32  and  C19_34 
REMARK   12  A    between atoms: C19_34  and  C20_36 
REMARK       I    between atoms: C20_36  and  N8_38 
ROOT
HETATM    1  C11 UNL     1      11.749  20.406  19.138  1.00  0.00     0.167 A 
HETATM    2  N3  UNL     1      12.162  19.335  19.658  1.00  0.00    -0.279 N 
ATOM      3  H3  UNL     1      13.155  19.113  19.583  1.00  0.00     0.189 HD
HETATM    4  N4  UNL     1      11.399  18.509  20.277  1.00  0.00    -0.296 N 
ATOM      5  H4  UNL     1      11.790  17.658  20.682  1.00  0.00     0.187 HD
HETATM    6  C12 UNL     1      10.124  18.757  20.388  1.00  0.00     0.069 A 
HETATM    7  S2  UNL     1      10.015  20.278  19.553  1.00  0.00    -0.038 SA
ENDROOT
BRANCH   6   8
HETATM    8  C13 UNL     1       8.961  18.148  21.109  1.00  0.00     0.066 C 
BRANCH   8   9
HETATM    9  C14 UNL     1       7.650  18.627  20.718  1.00  0.00     0.007 C 
BRANCH   9  10
HETATM   10  C15 UNL     1       6.480  18.175  21.551  1.00  0.00     0.007 C 
BRANCH  10  11
HETATM   11  C16 UNL     1       6.103  16.744  21.174  1.00  0.00     0.066 C 
BRANCH  11  12
HETATM   12  C17 UNL     1       6.148  16.582  19.678  1.00  0.00     0.069 A 
HETATM   13  N5  UNL     1       5.324  17.198  18.843  1.00  0.00    -0.296 N 
HETATM   14  N6  UNL     1       5.425  17.056  17.595  1.00  0.00    -0.279 N 
ATOM     15  H5  UNL     1       4.592  17.799  19.219  1.00  0.00     0.187 HD
HETATM   16  C18 UNL     1       6.382  16.268  17.122  1.00  0.00     0.168 A 
ATOM     17  H6  UNL     1       4.785  17.538  16.963  1.00  0.00     0.189 HD
HETATM   18  N7  UNL     1       6.691  15.964  15.864  1.00  0.00    -0.298 N 
HETATM   19  S1  UNL     1       7.137  15.746  18.594  1.00  0.00    -0.038 SA
HETATM   20  C19 UNL     1       7.814  15.067  15.747  1.00  0.00     0.315 C 
ATOM     21  H7  UNL     1       6.182  16.331  15.059  1.00  0.00     0.171 HD
HETATM   22  O2  UNL     1       8.663  14.369  15.666  1.00  0.00    -0.262 OA
BRANCH  20  23
HETATM   23  C20 UNL     1       8.766  16.312  14.916  1.00  0.00     0.311 C 
HETATM   24  O3  UNL     1       8.344  16.546  13.846  1.00  0.00    -0.262 OA
HETATM   25  N8  UNL     1       9.802  16.721  15.684  1.00  0.00    -0.353 N 
HETATM   26  C21 UNL     1      11.042  17.291  15.113  1.00  0.00     0.152 C 
HETATM   27  C22 UNL     1       9.720  16.849  17.167  1.00  0.00     0.152 C 
ENDBRANCH  20  23
ENDBRANCH  11  12
ENDBRANCH  10  11
ENDBRANCH   9  10
ENDBRANCH   8   9
ENDBRANCH   6   8
BRANCH   1  28
HETATM   28  N2  UNL     1      12.132  21.552  18.581  1.00  0.00    -0.306 N 
HETATM   29  C10 UNL     1      11.749  21.645  17.159  1.00  0.00     0.228 C 
HETATM   30  O1  UNL     1      11.057  22.565  16.797  1.00  0.00    -0.273 OA
ATOM     31  H2  UNL     1      12.633  22.285  19.082  1.00  0.00     0.171 HD
BRANCH  29  32
HETATM   32  C9  UNL     1      12.281  20.566  16.345  1.00  0.00     0.149 C 
BRANCH  32  33
HETATM   33  C8  UNL     1      13.276  21.071  15.351  1.00  0.00    -0.008 A 
HETATM   34  C7  UNL     1      13.343  20.911  14.009  1.00  0.00     0.016 A 
HETATM   35  C6  UNL     1      14.361  21.509  13.352  1.00  0.00     0.018 A 
HETATM   36  C5  UNL     1      15.248  22.248  14.106  1.00  0.00     0.005 A 
HETATM   37  S3  UNL     1      14.652  22.083  15.689  1.00  0.00    -0.097 SA
BRANCH  36  38
HETATM   38  C3  UNL     1      16.450  23.055  13.660  1.00  0.00     0.116 C 
HETATM   39  C4  UNL     1      17.347  23.154  14.829  1.00  0.00     0.038 C 
BRANCH  38  40
HETATM   40  N1  UNL     1      16.055  24.304  13.137  1.00  0.00    -0.394 N 
ATOM     41  H1  UNL     1      15.087  24.596  13.270  1.00  0.00     0.159 HD
BRANCH  40  42
HETATM   42  C2  UNL     1      16.913  25.161  12.451  1.00  0.00     0.052 C 
HETATM   43  C1  UNL     1      16.458  26.525  12.097  1.00  0.00     0.054 C 
ENDBRANCH  40  42
ENDBRANCH  38  40
ENDBRANCH  36  38
ENDBRANCH  32  33
ENDBRANCH  29  32
ENDBRANCH   1  28
TORSDOF 12
ENDMDL
MODEL 4
REMARK VINA RESULT: -8.889514266      2.363      8.001
REMARK  12 active torsions:
REMARK  status: ('A' for Active; 'I' for Inactive)
REMARK    1  A    between atoms: C2_2  and  N1_3 
REMARK    2  A    between atoms: N1_3  and  C3_5 
REMARK    3  A    between atoms: C3_5  and  C5_7 
REMARK    4  A    between atoms: C8_10  and  C9_11 
REMARK    5  A    between atoms: C9_11  and  C10_12 
REMARK       I    between atoms: C10_12  and  N2_14 
REMARK    6  A    between atoms: N2_14  and  C11_16 
REMARK    7  A    between atoms: C12_21  and  C13_22 
REMARK    8  A    between atoms: C13_22  and  C14_23 
REMARK    9  A    between atoms: C14_23  and  C15_24 
REMARK   10  A    between atoms: C15_24  and  C16_25 
REMARK   11  A    between atoms: C16_25  and  C17_26 
REMARK       I    between atoms: N7_32  and  C19_34 
REMARK   12  A    between atoms: C19_34  and  C20_36 
REMARK       I    between atoms: C20_36  and  N8_38 
ROOT
HETATM    1  C11 UNL     1      10.812  18.743  18.549  1.00  0.00     0.167 A 
HETATM    2  N3  UNL     1      11.653  17.816  18.405  1.00  0.00    -0.279 N 
ATOM      3  H3  UNL     1      12.200  17.528  19.217  1.00  0.00     0.189 HD
HETATM    4  N4  UNL     1      11.857  17.213  17.290  1.00  0.00    -0.296 N 
ATOM      5  H4  UNL     1      12.549  16.466  17.232  1.00  0.00     0.187 HD
HETATM    6  C12 UNL     1      11.181  17.557  16.229  1.00  0.00     0.069 A 
HETATM    7  S2  UNL     1      10.183  18.826  16.878  1.00  0.00    -0.038 SA
ENDROOT
BRANCH   6   8
HETATM    8  C13 UNL     1      11.027  17.047  14.830  1.00  0.00     0.066 C 
BRANCH   8   9
HETATM    9  C14 UNL     1       9.702  16.586  14.464  1.00  0.00     0.007 C 
BRANCH   9  10
HETATM   10  C15 UNL     1       9.324  15.191  14.886  1.00  0.00     0.007 C 
BRANCH  10  11
HETATM   11  C16 UNL     1       7.807  15.027  14.821  1.00  0.00     0.066 C 
BRANCH  11  12
HETATM   12  C17 UNL     1       7.192  15.444  16.130  1.00  0.00     0.069 A 
HETATM   13  N5  UNL     1       6.275  14.737  16.773  1.00  0.00    -0.296 N 
HETATM   14  N6  UNL     1       5.816  15.112  17.885  1.00  0.00    -0.279 N 
ATOM     15  H5  UNL     1       5.933  13.870  16.359  1.00  0.00     0.187 HD
HETATM   16  C18 UNL     1       6.270  16.244  18.409  1.00  0.00     0.168 A 
ATOM     17  H6  UNL     1       5.110  14.557  18.371  1.00  0.00     0.189 HD
HETATM   18  N7  UNL     1       5.950  16.840  19.555  1.00  0.00    -0.298 N 
HETATM   19  S1  UNL     1       7.411  16.733  17.199  1.00  0.00    -0.038 SA
HETATM   20  C19 UNL     1       6.670  18.068  19.785  1.00  0.00     0.315 C 
ATOM     21  H7  UNL     1       5.261  16.465  20.207  1.00  0.00     0.171 HD
HETATM   22  O2  UNL     1       7.213  19.013  19.947  1.00  0.00    -0.262 OA
BRANCH  20  23
HETATM   23  C20 UNL     1       7.468  17.373  21.209  1.00  0.00     0.311 C 
HETATM   24  O3  UNL     1       8.582  17.074  20.985  1.00  0.00    -0.262 OA
HETATM   25  N8  UNL     1       6.618  17.311  22.259  1.00  0.00    -0.353 N 
HETATM   26  C21 UNL     1       6.772  16.329  23.353  1.00  0.00     0.152 C 
HETATM   27  C22 UNL     1       5.584  18.349  22.536  1.00  0.00     0.152 C 
ENDBRANCH  20  23
ENDBRANCH  11  12
ENDBRANCH  10  11
ENDBRANCH   9  10
ENDBRANCH   8   9
ENDBRANCH   6   8
BRANCH   1  28
HETATM   28  N2  UNL     1      10.185  19.500  19.445  1.00  0.00    -0.306 N 
HETATM   29  C10 UNL     1      10.774  20.848  19.560  1.00  0.00     0.228 C 
HETATM   30  O1  UNL     1      10.075  21.812  19.362  1.00  0.00    -0.273 OA
ATOM     31  H2  UNL     1       9.385  19.183  19.993  1.00  0.00     0.171 HD
BRANCH  29  32
HETATM   32  C9  UNL     1      12.183  20.835  19.911  1.00  0.00     0.149 C 
BRANCH  32  33
HETATM   33  C8  UNL     1      13.008  21.546  18.887  1.00  0.00    -0.008 A 
HETATM   34  C7  UNL     1      13.517  22.799  18.879  1.00  0.00     0.016 A 
HETATM   35  C6  UNL     1      14.256  23.173  17.811  1.00  0.00     0.018 A 
HETATM   36  C5  UNL     1      14.441  22.238  16.815  1.00  0.00     0.005 A 
HETATM   37  S3  UNL     1      13.584  20.884  17.384  1.00  0.00    -0.097 SA
BRANCH  36  38
HETATM   38  C3  UNL     1      15.239  22.343  15.533  1.00  0.00     0.116 C 
HETATM   39  C4  UNL     1      15.738  20.985  15.236  1.00  0.00     0.038 C 
BRANCH  38  40
HETATM   40  N1  UNL     1      16.256  23.312  15.648  1.00  0.00    -0.394 N 
ATOM     41  H1  UNL     1      16.022  24.283  15.441  1.00  0.00     0.159 HD
BRANCH  40  42
HETATM   42  C2  UNL     1      17.565  23.018  16.029  1.00  0.00     0.052 C 
HETATM   43  C1  UNL     1      18.045  23.422  17.371  1.00  0.00     0.054 C 
ENDBRANCH  40  42
ENDBRANCH  38  40
ENDBRANCH  36  38
ENDBRANCH  32  33
ENDBRANCH  29  32
ENDBRANCH   1  28
TORSDOF 12
ENDMDL
MODEL 5
REMARK VINA RESULT: -8.842610602      2.039      4.252
REMARK  12 active torsions:
REMARK  status: ('A' for Active; 'I' for Inactive)
REMARK    1  A    between atoms: C2_2  and  N1_3 
REMARK    2  A    between atoms: N1_3  and  C3_5 
REMARK    3  A    between atoms: C3_5  and  C5_7 
REMARK    4  A    between atoms: C8_10  and  C9_11 
REMARK    5  A    between atoms: C9_11  and  C10_12 
REMARK       I    between atoms: C10_12  and  N2_14 
REMARK    6  A    between atoms: N2_14  and  C11_16 
REMARK    7  A    between atoms: C12_21  and  C13_22 
REMARK    8  A    between atoms: C13_22  and  C14_23 
REMARK    9  A    between atoms: C14_23  and  C15_24 
REMARK   10  A    between atoms: C15_24  and  C16_25 
REMARK   11  A    between atoms: C16_25  and  C17_26 
REMARK       I    between atoms: N7_32  and  C19_34 
REMARK   12  A    between atoms: C19_34  and  C20_36 
REMARK       I    between atoms: C20_36  and  N8_38 
ROOT
HETATM    1  C11 UNL     1       6.884  15.440  14.949  1.00  0.00     0.167 A 
HETATM    2  N3  UNL     1       7.853  14.639  14.855  1.00  0.00    -0.279 N 
ATOM      3  H3  UNL     1       7.651  13.641  14.790  1.00  0.00     0.189 HD
HETATM    4  N4  UNL     1       9.081  15.013  14.837  1.00  0.00    -0.296 N 
ATOM      5  H4  UNL     1       9.824  14.320  14.755  1.00  0.00     0.187 HD
HETATM    6  C12 UNL     1       9.377  16.280  14.923  1.00  0.00     0.069 A 
HETATM    7  S2  UNL     1       7.789  16.979  15.033  1.00  0.00    -0.038 SA
ENDROOT
BRANCH   6   8
HETATM    8  C13 UNL     1      10.619  17.111  14.815  1.00  0.00     0.066 C 
BRANCH   8   9
HETATM    9  C14 UNL     1      10.584  18.395  15.489  1.00  0.00     0.007 C 
BRANCH   9  10
HETATM   10  C15 UNL     1      10.391  18.377  16.983  1.00  0.00     0.007 C 
BRANCH  10  11
HETATM   11  C16 UNL     1      11.543  17.620  17.641  1.00  0.00     0.066 C 
BRANCH  11  12
HETATM   12  C17 UNL     1      12.653  18.578  17.983  1.00  0.00     0.069 A 
HETATM   13  N5  UNL     1      13.857  18.200  18.385  1.00  0.00    -0.296 N 
HETATM   14  N6  UNL     1      14.764  19.040  18.625  1.00  0.00    -0.279 N 
ATOM     15  H5  UNL     1      14.054  17.206  18.502  1.00  0.00     0.187 HD
HETATM   16  C18 UNL     1      14.491  20.329  18.470  1.00  0.00     0.168 A 
ATOM     17  H6  UNL     1      15.689  18.735  18.933  1.00  0.00     0.189 HD
HETATM   18  N7  UNL     1      15.270  21.393  18.655  1.00  0.00    -0.298 N 
HETATM   19  S1  UNL     1      12.840  20.256  17.945  1.00  0.00    -0.038 SA
HETATM   20  C19 UNL     1      14.611  22.644  18.374  1.00  0.00     0.315 C 
ATOM     21  H7  UNL     1      16.240  21.329  18.964  1.00  0.00     0.171 HD
HETATM   22  O2  UNL     1      14.096  23.598  18.172  1.00  0.00    -0.262 OA
BRANCH  20  23
HETATM   23  C20 UNL     1      15.722  22.968  17.029  1.00  0.00     0.311 C 
HETATM   24  O3  UNL     1      15.244  22.697  15.991  1.00  0.00    -0.262 OA
HETATM   25  N8  UNL     1      16.905  23.442  17.482  1.00  0.00    -0.353 N 
HETATM   26  C21 UNL     1      18.168  23.283  16.729  1.00  0.00     0.152 C 
HETATM   27  C22 UNL     1      17.026  24.352  18.657  1.00  0.00     0.152 C 
ENDBRANCH  20  23
ENDBRANCH  11  12
ENDBRANCH  10  11
ENDBRANCH   9  10
ENDBRANCH   8   9
ENDBRANCH   6   8
BRANCH   1  28
HETATM   28  N2  UNL     1       5.561  15.546  14.863  1.00  0.00    -0.306 N 
HETATM   29  C10 UNL     1       4.942  15.950  16.140  1.00  0.00     0.228 C 
HETATM   30  O1  UNL     1       4.272  16.953  16.175  1.00  0.00    -0.273 OA
ATOM     31  H2  UNL     1       5.033  15.368  14.009  1.00  0.00     0.171 HD
BRANCH  29  32
HETATM   32  C9  UNL     1       5.236  15.045  17.237  1.00  0.00     0.149 C 
BRANCH  32  33
HETATM   33  C8  UNL     1       6.256  15.622  18.164  1.00  0.00    -0.008 A 
HETATM   34  C7  UNL     1       7.596  15.442  18.224  1.00  0.00     0.016 A 
HETATM   35  C6  UNL     1       8.281  16.121  19.170  1.00  0.00     0.018 A 
HETATM   36  C5  UNL     1       7.557  16.955  19.995  1.00  0.00     0.005 A 
HETATM   37  S3  UNL     1       5.960  16.766  19.442  1.00  0.00    -0.097 SA
BRANCH  36  38
HETATM   38  C3  UNL     1       8.038  17.863  21.108  1.00  0.00     0.116 C 
HETATM   39  C4  UNL     1       6.930  18.794  21.399  1.00  0.00     0.038 C 
BRANCH  38  40
HETATM   40  N1  UNL     1       9.243  18.503  20.753  1.00  0.00    -0.394 N 
ATOM     41  H1  UNL     1      10.112  17.978  20.845  1.00  0.00     0.159 HD
BRANCH  40  42
HETATM   42  C2  UNL     1       9.313  19.814  20.283  1.00  0.00     0.052 C 
HETATM   43  C1  UNL     1      10.173  20.798  20.982  1.00  0.00     0.054 C 
ENDBRANCH  40  42
ENDBRANCH  38  40
ENDBRANCH  36  38
ENDBRANCH  32  33
ENDBRANCH  29  32
ENDBRANCH   1  28
TORSDOF 12
ENDMDL
