MODEL 1
REMARK VINA RESULT: -7.744514385      0.000      0.000
REMARK  15 active torsions:
REMARK  status: ('A' for Active; 'I' for Inactive)
REMARK    1  A    between atoms: C2_2  and  C3_3 
REMARK    2  A    between atoms: C3_3  and  C5_5 
REMARK    3  A    between atoms: C7_10  and  C8_11 
REMARK    4  A    between atoms: C11_14  and  O2_15 
REMARK    5  A    between atoms: C12_19  and  C13_20 
REMARK    6  A    between atoms: C13_20  and  C14_21 
REMARK    7  A    between atoms: C17_24  and  O3_25 
REMARK    8  A    between atoms: C18_29  and  C19_30 
REMARK    9  A    between atoms: C19_30  and  C20_31 
REMARK   10  A    between atoms: C24_38  and  C25_39 
REMARK   11  A    between atoms: C25_39  and  C26_40 
REMARK   12  A    between atoms: C29_43  and  O5_44 
REMARK   13  A    between atoms: C30_48  and  C31_49 
REMARK   14  A    between atoms: C31_49  and  C32_50 
REMARK   15  A    between atoms: C33_53  and  O7_54 
ROOT
HETATM    1  C5  UNL     1      -3.820   2.766   9.454  1.00  0.00     0.085 C 
HETATM    2  C6  UNL     1      -4.201   1.684   8.604  1.00  0.00     0.265 C 
HETATM    3  O1  UNL     1      -3.488   1.336   7.578  1.00  0.00    -0.266 OA
HETATM    4  N1  UNL     1      -5.350   0.861   8.744  1.00  0.00    -0.344 N 
ATOM      5  H1  UNL     1      -5.220  -0.121   8.500  1.00  0.00     0.163 HD
HETATM    6  C7  UNL     1      -6.666   1.221   9.181  1.00  0.00     0.162 C 
HETATM    7  C11 UNL     1      -7.628   1.611   8.148  1.00  0.00     0.135 C 
HETATM    8  N2  UNL     1      -7.728   1.326   6.785  1.00  0.00    -0.361 N 
ATOM      9  H2  UNL     1      -7.405   2.094   6.197  1.00  0.00     0.162 HD
HETATM   10  C12 UNL     1      -8.179   0.205   6.029  1.00  0.00     0.158 C 
HETATM   11  C17 UNL     1      -8.945   0.494   4.803  1.00  0.00     0.135 C 
HETATM   12  N3  UNL     1      -9.168   1.572   3.997  1.00  0.00    -0.359 N 
ATOM     13  H3  UNL     1      -8.860   1.360   3.048  1.00  0.00     0.162 HD
HETATM   14  C18 UNL     1      -9.690   2.898   4.048  1.00  0.00     0.175 C 
HETATM   15  C23 UNL     1      -9.968   3.555   5.294  1.00  0.00     0.241 C 
HETATM   16  O4  UNL     1     -10.781   2.985   6.116  1.00  0.00    -0.271 OA
HETATM   17  N4  UNL     1      -9.380   4.800   5.639  1.00  0.00    -0.347 N 
ATOM     18  H4  UNL     1     -10.008   5.525   5.986  1.00  0.00     0.163 HD
HETATM   19  C24 UNL     1      -7.962   5.145   5.545  1.00  0.00     0.159 C 
HETATM   20  C29 UNL     1      -7.355   5.240   6.892  1.00  0.00     0.135 C 
HETATM   21  N5  UNL     1      -6.083   4.858   7.313  1.00  0.00    -0.360 N 
ATOM     22  H5  UNL     1      -6.089   4.422   8.235  1.00  0.00     0.162 HD
HETATM   23  C30 UNL     1      -4.792   4.934   6.760  1.00  0.00     0.166 C 
HETATM   24  C33 UNL     1      -3.707   4.744   7.775  1.00  0.00     0.141 C 
HETATM   25  N7  UNL     1      -3.639   4.117   9.002  1.00  0.00    -0.333 N 
HETATM   26  C34 UNL     1      -3.296   4.989  10.174  1.00  0.00     0.158 C 
ENDROOT
BRANCH   1  27
HETATM   27  C3  UNL     1      -2.758   2.331  10.487  1.00  0.00     0.037 C 
HETATM   28  C4  UNL     1      -3.474   2.156  11.849  1.00  0.00     0.016 C 
BRANCH  27  29
HETATM   29  C2  UNL     1      -2.090   1.047  10.216  1.00  0.00     0.006 C 
HETATM   30  C1  UNL     1      -2.405  -0.111  11.120  1.00  0.00     0.006 C 
ENDBRANCH  27  29
ENDBRANCH   1  27
BRANCH  24  31
HETATM   31  O7  UNL     1      -2.595   5.305   7.392  1.00  0.00    -0.348 OA
ATOM     32  H7  UNL     1      -1.962   4.658   7.102  1.00  0.00     0.219 HD
ENDBRANCH  24  31
BRANCH   6  33
HETATM   33  C8  UNL     1      -7.219   0.255  10.211  1.00  0.00     0.008 C 
HETATM   34  C9  UNL     1      -8.683  -0.018  10.083  1.00  0.00     0.012 C 
HETATM   35  C10 UNL     1      -6.834   0.687  11.620  1.00  0.00     0.012 C 
ENDBRANCH   6  33
BRANCH  23  36
HETATM   36  C31 UNL     1      -4.501   4.140   5.552  1.00  0.00     0.133 C 
BRANCH  36  37
HETATM   37  C32 UNL     1      -4.174   4.914   4.331  1.00  0.00     0.233 C 
HETATM   38  N6  UNL     1      -3.804   6.303   4.439  1.00  0.00    -0.062 NA
HETATM   39  O6  UNL     1      -4.190   4.457   3.163  1.00  0.00    -0.277 OA
ENDBRANCH  36  37
ENDBRANCH  23  36
BRANCH   7  40
HETATM   40  O2  UNL     1      -8.573   2.387   8.622  1.00  0.00    -0.348 OA
ATOM     41  H2  UNL     1      -9.376   2.318   8.120  1.00  0.00     0.219 HD
ENDBRANCH   7  40
BRANCH  20  42
HETATM   42  O5  UNL     1      -8.195   5.758   7.746  1.00  0.00    -0.348 OA
ATOM     43  H5  UNL     1      -8.066   5.392   8.613  1.00  0.00     0.219 HD
ENDBRANCH  20  42
BRANCH  10  44
HETATM   44  C13 UNL     1      -7.075  -0.794   5.753  1.00  0.00     0.037 C 
BRANCH  44  45
HETATM   45  C14 UNL     1      -7.128  -2.092   6.441  1.00  0.00    -0.020 C 
HETATM   46  C15 UNL     1      -8.368  -2.353   7.247  1.00  0.00     0.009 C 
HETATM   47  C16 UNL     1      -5.953  -2.110   7.443  1.00  0.00     0.009 C 
ENDBRANCH  44  45
ENDBRANCH  10  44
BRANCH  19  48
HETATM   48  C25 UNL     1      -7.645   6.243   4.616  1.00  0.00     0.037 C 
BRANCH  48  49
HETATM   49  C26 UNL     1      -8.368   6.403   3.346  1.00  0.00    -0.020 C 
HETATM   50  C27 UNL     1      -8.486   7.782   2.792  1.00  0.00     0.009 C 
HETATM   51  C28 UNL     1      -7.713   5.464   2.309  1.00  0.00     0.009 C 
ENDBRANCH  48  49
ENDBRANCH  19  48
BRANCH  11  52
HETATM   52  O3  UNL     1      -9.566  -0.607   4.411  1.00  0.00    -0.348 OA
ATOM     53  H3  UNL     1      -9.850  -0.499   3.511  1.00  0.00     0.219 HD
ENDBRANCH  11  52
BRANCH  14  54
HETATM   54  C19 UNL     1     -11.024   2.939   3.243  1.00  0.00     0.038 C 
BRANCH  54  55
HETATM   55  C20 UNL     1     -10.879   3.560   1.906  1.00  0.00    -0.020 C 
HETATM   56  C21 UNL     1     -11.547   2.827   0.786  1.00  0.00     0.009 C 
HETATM   57  C22 UNL     1     -11.531   4.948   1.996  1.00  0.00     0.009 C 
ENDBRANCH  54  55
ENDBRANCH  14  54
TORSDOF 15
ENDMDL
MODEL 2
REMARK VINA RESULT: -7.733404222      2.276      6.757
REMARK  15 active torsions:
REMARK  status: ('A' for Active; 'I' for Inactive)
REMARK    1  A    between atoms: C2_2  and  C3_3 
REMARK    2  A    between atoms: C3_3  and  C5_5 
REMARK    3  A    between atoms: C7_10  and  C8_11 
REMARK    4  A    between atoms: C11_14  and  O2_15 
REMARK    5  A    between atoms: C12_19  and  C13_20 
REMARK    6  A    between atoms: C13_20  and  C14_21 
REMARK    7  A    between atoms: C17_24  and  O3_25 
REMARK    8  A    between atoms: C18_29  and  C19_30 
REMARK    9  A    between atoms: C19_30  and  C20_31 
REMARK   10  A    between atoms: C24_38  and  C25_39 
REMARK   11  A    between atoms: C25_39  and  C26_40 
REMARK   12  A    between atoms: C29_43  and  O5_44 
REMARK   13  A    between atoms: C30_48  and  C31_49 
REMARK   14  A    between atoms: C31_49  and  C32_50 
REMARK   15  A    between atoms: C33_53  and  O7_54 
ROOT
HETATM    1  C5  UNL     1      -7.242   0.025   6.951  1.00  0.00     0.085 C 
HETATM    2  C6  UNL     1      -6.652   0.634   8.100  1.00  0.00     0.265 C 
HETATM    3  O1  UNL     1      -7.371   1.094   9.077  1.00  0.00    -0.266 OA
HETATM    4  N1  UNL     1      -5.265   0.815   8.344  1.00  0.00    -0.344 N 
ATOM      5  H1  UNL     1      -4.970   0.704   9.315  1.00  0.00     0.163 HD
HETATM    6  C7  UNL     1      -4.222   1.132   7.413  1.00  0.00     0.162 C 
HETATM    7  C11 UNL     1      -3.912   2.550   7.218  1.00  0.00     0.135 C 
HETATM    8  N2  UNL     1      -4.086   3.680   8.018  1.00  0.00    -0.361 N 
ATOM      9  H2  UNL     1      -4.892   4.239   7.741  1.00  0.00     0.162 HD
HETATM   10  C12 UNL     1      -3.391   4.231   9.135  1.00  0.00     0.158 C 
HETATM   11  C17 UNL     1      -3.249   5.698   9.174  1.00  0.00     0.135 C 
HETATM   12  N3  UNL     1      -3.816   6.770   8.551  1.00  0.00    -0.359 N 
ATOM     13  H3  UNL     1      -4.244   7.384   9.245  1.00  0.00     0.162 HD
HETATM   14  C18 UNL     1      -4.007   7.315   7.247  1.00  0.00     0.175 C 
HETATM   15  C23 UNL     1      -3.733   6.552   6.061  1.00  0.00     0.241 C 
HETATM   16  O4  UNL     1      -2.549   6.068   5.907  1.00  0.00    -0.271 OA
HETATM   17  N4  UNL     1      -4.719   6.324   5.066  1.00  0.00    -0.347 N 
ATOM     18  H4  UNL     1      -4.447   6.504   4.099  1.00  0.00     0.163 HD
HETATM   19  C24 UNL     1      -6.086   5.855   5.291  1.00  0.00     0.159 C 
HETATM   20  C29 UNL     1      -6.245   4.459   4.825  1.00  0.00     0.135 C 
HETATM   21  N5  UNL     1      -6.993   3.425   5.385  1.00  0.00    -0.360 N 
ATOM     22  H5  UNL     1      -6.512   2.527   5.344  1.00  0.00     0.162 HD
HETATM   23  C30 UNL     1      -8.258   3.334   5.993  1.00  0.00     0.166 C 
HETATM   24  C33 UNL     1      -8.772   1.930   6.069  1.00  0.00     0.141 C 
HETATM   25  N7  UNL     1      -8.173   0.687   6.080  1.00  0.00    -0.333 N 
HETATM   26  C34 UNL     1      -8.538  -0.235   4.954  1.00  0.00     0.158 C 
ENDROOT
BRANCH   1  27
HETATM   27  C3  UNL     1      -7.615  -1.450   7.218  1.00  0.00     0.037 C 
HETATM   28  C4  UNL     1      -6.298  -2.264   7.260  1.00  0.00     0.016 C 
BRANCH  27  29
HETATM   29  C2  UNL     1      -8.294  -1.718   8.497  1.00  0.00     0.006 C 
HETATM   30  C1  UNL     1      -9.790  -1.585   8.536  1.00  0.00     0.006 C 
ENDBRANCH  27  29
ENDBRANCH   1  27
BRANCH  24  31
HETATM   31  O7  UNL     1     -10.073   1.902   6.138  1.00  0.00    -0.348 OA
ATOM     32  H7  UNL     1     -10.380   1.119   6.580  1.00  0.00     0.219 HD
ENDBRANCH  24  31
BRANCH   6  33
HETATM   33  C8  UNL     1      -3.002   0.247   7.587  1.00  0.00     0.008 C 
HETATM   34  C9  UNL     1      -2.487  -0.355   6.320  1.00  0.00     0.012 C 
HETATM   35  C10 UNL     1      -3.244  -0.800   8.666  1.00  0.00     0.012 C 
ENDBRANCH   6  33
BRANCH  23  36
HETATM   36  C31 UNL     1      -8.466   4.021   7.281  1.00  0.00     0.133 C 
BRANCH  36  37
HETATM   37  C32 UNL     1      -9.532   5.052   7.301  1.00  0.00     0.233 C 
HETATM   38  N6  UNL     1     -10.434   5.173   6.183  1.00  0.00    -0.062 NA
HETATM   39  O6  UNL     1      -9.731   5.863   8.237  1.00  0.00    -0.277 OA
ENDBRANCH  36  37
ENDBRANCH  23  36
BRANCH   7  40
HETATM   40  O2  UNL     1      -3.366   2.778   6.049  1.00  0.00    -0.348 OA
ATOM     41  H2  UNL     1      -3.729   3.549   5.630  1.00  0.00     0.219 HD
ENDBRANCH   7  40
BRANCH  20  42
HETATM   42  O5  UNL     1      -5.552   4.248   3.740  1.00  0.00    -0.348 OA
ATOM     43  H5  UNL     1      -4.697   3.890   3.947  1.00  0.00     0.219 HD
ENDBRANCH  20  42
BRANCH  10  44
HETATM   44  C13 UNL     1      -3.904   3.702  10.458  1.00  0.00     0.037 C 
BRANCH  44  45
HETATM   45  C14 UNL     1      -3.025   2.821  11.240  1.00  0.00    -0.020 C 
HETATM   46  C15 UNL     1      -1.784   2.348  10.538  1.00  0.00     0.009 C 
HETATM   47  C16 UNL     1      -3.844   1.553  11.563  1.00  0.00     0.009 C 
ENDBRANCH  44  45
ENDBRANCH  10  44
BRANCH  19  48
HETATM   48  C25 UNL     1      -7.144   6.796   4.885  1.00  0.00     0.037 C 
BRANCH  48  49
HETATM   49  C26 UNL     1      -7.088   8.217   5.254  1.00  0.00    -0.020 C 
HETATM   50  C27 UNL     1      -7.829   9.182   4.391  1.00  0.00     0.009 C 
HETATM   51  C28 UNL     1      -7.557   8.342   6.721  1.00  0.00     0.009 C 
ENDBRANCH  48  49
ENDBRANCH  19  48
BRANCH  11  52
HETATM   52  O3  UNL     1      -2.320   6.019  10.058  1.00  0.00    -0.348 OA
ATOM     53  H3  UNL     1      -1.501   6.180   9.603  1.00  0.00     0.219 HD
ENDBRANCH  11  52
BRANCH  14  54
HETATM   54  C19 UNL     1      -3.155   8.613   7.119  1.00  0.00     0.038 C 
BRANCH  54  55
HETATM   55  C20 UNL     1      -3.956   9.802   6.746  1.00  0.00    -0.020 C 
HETATM   56  C21 UNL     1      -3.469  11.101   7.305  1.00  0.00     0.009 C 
HETATM   57  C22 UNL     1      -3.892   9.911   5.215  1.00  0.00     0.009 C 
ENDBRANCH  54  55
ENDBRANCH  14  54
TORSDOF 15
ENDMDL
MODEL 3
REMARK VINA RESULT: -7.732309480      1.972      7.415
REMARK  15 active torsions:
REMARK  status: ('A' for Active; 'I' for Inactive)
REMARK    1  A    between atoms: C2_2  and  C3_3 
REMARK    2  A    between atoms: C3_3  and  C5_5 
REMARK    3  A    between atoms: C7_10  and  C8_11 
REMARK    4  A    between atoms: C11_14  and  O2_15 
REMARK    5  A    between atoms: C12_19  and  C13_20 
REMARK    6  A    between atoms: C13_20  and  C14_21 
REMARK    7  A    between atoms: C17_24  and  O3_25 
REMARK    8  A    between atoms: C18_29  and  C19_30 
REMARK    9  A    between atoms: C19_30  and  C20_31 
REMARK   10  A    between atoms: C24_38  and  C25_39 
REMARK   11  A    between atoms: C25_39  and  C26_40 
REMARK   12  A    between atoms: C29_43  and  O5_44 
REMARK   13  A    between atoms: C30_48  and  C31_49 
REMARK   14  A    between atoms: C31_49  and  C32_50 
REMARK   15  A    between atoms: C33_53  and  O7_54 
ROOT
HETATM    1  C5  UNL     1      -8.337   1.895   3.412  1.00  0.00     0.085 C 
HETATM    2  C6  UNL     1      -8.933   1.809   4.707  1.00  0.00     0.265 C 
HETATM    3  O1  UNL     1      -9.637   2.779   5.203  1.00  0.00    -0.266 OA
HETATM    4  N1  UNL     1      -8.861   0.708   5.600  1.00  0.00    -0.344 N 
ATOM      5  H1  UNL     1      -9.707   0.524   6.142  1.00  0.00     0.163 HD
HETATM    6  C7  UNL     1      -7.764  -0.181   5.845  1.00  0.00     0.162 C 
HETATM    7  C11 UNL     1      -6.846   0.177   6.928  1.00  0.00     0.135 C 
HETATM    8  N2  UNL     1      -6.988   0.956   8.077  1.00  0.00    -0.361 N 
ATOM      9  H2  UNL     1      -6.582   1.886   7.976  1.00  0.00     0.162 HD
HETATM   10  C12 UNL     1      -7.573   0.747   9.361  1.00  0.00     0.158 C 
HETATM   11  C17 UNL     1      -6.853   1.306  10.520  1.00  0.00     0.135 C 
HETATM   12  N3  UNL     1      -5.861   2.219  10.731  1.00  0.00    -0.359 N 
ATOM     13  H3  UNL     1      -6.206   2.968  11.332  1.00  0.00     0.162 HD
HETATM   14  C18 UNL     1      -4.500   2.468  10.387  1.00  0.00     0.175 C 
HETATM   15  C23 UNL     1      -3.830   1.721   9.360  1.00  0.00     0.241 C 
HETATM   16  O4  UNL     1      -3.778   0.439   9.474  1.00  0.00    -0.271 OA
HETATM   17  N4  UNL     1      -3.228   2.351   8.239  1.00  0.00    -0.347 N 
ATOM     18  H4  UNL     1      -2.274   2.070   8.011  1.00  0.00     0.163 HD
HETATM   19  C24 UNL     1      -3.842   3.362   7.379  1.00  0.00     0.159 C 
HETATM   20  C29 UNL     1      -4.165   2.795   6.050  1.00  0.00     0.135 C 
HETATM   21  N5  UNL     1      -5.262   3.046   5.230  1.00  0.00    -0.360 N 
ATOM     22  H5  UNL     1      -5.611   2.203   4.773  1.00  0.00     0.162 HD
HETATM   23  C30 UNL     1      -6.001   4.192   4.886  1.00  0.00     0.166 C 
HETATM   24  C33 UNL     1      -6.839   4.004   3.659  1.00  0.00     0.141 C 
HETATM   25  N7  UNL     1      -7.388   2.904   3.031  1.00  0.00    -0.333 N 
HETATM   26  C34 UNL     1      -6.936   2.651   1.623  1.00  0.00     0.158 C 
ENDROOT
BRANCH   1  27
HETATM   27  C3  UNL     1      -9.353   1.575   2.295  1.00  0.00     0.037 C 
HETATM   28  C4  UNL     1     -10.188   0.355   2.758  1.00  0.00     0.016 C 
BRANCH  27  29
HETATM   29  C2  UNL     1     -10.327   2.637   1.991  1.00  0.00     0.006 C 
HETATM   30  C1  UNL     1     -10.578   2.964   0.546  1.00  0.00     0.006 C 
ENDBRANCH  27  29
ENDBRANCH   1  27
BRANCH  24  31
HETATM   31  O7  UNL     1      -7.090   5.140   3.075  1.00  0.00    -0.348 OA
ATOM     32  H7  UNL     1      -7.940   5.481   3.329  1.00  0.00     0.219 HD
ENDBRANCH  24  31
BRANCH   6  33
HETATM   33  C8  UNL     1      -8.189  -1.637   5.847  1.00  0.00     0.008 C 
HETATM   34  C9  UNL     1      -9.621  -1.867   5.487  1.00  0.00     0.012 C 
HETATM   35  C10 UNL     1      -7.810  -2.309   7.160  1.00  0.00     0.012 C 
ENDBRANCH   6  33
BRANCH  23  36
HETATM   36  C31 UNL     1      -6.787   4.860   5.939  1.00  0.00     0.133 C 
BRANCH  36  37
HETATM   37  C32 UNL     1      -6.626   6.331   6.035  1.00  0.00     0.233 C 
HETATM   38  N6  UNL     1      -5.634   6.998   5.229  1.00  0.00    -0.062 NA
HETATM   39  O6  UNL     1      -7.298   7.082   6.782  1.00  0.00    -0.277 OA
ENDBRANCH  36  37
ENDBRANCH  23  36
BRANCH   7  40
HETATM   40  O2  UNL     1      -5.657  -0.348   6.760  1.00  0.00    -0.348 OA
ATOM     41  H2  UNL     1      -5.286  -0.128   5.914  1.00  0.00     0.219 HD
ENDBRANCH   7  40
BRANCH  20  42
HETATM   42  O5  UNL     1      -3.247   1.949   5.670  1.00  0.00    -0.348 OA
ATOM     43  H5  UNL     1      -3.610   1.077   5.569  1.00  0.00     0.219 HD
ENDBRANCH  20  42
BRANCH  10  44
HETATM   44  C13 UNL     1      -9.039   1.125   9.402  1.00  0.00     0.037 C 
BRANCH  44  45
HETATM   45  C14 UNL     1     -10.011   0.193   8.814  1.00  0.00    -0.020 C 
HETATM   46  C15 UNL     1     -11.418   0.707   8.696  1.00  0.00     0.009 C 
HETATM   47  C16 UNL     1     -10.078  -1.030   9.753  1.00  0.00     0.009 C 
ENDBRANCH  44  45
ENDBRANCH  10  44
BRANCH  19  48
HETATM   48  C25 UNL     1      -3.170   4.673   7.377  1.00  0.00     0.037 C 
BRANCH  48  49
HETATM   49  C26 UNL     1      -3.603   5.757   8.268  1.00  0.00    -0.020 C 
HETATM   50  C27 UNL     1      -3.277   5.629   9.718  1.00  0.00     0.009 C 
HETATM   51  C28 UNL     1      -3.038   7.082   7.708  1.00  0.00     0.009 C 
ENDBRANCH  48  49
ENDBRANCH  19  48
BRANCH  11  52
HETATM   52  O3  UNL     1      -7.321   0.755  11.627  1.00  0.00    -0.348 OA
ATOM     53  H3  UNL     1      -7.596   1.441  12.223  1.00  0.00     0.219 HD
ENDBRANCH  11  52
BRANCH  14  54
HETATM   54  C19 UNL     1      -3.624   2.305  11.666  1.00  0.00     0.038 C 
BRANCH  54  55
HETATM   55  C20 UNL     1      -2.228   1.907  11.370  1.00  0.00    -0.020 C 
HETATM   56  C21 UNL     1      -1.286   3.038  11.102  1.00  0.00     0.009 C 
HETATM   57  C22 UNL     1      -1.712   1.167  12.613  1.00  0.00     0.009 C 
ENDBRANCH  54  55
ENDBRANCH  14  54
TORSDOF 15
ENDMDL
MODEL 4
REMARK VINA RESULT: -7.362804670      0.797      1.176
REMARK  15 active torsions:
REMARK  status: ('A' for Active; 'I' for Inactive)
REMARK    1  A    between atoms: C2_2  and  C3_3 
REMARK    2  A    between atoms: C3_3  and  C5_5 
REMARK    3  A    between atoms: C7_10  and  C8_11 
REMARK    4  A    between atoms: C11_14  and  O2_15 
REMARK    5  A    between atoms: C12_19  and  C13_20 
REMARK    6  A    between atoms: C13_20  and  C14_21 
REMARK    7  A    between atoms: C17_24  and  O3_25 
REMARK    8  A    between atoms: C18_29  and  C19_30 
REMARK    9  A    between atoms: C19_30  and  C20_31 
REMARK   10  A    between atoms: C24_38  and  C25_39 
REMARK   11  A    between atoms: C25_39  and  C26_40 
REMARK   12  A    between atoms: C29_43  and  O5_44 
REMARK   13  A    between atoms: C30_48  and  C31_49 
REMARK   14  A    between atoms: C31_49  and  C32_50 
REMARK   15  A    between atoms: C33_53  and  O7_54 
ROOT
HETATM    1  C5  UNL     1      -4.377   2.455   9.264  1.00  0.00     0.085 C 
HETATM    2  C6  UNL     1      -4.857   1.471   8.346  1.00  0.00     0.265 C 
HETATM    3  O1  UNL     1      -4.173   1.118   7.303  1.00  0.00    -0.266 OA
HETATM    4  N1  UNL     1      -6.083   0.761   8.432  1.00  0.00    -0.344 N 
ATOM      5  H1  UNL     1      -6.051  -0.212   8.127  1.00  0.00     0.163 HD
HETATM    6  C7  UNL     1      -7.361   1.224   8.888  1.00  0.00     0.162 C 
HETATM    7  C11 UNL     1      -8.269   1.772   7.878  1.00  0.00     0.135 C 
HETATM    8  N2  UNL     1      -8.386   1.583   6.500  1.00  0.00    -0.361 N 
ATOM      9  H2  UNL     1      -7.982   2.350   5.962  1.00  0.00     0.162 HD
HETATM   10  C12 UNL     1      -8.941   0.562   5.674  1.00  0.00     0.158 C 
HETATM   11  C17 UNL     1      -9.663   1.002   4.467  1.00  0.00     0.135 C 
HETATM   12  N3  UNL     1      -9.770   2.144   3.730  1.00  0.00    -0.359 N 
ATOM     13  H3  UNL     1      -9.476   1.962   2.770  1.00  0.00     0.162 HD
HETATM   14  C18 UNL     1     -10.157   3.510   3.862  1.00  0.00     0.175 C 
HETATM   15  C23 UNL     1     -10.378   4.113   5.146  1.00  0.00     0.241 C 
HETATM   16  O4  UNL     1     -11.251   3.578   5.929  1.00  0.00    -0.271 OA
HETATM   17  N4  UNL     1      -9.672   5.269   5.569  1.00  0.00    -0.347 N 
ATOM     18  H4  UNL     1     -10.228   6.031   5.959  1.00  0.00     0.163 HD
HETATM   19  C24 UNL     1      -8.226   5.475   5.501  1.00  0.00     0.159 C 
HETATM   20  C29 UNL     1      -7.624   5.425   6.853  1.00  0.00     0.135 C 
HETATM   21  N5  UNL     1      -6.400   4.892   7.252  1.00  0.00    -0.360 N 
ATOM     22  H5  UNL     1      -6.458   4.403   8.145  1.00  0.00     0.162 HD
HETATM   23  C30 UNL     1      -5.103   4.872   6.708  1.00  0.00     0.166 C 
HETATM   24  C33 UNL     1      -4.052   4.512   7.712  1.00  0.00     0.141 C 
HETATM   25  N7  UNL     1      -4.058   3.807   8.898  1.00  0.00    -0.333 N 
HETATM   26  C34 UNL     1      -3.640   4.565  10.122  1.00  0.00     0.158 C 
ENDROOT
BRANCH   1  27
HETATM   27  C3  UNL     1      -3.373   1.853  10.270  1.00  0.00     0.037 C 
HETATM   28  C4  UNL     1      -4.184   1.303  11.469  1.00  0.00     0.016 C 
BRANCH  27  29
HETATM   29  C2  UNL     1      -2.571   0.721   9.774  1.00  0.00     0.006 C 
HETATM   30  C1  UNL     1      -1.144   0.619  10.234  1.00  0.00     0.006 C 
ENDBRANCH  27  29
ENDBRANCH   1  27
BRANCH  24  31
HETATM   31  O7  UNL     1      -2.886   4.981   7.368  1.00  0.00    -0.348 OA
ATOM     32  H7  UNL     1      -2.751   4.921   6.429  1.00  0.00     0.219 HD
ENDBRANCH  24  31
BRANCH   6  33
HETATM   33  C8  UNL     1      -8.016   0.255   9.854  1.00  0.00     0.008 C 
HETATM   34  C9  UNL     1      -7.098  -0.784  10.409  1.00  0.00     0.012 C 
HETATM   35  C10 UNL     1      -9.271  -0.353   9.241  1.00  0.00     0.012 C 
ENDBRANCH   6  33
BRANCH  23  36
HETATM   36  C31 UNL     1      -4.883   4.129   5.454  1.00  0.00     0.133 C 
BRANCH  36  37
HETATM   37  C32 UNL     1      -4.324   4.913   4.326  1.00  0.00     0.233 C 
HETATM   38  N6  UNL     1      -3.885   6.269   4.542  1.00  0.00    -0.062 NA
HETATM   39  O6  UNL     1      -4.192   4.492   3.152  1.00  0.00    -0.277 OA
ENDBRANCH  36  37
ENDBRANCH  23  36
BRANCH   7  40
HETATM   40  O2  UNL     1      -9.136   2.607   8.398  1.00  0.00    -0.348 OA
ATOM     41  H2  UNL     1      -8.756   3.463   8.556  1.00  0.00     0.219 HD
ENDBRANCH   7  40
BRANCH  20  42
HETATM   42  O5  UNL     1      -8.416   5.971   7.736  1.00  0.00    -0.348 OA
ATOM     43  H5  UNL     1      -9.080   5.356   8.022  1.00  0.00     0.219 HD
ENDBRANCH  20  42
BRANCH  10  44
HETATM   44  C13 UNL     1      -7.939  -0.524   5.340  1.00  0.00     0.037 C 
BRANCH  44  45
HETATM   45  C14 UNL     1      -7.745  -1.610   6.311  1.00  0.00    -0.020 C 
HETATM   46  C15 UNL     1      -6.342  -2.135   6.428  1.00  0.00     0.009 C 
HETATM   47  C16 UNL     1      -8.607  -2.795   5.828  1.00  0.00     0.009 C 
ENDBRANCH  44  45
ENDBRANCH  10  44
BRANCH  19  48
HETATM   48  C25 UNL     1      -7.793   6.591   4.643  1.00  0.00     0.037 C 
BRANCH  48  49
HETATM   49  C26 UNL     1      -7.790   6.474   3.178  1.00  0.00    -0.020 C 
HETATM   50  C27 UNL     1      -7.580   5.117   2.596  1.00  0.00     0.009 C 
HETATM   51  C28 UNL     1      -9.111   7.082   2.655  1.00  0.00     0.009 C 
ENDBRANCH  48  49
ENDBRANCH  19  48
BRANCH  11  52
HETATM   52  O3  UNL     1     -10.387  -0.005   4.006  1.00  0.00    -0.348 OA
ATOM     53  H3  UNL     1     -10.986  -0.293   4.685  1.00  0.00     0.219 HD
ENDBRANCH  11  52
BRANCH  14  54
HETATM   54  C19 UNL     1     -11.473   3.735   3.058  1.00  0.00     0.038 C 
BRANCH  54  55
HETATM   55  C20 UNL     1     -11.240   4.264   1.694  1.00  0.00    -0.020 C 
HETATM   56  C21 UNL     1     -11.425   3.275   0.586  1.00  0.00     0.009 C 
HETATM   57  C22 UNL     1     -12.265   5.387   1.479  1.00  0.00     0.009 C 
ENDBRANCH  54  55
ENDBRANCH  14  54
TORSDOF 15
ENDMDL
MODEL 5
REMARK VINA RESULT: -7.283609359      2.191      6.507
REMARK  15 active torsions:
REMARK  status: ('A' for Active; 'I' for Inactive)
REMARK    1  A    between atoms: C2_2  and  C3_3 
REMARK    2  A    between atoms: C3_3  and  C5_5 
REMARK    3  A    between atoms: C7_10  and  C8_11 
REMARK    4  A    between atoms: C11_14  and  O2_15 
REMARK    5  A    between atoms: C12_19  and  C13_20 
REMARK    6  A    between atoms: C13_20  and  C14_21 
REMARK    7  A    between atoms: C17_24  and  O3_25 
REMARK    8  A    between atoms: C18_29  and  C19_30 
REMARK    9  A    between atoms: C19_30  and  C20_31 
REMARK   10  A    between atoms: C24_38  and  C25_39 
REMARK   11  A    between atoms: C25_39  and  C26_40 
REMARK   12  A    between atoms: C29_43  and  O5_44 
REMARK   13  A    between atoms: C30_48  and  C31_49 
REMARK   14  A    between atoms: C31_49  and  C32_50 
REMARK   15  A    between atoms: C33_53  and  O7_54 
ROOT
HETATM    1  C5  UNL     1      -9.385   0.630   7.830  1.00  0.00     0.085 C 
HETATM    2  C6  UNL     1      -8.357   1.113   8.696  1.00  0.00     0.265 C 
HETATM    3  O1  UNL     1      -8.620   1.870   9.715  1.00  0.00    -0.266 OA
HETATM    4  N1  UNL     1      -6.966   0.848   8.588  1.00  0.00    -0.344 N 
ATOM      5  H1  UNL     1      -6.470   0.735   9.472  1.00  0.00     0.163 HD
HETATM    6  C7  UNL     1      -6.165   0.719   7.407  1.00  0.00     0.162 C 
HETATM    7  C11 UNL     1      -5.513   1.933   6.908  1.00  0.00     0.135 C 
HETATM    8  N2  UNL     1      -5.125   3.125   7.521  1.00  0.00    -0.361 N 
ATOM      9  H2  UNL     1      -5.774   3.890   7.341  1.00  0.00     0.162 HD
HETATM   10  C12 UNL     1      -4.027   3.515   8.343  1.00  0.00     0.158 C 
HETATM   11  C17 UNL     1      -3.454   4.851   8.098  1.00  0.00     0.135 C 
HETATM   12  N3  UNL     1      -3.824   5.989   7.444  1.00  0.00    -0.359 N 
ATOM     13  H3  UNL     1      -3.850   6.769   8.101  1.00  0.00     0.162 HD
HETATM   14  C18 UNL     1      -4.186   6.446   6.143  1.00  0.00     0.175 C 
HETATM   15  C23 UNL     1      -4.476   5.532   5.074  1.00  0.00     0.241 C 
HETATM   16  O4  UNL     1      -3.574   4.673   4.744  1.00  0.00    -0.271 OA
HETATM   17  N4  UNL     1      -5.714   5.551   4.379  1.00  0.00    -0.347 N 
ATOM     18  H4  UNL     1      -5.670   5.544   3.360  1.00  0.00     0.163 HD
HETATM   19  C24 UNL     1      -7.046   5.580   4.982  1.00  0.00     0.159 C 
HETATM   20  C29 UNL     1      -7.729   4.278   4.809  1.00  0.00     0.135 C 
HETATM   21  N5  UNL     1      -8.571   3.603   5.690  1.00  0.00    -0.360 N 
ATOM     22  H5  UNL     1      -8.406   2.596   5.697  1.00  0.00     0.162 HD
HETATM   23  C30 UNL     1      -9.596   3.988   6.573  1.00  0.00     0.166 C 
HETATM   24  C33 UNL     1     -10.462   2.844   7.002  1.00  0.00     0.141 C 
HETATM   25  N7  UNL     1     -10.276   1.479   7.090  1.00  0.00    -0.333 N 
HETATM   26  C34 UNL     1     -11.183   0.631   6.249  1.00  0.00     0.158 C 
ENDROOT
BRANCH   1  27
HETATM   27  C3  UNL     1     -10.091  -0.610   8.421  1.00  0.00     0.037 C 
HETATM   28  C4  UNL     1      -9.070  -1.775   8.417  1.00  0.00     0.016 C 
BRANCH  27  29
HETATM   29  C2  UNL     1     -10.549  -0.482   9.815  1.00  0.00     0.006 C 
HETATM   30  C1  UNL     1     -11.890   0.151  10.055  1.00  0.00     0.006 C 
ENDBRANCH  27  29
ENDBRANCH   1  27
BRANCH  24  31
HETATM   31  O7  UNL     1     -11.644   3.252   7.364  1.00  0.00    -0.348 OA
ATOM     32  H7  UNL     1     -12.108   2.581   7.852  1.00  0.00     0.219 HD
ENDBRANCH  24  31
BRANCH   6  33
HETATM   33  C8  UNL     1      -5.260  -0.498   7.451  1.00  0.00     0.008 C 
HETATM   34  C9  UNL     1      -5.718  -1.642   6.606  1.00  0.00     0.012 C 
HETATM   35  C10 UNL     1      -4.988  -0.917   8.890  1.00  0.00     0.012 C 
ENDBRANCH   6  33
BRANCH  23  36
HETATM   36  C31 UNL     1      -9.240   4.819   7.738  1.00  0.00     0.133 C 
BRANCH  36  37
HETATM   37  C32 UNL     1      -9.969   6.103   7.865  1.00  0.00     0.233 C 
HETATM   38  N6  UNL     1     -11.324   6.114   8.359  1.00  0.00    -0.062 NA
HETATM   39  O6  UNL     1      -9.501   7.229   7.570  1.00  0.00    -0.277 OA
ENDBRANCH  36  37
ENDBRANCH  23  36
BRANCH   7  40
HETATM   40  O2  UNL     1      -5.257   1.862   5.625  1.00  0.00    -0.348 OA
ATOM     41  H2  UNL     1      -4.931   2.684   5.280  1.00  0.00     0.219 HD
ENDBRANCH   7  40
BRANCH  20  42
HETATM   42  O5  UNL     1      -7.445   3.754   3.648  1.00  0.00    -0.348 OA
ATOM     43  H5  UNL     1      -8.008   3.011   3.465  1.00  0.00     0.219 HD
ENDBRANCH  20  42
BRANCH  10  44
HETATM   44  C13 UNL     1      -4.301   3.306   9.818  1.00  0.00     0.037 C 
BRANCH  44  45
HETATM   45  C14 UNL     1      -3.744   2.109  10.464  1.00  0.00    -0.020 C 
HETATM   46  C15 UNL     1      -4.621   1.458  11.495  1.00  0.00     0.009 C 
HETATM   47  C16 UNL     1      -2.469   2.559  11.207  1.00  0.00     0.009 C 
ENDBRANCH  44  45
ENDBRANCH  10  44
BRANCH  19  48
HETATM   48  C25 UNL     1      -7.848   6.776   4.669  1.00  0.00     0.037 C 
BRANCH  48  49
HETATM   49  C26 UNL     1      -9.003   6.708   3.763  1.00  0.00    -0.020 C 
HETATM   50  C27 UNL     1     -10.198   7.531   4.108  1.00  0.00     0.009 C 
HETATM   51  C28 UNL     1      -8.507   7.054   2.341  1.00  0.00     0.009 C 
ENDBRANCH  48  49
ENDBRANCH  19  48
BRANCH  11  52
HETATM   52  O3  UNL     1      -2.270   4.927   8.683  1.00  0.00    -0.348 OA
ATOM     53  H3  UNL     1      -2.313   4.496   9.529  1.00  0.00     0.219 HD
ENDBRANCH  11  52
BRANCH  14  54
HETATM   54  C19 UNL     1      -3.055   7.375   5.607  1.00  0.00     0.038 C 
BRANCH  54  55
HETATM   55  C20 UNL     1      -3.442   8.805   5.575  1.00  0.00    -0.020 C 
HETATM   56  C21 UNL     1      -4.913   9.069   5.644  1.00  0.00     0.009 C 
HETATM   57  C22 UNL     1      -2.802   9.459   6.808  1.00  0.00     0.009 C 
ENDBRANCH  54  55
ENDBRANCH  14  54
TORSDOF 15
ENDMDL
