MODEL 1
REMARK VINA RESULT: -8.489160306      0.000      0.000
REMARK  12 active torsions:
REMARK  status: ('A' for Active; 'I' for Inactive)
REMARK    1  A    between atoms: C2_2  and  N1_5 
REMARK       I    between atoms: N1_5  and  C5_7 
REMARK       I    between atoms: C5_7  and  N3_11 
REMARK    2  A    between atoms: N3_11  and  C6_13 
REMARK    3  A    between atoms: C6_13  and  C7_14 
REMARK    4  A    between atoms: C7_14  and  C8_15 
REMARK    5  A    between atoms: C8_15  and  N4_16 
REMARK       I    between atoms: N4_16  and  C9_18 
REMARK    6  A    between atoms: C9_18  and  C10_20 
REMARK    7  A    between atoms: C10_20  and  C11_21 
REMARK    8  A    between atoms: C11_21  and  C12_22 
REMARK    9  A    between atoms: C12_22  and  C13_23 
REMARK   10  A    between atoms: C13_23  and  C14_24 
REMARK   11  A    between atoms: C14_24  and  N5_25 
REMARK   12  A    between atoms: C19_30  and  N6_31 
ROOT
HETATM    1  N4  UNL     1      12.396  11.294  17.124  1.00  0.00    -0.361 N 
ATOM      2  H4  UNL     1      13.304  10.890  16.894  1.00  0.00     0.162 HD
HETATM    3  C9  UNL     1      11.646  10.786  18.242  1.00  0.00     0.217 C 
HETATM    4  O1  UNL     1      10.540  11.250  18.549  1.00  0.00    -0.274 OA
ENDROOT
BRANCH   1   5
HETATM    5  C8  UNL     1      11.866  12.370  16.330  1.00  0.00     0.124 C 
BRANCH   5   6
HETATM    6  C7  UNL     1      12.802  12.792  15.208  1.00  0.00     0.040 C 
BRANCH   6   7
HETATM    7  C6  UNL     1      12.646  11.836  14.053  1.00  0.00     0.139 C 
BRANCH   7   8
HETATM    8  N3  UNL     1      13.837  11.855  13.239  1.00  0.00    -0.227 N 
HETATM    9  C5  UNL     1      13.852  11.283  11.922  1.00  0.00     0.668 C 
HETATM   10  N1  UNL     1      15.063  11.239  11.199  1.00  0.00    -0.219 N 
HETATM   11  N2  UNL     1      12.753  10.827  11.445  1.00  0.00    -0.235 N 
ATOM     12  H1  UNL     1      15.439  12.097  10.796  1.00  0.00     0.178 HD
ATOM     13  H22 UNL     1      12.764  10.420  10.510  1.00  0.00     0.174 HD
ATOM     14  H21 UNL     1      11.878  10.859  11.968  1.00  0.00     0.174 HD
ATOM     15  H3  UNL     1      14.686  12.284  13.607  1.00  0.00     0.177 HD
BRANCH  10  16
HETATM   16  C2  UNL     1      15.774  10.003  11.022  1.00  0.00     0.036 C 
HETATM   17  C1  UNL     1      15.367   9.352   9.713  1.00  0.00     0.038 C 
HETATM   18  C3  UNL     1      17.253  10.342  10.912  1.00  0.00     0.038 C 
HETATM   19  C4  UNL     1      15.569   9.063  12.165  1.00  0.00     0.038 C 
ENDBRANCH  10  16
ENDBRANCH   7   8
ENDBRANCH   6   7
ENDBRANCH   5   6
ENDBRANCH   1   5
BRANCH   3  20
HETATM   20  C10 UNL     1      12.245   9.689  19.016  1.00  0.00     0.103 C 
BRANCH  20  21
HETATM   21  C11 UNL     1      11.453   9.327  20.230  1.00  0.00     0.009 C 
BRANCH  21  22
HETATM   22  C12 UNL     1      11.196   7.862  20.331  1.00  0.00     0.002 C 
BRANCH  22  23
HETATM   23  C13 UNL     1      12.407   7.123  20.902  1.00  0.00     0.028 C 
BRANCH  23  24
HETATM   24  C14 UNL     1      13.253   6.459  19.886  1.00  0.00     0.237 C 
BRANCH  24  25
HETATM   25  N5  UNL     1      14.657   6.709  19.909  1.00  0.00    -0.069 N 
HETATM   26  C15 UNL     1      15.067   7.829  20.727  1.00  0.00     0.272 C 
HETATM   27  C16 UNL     1      15.114   6.974  18.555  1.00  0.00     0.237 C 
HETATM   28  C17 UNL     1      16.117   5.934  18.104  1.00  0.00     0.030 C 
HETATM   29  C18 UNL     1      15.426   4.593  18.140  1.00  0.00     0.035 C 
HETATM   30  C19 UNL     1      15.105   4.313  19.595  1.00  0.00     0.182 C 
HETATM   31  C20 UNL     1      15.319   5.528  20.458  1.00  0.00     0.268 C 
BRANCH  30  32
HETATM   32  N6  UNL     1      16.050   3.300  20.039  1.00  0.00    -0.149 N 
HETATM   33  O2  UNL     1      16.121   2.869  21.187  1.00  0.00    -0.536 OA
HETATM   34  O3  UNL     1      16.918   2.805  19.095  1.00  0.00    -0.536 OA
ENDBRANCH  30  32
ENDBRANCH  24  25
ENDBRANCH  23  24
ENDBRANCH  22  23
ENDBRANCH  21  22
ENDBRANCH  20  21
ENDBRANCH   3  20
TORSDOF 12
ENDMDL
MODEL 2
REMARK VINA RESULT: -8.399454809      4.124      6.727
REMARK  12 active torsions:
REMARK  status: ('A' for Active; 'I' for Inactive)
REMARK    1  A    between atoms: C2_2  and  N1_5 
REMARK       I    between atoms: N1_5  and  C5_7 
REMARK       I    between atoms: C5_7  and  N3_11 
REMARK    2  A    between atoms: N3_11  and  C6_13 
REMARK    3  A    between atoms: C6_13  and  C7_14 
REMARK    4  A    between atoms: C7_14  and  C8_15 
REMARK    5  A    between atoms: C8_15  and  N4_16 
REMARK       I    between atoms: N4_16  and  C9_18 
REMARK    6  A    between atoms: C9_18  and  C10_20 
REMARK    7  A    between atoms: C10_20  and  C11_21 
REMARK    8  A    between atoms: C11_21  and  C12_22 
REMARK    9  A    between atoms: C12_22  and  C13_23 
REMARK   10  A    between atoms: C13_23  and  C14_24 
REMARK   11  A    between atoms: C14_24  and  N5_25 
REMARK   12  A    between atoms: C19_30  and  N6_31 
ROOT
HETATM    1  N4  UNL     1      14.315  10.482  12.136  1.00  0.00    -0.361 N 
ATOM      2  H4  UNL     1      14.325  10.305  13.141  1.00  0.00     0.162 HD
HETATM    3  C9  UNL     1      13.313  11.343  11.568  1.00  0.00     0.217 C 
HETATM    4  O1  UNL     1      13.268  11.578  10.354  1.00  0.00    -0.274 OA
ENDROOT
BRANCH   1   5
HETATM    5  C8  UNL     1      15.304   9.870  11.289  1.00  0.00     0.124 C 
BRANCH   5   6
HETATM    6  C7  UNL     1      16.725  10.264  11.660  1.00  0.00     0.040 C 
BRANCH   6   7
HETATM    7  C6  UNL     1      17.527  10.449  10.396  1.00  0.00     0.139 C 
BRANCH   7   8
HETATM    8  N3  UNL     1      17.850   9.162   9.830  1.00  0.00    -0.227 N 
HETATM    9  C5  UNL     1      17.635   8.883   8.438  1.00  0.00     0.668 C 
HETATM   10  N1  UNL     1      17.875   7.582   7.947  1.00  0.00    -0.219 N 
HETATM   11  N2  UNL     1      17.229   9.835   7.683  1.00  0.00    -0.235 N 
ATOM     12  H1  UNL     1      18.835   7.257   7.832  1.00  0.00     0.178 HD
ATOM     13  H22 UNL     1      17.077   9.636   6.694  1.00  0.00     0.174 HD
ATOM     14  H21 UNL     1      17.056  10.775   8.039  1.00  0.00     0.174 HD
ATOM     15  H3  UNL     1      18.238   8.435  10.431  1.00  0.00     0.177 HD
BRANCH  10  16
HETATM   16  C2  UNL     1      16.787   6.707   7.607  1.00  0.00     0.036 C 
HETATM   17  C1  UNL     1      16.454   6.841   6.133  1.00  0.00     0.038 C 
HETATM   18  C3  UNL     1      17.265   5.280   7.830  1.00  0.00     0.038 C 
HETATM   19  C4  UNL     1      15.576   6.957   8.447  1.00  0.00     0.038 C 
ENDBRANCH  10  16
ENDBRANCH   7   8
ENDBRANCH   6   7
ENDBRANCH   5   6
ENDBRANCH   1   5
BRANCH   3  20
HETATM   20  C10 UNL     1      12.334  11.941  12.489  1.00  0.00     0.103 C 
BRANCH  20  21
HETATM   21  C11 UNL     1      12.902  12.234  13.840  1.00  0.00     0.009 C 
BRANCH  21  22
HETATM   22  C12 UNL     1      12.180  11.520  14.932  1.00  0.00     0.002 C 
BRANCH  22  23
HETATM   23  C13 UNL     1      12.161  12.346  16.218  1.00  0.00     0.028 C 
BRANCH  23  24
HETATM   24  C14 UNL     1      11.673  11.613  17.408  1.00  0.00     0.237 C 
BRANCH  24  25
HETATM   25  N5  UNL     1      12.613  11.278  18.427  1.00  0.00    -0.069 N 
HETATM   26  C15 UNL     1      13.911  11.904  18.294  1.00  0.00     0.272 C 
HETATM   27  C16 UNL     1      12.825   9.840  18.421  1.00  0.00     0.237 C 
HETATM   28  C17 UNL     1      12.394   9.221  19.733  1.00  0.00     0.030 C 
HETATM   29  C18 UNL     1      10.921   9.503  19.904  1.00  0.00     0.035 C 
HETATM   30  C19 UNL     1      10.785  11.006  20.046  1.00  0.00     0.182 C 
HETATM   31  C20 UNL     1      12.068  11.718  19.709  1.00  0.00     0.268 C 
BRANCH  30  32
HETATM   32  N6  UNL     1      10.508  11.265  21.451  1.00  0.00    -0.149 N 
HETATM   33  O2  UNL     1      10.386  10.394  22.308  1.00  0.00    -0.536 OA
HETATM   34  O3  UNL     1      10.376  12.581  21.826  1.00  0.00    -0.536 OA
ENDBRANCH  30  32
ENDBRANCH  24  25
ENDBRANCH  23  24
ENDBRANCH  22  23
ENDBRANCH  21  22
ENDBRANCH  20  21
ENDBRANCH   3  20
TORSDOF 12
ENDMDL
MODEL 3
REMARK VINA RESULT: -8.379919944      1.901      3.085
REMARK  12 active torsions:
REMARK  status: ('A' for Active; 'I' for Inactive)
REMARK    1  A    between atoms: C2_2  and  N1_5 
REMARK       I    between atoms: N1_5  and  C5_7 
REMARK       I    between atoms: C5_7  and  N3_11 
REMARK    2  A    between atoms: N3_11  and  C6_13 
REMARK    3  A    between atoms: C6_13  and  C7_14 
REMARK    4  A    between atoms: C7_14  and  C8_15 
REMARK    5  A    between atoms: C8_15  and  N4_16 
REMARK       I    between atoms: N4_16  and  C9_18 
REMARK    6  A    between atoms: C9_18  and  C10_20 
REMARK    7  A    between atoms: C10_20  and  C11_21 
REMARK    8  A    between atoms: C11_21  and  C12_22 
REMARK    9  A    between atoms: C12_22  and  C13_23 
REMARK   10  A    between atoms: C13_23  and  C14_24 
REMARK   11  A    between atoms: C14_24  and  N5_25 
REMARK   12  A    between atoms: C19_30  and  N6_31 
ROOT
HETATM    1  N4  UNL     1      12.032  11.715  14.616  1.00  0.00    -0.361 N 
ATOM      2  H4  UNL     1      11.300  11.016  14.485  1.00  0.00     0.162 HD
HETATM    3  C9  UNL     1      12.201  12.345  15.898  1.00  0.00     0.217 C 
HETATM    4  O1  UNL     1      13.076  13.199  16.094  1.00  0.00    -0.274 OA
ENDROOT
BRANCH   1   5
HETATM    5  C8  UNL     1      12.892  12.069  13.519  1.00  0.00     0.124 C 
BRANCH   5   6
HETATM    6  C7  UNL     1      12.216  11.916  12.166  1.00  0.00     0.040 C 
BRANCH   6   7
HETATM    7  C6  UNL     1      13.274  11.869  11.092  1.00  0.00     0.139 C 
BRANCH   7   8
HETATM    8  N3  UNL     1      13.796  10.528  10.979  1.00  0.00    -0.227 N 
HETATM    9  C5  UNL     1      15.189  10.249  11.180  1.00  0.00     0.668 C 
HETATM   10  N1  UNL     1      15.672   8.940  10.966  1.00  0.00    -0.219 N 
HETATM   11  N2  UNL     1      15.954  11.208  11.551  1.00  0.00    -0.235 N 
ATOM     12  H1  UNL     1      15.460   8.209  11.645  1.00  0.00     0.178 HD
ATOM     13  H22 UNL     1      16.944  11.009  11.693  1.00  0.00     0.174 HD
ATOM     14  H21 UNL     1      15.605  12.154  11.705  1.00  0.00     0.174 HD
ATOM     15  H3  UNL     1      13.161   9.764  10.751  1.00  0.00     0.177 HD
BRANCH  10  16
HETATM   16  C2  UNL     1      16.458   8.621   9.806  1.00  0.00     0.036 C 
HETATM   17  C1  UNL     1      17.894   8.348  10.211  1.00  0.00     0.038 C 
HETATM   18  C3  UNL     1      15.904   7.330   9.224  1.00  0.00     0.038 C 
HETATM   19  C4  UNL     1      16.396   9.696   8.769  1.00  0.00     0.038 C 
ENDBRANCH  10  16
ENDBRANCH   7   8
ENDBRANCH   6   7
ENDBRANCH   5   6
ENDBRANCH   1   5
BRANCH   3  20
HETATM   20  C10 UNL     1      11.293  11.934  16.979  1.00  0.00     0.103 C 
BRANCH  20  21
HETATM   21  C11 UNL     1      11.883  10.897  17.879  1.00  0.00     0.009 C 
BRANCH  21  22
HETATM   22  C12 UNL     1      11.023  10.610  19.063  1.00  0.00     0.002 C 
BRANCH  22  23
HETATM   23  C13 UNL     1      11.713   9.648  20.031  1.00  0.00     0.028 C 
BRANCH  23  24
HETATM   24  C14 UNL     1      12.577   8.640  19.377  1.00  0.00     0.237 C 
BRANCH  24  25
HETATM   25  N5  UNL     1      12.827   7.416  20.067  1.00  0.00    -0.069 N 
HETATM   26  C15 UNL     1      11.648   6.642  20.389  1.00  0.00     0.272 C 
HETATM   27  C16 UNL     1      13.508   7.708  21.317  1.00  0.00     0.237 C 
HETATM   28  C17 UNL     1      14.882   7.076  21.349  1.00  0.00     0.030 C 
HETATM   29  C18 UNL     1      15.676   7.660  20.206  1.00  0.00     0.035 C 
HETATM   30  C19 UNL     1      14.996   7.201  18.931  1.00  0.00     0.182 C 
HETATM   31  C20 UNL     1      13.656   6.573  19.208  1.00  0.00     0.268 C 
BRANCH  30  32
HETATM   32  N6  UNL     1      15.844   6.166  18.361  1.00  0.00    -0.149 N 
HETATM   33  O2  UNL     1      16.937   6.370  17.840  1.00  0.00    -0.536 OA
HETATM   34  O3  UNL     1      15.371   4.876  18.414  1.00  0.00    -0.536 OA
ENDBRANCH  30  32
ENDBRANCH  24  25
ENDBRANCH  23  24
ENDBRANCH  22  23
ENDBRANCH  21  22
ENDBRANCH  20  21
ENDBRANCH   3  20
TORSDOF 12
ENDMDL
MODEL 4
REMARK VINA RESULT: -8.322826093      2.300      3.483
REMARK  12 active torsions:
REMARK  status: ('A' for Active; 'I' for Inactive)
REMARK    1  A    between atoms: C2_2  and  N1_5 
REMARK       I    between atoms: N1_5  and  C5_7 
REMARK       I    between atoms: C5_7  and  N3_11 
REMARK    2  A    between atoms: N3_11  and  C6_13 
REMARK    3  A    between atoms: C6_13  and  C7_14 
REMARK    4  A    between atoms: C7_14  and  C8_15 
REMARK    5  A    between atoms: C8_15  and  N4_16 
REMARK       I    between atoms: N4_16  and  C9_18 
REMARK    6  A    between atoms: C9_18  and  C10_20 
REMARK    7  A    between atoms: C10_20  and  C11_21 
REMARK    8  A    between atoms: C11_21  and  C12_22 
REMARK    9  A    between atoms: C12_22  and  C13_23 
REMARK   10  A    between atoms: C13_23  and  C14_24 
REMARK   11  A    between atoms: C14_24  and  N5_25 
REMARK   12  A    between atoms: C19_30  and  N6_31 
ROOT
HETATM    1  N4  UNL     1      12.107  12.148  14.209  1.00  0.00    -0.361 N 
ATOM      2  H4  UNL     1      11.848  13.084  14.521  1.00  0.00     0.162 HD
HETATM    3  C9  UNL     1      12.641  11.201  15.150  1.00  0.00     0.217 C 
HETATM    4  O1  UNL     1      12.970  10.057  14.808  1.00  0.00    -0.274 OA
ENDROOT
BRANCH   1   5
HETATM    5  C8  UNL     1      11.939  11.778  12.830  1.00  0.00     0.124 C 
BRANCH   5   6
HETATM    6  C7  UNL     1      12.910  12.492  11.903  1.00  0.00     0.040 C 
BRANCH   6   7
HETATM    7  C6  UNL     1      13.668  11.465  11.101  1.00  0.00     0.139 C 
BRANCH   7   8
HETATM    8  N3  UNL     1      13.914  10.297  11.913  1.00  0.00    -0.227 N 
HETATM    9  C5  UNL     1      15.208  10.038  12.478  1.00  0.00     0.668 C 
HETATM   10  N1  UNL     1      15.429   8.837  13.184  1.00  0.00    -0.219 N 
HETATM   11  N2  UNL     1      16.128  10.917  12.318  1.00  0.00    -0.235 N 
ATOM     12  H1  UNL     1      15.034   8.723  14.117  1.00  0.00     0.178 HD
ATOM     13  H22 UNL     1      17.047  10.733  12.719  1.00  0.00     0.174 HD
ATOM     14  H21 UNL     1      15.967  11.786  11.807  1.00  0.00     0.174 HD
ATOM     15  H3  UNL     1      13.153   9.641  12.088  1.00  0.00     0.177 HD
BRANCH  10  16
HETATM   16  C2  UNL     1      16.203   7.771  12.609  1.00  0.00     0.036 C 
HETATM   17  C1  UNL     1      17.630   7.831  13.119  1.00  0.00     0.038 C 
HETATM   18  C3  UNL     1      15.606   6.461  13.100  1.00  0.00     0.038 C 
HETATM   19  C4  UNL     1      16.174   7.795  11.115  1.00  0.00     0.038 C 
ENDBRANCH  10  16
ENDBRANCH   7   8
ENDBRANCH   6   7
ENDBRANCH   5   6
ENDBRANCH   1   5
BRANCH   3  20
HETATM   20  C10 UNL     1      12.784  11.640  16.546  1.00  0.00     0.103 C 
BRANCH  20  21
HETATM   21  C11 UNL     1      12.492  10.558  17.535  1.00  0.00     0.009 C 
BRANCH  21  22
HETATM   22  C12 UNL     1      11.304  10.863  18.383  1.00  0.00     0.002 C 
BRANCH  22  23
HETATM   23  C13 UNL     1      11.255   9.959  19.616  1.00  0.00     0.028 C 
BRANCH  23  24
HETATM   24  C14 UNL     1      12.563   9.385  20.004  1.00  0.00     0.237 C 
BRANCH  24  25
HETATM   25  N5  UNL     1      12.620   7.998  20.334  1.00  0.00    -0.069 N 
HETATM   26  C15 UNL     1      11.335   7.361  20.524  1.00  0.00     0.272 C 
HETATM   27  C16 UNL     1      13.370   7.835  21.568  1.00  0.00     0.237 C 
HETATM   28  C17 UNL     1      14.619   7.011  21.342  1.00  0.00     0.030 C 
HETATM   29  C18 UNL     1      15.471   7.748  20.338  1.00  0.00     0.035 C 
HETATM   30  C19 UNL     1      14.693   7.759  19.037  1.00  0.00     0.182 C 
HETATM   31  C20 UNL     1      13.273   7.297  19.232  1.00  0.00     0.268 C 
BRANCH  30  32
HETATM   32  N6  UNL     1      15.341   6.794  18.161  1.00  0.00    -0.149 N 
HETATM   33  O2  UNL     1      16.503   6.417  18.279  1.00  0.00    -0.536 OA
HETATM   34  O3  UNL     1      14.584   6.282  17.134  1.00  0.00    -0.536 OA
ENDBRANCH  30  32
ENDBRANCH  24  25
ENDBRANCH  23  24
ENDBRANCH  22  23
ENDBRANCH  21  22
ENDBRANCH  20  21
ENDBRANCH   3  20
TORSDOF 12
ENDMDL
MODEL 5
REMARK VINA RESULT: -8.237683770      3.396      6.398
REMARK  12 active torsions:
REMARK  status: ('A' for Active; 'I' for Inactive)
REMARK    1  A    between atoms: C2_2  and  N1_5 
REMARK       I    between atoms: N1_5  and  C5_7 
REMARK       I    between atoms: C5_7  and  N3_11 
REMARK    2  A    between atoms: N3_11  and  C6_13 
REMARK    3  A    between atoms: C6_13  and  C7_14 
REMARK    4  A    between atoms: C7_14  and  C8_15 
REMARK    5  A    between atoms: C8_15  and  N4_16 
REMARK       I    between atoms: N4_16  and  C9_18 
REMARK    6  A    between atoms: C9_18  and  C10_20 
REMARK    7  A    between atoms: C10_20  and  C11_21 
REMARK    8  A    between atoms: C11_21  and  C12_22 
REMARK    9  A    between atoms: C12_22  and  C13_23 
REMARK   10  A    between atoms: C13_23  and  C14_24 
REMARK   11  A    between atoms: C14_24  and  N5_25 
REMARK   12  A    between atoms: C19_30  and  N6_31 
ROOT
HETATM    1  N4  UNL     1      13.951  10.644  12.364  1.00  0.00    -0.361 N 
ATOM      2  H4  UNL     1      14.024  10.386  13.348  1.00  0.00     0.162 HD
HETATM    3  C9  UNL     1      12.927  11.560  11.937  1.00  0.00     0.217 C 
HETATM    4  O1  UNL     1      12.805  11.894  10.751  1.00  0.00    -0.274 OA
ENDROOT
BRANCH   1   5
HETATM    5  C8  UNL     1      14.870  10.093  11.406  1.00  0.00     0.124 C 
BRANCH   5   6
HETATM    6  C7  UNL     1      16.315  10.476  11.685  1.00  0.00     0.040 C 
BRANCH   6   7
HETATM    7  C6  UNL     1      17.123   9.222  11.899  1.00  0.00     0.139 C 
BRANCH   7   8
HETATM    8  N3  UNL     1      16.939   8.748  13.250  1.00  0.00    -0.227 N 
HETATM    9  C5  UNL     1      16.335   7.475  13.520  1.00  0.00     0.668 C 
HETATM   10  N1  UNL     1      16.088   7.093  14.856  1.00  0.00    -0.219 N 
HETATM   11  N2  UNL     1      16.037   6.721  12.527  1.00  0.00    -0.235 N 
ATOM     12  H1  UNL     1      16.868   6.814  15.451  1.00  0.00     0.178 HD
ATOM     13  H22 UNL     1      15.607   5.816  12.720  1.00  0.00     0.174 HD
ATOM     14  H21 UNL     1      16.216   6.997  11.562  1.00  0.00     0.174 HD
ATOM     15  H3  UNL     1      17.245   9.331  14.029  1.00  0.00     0.177 HD
BRANCH  10  16
HETATM   16  C2  UNL     1      14.755   7.093  15.392  1.00  0.00     0.036 C 
HETATM   17  C1  UNL     1      13.935   5.993  14.744  1.00  0.00     0.038 C 
HETATM   18  C3  UNL     1      14.860   6.760  16.872  1.00  0.00     0.038 C 
HETATM   19  C4  UNL     1      14.081   8.418  15.232  1.00  0.00     0.038 C 
ENDBRANCH  10  16
ENDBRANCH   7   8
ENDBRANCH   6   7
ENDBRANCH   5   6
ENDBRANCH   1   5
BRANCH   3  20
HETATM   20  C10 UNL     1      12.022  12.092  12.967  1.00  0.00     0.103 C 
BRANCH  20  21
HETATM   21  C11 UNL     1      12.257  11.498  14.318  1.00  0.00     0.009 C 
BRANCH  21  22
HETATM   22  C12 UNL     1      12.529  12.532  15.358  1.00  0.00     0.002 C 
BRANCH  22  23
HETATM   23  C13 UNL     1      11.783  12.223  16.657  1.00  0.00     0.028 C 
BRANCH  23  24
HETATM   24  C14 UNL     1      12.202  10.966  17.317  1.00  0.00     0.237 C 
BRANCH  24  25
HETATM   25  N5  UNL     1      12.968  11.058  18.517  1.00  0.00    -0.069 N 
HETATM   26  C15 UNL     1      13.977  12.095  18.524  1.00  0.00     0.272 C 
HETATM   27  C16 UNL     1      13.647   9.793  18.743  1.00  0.00     0.237 C 
HETATM   28  C17 UNL     1      13.188   9.151  20.034  1.00  0.00     0.030 C 
HETATM   29  C18 UNL     1      11.703   8.901  19.912  1.00  0.00     0.035 C 
HETATM   30  C19 UNL     1      11.044  10.263  19.824  1.00  0.00     0.182 C 
HETATM   31  C20 UNL     1      12.053  11.360  19.616  1.00  0.00     0.268 C 
BRANCH  30  32
HETATM   32  N6  UNL     1      10.412  10.500  21.112  1.00  0.00    -0.149 N 
HETATM   33  O2  UNL     1      10.643   9.853  22.130  1.00  0.00    -0.536 OA
HETATM   34  O3  UNL     1       9.494  11.521  21.175  1.00  0.00    -0.536 OA
ENDBRANCH  30  32
ENDBRANCH  24  25
ENDBRANCH  23  24
ENDBRANCH  22  23
ENDBRANCH  21  22
ENDBRANCH  20  21
ENDBRANCH   3  20
TORSDOF 12
ENDMDL
