MODEL 1
REMARK VINA RESULT: -9.285503749      0.000      0.000
REMARK  12 active torsions:
REMARK  status: ('A' for Active; 'I' for Inactive)
REMARK    1  A    between atoms: C1_2  and  C2_4 
REMARK    2  A    between atoms: N4_8  and  C3_9 
REMARK    3  A    between atoms: C4_11  and  C5_12 
REMARK       I    between atoms: C5_12  and  N5_14 
REMARK    4  A    between atoms: N5_14  and  C6_16 
REMARK    5  A    between atoms: C6_16  and  N6_17 
REMARK    6  A    between atoms: C6_16  and  C7_21 
REMARK       I    between atoms: N7_24  and  C9_26 
REMARK       I    between atoms: C9_26  and  N8_27 
REMARK       I    between atoms: C9_26  and  N9_31 
REMARK    7  A    between atoms: C11_37  and  S1_38 
REMARK    8  A    between atoms: S1_38  and  S2_39 
REMARK    9  A    between atoms: S2_39  and  C12_40 
REMARK   10  A    between atoms: C12_40  and  C13_41 
REMARK   11  A    between atoms: C14_44  and  O7_45 
REMARK   12  A    between atoms: C15_47  and  O8_48 
ROOT
HETATM    1  C7  UNL     1     -24.263  12.201 -21.275  1.00  0.00     0.139 A 
HETATM    2  O4  UNL     1     -23.613  12.985 -20.424  1.00  0.00    -0.289 OA
HETATM    3  C8  UNL     1     -22.320  12.848 -20.157  1.00  0.00     0.172 A 
HETATM    4  N7  UNL     1     -21.805  13.659 -19.325  1.00  0.00    -0.320 N 
ATOM      5  H7  UNL     1     -22.473  14.336 -18.957  1.00  0.00     0.165 HD
HETATM    6  C9  UNL     1     -20.514  13.819 -18.808  1.00  0.00     0.482 C 
HETATM    7  N8  UNL     1     -20.649  14.684 -17.606  1.00  0.00    -0.033 N 
ATOM      8  H81 UNL     1     -19.708  14.801 -17.230  1.00  0.00     0.278 HD
ATOM      9  H82 UNL     1     -21.316  14.326 -16.922  1.00  0.00     0.278 HD
ATOM     10  H83 UNL     1     -21.122  15.567 -17.794  1.00  0.00     0.278 HD
HETATM   11  N9  UNL     1     -19.603  14.539 -19.686  1.00  0.00    -0.033 N 
ATOM     12  H91 UNL     1     -18.663  14.656 -19.310  1.00  0.00     0.278 HD
ATOM     13  H92 UNL     1     -19.998  15.443 -19.946  1.00  0.00     0.278 HD
ATOM     14  H93 UNL     1     -19.568  14.095 -20.604  1.00  0.00     0.278 HD
HETATM   15  C10 UNL     1     -21.700  11.830 -20.826  1.00  0.00     0.117 A 
HETATM   16  N10 UNL     1     -20.295  11.587 -20.613  1.00  0.00    -0.096 NA
HETATM   17  C11 UNL     1     -22.302  10.975 -21.719  1.00  0.00     0.075 A 
HETATM   18  C14 UNL     1     -23.678  11.175 -21.961  1.00  0.00     0.119 A 
ENDROOT
BRANCH   1  19
HETATM   19  C6  UNL     1     -25.700  12.509 -21.449  1.00  0.00     0.345 C 
BRANCH  19  20
HETATM   20  N5  UNL     1     -25.803  13.470 -22.571  1.00  0.00    -0.326 N 
HETATM   21  C5  UNL     1     -26.224  14.799 -22.365  1.00  0.00     0.251 C 
HETATM   22  O3  UNL     1     -26.529  15.213 -21.202  1.00  0.00    -0.271 OA
ATOM     23  H5  UNL     1     -25.564  13.163 -23.514  1.00  0.00     0.165 HD
BRANCH  21  24
HETATM   24  C4  UNL     1     -26.320  15.742 -23.504  1.00  0.00     0.249 C 
HETATM   25  O2  UNL     1     -25.257  15.663 -24.381  1.00  0.00    -0.345 OA
HETATM   26  C3  UNL     1     -25.059  17.032 -24.325  1.00  0.00     0.277 C 
HETATM   27  C15 UNL     1     -26.008  17.174 -23.168  1.00  0.00     0.206 C 
BRANCH  26  28
HETATM   28  N4  UNL     1     -25.493  17.698 -25.535  1.00  0.00    -0.229 N 
HETATM   29  N3  UNL     1     -26.121  17.171 -26.582  1.00  0.00    -0.016 NA
HETATM   30  N2  UNL     1     -26.349  18.100 -27.492  1.00  0.00    -0.276 N 
HETATM   31  C2  UNL     1     -25.865  19.278 -27.057  1.00  0.00     0.154 A 
ATOM     32  H2  UNL     1     -26.817  17.949 -28.385  1.00  0.00     0.184 HD
HETATM   33  C16 UNL     1     -25.324  19.003 -25.807  1.00  0.00     0.167 A 
HETATM   34  N11 UNL     1     -24.700  19.979 -24.983  1.00  0.00    -0.079 NA
BRANCH  31  35
HETATM   35  C1  UNL     1     -25.910  20.558 -27.757  1.00  0.00     0.285 C 
HETATM   36  N1  UNL     1     -25.220  20.701 -28.977  1.00  0.00    -0.056 NA
HETATM   37  O1  UNL     1     -26.575  21.491 -27.223  1.00  0.00    -0.269 OA
ENDBRANCH  31  35
ENDBRANCH  26  28
BRANCH  27  38
HETATM   38  O8  UNL     1     -27.029  18.062 -23.456  1.00  0.00    -0.388 OA
ATOM     39  H8  UNL     1     -26.769  18.958 -23.284  1.00  0.00     0.210 HD
ENDBRANCH  27  38
ENDBRANCH  21  24
ENDBRANCH  19  20
BRANCH  19  40
HETATM   40  N6  UNL     1     -26.562  11.435 -21.762  1.00  0.00    -0.052 N 
ATOM     41  H63 UNL     1     -27.197  11.192 -21.003  1.00  0.00     0.277 HD
ATOM     42  H62 UNL     1     -27.274  11.677 -22.451  1.00  0.00     0.277 HD
ATOM     43  H61 UNL     1     -25.964  10.662 -22.052  1.00  0.00     0.277 HD
ENDBRANCH  19  40
ENDBRANCH   1  19
BRANCH  18  44
HETATM   44  O7  UNL     1     -24.252  10.324 -22.839  1.00  0.00    -0.357 OA
ATOM     45  H7  UNL     1     -24.491   9.414 -22.705  1.00  0.00     0.218 HD
ENDBRANCH  18  44
BRANCH  17  46
HETATM   46  S1  UNL     1     -21.457   9.687 -22.562  1.00  0.00    -0.052 SA
BRANCH  46  47
HETATM   47  S2  UNL     1     -20.631  10.448 -24.355  1.00  0.00    -0.082 SA
BRANCH  47  48
HETATM   48  C12 UNL     1     -21.447   9.693 -25.751  1.00  0.00     0.199 C 
BRANCH  48  49
HETATM   49  C13 UNL     1     -22.782  10.272 -26.034  1.00  0.00     0.183 C 
HETATM   50  O5  UNL     1     -23.456   9.756 -26.959  1.00  0.00    -0.647 OA
HETATM   51  O6  UNL     1     -23.312  11.336 -25.341  1.00  0.00    -0.647 OA
ENDBRANCH  48  49
ENDBRANCH  47  48
ENDBRANCH  46  47
ENDBRANCH  17  46
TORSDOF 12
ENDMDL
MODEL 2
REMARK VINA RESULT: -9.133620968      2.611      4.713
REMARK  12 active torsions:
REMARK  status: ('A' for Active; 'I' for Inactive)
REMARK    1  A    between atoms: C1_2  and  C2_4 
REMARK    2  A    between atoms: N4_8  and  C3_9 
REMARK    3  A    between atoms: C4_11  and  C5_12 
REMARK       I    between atoms: C5_12  and  N5_14 
REMARK    4  A    between atoms: N5_14  and  C6_16 
REMARK    5  A    between atoms: C6_16  and  N6_17 
REMARK    6  A    between atoms: C6_16  and  C7_21 
REMARK       I    between atoms: N7_24  and  C9_26 
REMARK       I    between atoms: C9_26  and  N8_27 
REMARK       I    between atoms: C9_26  and  N9_31 
REMARK    7  A    between atoms: C11_37  and  S1_38 
REMARK    8  A    between atoms: S1_38  and  S2_39 
REMARK    9  A    between atoms: S2_39  and  C12_40 
REMARK   10  A    between atoms: C12_40  and  C13_41 
REMARK   11  A    between atoms: C14_44  and  O7_45 
REMARK   12  A    between atoms: C15_47  and  O8_48 
ROOT
HETATM    1  C7  UNL     1     -24.605  11.244 -22.624  1.00  0.00     0.139 A 
HETATM    2  O4  UNL     1     -25.607  10.392 -22.800  1.00  0.00    -0.289 OA
HETATM    3  C8  UNL     1     -25.677   9.561 -23.831  1.00  0.00     0.172 A 
HETATM    4  N7  UNL     1     -26.685   8.789 -23.894  1.00  0.00    -0.320 N 
ATOM      5  H7  UNL     1     -27.334   8.911 -23.117  1.00  0.00     0.165 HD
HETATM    6  C9  UNL     1     -27.092   7.808 -24.805  1.00  0.00     0.482 C 
HETATM    7  N8  UNL     1     -28.529   7.547 -24.525  1.00  0.00    -0.033 N 
ATOM      8  H81 UNL     1     -28.826   6.832 -25.189  1.00  0.00     0.278 HD
ATOM      9  H82 UNL     1     -29.106   8.388 -24.552  1.00  0.00     0.278 HD
ATOM     10  H83 UNL     1     -28.714   7.299 -23.553  1.00  0.00     0.278 HD
HETATM   11  N9  UNL     1     -26.438   6.520 -24.630  1.00  0.00    -0.033 N 
ATOM     12  H91 UNL     1     -26.735   5.804 -25.293  1.00  0.00     0.278 HD
ATOM     13  H92 UNL     1     -26.555   6.188 -23.672  1.00  0.00     0.278 HD
ATOM     14  H93 UNL     1     -25.424   6.629 -24.653  1.00  0.00     0.278 HD
HETATM   15  C10 UNL     1     -24.634   9.646 -24.710  1.00  0.00     0.117 A 
HETATM   16  N10 UNL     1     -24.604   8.790 -25.869  1.00  0.00    -0.096 NA
HETATM   17  C11 UNL     1     -23.562  10.500 -24.600  1.00  0.00     0.075 A 
HETATM   18  C14 UNL     1     -23.545  11.358 -23.479  1.00  0.00     0.119 A 
ENDROOT
BRANCH   1  19
HETATM   19  C6  UNL     1     -24.696  12.088 -21.411  1.00  0.00     0.345 C 
BRANCH  19  20
HETATM   20  N5  UNL     1     -24.670  13.498 -21.865  1.00  0.00    -0.326 N 
HETATM   21  C5  UNL     1     -25.780  14.085 -22.504  1.00  0.00     0.251 C 
HETATM   22  O3  UNL     1     -26.843  13.416 -22.710  1.00  0.00    -0.271 OA
ATOM     23  H5  UNL     1     -23.830  14.056 -21.711  1.00  0.00     0.165 HD
BRANCH  21  24
HETATM   24  C4  UNL     1     -25.731  15.497 -22.949  1.00  0.00     0.249 C 
HETATM   25  O2  UNL     1     -26.782  15.859 -23.768  1.00  0.00    -0.345 OA
HETATM   26  C3  UNL     1     -25.919  16.386 -24.711  1.00  0.00     0.277 C 
HETATM   27  C15 UNL     1     -24.722  15.786 -24.027  1.00  0.00     0.206 C 
BRANCH  26  28
HETATM   28  N4  UNL     1     -25.934  17.834 -24.720  1.00  0.00    -0.229 N 
HETATM   29  N3  UNL     1     -25.911  18.661 -23.680  1.00  0.00    -0.016 NA
HETATM   30  N2  UNL     1     -25.939  19.915 -24.093  1.00  0.00    -0.276 N 
HETATM   31  C2  UNL     1     -25.982  19.939 -25.438  1.00  0.00     0.154 A 
ATOM     32  H2  UNL     1     -25.928  20.736 -23.488  1.00  0.00     0.184 HD
HETATM   33  C16 UNL     1     -25.979  18.604 -25.821  1.00  0.00     0.167 A 
HETATM   34  N11 UNL     1     -26.016  18.168 -27.173  1.00  0.00    -0.079 NA
BRANCH  31  35
HETATM   35  C1  UNL     1     -26.023  21.121 -26.294  1.00  0.00     0.285 C 
HETATM   36  N1  UNL     1     -24.875  21.481 -27.027  1.00  0.00    -0.056 NA
HETATM   37  O1  UNL     1     -27.105  21.773 -26.334  1.00  0.00    -0.269 OA
ENDBRANCH  31  35
ENDBRANCH  26  28
BRANCH  27  38
HETATM   38  O8  UNL     1     -23.793  16.754 -23.691  1.00  0.00    -0.388 OA
ATOM     39  H8  UNL     1     -23.529  16.682 -22.782  1.00  0.00     0.210 HD
ENDBRANCH  27  38
ENDBRANCH  21  24
ENDBRANCH  19  20
BRANCH  19  40
HETATM   40  N6  UNL     1     -25.849  11.949 -20.608  1.00  0.00    -0.052 N 
ATOM     41  H63 UNL     1     -25.672  11.469 -19.726  1.00  0.00     0.277 HD
ATOM     42  H62 UNL     1     -26.173  12.830 -20.210  1.00  0.00     0.277 HD
ATOM     43  H61 UNL     1     -26.549  11.484 -21.187  1.00  0.00     0.277 HD
ENDBRANCH  19  40
ENDBRANCH   1  19
BRANCH  18  44
HETATM   44  O7  UNL     1     -22.486  12.191 -23.389  1.00  0.00    -0.357 OA
ATOM     45  H7  UNL     1     -21.592  12.037 -23.673  1.00  0.00     0.218 HD
ENDBRANCH  18  44
BRANCH  17  46
HETATM   46  S1  UNL     1     -22.238  10.563 -25.752  1.00  0.00    -0.052 SA
BRANCH  46  47
HETATM   47  S2  UNL     1     -20.671   9.305 -25.088  1.00  0.00    -0.082 SA
BRANCH  47  48
HETATM   48  C12 UNL     1     -20.045   9.910 -23.531  1.00  0.00     0.199 C 
BRANCH  48  49
HETATM   49  C13 UNL     1     -20.623   9.214 -22.356  1.00  0.00     0.183 C 
HETATM   50  O5  UNL     1     -21.277   9.902 -21.536  1.00  0.00    -0.647 OA
HETATM   51  O6  UNL     1     -20.480   7.865 -22.124  1.00  0.00    -0.647 OA
ENDBRANCH  48  49
ENDBRANCH  47  48
ENDBRANCH  46  47
ENDBRANCH  17  46
TORSDOF 12
ENDMDL
MODEL 3
REMARK VINA RESULT: -9.056635357      2.153      2.677
REMARK  12 active torsions:
REMARK  status: ('A' for Active; 'I' for Inactive)
REMARK    1  A    between atoms: C1_2  and  C2_4 
REMARK    2  A    between atoms: N4_8  and  C3_9 
REMARK    3  A    between atoms: C4_11  and  C5_12 
REMARK       I    between atoms: C5_12  and  N5_14 
REMARK    4  A    between atoms: N5_14  and  C6_16 
REMARK    5  A    between atoms: C6_16  and  N6_17 
REMARK    6  A    between atoms: C6_16  and  C7_21 
REMARK       I    between atoms: N7_24  and  C9_26 
REMARK       I    between atoms: C9_26  and  N8_27 
REMARK       I    between atoms: C9_26  and  N9_31 
REMARK    7  A    between atoms: C11_37  and  S1_38 
REMARK    8  A    between atoms: S1_38  and  S2_39 
REMARK    9  A    between atoms: S2_39  and  C12_40 
REMARK   10  A    between atoms: C12_40  and  C13_41 
REMARK   11  A    between atoms: C14_44  and  O7_45 
REMARK   12  A    between atoms: C15_47  and  O8_48 
ROOT
HETATM    1  C7  UNL     1     -23.757  12.112 -22.089  1.00  0.00     0.139 A 
HETATM    2  O4  UNL     1     -22.824  11.694 -21.243  1.00  0.00    -0.289 OA
HETATM    3  C8  UNL     1     -21.805  10.928 -21.610  1.00  0.00     0.172 A 
HETATM    4  N7  UNL     1     -20.972  10.591 -20.712  1.00  0.00    -0.320 N 
ATOM      5  H7  UNL     1     -21.200  10.965 -19.791  1.00  0.00     0.165 HD
HETATM    6  C9  UNL     1     -19.808   9.814 -20.720  1.00  0.00     0.482 C 
HETATM    7  N8  UNL     1     -19.514   9.486 -19.299  1.00  0.00    -0.033 N 
ATOM      8  H81 UNL     1     -18.665   8.920 -19.305  1.00  0.00     0.278 HD
ATOM      9  H82 UNL     1     -20.294   9.040 -18.817  1.00  0.00     0.278 HD
ATOM     10  H83 UNL     1     -19.448  10.308 -18.700  1.00  0.00     0.278 HD
HETATM   11  N9  UNL     1     -18.624  10.515 -21.194  1.00  0.00    -0.033 N 
ATOM     12  H91 UNL     1     -17.775   9.949 -21.200  1.00  0.00     0.278 HD
ATOM     13  H92 UNL     1     -18.478  11.371 -20.659  1.00  0.00     0.278 HD
ATOM     14  H93 UNL     1     -18.793  10.914 -22.118  1.00  0.00     0.278 HD
HETATM   15  C10 UNL     1     -21.785  10.595 -22.936  1.00  0.00     0.117 A 
HETATM   16  N10 UNL     1     -20.724   9.765 -23.449  1.00  0.00    -0.096 NA
HETATM   17  C11 UNL     1     -22.712  10.985 -23.873  1.00  0.00     0.075 A 
HETATM   18  C14 UNL     1     -23.772  11.800 -23.419  1.00  0.00     0.119 A 
ENDROOT
BRANCH   1  19
HETATM   19  C6  UNL     1     -24.814  12.963 -21.497  1.00  0.00     0.345 C 
BRANCH  19  20
HETATM   20  N5  UNL     1     -25.067  14.065 -22.454  1.00  0.00    -0.326 N 
HETATM   21  C5  UNL     1     -25.993  15.088 -22.168  1.00  0.00     0.251 C 
HETATM   22  O3  UNL     1     -26.640  15.094 -21.073  1.00  0.00    -0.271 OA
ATOM     23  H5  UNL     1     -24.560  14.083 -23.339  1.00  0.00     0.165 HD
BRANCH  21  24
HETATM   24  C4  UNL     1     -26.230  16.180 -23.141  1.00  0.00     0.249 C 
HETATM   25  O2  UNL     1     -25.086  16.612 -23.781  1.00  0.00    -0.345 OA
HETATM   26  C3  UNL     1     -25.365  17.932 -23.473  1.00  0.00     0.277 C 
HETATM   27  C15 UNL     1     -26.465  17.533 -22.528  1.00  0.00     0.206 C 
BRANCH  26  28
HETATM   28  N4  UNL     1     -25.816  18.681 -24.627  1.00  0.00    -0.229 N 
HETATM   29  N3  UNL     1     -26.368  18.214 -25.743  1.00  0.00    -0.016 NA
HETATM   30  N2  UNL     1     -26.642  19.209 -26.566  1.00  0.00    -0.276 N 
HETATM   31  C2  UNL     1     -26.268  20.372 -26.000  1.00  0.00     0.154 A 
ATOM     32  H2  UNL     1     -27.071  19.113 -27.487  1.00  0.00     0.184 HD
HETATM   33  C16 UNL     1     -25.743  20.016 -24.765  1.00  0.00     0.167 A 
HETATM   34  N11 UNL     1     -25.224  20.949 -23.827  1.00  0.00    -0.079 NA
BRANCH  31  35
HETATM   35  C1  UNL     1     -26.394  21.708 -26.574  1.00  0.00     0.285 C 
HETATM   36  N1  UNL     1     -25.464  22.132 -27.543  1.00  0.00    -0.056 NA
HETATM   37  O1  UNL     1     -27.346  22.430 -26.163  1.00  0.00    -0.269 OA
ENDBRANCH  31  35
ENDBRANCH  26  28
BRANCH  27  38
HETATM   38  O8  UNL     1     -27.670  18.115 -22.880  1.00  0.00    -0.388 OA
ATOM     39  H8  UNL     1     -28.386  17.774 -22.358  1.00  0.00     0.210 HD
ENDBRANCH  27  38
ENDBRANCH  21  24
ENDBRANCH  19  20
BRANCH  19  40
HETATM   40  N6  UNL     1     -26.065  12.362 -21.241  1.00  0.00    -0.052 N 
ATOM     41  H63 UNL     1     -26.697  12.385 -22.041  1.00  0.00     0.277 HD
ATOM     42  H62 UNL     1     -26.015  11.347 -21.149  1.00  0.00     0.277 HD
ATOM     43  H61 UNL     1     -26.443  12.824 -20.414  1.00  0.00     0.277 HD
ENDBRANCH  19  40
ENDBRANCH   1  19
BRANCH  18  44
HETATM   44  O7  UNL     1     -24.673  12.171 -24.353  1.00  0.00    -0.357 OA
ATOM     45  H7  UNL     1     -24.899  13.050 -24.636  1.00  0.00     0.218 HD
ENDBRANCH  18  44
BRANCH  17  46
HETATM   46  S1  UNL     1     -22.636  10.539 -25.570  1.00  0.00    -0.052 SA
BRANCH  46  47
HETATM   47  S2  UNL     1     -24.400   9.499 -26.101  1.00  0.00    -0.082 SA
BRANCH  47  48
HETATM   48  C12 UNL     1     -25.174   8.852 -24.629  1.00  0.00     0.199 C 
BRANCH  48  49
HETATM   49  C13 UNL     1     -26.139   7.761 -24.904  1.00  0.00     0.183 C 
HETATM   50  O5  UNL     1     -26.210   7.331 -26.081  1.00  0.00    -0.647 OA
HETATM   51  O6  UNL     1     -26.951   7.204 -23.944  1.00  0.00    -0.647 OA
ENDBRANCH  48  49
ENDBRANCH  47  48
ENDBRANCH  46  47
ENDBRANCH  17  46
TORSDOF 12
ENDMDL
MODEL 4
REMARK VINA RESULT: -9.005816390      2.554      4.615
REMARK  12 active torsions:
REMARK  status: ('A' for Active; 'I' for Inactive)
REMARK    1  A    between atoms: C1_2  and  C2_4 
REMARK    2  A    between atoms: N4_8  and  C3_9 
REMARK    3  A    between atoms: C4_11  and  C5_12 
REMARK       I    between atoms: C5_12  and  N5_14 
REMARK    4  A    between atoms: N5_14  and  C6_16 
REMARK    5  A    between atoms: C6_16  and  N6_17 
REMARK    6  A    between atoms: C6_16  and  C7_21 
REMARK       I    between atoms: N7_24  and  C9_26 
REMARK       I    between atoms: C9_26  and  N8_27 
REMARK       I    between atoms: C9_26  and  N9_31 
REMARK    7  A    between atoms: C11_37  and  S1_38 
REMARK    8  A    between atoms: S1_38  and  S2_39 
REMARK    9  A    between atoms: S2_39  and  C12_40 
REMARK   10  A    between atoms: C12_40  and  C13_41 
REMARK   11  A    between atoms: C14_44  and  O7_45 
REMARK   12  A    between atoms: C15_47  and  O8_48 
ROOT
HETATM    1  C7  UNL     1     -24.624  11.216 -22.706  1.00  0.00     0.139 A 
HETATM    2  O4  UNL     1     -25.624  10.356 -22.848  1.00  0.00    -0.289 OA
HETATM    3  C8  UNL     1     -25.722   9.523 -23.877  1.00  0.00     0.172 A 
HETATM    4  N7  UNL     1     -26.725   8.744 -23.905  1.00  0.00    -0.320 N 
ATOM      5  H7  UNL     1     -27.348   8.860 -23.106  1.00  0.00     0.165 HD
HETATM    6  C9  UNL     1     -27.155   7.758 -24.801  1.00  0.00     0.482 C 
HETATM    7  N8  UNL     1     -28.580   7.486 -24.473  1.00  0.00    -0.033 N 
ATOM      8  H81 UNL     1     -28.893   6.767 -25.126  1.00  0.00     0.278 HD
ATOM      9  H82 UNL     1     -29.164   8.322 -24.481  1.00  0.00     0.278 HD
ATOM     10  H83 UNL     1     -28.729   7.236 -23.495  1.00  0.00     0.278 HD
HETATM   11  N9  UNL     1     -26.485   6.476 -24.648  1.00  0.00    -0.033 N 
ATOM     12  H91 UNL     1     -26.797   5.758 -25.301  1.00  0.00     0.278 HD
ATOM     13  H92 UNL     1     -26.566   6.144 -23.687  1.00  0.00     0.278 HD
ATOM     14  H93 UNL     1     -25.473   6.594 -24.705  1.00  0.00     0.278 HD
HETATM   15  C10 UNL     1     -24.710   9.617 -24.790  1.00  0.00     0.117 A 
HETATM   16  N10 UNL     1     -24.713   8.760 -25.950  1.00  0.00    -0.096 NA
HETATM   17  C11 UNL     1     -23.642  10.480 -24.717  1.00  0.00     0.075 A 
HETATM   18  C14 UNL     1     -23.595  11.339 -23.597  1.00  0.00     0.119 A 
ENDROOT
BRANCH   1  19
HETATM   19  C6  UNL     1     -24.681  12.060 -21.492  1.00  0.00     0.345 C 
BRANCH  19  20
HETATM   20  N5  UNL     1     -24.650  13.470 -21.944  1.00  0.00    -0.326 N 
HETATM   21  C5  UNL     1     -25.780  14.079 -22.527  1.00  0.00     0.251 C 
HETATM   22  O3  UNL     1     -26.863  13.432 -22.680  1.00  0.00    -0.271 OA
ATOM     23  H5  UNL     1     -23.793  14.011 -21.833  1.00  0.00     0.165 HD
BRANCH  21  24
HETATM   24  C4  UNL     1     -25.725  15.491 -22.973  1.00  0.00     0.249 C 
HETATM   25  O2  UNL     1     -26.765  15.851 -23.806  1.00  0.00    -0.345 OA
HETATM   26  C3  UNL     1     -25.889  16.378 -24.738  1.00  0.00     0.277 C 
HETATM   27  C15 UNL     1     -24.701  15.780 -24.037  1.00  0.00     0.206 C 
BRANCH  26  28
HETATM   28  N4  UNL     1     -25.905  17.826 -24.749  1.00  0.00    -0.229 N 
HETATM   29  N3  UNL     1     -25.883  18.655 -23.709  1.00  0.00    -0.016 NA
HETATM   30  N2  UNL     1     -25.911  19.908 -24.124  1.00  0.00    -0.276 N 
HETATM   31  C2  UNL     1     -25.955  19.930 -25.469  1.00  0.00     0.154 A 
ATOM     32  H2  UNL     1     -25.901  20.729 -23.520  1.00  0.00     0.184 HD
HETATM   33  C16 UNL     1     -25.951  18.595 -25.850  1.00  0.00     0.167 A 
HETATM   34  N11 UNL     1     -25.988  18.158 -27.202  1.00  0.00    -0.079 NA
BRANCH  31  35
HETATM   35  C1  UNL     1     -25.997  21.111 -26.326  1.00  0.00     0.285 C 
HETATM   36  N1  UNL     1     -24.849  21.473 -27.058  1.00  0.00    -0.056 NA
HETATM   37  O1  UNL     1     -27.080  21.762 -26.368  1.00  0.00    -0.269 OA
ENDBRANCH  31  35
ENDBRANCH  26  28
BRANCH  27  38
HETATM   38  O8  UNL     1     -23.778  16.749 -23.689  1.00  0.00    -0.388 OA
ATOM     39  H8  UNL     1     -23.219  16.976 -24.422  1.00  0.00     0.210 HD
ENDBRANCH  27  38
ENDBRANCH  21  24
ENDBRANCH  19  20
BRANCH  19  40
HETATM   40  N6  UNL     1     -25.818  11.932 -20.664  1.00  0.00    -0.052 N 
ATOM     41  H63 UNL     1     -25.644  12.193 -19.694  1.00  0.00     0.277 HD
ATOM     42  H62 UNL     1     -26.538  12.628 -20.856  1.00  0.00     0.277 HD
ATOM     43  H61 UNL     1     -26.145  10.971 -20.771  1.00  0.00     0.277 HD
ENDBRANCH  19  40
ENDBRANCH   1  19
BRANCH  18  44
HETATM   44  O7  UNL     1     -22.541  12.180 -23.543  1.00  0.00    -0.357 OA
ATOM     45  H7  UNL     1     -22.125  12.648 -24.259  1.00  0.00     0.218 HD
ENDBRANCH  18  44
BRANCH  17  46
HETATM   46  S1  UNL     1     -22.359  10.553 -25.913  1.00  0.00    -0.052 SA
BRANCH  46  47
HETATM   47  S2  UNL     1     -20.660   9.525 -25.182  1.00  0.00    -0.082 SA
BRANCH  47  48
HETATM   48  C12 UNL     1     -19.773   8.799 -26.550  1.00  0.00     0.199 C 
BRANCH  48  49
HETATM   49  C13 UNL     1     -20.512   8.870 -27.833  1.00  0.00     0.183 C 
HETATM   50  O5  UNL     1     -21.282   7.920 -28.114  1.00  0.00    -0.647 OA
HETATM   51  O6  UNL     1     -20.398   9.915 -28.720  1.00  0.00    -0.647 OA
ENDBRANCH  48  49
ENDBRANCH  47  48
ENDBRANCH  46  47
ENDBRANCH  17  46
TORSDOF 12
ENDMDL
MODEL 5
REMARK VINA RESULT: -8.906683004      2.382      3.324
REMARK  12 active torsions:
REMARK  status: ('A' for Active; 'I' for Inactive)
REMARK    1  A    between atoms: C1_2  and  C2_4 
REMARK    2  A    between atoms: N4_8  and  C3_9 
REMARK    3  A    between atoms: C4_11  and  C5_12 
REMARK       I    between atoms: C5_12  and  N5_14 
REMARK    4  A    between atoms: N5_14  and  C6_16 
REMARK    5  A    between atoms: C6_16  and  N6_17 
REMARK    6  A    between atoms: C6_16  and  C7_21 
REMARK       I    between atoms: N7_24  and  C9_26 
REMARK       I    between atoms: C9_26  and  N8_27 
REMARK       I    between atoms: C9_26  and  N9_31 
REMARK    7  A    between atoms: C11_37  and  S1_38 
REMARK    8  A    between atoms: S1_38  and  S2_39 
REMARK    9  A    between atoms: S2_39  and  C12_40 
REMARK   10  A    between atoms: C12_40  and  C13_41 
REMARK   11  A    between atoms: C14_44  and  O7_45 
REMARK   12  A    between atoms: C15_47  and  O8_48 
ROOT
HETATM    1  C7  UNL     1     -22.487  12.049 -21.123  1.00  0.00     0.139 A 
HETATM    2  O4  UNL     1     -22.379  12.890 -20.103  1.00  0.00    -0.289 OA
HETATM    3  C8  UNL     1     -21.213  13.319 -19.638  1.00  0.00     0.172 A 
HETATM    4  N7  UNL     1     -21.235  14.125 -18.656  1.00  0.00    -0.320 N 
ATOM      5  H7  UNL     1     -22.178  14.349 -18.339  1.00  0.00     0.165 HD
HETATM    6  C9  UNL     1     -20.237  14.771 -17.917  1.00  0.00     0.482 C 
HETATM    7  N8  UNL     1     -20.888  15.265 -16.675  1.00  0.00    -0.033 N 
ATOM      8  H81 UNL     1     -20.161  15.736 -16.137  1.00  0.00     0.278 HD
ATOM      9  H82 UNL     1     -21.369  14.533 -16.151  1.00  0.00     0.278 HD
ATOM     10  H83 UNL     1     -21.704  15.851 -16.852  1.00  0.00     0.278 HD
HETATM   11  N9  UNL     1     -19.697  15.963 -18.555  1.00  0.00    -0.033 N 
ATOM     12  H91 UNL     1     -18.970  16.434 -18.017  1.00  0.00     0.278 HD
ATOM     13  H92 UNL     1     -20.447  16.614 -18.786  1.00  0.00     0.278 HD
ATOM     14  H93 UNL     1     -19.361  15.744 -19.493  1.00  0.00     0.278 HD
HETATM   15  C10 UNL     1     -20.118  12.825 -20.290  1.00  0.00     0.117 A 
HETATM   16  N10 UNL     1     -18.797  13.222 -19.871  1.00  0.00    -0.096 NA
HETATM   17  C11 UNL     1     -20.145  11.951 -21.351  1.00  0.00     0.075 A 
HETATM   18  C14 UNL     1     -21.417  11.534 -21.800  1.00  0.00     0.119 A 
ENDROOT
BRANCH   1  19
HETATM   19  C6  UNL     1     -23.871  11.687 -21.503  1.00  0.00     0.345 C 
BRANCH  19  20
HETATM   20  N5  UNL     1     -24.325  12.697 -22.487  1.00  0.00    -0.326 N 
HETATM   21  C5  UNL     1     -25.146  13.777 -22.105  1.00  0.00     0.251 C 
HETATM   22  O3  UNL     1     -25.521  13.915 -20.898  1.00  0.00    -0.271 OA
ATOM     23  H5  UNL     1     -24.038  12.609 -23.462  1.00  0.00     0.165 HD
BRANCH  21  24
HETATM   24  C4  UNL     1     -25.590  14.775 -23.107  1.00  0.00     0.249 C 
HETATM   25  O2  UNL     1     -24.608  15.676 -23.465  1.00  0.00    -0.345 OA
HETATM   26  C3  UNL     1     -25.450  16.748 -23.230  1.00  0.00     0.277 C 
HETATM   27  C15 UNL     1     -26.471  15.867 -22.565  1.00  0.00     0.206 C 
BRANCH  26  28
HETATM   28  N4  UNL     1     -25.908  17.365 -24.457  1.00  0.00    -0.229 N 
HETATM   29  N3  UNL     1     -26.343  16.769 -25.563  1.00  0.00    -0.016 NA
HETATM   30  N2  UNL     1     -26.670  17.671 -26.470  1.00  0.00    -0.276 N 
HETATM   31  C2  UNL     1     -26.451  18.902 -25.971  1.00  0.00     0.154 A 
ATOM     32  H2  UNL     1     -27.031  17.467 -27.401  1.00  0.00     0.184 HD
HETATM   33  C16 UNL     1     -25.966  18.688 -24.688  1.00  0.00     0.167 A 
HETATM   34  N11 UNL     1     -25.602  19.732 -23.795  1.00  0.00    -0.079 NA
BRANCH  31  35
HETATM   35  C1  UNL     1     -26.681  20.176 -26.646  1.00  0.00     0.285 C 
HETATM   36  N1  UNL     1     -25.816  20.572 -27.685  1.00  0.00    -0.056 NA
HETATM   37  O1  UNL     1     -27.661  20.872 -26.256  1.00  0.00    -0.269 OA
ENDBRANCH  31  35
ENDBRANCH  26  28
BRANCH  27  38
HETATM   38  O8  UNL     1     -27.704  15.963 -23.185  1.00  0.00    -0.388 OA
ATOM     39  H8  UNL     1     -28.242  15.201 -23.008  1.00  0.00     0.210 HD
ENDBRANCH  27  38
ENDBRANCH  21  24
ENDBRANCH  19  20
BRANCH  19  40
HETATM   40  N6  UNL     1     -24.071  10.426 -22.105  1.00  0.00    -0.052 N 
ATOM     41  H63 UNL     1     -24.804  10.427 -22.813  1.00  0.00     0.277 HD
ATOM     42  H62 UNL     1     -23.305  10.144 -22.717  1.00  0.00     0.277 HD
ATOM     43  H61 UNL     1     -24.244   9.768 -21.345  1.00  0.00     0.277 HD
ENDBRANCH  19  40
ENDBRANCH   1  19
BRANCH  18  44
HETATM   44  O7  UNL     1     -21.423  10.675 -22.840  1.00  0.00    -0.357 OA
ATOM     45  H7  UNL     1     -21.674  10.844 -23.741  1.00  0.00     0.218 HD
ENDBRANCH  18  44
BRANCH  17  46
HETATM   46  S1  UNL     1     -18.707  11.355 -22.164  1.00  0.00    -0.052 SA
BRANCH  46  47
HETATM   47  S2  UNL     1     -18.040   9.592 -21.204  1.00  0.00    -0.082 SA
BRANCH  47  48
HETATM   48  C12 UNL     1     -19.299   9.017 -20.077  1.00  0.00     0.199 C 
BRANCH  48  49
HETATM   49  C13 UNL     1     -18.975   9.276 -18.653  1.00  0.00     0.183 C 
HETATM   50  O5  UNL     1     -19.507  10.272 -18.108  1.00  0.00    -0.647 OA
HETATM   51  O6  UNL     1     -18.129   8.485 -17.910  1.00  0.00    -0.647 OA
ENDBRANCH  48  49
ENDBRANCH  47  48
ENDBRANCH  46  47
ENDBRANCH  17  46
TORSDOF 12
ENDMDL
