MODEL 1
REMARK VINA RESULT: -7.295437806      0.000      0.000
REMARK  17 active torsions:
REMARK  status: ('A' for Active; 'I' for Inactive)
REMARK    1  A    between atoms: C2_2  and  O1_3 
REMARK    2  A    between atoms: C2_2  and  C3_5 
REMARK    3  A    between atoms: C3_5  and  O2_6 
REMARK    4  A    between atoms: C3_5  and  C4_8 
REMARK    5  A    between atoms: C4_8  and  O3_9 
REMARK    6  A    between atoms: C4_8  and  C5_11 
REMARK    7  A    between atoms: C6_13  and  O5_14 
REMARK    8  A    between atoms: C8_18  and  N2_19 
REMARK    9  A    between atoms: N2_19  and  C9_21 
REMARK   10  A    between atoms: C9_21  and  C10_22 
REMARK   11  A    between atoms: C10_22  and  N3_23 
REMARK       I    between atoms: N3_23  and  C11_25 
REMARK   12  A    between atoms: C11_25  and  C12_27 
REMARK   13  A    between atoms: C14_29  and  O7_30 
REMARK   14  A    between atoms: C15_32  and  O8_33 
REMARK   15  A    between atoms: C17_38  and  O11_39 
REMARK   16  A    between atoms: C18_41  and  N4_42 
REMARK   17  A    between atoms: C19_46  and  O12_47 
ROOT
HETATM    1  C5  UNL     1       0.806 -17.738   9.757  1.00  0.00     0.299 C 
HETATM    2  O4  UNL     1       0.164 -17.411  10.943  1.00  0.00    -0.308 OA
HETATM    3  C6  UNL     1      -1.118 -16.897  10.756  1.00  0.00     0.283 C 
HETATM    4  C7  UNL     1      -2.002 -17.696  11.604  1.00  0.00     0.131 C 
HETATM    5  N1  UNL     1      -2.689 -18.347  12.289  1.00  0.00    -0.191 NA
HETATM    6  C8  UNL     1      -1.542 -16.859   9.329  1.00  0.00     0.221 C 
HETATM    7  C16 UNL     1      -1.017 -17.984   8.504  1.00  0.00     0.224 C 
HETATM    8  O10 UNL     1      -0.482 -17.532   7.296  1.00  0.00    -0.318 OA
HETATM    9  C17 UNL     1      -0.422 -18.572   6.408  1.00  0.00     0.293 C 
HETATM   10  C18 UNL     1      -1.151 -19.745   7.005  1.00  0.00     0.272 C 
HETATM   11  C19 UNL     1      -2.013 -18.998   8.045  1.00  0.00     0.218 C 
HETATM   12  O13 UNL     1       0.017 -18.704   9.136  1.00  0.00    -0.317 OA
ENDROOT
BRANCH   3  13
HETATM   13  O5  UNL     1      -1.061 -15.613  11.358  1.00  0.00    -0.352 OA
ATOM     14  H5  UNL     1      -0.323 -15.194  10.933  1.00  0.00     0.214 HD
ENDBRANCH   3  13
BRANCH   6  15
HETATM   15  N2  UNL     1      -2.935 -16.625   9.203  1.00  0.00    -0.406 N 
ATOM     16  H2  UNL     1      -3.612 -17.384   9.281  1.00  0.00     0.154 HD
BRANCH  15  17
HETATM   17  C9  UNL     1      -3.349 -15.281   8.961  1.00  0.00     0.134 C 
BRANCH  17  18
HETATM   18  C10 UNL     1      -4.322 -15.194   7.775  1.00  0.00     0.142 C 
BRANCH  18  19
HETATM   19  N3  UNL     1      -3.680 -15.498   6.535  1.00  0.00    -0.354 N 
HETATM   20  C11 UNL     1      -4.166 -14.987   5.298  1.00  0.00     0.275 C 
HETATM   21  O6  UNL     1      -5.190 -14.250   5.312  1.00  0.00    -0.265 OA
ATOM     22  H3  UNL     1      -2.853 -16.094   6.535  1.00  0.00     0.162 HD
BRANCH  20  23
HETATM   23  C12 UNL     1      -3.515 -15.293   4.039  1.00  0.00     0.148 A 
HETATM   24  C13 UNL     1      -2.176 -15.514   3.842  1.00  0.00     0.084 A 
HETATM   25  C14 UNL     1      -2.006 -15.767   2.500  1.00  0.00     0.127 A 
HETATM   26  C15 UNL     1      -3.266 -15.691   1.924  1.00  0.00     0.218 A 
HETATM   27  O9  UNL     1      -4.102 -15.411   2.878  1.00  0.00    -0.280 OA
BRANCH  25  28
HETATM   28  O7  UNL     1      -0.801 -16.043   1.868  1.00  0.00    -0.356 OA
ATOM     29  H7  UNL     1      -0.697 -16.382   0.987  1.00  0.00     0.218 HD
ENDBRANCH  25  28
BRANCH  26  30
HETATM   30  O8  UNL     1      -3.489 -15.892   0.558  1.00  0.00    -0.339 OA
ATOM     31  H8  UNL     1      -4.323 -15.712   0.140  1.00  0.00     0.220 HD
ENDBRANCH  26  30
ENDBRANCH  20  23
ENDBRANCH  18  19
ENDBRANCH  17  18
ENDBRANCH  15  17
ENDBRANCH   6  15
BRANCH   1  32
HETATM   32  C4  UNL     1       2.189 -18.190  10.103  1.00  0.00     0.204 C 
BRANCH  32  33
HETATM   33  C3  UNL     1       3.173 -18.020   8.999  1.00  0.00     0.180 C 
BRANCH  33  34
HETATM   34  C2  UNL     1       4.125 -19.174   8.854  1.00  0.00     0.145 C 
HETATM   35  C1  UNL     1       3.660 -20.415   9.538  1.00  0.00     0.042 C 
BRANCH  34  36
HETATM   36  O1  UNL     1       5.409 -18.830   9.277  1.00  0.00    -0.393 OA
ATOM     37  H1  UNL     1       5.463 -17.900   9.465  1.00  0.00     0.210 HD
ENDBRANCH  34  36
ENDBRANCH  33  34
BRANCH  33  38
HETATM   38  O2  UNL     1       2.576 -17.707   7.794  1.00  0.00    -0.390 OA
ATOM     39  H2  UNL     1       1.699 -18.071   7.738  1.00  0.00     0.210 HD
ENDBRANCH  33  38
ENDBRANCH  32  33
BRANCH  32  40
HETATM   40  O3  UNL     1       2.589 -17.360  11.180  1.00  0.00    -0.388 OA
ATOM     41  H3  UNL     1       1.811 -16.958  11.547  1.00  0.00     0.210 HD
ENDBRANCH  32  40
ENDBRANCH   1  32
BRANCH  11  42
HETATM   42  O12 UNL     1      -3.064 -18.496   7.303  1.00  0.00    -0.388 OA
ATOM     43  H12 UNL     1      -2.863 -17.727   6.785  1.00  0.00     0.210 HD
ENDBRANCH  11  42
BRANCH   9  44
HETATM   44  O11 UNL     1      -1.033 -18.153   5.213  1.00  0.00    -0.369 OA
ATOM     45  H11 UNL     1      -0.535 -18.515   4.489  1.00  0.00     0.212 HD
ENDBRANCH   9  44
BRANCH  10  46
HETATM   46  N4  UNL     1      -2.018 -20.314   6.016  1.00  0.00    -0.068 N 
ATOM     47  H43 UNL     1      -2.165 -19.688   5.224  1.00  0.00     0.275 HD
ATOM     48  H42 UNL     1      -1.578 -21.084   5.511  1.00  0.00     0.275 HD
ATOM     49  H41 UNL     1      -2.894 -20.593   6.459  1.00  0.00     0.275 HD
ENDBRANCH  10  46
TORSDOF 17
ENDMDL
MODEL 2
REMARK VINA RESULT: -6.875671296      1.967      7.706
REMARK  17 active torsions:
REMARK  status: ('A' for Active; 'I' for Inactive)
REMARK    1  A    between atoms: C2_2  and  O1_3 
REMARK    2  A    between atoms: C2_2  and  C3_5 
REMARK    3  A    between atoms: C3_5  and  O2_6 
REMARK    4  A    between atoms: C3_5  and  C4_8 
REMARK    5  A    between atoms: C4_8  and  O3_9 
REMARK    6  A    between atoms: C4_8  and  C5_11 
REMARK    7  A    between atoms: C6_13  and  O5_14 
REMARK    8  A    between atoms: C8_18  and  N2_19 
REMARK    9  A    between atoms: N2_19  and  C9_21 
REMARK   10  A    between atoms: C9_21  and  C10_22 
REMARK   11  A    between atoms: C10_22  and  N3_23 
REMARK       I    between atoms: N3_23  and  C11_25 
REMARK   12  A    between atoms: C11_25  and  C12_27 
REMARK   13  A    between atoms: C14_29  and  O7_30 
REMARK   14  A    between atoms: C15_32  and  O8_33 
REMARK   15  A    between atoms: C17_38  and  O11_39 
REMARK   16  A    between atoms: C18_41  and  N4_42 
REMARK   17  A    between atoms: C19_46  and  O12_47 
ROOT
HETATM    1  C5  UNL     1      -2.210 -16.129   5.179  1.00  0.00     0.299 C 
HETATM    2  O4  UNL     1      -2.145 -17.464   4.803  1.00  0.00    -0.308 OA
HETATM    3  C6  UNL     1      -2.335 -18.349   5.862  1.00  0.00     0.283 C 
HETATM    4  C7  UNL     1      -3.395 -19.265   5.440  1.00  0.00     0.131 C 
HETATM    5  N1  UNL     1      -4.242 -19.985   5.081  1.00  0.00    -0.191 NA
HETATM    6  C8  UNL     1      -2.621 -17.673   7.158  1.00  0.00     0.221 C 
HETATM    7  C16 UNL     1      -3.409 -16.413   7.033  1.00  0.00     0.224 C 
HETATM    8  O10 UNL     1      -2.850 -15.378   7.784  1.00  0.00    -0.318 OA
HETATM    9  C17 UNL     1      -3.796 -14.412   8.000  1.00  0.00     0.293 C 
HETATM   10  C18 UNL     1      -5.124 -14.938   7.528  1.00  0.00     0.272 C 
HETATM   11  C19 UNL     1      -4.812 -16.450   7.545  1.00  0.00     0.218 C 
HETATM   12  O13 UNL     1      -3.483 -15.933   5.710  1.00  0.00    -0.317 OA
ENDROOT
BRANCH   3  13
HETATM   13  O5  UNL     1      -1.144 -19.118   5.882  1.00  0.00    -0.352 OA
ATOM     14  H5  UNL     1      -1.427 -19.985   5.617  1.00  0.00     0.214 HD
ENDBRANCH   3  13
BRANCH   6  15
HETATM   15  N2  UNL     1      -3.104 -18.586   8.131  1.00  0.00    -0.406 N 
ATOM     16  H2  UNL     1      -4.042 -18.981   8.070  1.00  0.00     0.154 HD
BRANCH  15  17
HETATM   17  C9  UNL     1      -2.220 -18.928   9.197  1.00  0.00     0.134 C 
BRANCH  17  18
HETATM   18  C10 UNL     1      -1.151 -17.846   9.414  1.00  0.00     0.142 C 
BRANCH  18  19
HETATM   19  N3  UNL     1       0.146 -18.412   9.622  1.00  0.00    -0.354 N 
HETATM   20  C11 UNL     1       1.146 -18.378   8.610  1.00  0.00     0.275 C 
HETATM   21  O6  UNL     1       0.869 -17.831   7.508  1.00  0.00    -0.265 OA
ATOM     22  H3  UNL     1       0.359 -18.852  10.517  1.00  0.00     0.162 HD
BRANCH  20  23
HETATM   23  C12 UNL     1       2.462 -18.951   8.819  1.00  0.00     0.148 A 
HETATM   24  C13 UNL     1       2.747 -20.261   9.104  1.00  0.00     0.084 A 
HETATM   25  C14 UNL     1       4.116 -20.356   9.220  1.00  0.00     0.127 A 
HETATM   26  C15 UNL     1       4.617 -19.081   8.997  1.00  0.00     0.218 A 
HETATM   27  O9  UNL     1       3.598 -18.309   8.769  1.00  0.00    -0.280 OA
BRANCH  25  28
HETATM   28  O7  UNL     1       4.833 -21.510   9.505  1.00  0.00    -0.356 OA
ATOM     29  H7  UNL     1       5.493 -21.605  10.181  1.00  0.00     0.218 HD
ENDBRANCH  25  28
BRANCH  26  30
HETATM   30  O8  UNL     1       5.983 -18.786   9.035  1.00  0.00    -0.339 OA
ATOM     31  H8  UNL     1       6.377 -18.100   8.509  1.00  0.00     0.220 HD
ENDBRANCH  26  30
ENDBRANCH  20  23
ENDBRANCH  18  19
ENDBRANCH  17  18
ENDBRANCH  15  17
ENDBRANCH   6  15
BRANCH   1  32
HETATM   32  C4  UNL     1      -1.904 -15.304   3.970  1.00  0.00     0.204 C 
BRANCH  32  33
HETATM   33  C3  UNL     1      -2.236 -15.974   2.683  1.00  0.00     0.180 C 
BRANCH  33  34
HETATM   34  C2  UNL     1      -3.375 -15.331   1.942  1.00  0.00     0.145 C 
HETATM   35  C1  UNL     1      -3.984 -16.216   0.907  1.00  0.00     0.042 C 
BRANCH  34  36
HETATM   36  O1  UNL     1      -2.995 -14.110   1.385  1.00  0.00    -0.393 OA
ATOM     37  H1  UNL     1      -3.463 -13.393   1.797  1.00  0.00     0.210 HD
ENDBRANCH  34  36
ENDBRANCH  33  34
BRANCH  33  38
HETATM   38  O2  UNL     1      -1.135 -16.138   1.866  1.00  0.00    -0.390 OA
ATOM     39  H2  UNL     1      -0.612 -16.884   2.137  1.00  0.00     0.210 HD
ENDBRANCH  33  38
ENDBRANCH  32  33
BRANCH  32  40
HETATM   40  O3  UNL     1      -2.723 -14.155   4.092  1.00  0.00    -0.388 OA
ATOM     41  H3  UNL     1      -2.759 -13.914   5.010  1.00  0.00     0.210 HD
ENDBRANCH  32  40
ENDBRANCH   1  32
BRANCH  11  42
HETATM   42  O12 UNL     1      -4.944 -16.800   8.874  1.00  0.00    -0.388 OA
ATOM     43  H12 UNL     1      -5.837 -16.844   9.194  1.00  0.00     0.210 HD
ENDBRANCH  11  42
BRANCH   9  44
HETATM   44  O11 UNL     1      -3.821 -14.136   9.378  1.00  0.00    -0.369 OA
ATOM     45  H11 UNL     1      -3.166 -13.471   9.554  1.00  0.00     0.212 HD
ENDBRANCH   9  44
BRANCH  10  46
HETATM   46  N4  UNL     1      -6.118 -14.666   8.524  1.00  0.00    -0.068 N 
ATOM     47  H43 UNL     1      -5.787 -14.868   9.468  1.00  0.00     0.275 HD
ATOM     48  H42 UNL     1      -6.286 -13.667   8.641  1.00  0.00     0.275 HD
ATOM     49  H41 UNL     1      -6.971 -15.177   8.295  1.00  0.00     0.275 HD
ENDBRANCH  10  46
TORSDOF 17
ENDMDL
MODEL 3
REMARK VINA RESULT: -6.644138515      2.468      8.563
REMARK  17 active torsions:
REMARK  status: ('A' for Active; 'I' for Inactive)
REMARK    1  A    between atoms: C2_2  and  O1_3 
REMARK    2  A    between atoms: C2_2  and  C3_5 
REMARK    3  A    between atoms: C3_5  and  O2_6 
REMARK    4  A    between atoms: C3_5  and  C4_8 
REMARK    5  A    between atoms: C4_8  and  O3_9 
REMARK    6  A    between atoms: C4_8  and  C5_11 
REMARK    7  A    between atoms: C6_13  and  O5_14 
REMARK    8  A    between atoms: C8_18  and  N2_19 
REMARK    9  A    between atoms: N2_19  and  C9_21 
REMARK   10  A    between atoms: C9_21  and  C10_22 
REMARK   11  A    between atoms: C10_22  and  N3_23 
REMARK       I    between atoms: N3_23  and  C11_25 
REMARK   12  A    between atoms: C11_25  and  C12_27 
REMARK   13  A    between atoms: C14_29  and  O7_30 
REMARK   14  A    between atoms: C15_32  and  O8_33 
REMARK   15  A    between atoms: C17_38  and  O11_39 
REMARK   16  A    between atoms: C18_41  and  N4_42 
REMARK   17  A    between atoms: C19_46  and  O12_47 
ROOT
HETATM    1  C5  UNL     1      -5.143 -16.351   3.825  1.00  0.00     0.299 C 
HETATM    2  O4  UNL     1      -4.136 -15.558   3.293  1.00  0.00    -0.308 OA
HETATM    3  C6  UNL     1      -2.938 -15.632   4.000  1.00  0.00     0.283 C 
HETATM    4  C7  UNL     1      -1.905 -15.951   3.014  1.00  0.00     0.131 C 
HETATM    5  N1  UNL     1      -1.097 -16.205   2.209  1.00  0.00    -0.191 NA
HETATM    6  C8  UNL     1      -2.979 -16.587   5.142  1.00  0.00     0.221 C 
HETATM    7  C16 UNL     1      -3.832 -17.788   4.907  1.00  0.00     0.224 C 
HETATM    8  O10 UNL     1      -4.676 -18.042   5.989  1.00  0.00    -0.318 OA
HETATM    9  C17 UNL     1      -5.100 -19.342   5.939  1.00  0.00     0.293 C 
HETATM   10  C18 UNL     1      -4.325 -20.050   4.862  1.00  0.00     0.272 C 
HETATM   11  C19 UNL     1      -3.119 -19.092   4.753  1.00  0.00     0.218 C 
HETATM   12  O13 UNL     1      -4.674 -17.662   3.784  1.00  0.00    -0.317 OA
ENDROOT
BRANCH   3  13
HETATM   13  O5  UNL     1      -2.693 -14.293   4.397  1.00  0.00    -0.352 OA
ATOM     14  H5  UNL     1      -2.981 -14.267   5.302  1.00  0.00     0.214 HD
ENDBRANCH   3  13
BRANCH   6  15
HETATM   15  N2  UNL     1      -1.681 -16.864   5.641  1.00  0.00    -0.406 N 
ATOM     16  H2  UNL     1      -1.027 -17.454   5.126  1.00  0.00     0.154 HD
BRANCH  15  17
HETATM   17  C9  UNL     1      -1.329 -16.281   6.895  1.00  0.00     0.134 C 
BRANCH  17  18
HETATM   18  C10 UNL     1      -1.409 -17.306   8.037  1.00  0.00     0.142 C 
BRANCH  18  19
HETATM   19  N3  UNL     1      -0.112 -17.682   8.506  1.00  0.00    -0.354 N 
HETATM   20  C11 UNL     1       0.676 -18.652   7.824  1.00  0.00     0.275 C 
HETATM   21  O6  UNL     1       0.206 -19.184   6.782  1.00  0.00    -0.265 OA
ATOM     22  H3  UNL     1       0.258 -17.245   9.350  1.00  0.00     0.162 HD
BRANCH  20  23
HETATM   23  C12 UNL     1       1.993 -19.034   8.298  1.00  0.00     0.148 A 
HETATM   24  C13 UNL     1       2.338 -20.225   8.883  1.00  0.00     0.084 A 
HETATM   25  C14 UNL     1       3.682 -20.154   9.171  1.00  0.00     0.127 A 
HETATM   26  C15 UNL     1       4.109 -18.905   8.744  1.00  0.00     0.218 A 
HETATM   27  O9  UNL     1       3.073 -18.302   8.244  1.00  0.00    -0.280 OA
BRANCH  25  28
HETATM   28  O7  UNL     1       4.441 -21.149   9.773  1.00  0.00    -0.356 OA
ATOM     29  H7  UNL     1       5.212 -21.563   9.403  1.00  0.00     0.218 HD
ENDBRANCH  25  28
BRANCH  26  30
HETATM   30  O8  UNL     1       5.431 -18.470   8.875  1.00  0.00    -0.339 OA
ATOM     31  H8  UNL     1       5.878 -18.423   9.712  1.00  0.00     0.220 HD
ENDBRANCH  26  30
ENDBRANCH  20  23
ENDBRANCH  18  19
ENDBRANCH  17  18
ENDBRANCH  15  17
ENDBRANCH   6  15
BRANCH   1  32
HETATM   32  C4  UNL     1      -6.382 -16.105   3.025  1.00  0.00     0.204 C 
BRANCH  32  33
HETATM   33  C3  UNL     1      -6.214 -16.341   1.565  1.00  0.00     0.180 C 
BRANCH  33  34
HETATM   34  C2  UNL     1      -6.294 -15.090   0.736  1.00  0.00     0.145 C 
HETATM   35  C1  UNL     1      -5.754 -15.257  -0.643  1.00  0.00     0.042 C 
BRANCH  34  36
HETATM   36  O1  UNL     1      -5.682 -14.014   1.379  1.00  0.00    -0.393 OA
ATOM     37  H1  UNL     1      -5.824 -14.058   2.317  1.00  0.00     0.210 HD
ENDBRANCH  34  36
ENDBRANCH  33  34
BRANCH  33  38
HETATM   38  O2  UNL     1      -5.078 -17.068   1.269  1.00  0.00    -0.390 OA
ATOM     39  H2  UNL     1      -4.575 -17.259   2.053  1.00  0.00     0.210 HD
ENDBRANCH  33  38
ENDBRANCH  32  33
BRANCH  32  40
HETATM   40  O3  UNL     1      -7.328 -17.040   3.515  1.00  0.00    -0.388 OA
ATOM     41  H3  UNL     1      -7.977 -16.565   4.021  1.00  0.00     0.210 HD
ENDBRANCH  32  40
ENDBRANCH   1  32
BRANCH  11  42
HETATM   42  O12 UNL     1      -2.314 -19.451   5.815  1.00  0.00    -0.388 OA
ATOM     43  H12 UNL     1      -2.335 -20.372   6.046  1.00  0.00     0.210 HD
ENDBRANCH  11  42
BRANCH   9  44
HETATM   44  O11 UNL     1      -4.860 -19.921   7.198  1.00  0.00    -0.369 OA
ATOM     45  H11 UNL     1      -5.670 -20.317   7.495  1.00  0.00     0.212 HD
ENDBRANCH   9  44
BRANCH  10  46
HETATM   46  N4  UNL     1      -3.863 -21.310   5.365  1.00  0.00    -0.068 N 
ATOM     47  H43 UNL     1      -3.191 -21.201   6.124  1.00  0.00     0.275 HD
ATOM     48  H42 UNL     1      -4.586 -21.809   5.883  1.00  0.00     0.275 HD
ATOM     49  H41 UNL     1      -3.489 -21.863   4.592  1.00  0.00     0.275 HD
ENDBRANCH  10  46
TORSDOF 17
ENDMDL
MODEL 4
REMARK VINA RESULT: -6.498682336      1.950      7.890
REMARK  17 active torsions:
REMARK  status: ('A' for Active; 'I' for Inactive)
REMARK    1  A    between atoms: C2_2  and  O1_3 
REMARK    2  A    between atoms: C2_2  and  C3_5 
REMARK    3  A    between atoms: C3_5  and  O2_6 
REMARK    4  A    between atoms: C3_5  and  C4_8 
REMARK    5  A    between atoms: C4_8  and  O3_9 
REMARK    6  A    between atoms: C4_8  and  C5_11 
REMARK    7  A    between atoms: C6_13  and  O5_14 
REMARK    8  A    between atoms: C8_18  and  N2_19 
REMARK    9  A    between atoms: N2_19  and  C9_21 
REMARK   10  A    between atoms: C9_21  and  C10_22 
REMARK   11  A    between atoms: C10_22  and  N3_23 
REMARK       I    between atoms: N3_23  and  C11_25 
REMARK   12  A    between atoms: C11_25  and  C12_27 
REMARK   13  A    between atoms: C14_29  and  O7_30 
REMARK   14  A    between atoms: C15_32  and  O8_33 
REMARK   15  A    between atoms: C17_38  and  O11_39 
REMARK   16  A    between atoms: C18_41  and  N4_42 
REMARK   17  A    between atoms: C19_46  and  O12_47 
ROOT
HETATM    1  C5  UNL     1      -2.342 -16.365   4.018  1.00  0.00     0.299 C 
HETATM    2  O4  UNL     1      -1.658 -17.529   4.340  1.00  0.00    -0.308 OA
HETATM    3  C6  UNL     1      -1.631 -17.797   5.707  1.00  0.00     0.283 C 
HETATM    4  C7  UNL     1      -2.119 -19.168   5.860  1.00  0.00     0.131 C 
HETATM    5  N1  UNL     1      -2.510 -20.264   5.959  1.00  0.00    -0.191 NA
HETATM    6  C8  UNL     1      -2.386 -16.807   6.522  1.00  0.00     0.221 C 
HETATM    7  C16 UNL     1      -3.599 -16.257   5.851  1.00  0.00     0.224 C 
HETATM    8  O10 UNL     1      -3.664 -14.866   5.959  1.00  0.00    -0.318 OA
HETATM    9  C17 UNL     1      -4.949 -14.453   5.739  1.00  0.00     0.293 C 
HETATM   10  C18 UNL     1      -5.833 -15.669   5.678  1.00  0.00     0.272 C 
HETATM   11  C19 UNL     1      -4.920 -16.675   6.411  1.00  0.00     0.218 C 
HETATM   12  O13 UNL     1      -3.648 -16.539   4.471  1.00  0.00    -0.317 OA
ENDROOT
BRANCH   3  13
HETATM   13  O5  UNL     1      -0.248 -17.842   6.018  1.00  0.00    -0.352 OA
ATOM     14  H5  UNL     1      -0.222 -18.222   6.887  1.00  0.00     0.214 HD
ENDBRANCH   3  13
BRANCH   6  15
HETATM   15  N2  UNL     1      -2.594 -17.268   7.847  1.00  0.00    -0.406 N 
ATOM     16  H2  UNL     1      -3.214 -18.053   8.047  1.00  0.00     0.154 HD
BRANCH  15  17
HETATM   17  C9  UNL     1      -1.898 -16.586   8.889  1.00  0.00     0.134 C 
BRANCH  17  18
HETATM   18  C10 UNL     1      -1.486 -17.546  10.016  1.00  0.00     0.142 C 
BRANCH  18  19
HETATM   19  N3  UNL     1      -0.085 -17.829   9.989  1.00  0.00    -0.354 N 
HETATM   20  C11 UNL     1       0.440 -18.922   9.242  1.00  0.00     0.275 C 
HETATM   21  O6  UNL     1      -0.362 -19.649   8.594  1.00  0.00    -0.265 OA
ATOM     22  H3  UNL     1       0.554 -17.235  10.516  1.00  0.00     0.162 HD
BRANCH  20  23
HETATM   23  C12 UNL     1       1.861 -19.211   9.212  1.00  0.00     0.148 A 
HETATM   24  C13 UNL     1       2.872 -18.319   8.965  1.00  0.00     0.084 A 
HETATM   25  C14 UNL     1       4.053 -19.023   9.036  1.00  0.00     0.127 A 
HETATM   26  C15 UNL     1       3.709 -20.336   9.328  1.00  0.00     0.218 A 
HETATM   27  O9  UNL     1       2.414 -20.376   9.418  1.00  0.00    -0.280 OA
BRANCH  25  28
HETATM   28  O7  UNL     1       5.326 -18.503   8.848  1.00  0.00    -0.356 OA
ATOM     29  H7  UNL     1       6.071 -18.630   9.422  1.00  0.00     0.218 HD
ENDBRANCH  25  28
BRANCH  26  30
HETATM   30  O8  UNL     1       4.657 -21.352   9.477  1.00  0.00    -0.339 OA
ATOM     31  H8  UNL     1       5.204 -21.656   8.762  1.00  0.00     0.220 HD
ENDBRANCH  26  30
ENDBRANCH  20  23
ENDBRANCH  18  19
ENDBRANCH  17  18
ENDBRANCH  15  17
ENDBRANCH   6  15
BRANCH   1  32
HETATM   32  C4  UNL     1      -2.215 -16.161   2.542  1.00  0.00     0.204 C 
BRANCH  32  33
HETATM   33  C3  UNL     1      -2.739 -14.852   2.067  1.00  0.00     0.180 C 
BRANCH  33  34
HETATM   34  C2  UNL     1      -4.060 -14.950   1.355  1.00  0.00     0.145 C 
HETATM   35  C1  UNL     1      -4.269 -13.874   0.344  1.00  0.00     0.042 C 
BRANCH  34  36
HETATM   36  O1  UNL     1      -5.122 -14.991   2.258  1.00  0.00    -0.393 OA
ATOM     37  H1  UNL     1      -4.832 -14.749   3.130  1.00  0.00     0.210 HD
ENDBRANCH  34  36
ENDBRANCH  33  34
BRANCH  33  38
HETATM   38  O2  UNL     1      -2.775 -13.897   3.063  1.00  0.00    -0.390 OA
ATOM     39  H2  UNL     1      -2.059 -13.278   2.975  1.00  0.00     0.210 HD
ENDBRANCH  33  38
ENDBRANCH  32  33
BRANCH  32  40
HETATM   40  O3  UNL     1      -0.823 -16.198   2.283  1.00  0.00    -0.388 OA
ATOM     41  H3  UNL     1      -0.525 -15.307   2.140  1.00  0.00     0.210 HD
ENDBRANCH  32  40
ENDBRANCH   1  32
BRANCH  11  42
HETATM   42  O12 UNL     1      -5.111 -16.384   7.747  1.00  0.00    -0.388 OA
ATOM     43  H12 UNL     1      -5.881 -16.776   8.141  1.00  0.00     0.210 HD
ENDBRANCH  11  42
BRANCH   9  44
HETATM   44  O11 UNL     1      -5.318 -13.612   6.804  1.00  0.00    -0.369 OA
ATOM     45  H11 UNL     1      -5.156 -12.715   6.536  1.00  0.00     0.212 HD
ENDBRANCH   9  44
BRANCH  10  46
HETATM   46  N4  UNL     1      -7.000 -15.443   6.480  1.00  0.00    -0.068 N 
ATOM     47  H43 UNL     1      -6.854 -15.700   7.456  1.00  0.00     0.275 HD
ATOM     48  H42 UNL     1      -7.189 -14.451   6.618  1.00  0.00     0.275 HD
ATOM     49  H41 UNL     1      -7.792 -15.934   6.063  1.00  0.00     0.275 HD
ENDBRANCH  10  46
TORSDOF 17
ENDMDL
MODEL 5
REMARK VINA RESULT: -6.338784017      1.032      1.609
REMARK  17 active torsions:
REMARK  status: ('A' for Active; 'I' for Inactive)
REMARK    1  A    between atoms: C2_2  and  O1_3 
REMARK    2  A    between atoms: C2_2  and  C3_5 
REMARK    3  A    between atoms: C3_5  and  O2_6 
REMARK    4  A    between atoms: C3_5  and  C4_8 
REMARK    5  A    between atoms: C4_8  and  O3_9 
REMARK    6  A    between atoms: C4_8  and  C5_11 
REMARK    7  A    between atoms: C6_13  and  O5_14 
REMARK    8  A    between atoms: C8_18  and  N2_19 
REMARK    9  A    between atoms: N2_19  and  C9_21 
REMARK   10  A    between atoms: C9_21  and  C10_22 
REMARK   11  A    between atoms: C10_22  and  N3_23 
REMARK       I    between atoms: N3_23  and  C11_25 
REMARK   12  A    between atoms: C11_25  and  C12_27 
REMARK   13  A    between atoms: C14_29  and  O7_30 
REMARK   14  A    between atoms: C15_32  and  O8_33 
REMARK   15  A    between atoms: C17_38  and  O11_39 
REMARK   16  A    between atoms: C18_41  and  N4_42 
REMARK   17  A    between atoms: C19_46  and  O12_47 
ROOT
HETATM    1  C5  UNL     1       0.998 -17.922   8.716  1.00  0.00     0.299 C 
HETATM    2  O4  UNL     1       0.822 -17.580  10.049  1.00  0.00    -0.308 OA
HETATM    3  C6  UNL     1      -0.430 -17.033  10.321  1.00  0.00     0.283 C 
HETATM    4  C7  UNL     1      -0.980 -17.810  11.432  1.00  0.00     0.131 C 
HETATM    5  N1  UNL     1      -1.398 -18.444  12.320  1.00  0.00    -0.191 NA
HETATM    6  C8  UNL     1      -1.328 -16.982   9.135  1.00  0.00     0.221 C 
HETATM    7  C16 UNL     1      -1.155 -18.119   8.185  1.00  0.00     0.224 C 
HETATM    8  O10 UNL     1      -1.068 -17.679   6.863  1.00  0.00    -0.318 OA
HETATM    9  C17 UNL     1      -1.350 -18.718   6.019  1.00  0.00     0.293 C 
HETATM   10  C18 UNL     1      -1.851 -19.873   6.843  1.00  0.00     0.272 C 
HETATM   11  C19 UNL     1      -2.274 -19.105   8.114  1.00  0.00     0.218 C 
HETATM   12  O13 UNL     1       0.017 -18.866   8.420  1.00  0.00    -0.317 OA
ENDROOT
BRANCH   3  13
HETATM   13  O5  UNL     1      -0.133 -15.752  10.855  1.00  0.00    -0.352 OA
ATOM     14  H5  UNL     1       0.528 -15.927  11.514  1.00  0.00     0.214 HD
ENDBRANCH   3  13
BRANCH   6  15
HETATM   15  N2  UNL     1      -2.671 -16.711   9.504  1.00  0.00    -0.406 N 
ATOM     16  H2  UNL     1      -3.252 -17.418   9.954  1.00  0.00     0.154 HD
BRANCH  15  17
HETATM   17  C9  UNL     1      -3.172 -15.406   9.219  1.00  0.00     0.134 C 
BRANCH  17  18
HETATM   18  C10 UNL     1      -4.222 -15.437   8.097  1.00  0.00     0.142 C 
BRANCH  18  19
HETATM   19  N3  UNL     1      -3.633 -15.705   6.822  1.00  0.00    -0.354 N 
HETATM   20  C11 UNL     1      -4.180 -15.173   5.621  1.00  0.00     0.275 C 
HETATM   21  O6  UNL     1      -5.210 -14.449   5.698  1.00  0.00    -0.265 OA
ATOM     22  H3  UNL     1      -2.800 -16.292   6.772  1.00  0.00     0.162 HD
BRANCH  20  23
HETATM   23  C12 UNL     1      -3.583 -15.443   4.327  1.00  0.00     0.148 A 
HETATM   24  C13 UNL     1      -4.247 -15.618   3.140  1.00  0.00     0.084 A 
HETATM   25  C14 UNL     1      -3.291 -15.848   2.178  1.00  0.00     0.127 A 
HETATM   26  C15 UNL     1      -2.065 -15.803   2.825  1.00  0.00     0.218 A 
HETATM   27  O9  UNL     1      -2.307 -15.562   4.078  1.00  0.00    -0.280 OA
BRANCH  25  28
HETATM   28  O7  UNL     1      -3.530 -16.079   0.829  1.00  0.00    -0.356 OA
ATOM     29  H7  UNL     1      -2.977 -16.581   0.243  1.00  0.00     0.218 HD
ENDBRANCH  25  28
BRANCH  26  30
HETATM   30  O8  UNL     1      -0.849 -15.995   2.161  1.00  0.00    -0.339 OA
ATOM     31  H8  UNL     1      -0.359 -16.807   2.209  1.00  0.00     0.220 HD
ENDBRANCH  26  30
ENDBRANCH  20  23
ENDBRANCH  18  19
ENDBRANCH  17  18
ENDBRANCH  15  17
ENDBRANCH   6  15
BRANCH   1  32
HETATM   32  C4  UNL     1       2.402 -18.410   8.557  1.00  0.00     0.204 C 
BRANCH  32  33
HETATM   33  C3  UNL     1       2.640 -19.762   9.131  1.00  0.00     0.180 C 
BRANCH  33  34
HETATM   34  C2  UNL     1       4.043 -19.972   9.627  1.00  0.00     0.145 C 
HETATM   35  C1  UNL     1       5.033 -19.037   9.016  1.00  0.00     0.042 C 
BRANCH  34  36
HETATM   36  O1  UNL     1       4.449 -21.296   9.462  1.00  0.00    -0.393 OA
ATOM     37  H1  UNL     1       4.911 -21.406   8.640  1.00  0.00     0.210 HD
ENDBRANCH  34  36
ENDBRANCH  33  34
BRANCH  33  38
HETATM   38  O2  UNL     1       1.710 -20.105  10.093  1.00  0.00    -0.390 OA
ATOM     39  H2  UNL     1       0.824 -19.938   9.793  1.00  0.00     0.210 HD
ENDBRANCH  33  38
ENDBRANCH  32  33
BRANCH  32  40
HETATM   40  O3  UNL     1       2.610 -18.484   7.157  1.00  0.00    -0.388 OA
ATOM     41  H3  UNL     1       2.805 -19.386   6.934  1.00  0.00     0.210 HD
ENDBRANCH  32  40
ENDBRANCH   1  32
BRANCH  11  42
HETATM   42  O12 UNL     1      -3.506 -18.575   7.785  1.00  0.00    -0.388 OA
ATOM     43  H12 UNL     1      -3.483 -17.833   7.193  1.00  0.00     0.210 HD
ENDBRANCH  11  42
BRANCH   9  44
HETATM   44  O11 UNL     1      -2.331 -18.281   5.112  1.00  0.00    -0.369 OA
ATOM     45  H11 UNL     1      -2.753 -17.517   5.485  1.00  0.00     0.212 HD
ENDBRANCH   9  44
BRANCH  10  46
HETATM   46  N4  UNL     1      -3.025 -20.417   6.226  1.00  0.00    -0.068 N 
ATOM     47  H43 UNL     1      -3.875 -20.183   6.738  1.00  0.00     0.275 HD
ATOM     48  H42 UNL     1      -3.252 -19.952   5.348  1.00  0.00     0.275 HD
ATOM     49  H41 UNL     1      -2.906 -21.424   6.111  1.00  0.00     0.275 HD
ENDBRANCH  10  46
TORSDOF 17
ENDMDL
