MODEL 1
REMARK VINA RESULT: -5.384390905      0.000      0.000
REMARK  16 active torsions:
REMARK  status: ('A' for Active; 'I' for Inactive)
REMARK    1  A    between atoms: S1_2  and  C2_3 
REMARK    2  A    between atoms: C3_6  and  S2_7 
REMARK    3  A    between atoms: S2_7  and  S3_8 
REMARK    4  A    between atoms: S3_8  and  C4_9 
REMARK    5  A    between atoms: C4_9  and  C5_10 
REMARK    6  A    between atoms: C6_12  and  N3_13 
REMARK    7  A    between atoms: C7_20  and  O2_21 
REMARK    8  A    between atoms: O2_21  and  C8_22 
REMARK    9  A    between atoms: C8_22  and  C9_23 
REMARK   10  A    between atoms: C10_24  and  O3_25 
REMARK   11  A    between atoms: C11_27  and  O4_28 
REMARK   12  A    between atoms: C12_30  and  O5_31 
REMARK   13  A    between atoms: C13_33  and  O6_34 
REMARK   14  A    between atoms: C14_36  and  O7_37 
REMARK   15  A    between atoms: C15_39  and  N5_40 
REMARK   16  A    between atoms: C16_44  and  O8_45 
ROOT
HETATM    1  C5  UNL     1      -2.454 -16.831   7.070  1.00  0.00     0.192 C 
HETATM    2  O1  UNL     1      -2.801 -18.016   7.713  1.00  0.00    -0.328 OA
HETATM    3  C6  UNL     1      -2.205 -18.987   6.943  1.00  0.00     0.525 C 
HETATM    4  N4  UNL     1      -0.856 -18.431   6.755  1.00  0.00     0.006 N 
ATOM      5  H41 UNL     1      -0.219 -18.977   6.175  1.00  0.00     0.285 HD
ATOM      6  H42 UNL     1      -0.243 -18.446   7.571  1.00  0.00     0.285 HD
HETATM    7  C7  UNL     1      -1.228 -17.100   6.243  1.00  0.00     0.356 C 
ENDROOT
BRANCH   7   8
HETATM    8  O2  UNL     1      -1.598 -17.295   4.918  1.00  0.00    -0.356 OA
BRANCH   8   9
HETATM    9  C8  UNL     1      -1.880 -16.082   4.280  1.00  0.00     0.180 C 
BRANCH   9  10
HETATM   10  C9  UNL     1      -2.967 -16.275   3.230  1.00  0.00     0.072 C 
HETATM   11  C10 UNL     1      -4.301 -16.288   3.890  1.00  0.00     0.158 C 
HETATM   12  C11 UNL     1      -5.460 -15.889   3.055  1.00  0.00     0.178 C 
HETATM   13  C12 UNL     1      -5.152 -16.098   1.609  1.00  0.00     0.180 C 
HETATM   14  C13 UNL     1      -4.017 -15.177   1.228  1.00  0.00     0.178 C 
HETATM   15  C14 UNL     1      -2.835 -15.289   2.108  1.00  0.00     0.158 C 
BRANCH  11  16
HETATM   16  O3  UNL     1      -4.542 -17.532   4.501  1.00  0.00    -0.392 OA
ATOM     17  H3  UNL     1      -3.726 -17.936   4.772  1.00  0.00     0.210 HD
ENDBRANCH  11  16
BRANCH  12  18
HETATM   18  O4  UNL     1      -5.936 -14.613   3.336  1.00  0.00    -0.390 OA
ATOM     19  H4  UNL     1      -6.058 -14.447   4.263  1.00  0.00     0.210 HD
ENDBRANCH  12  18
BRANCH  13  20
HETATM   20  O5  UNL     1      -4.827 -17.416   1.394  1.00  0.00    -0.390 OA
ATOM     21  H5  UNL     1      -3.896 -17.489   1.221  1.00  0.00     0.210 HD
ENDBRANCH  13  20
BRANCH  14  22
HETATM   22  O6  UNL     1      -3.652 -15.529  -0.077  1.00  0.00    -0.390 OA
ATOM     23  H6  UNL     1      -3.984 -14.839  -0.640  1.00  0.00     0.210 HD
ENDBRANCH  14  22
BRANCH  15  24
HETATM   24  O7  UNL     1      -2.602 -14.028   2.699  1.00  0.00    -0.392 OA
ATOM     25  H7  UNL     1      -3.187 -13.413   2.273  1.00  0.00     0.210 HD
ENDBRANCH  15  24
ENDBRANCH   9  10
ENDBRANCH   8   9
ENDBRANCH   7   8
BRANCH   1  26
HETATM   26  C4  UNL     1      -2.294 -15.674   8.007  1.00  0.00     0.122 C 
BRANCH  26  27
HETATM   27  S3  UNL     1      -2.883 -16.025   9.672  1.00  0.00    -0.093 SA
BRANCH  27  28
HETATM   28  S2  UNL     1      -1.286 -16.247  11.047  1.00  0.00    -0.072 SA
BRANCH  28  29
HETATM   29  C3  UNL     1      -0.542 -17.874  10.986  1.00  0.00     0.200 C 
HETATM   30  N2  UNL     1      -0.250 -18.233   9.607  1.00  0.00    -0.129 NA
HETATM   31  N1  UNL     1       0.405 -19.466   9.535  1.00  0.00    -0.129 NA
HETATM   32  C2  UNL     1       1.753 -19.326   9.985  1.00  0.00     0.186 C 
HETATM   33  C16 UNL     1       1.922 -18.312  11.064  1.00  0.00     0.181 C 
HETATM   34  C15 UNL     1       0.669 -18.040  11.866  1.00  0.00     0.245 C 
BRANCH  32  35
HETATM   35  S1  UNL     1       2.880 -18.894   8.610  1.00  0.00    -0.148 SA
HETATM   36  C1  UNL     1       4.555 -19.400   9.109  1.00  0.00     0.091 C 
ENDBRANCH  32  35
BRANCH  33  37
HETATM   37  O8  UNL     1       2.499 -17.127  10.612  1.00  0.00    -0.391 OA
ATOM     38  H8  UNL     1       2.567 -16.466  11.290  1.00  0.00     0.210 HD
ENDBRANCH  33  37
BRANCH  34  39
HETATM   39  N5  UNL     1       0.478 -19.142  12.791  1.00  0.00    -0.070 N 
ATOM     40  H53 UNL     1       1.366 -19.545  13.090  1.00  0.00     0.274 HD
ATOM     41  H52 UNL     1       0.144 -18.822  13.701  1.00  0.00     0.274 HD
ATOM     42  H51 UNL     1      -0.140 -19.845  12.386  1.00  0.00     0.274 HD
ENDBRANCH  34  39
ENDBRANCH  28  29
ENDBRANCH  27  28
ENDBRANCH  26  27
ENDBRANCH   1  26
BRANCH   3  43
HETATM   43  N3  UNL     1      -2.053 -20.246   7.614  1.00  0.00    -0.027 N 
ATOM     44  H33 UNL     1      -1.092 -20.580   7.535  1.00  0.00     0.279 HD
ATOM     45  H32 UNL     1      -2.109 -20.123   8.625  1.00  0.00     0.279 HD
ATOM     46  H31 UNL     1      -2.710 -20.961   7.302  1.00  0.00     0.279 HD
ENDBRANCH   3  43
TORSDOF 16
ENDMDL
MODEL 2
REMARK VINA RESULT: -5.374529929      3.147      8.282
REMARK  16 active torsions:
REMARK  status: ('A' for Active; 'I' for Inactive)
REMARK    1  A    between atoms: S1_2  and  C2_3 
REMARK    2  A    between atoms: C3_6  and  S2_7 
REMARK    3  A    between atoms: S2_7  and  S3_8 
REMARK    4  A    between atoms: S3_8  and  C4_9 
REMARK    5  A    between atoms: C4_9  and  C5_10 
REMARK    6  A    between atoms: C6_12  and  N3_13 
REMARK    7  A    between atoms: C7_20  and  O2_21 
REMARK    8  A    between atoms: O2_21  and  C8_22 
REMARK    9  A    between atoms: C8_22  and  C9_23 
REMARK   10  A    between atoms: C10_24  and  O3_25 
REMARK   11  A    between atoms: C11_27  and  O4_28 
REMARK   12  A    between atoms: C12_30  and  O5_31 
REMARK   13  A    between atoms: C13_33  and  O6_34 
REMARK   14  A    between atoms: C14_36  and  O7_37 
REMARK   15  A    between atoms: C15_39  and  N5_40 
REMARK   16  A    between atoms: C16_44  and  O8_45 
ROOT
HETATM    1  C5  UNL     1       0.431 -16.595  12.565  1.00  0.00     0.192 C 
HETATM    2  O1  UNL     1       0.744 -16.441  13.912  1.00  0.00    -0.328 OA
HETATM    3  C6  UNL     1       2.098 -16.198  13.903  1.00  0.00     0.525 C 
HETATM    4  N4  UNL     1       2.212 -15.193  12.836  1.00  0.00     0.006 N 
ATOM      5  H41 UNL     1       3.155 -14.869  12.619  1.00  0.00     0.285 HD
ATOM      6  H42 UNL     1       1.864 -14.260  13.055  1.00  0.00     0.285 HD
HETATM    7  C7  UNL     1       1.508 -15.918  11.764  1.00  0.00     0.356 C 
ENDROOT
BRANCH   7   8
HETATM    8  O2  UNL     1       2.406 -16.870  11.299  1.00  0.00    -0.356 OA
BRANCH   8   9
HETATM    9  C8  UNL     1       1.925 -17.514  10.154  1.00  0.00     0.180 C 
BRANCH   9  10
HETATM   10  C9  UNL     1       2.172 -19.015  10.244  1.00  0.00     0.072 C 
HETATM   11  C10 UNL     1       0.889 -19.744  10.047  1.00  0.00     0.158 C 
HETATM   12  C11 UNL     1       0.985 -21.131   9.533  1.00  0.00     0.178 C 
HETATM   13  C12 UNL     1       2.327 -21.707   9.846  1.00  0.00     0.180 C 
HETATM   14  C13 UNL     1       3.371 -20.906   9.105  1.00  0.00     0.178 C 
HETATM   15  C14 UNL     1       3.282 -19.449   9.336  1.00  0.00     0.158 C 
BRANCH  11  16
HETATM   16  O3  UNL     1       0.112 -19.708  11.219  1.00  0.00    -0.392 OA
ATOM     17  H3  UNL     1      -0.578 -20.360  11.185  1.00  0.00     0.210 HD
ENDBRANCH  11  16
BRANCH  12  18
HETATM   18  O4  UNL     1       0.634 -21.255   8.193  1.00  0.00    -0.390 OA
ATOM     19  H4  UNL     1       1.362 -21.484   7.628  1.00  0.00     0.210 HD
ENDBRANCH  12  18
BRANCH  13  20
HETATM   20  O5  UNL     1       2.535 -21.675  11.204  1.00  0.00    -0.390 OA
ATOM     21  H5  UNL     1       2.552 -22.562  11.544  1.00  0.00     0.210 HD
ENDBRANCH  13  20
BRANCH  14  22
HETATM   22  O6  UNL     1       4.612 -21.368   9.561  1.00  0.00    -0.390 OA
ATOM     23  H6  UNL     1       5.054 -20.614   9.932  1.00  0.00     0.210 HD
ENDBRANCH  14  22
BRANCH  15  24
HETATM   24  O7  UNL     1       3.064 -18.817   8.093  1.00  0.00    -0.392 OA
ATOM     25  H7  UNL     1       3.793 -18.224   7.955  1.00  0.00     0.210 HD
ENDBRANCH  15  24
ENDBRANCH   9  10
ENDBRANCH   8   9
ENDBRANCH   7   8
BRANCH   1  26
HETATM   26  C4  UNL     1      -0.948 -16.124  12.220  1.00  0.00     0.122 C 
BRANCH  26  27
HETATM   27  S3  UNL     1      -1.237 -16.016  10.447  1.00  0.00    -0.093 SA
BRANCH  27  28
HETATM   28  S2  UNL     1      -2.437 -17.614   9.740  1.00  0.00    -0.072 SA
BRANCH  28  29
HETATM   29  C3  UNL     1      -2.069 -18.058   8.046  1.00  0.00     0.200 C 
HETATM   30  N2  UNL     1      -3.235 -17.821   7.209  1.00  0.00    -0.129 NA
HETATM   31  N1  UNL     1      -2.950 -18.085   5.865  1.00  0.00    -0.129 NA
HETATM   32  C2  UNL     1      -2.120 -17.052   5.333  1.00  0.00     0.186 C 
HETATM   33  C16 UNL     1      -1.170 -16.476   6.327  1.00  0.00     0.181 C 
HETATM   34  C15 UNL     1      -0.840 -17.396   7.481  1.00  0.00     0.245 C 
BRANCH  32  35
HETATM   35  S1  UNL     1      -3.112 -15.685   4.629  1.00  0.00    -0.148 SA
HETATM   36  C1  UNL     1      -2.307 -15.181   3.078  1.00  0.00     0.091 C 
ENDBRANCH  32  35
BRANCH  33  37
HETATM   37  O8  UNL     1      -1.555 -15.216   6.781  1.00  0.00    -0.391 OA
ATOM     38  H8  UNL     1      -0.920 -14.540   6.577  1.00  0.00     0.210 HD
ENDBRANCH  33  37
BRANCH  34  39
HETATM   39  N5  UNL     1       0.102 -18.394   7.006  1.00  0.00    -0.070 N 
ATOM     40  H53 UNL     1       0.345 -19.064   7.735  1.00  0.00     0.274 HD
ATOM     41  H52 UNL     1      -0.331 -19.040   6.345  1.00  0.00     0.274 HD
ATOM     42  H51 UNL     1       0.929 -17.946   6.613  1.00  0.00     0.274 HD
ENDBRANCH  34  39
ENDBRANCH  28  29
ENDBRANCH  27  28
ENDBRANCH  26  27
ENDBRANCH   1  26
BRANCH   3  43
HETATM   43  N3  UNL     1       2.586 -15.592  15.109  1.00  0.00    -0.027 N 
ATOM     44  H33 UNL     1       1.824 -15.448  15.772  1.00  0.00     0.279 HD
ATOM     45  H32 UNL     1       3.152 -16.254  15.640  1.00  0.00     0.279 HD
ATOM     46  H31 UNL     1       3.097 -14.724  14.955  1.00  0.00     0.279 HD
ENDBRANCH   3  43
TORSDOF 16
ENDMDL
MODEL 3
REMARK VINA RESULT: -5.322487149      1.945      2.363
REMARK  16 active torsions:
REMARK  status: ('A' for Active; 'I' for Inactive)
REMARK    1  A    between atoms: S1_2  and  C2_3 
REMARK    2  A    between atoms: C3_6  and  S2_7 
REMARK    3  A    between atoms: S2_7  and  S3_8 
REMARK    4  A    between atoms: S3_8  and  C4_9 
REMARK    5  A    between atoms: C4_9  and  C5_10 
REMARK    6  A    between atoms: C6_12  and  N3_13 
REMARK    7  A    between atoms: C7_20  and  O2_21 
REMARK    8  A    between atoms: O2_21  and  C8_22 
REMARK    9  A    between atoms: C8_22  and  C9_23 
REMARK   10  A    between atoms: C10_24  and  O3_25 
REMARK   11  A    between atoms: C11_27  and  O4_28 
REMARK   12  A    between atoms: C12_30  and  O5_31 
REMARK   13  A    between atoms: C13_33  and  O6_34 
REMARK   14  A    between atoms: C14_36  and  O7_37 
REMARK   15  A    between atoms: C15_39  and  N5_40 
REMARK   16  A    between atoms: C16_44  and  O8_45 
ROOT
HETATM    1  C5  UNL     1      -2.011 -17.596   7.721  1.00  0.00     0.192 C 
HETATM    2  O1  UNL     1      -2.069 -18.986   7.704  1.00  0.00    -0.328 OA
HETATM    3  C6  UNL     1      -2.061 -19.294   6.364  1.00  0.00     0.525 C 
HETATM    4  N4  UNL     1      -0.973 -18.436   5.869  1.00  0.00     0.006 N 
ATOM      5  H41 UNL     1      -0.792 -18.470   4.866  1.00  0.00     0.285 HD
ATOM      6  H42 UNL     1      -0.026 -18.716   6.124  1.00  0.00     0.285 HD
HETATM    7  C7  UNL     1      -1.440 -17.146   6.406  1.00  0.00     0.356 C 
ENDROOT
BRANCH   7   8
HETATM    8  O2  UNL     1      -2.470 -16.739   5.568  1.00  0.00    -0.356 OA
BRANCH   8   9
HETATM    9  C8  UNL     1      -1.982 -16.259   4.348  1.00  0.00     0.180 C 
BRANCH   9  10
HETATM   10  C9  UNL     1      -3.044 -16.388   3.263  1.00  0.00     0.072 C 
HETATM   11  C10 UNL     1      -4.396 -16.379   3.885  1.00  0.00     0.158 C 
HETATM   12  C11 UNL     1      -5.518 -15.921   3.031  1.00  0.00     0.178 C 
HETATM   13  C12 UNL     1      -5.175 -16.098   1.588  1.00  0.00     0.180 C 
HETATM   14  C13 UNL     1      -4.003 -15.201   1.266  1.00  0.00     0.178 C 
HETATM   15  C14 UNL     1      -2.851 -15.374   2.175  1.00  0.00     0.158 C 
BRANCH  11  16
HETATM   16  O3  UNL     1      -4.690 -17.633   4.452  1.00  0.00    -0.392 OA
ATOM     17  H3  UNL     1      -5.615 -17.697   4.662  1.00  0.00     0.210 HD
ENDBRANCH  11  16
BRANCH  12  18
HETATM   18  O4  UNL     1      -5.964 -14.640   3.336  1.00  0.00    -0.390 OA
ATOM     19  H4  UNL     1      -6.898 -14.590   3.499  1.00  0.00     0.210 HD
ENDBRANCH  12  18
BRANCH  13  20
HETATM   20  O5  UNL     1      -4.883 -17.418   1.343  1.00  0.00    -0.390 OA
ATOM     21  H5  UNL     1      -4.316 -17.483   0.584  1.00  0.00     0.210 HD
ENDBRANCH  13  20
BRANCH  14  22
HETATM   22  O6  UNL     1      -3.611 -15.526  -0.038  1.00  0.00    -0.390 OA
ATOM     23  H6  UNL     1      -2.670 -15.399  -0.071  1.00  0.00     0.210 HD
ENDBRANCH  14  22
BRANCH  15  24
HETATM   24  O7  UNL     1      -2.597 -14.139   2.809  1.00  0.00    -0.392 OA
ATOM     25  H7  UNL     1      -1.699 -14.167   3.117  1.00  0.00     0.210 HD
ENDBRANCH  15  24
ENDBRANCH   9  10
ENDBRANCH   8   9
ENDBRANCH   7   8
BRANCH   1  26
HETATM   26  C4  UNL     1      -1.276 -17.048   8.905  1.00  0.00     0.122 C 
BRANCH  26  27
HETATM   27  S3  UNL     1      -1.075 -18.249  10.231  1.00  0.00    -0.093 SA
BRANCH  27  28
HETATM   28  S2  UNL     1       0.754 -17.985  11.269  1.00  0.00    -0.072 SA
BRANCH  28  29
HETATM   29  C3  UNL     1       2.033 -19.106  10.711  1.00  0.00     0.200 C 
HETATM   30  N2  UNL     1       1.685 -20.472  11.069  1.00  0.00    -0.129 NA
HETATM   31  N1  UNL     1       2.629 -21.377  10.575  1.00  0.00    -0.129 NA
HETATM   32  C2  UNL     1       2.483 -21.508   9.160  1.00  0.00     0.186 C 
HETATM   33  C16 UNL     1       2.044 -20.253   8.486  1.00  0.00     0.181 C 
HETATM   34  C15 UNL     1       2.370 -18.988   9.248  1.00  0.00     0.245 C 
BRANCH  32  35
HETATM   35  S1  UNL     1       1.302 -22.837   8.725  1.00  0.00    -0.148 SA
HETATM   36  C1  UNL     1       1.557 -24.191   9.912  1.00  0.00     0.091 C 
ENDBRANCH  32  35
BRANCH  33  37
HETATM   37  O8  UNL     1       0.704 -20.280   8.104  1.00  0.00    -0.391 OA
ATOM     38  H8  UNL     1       0.117 -19.991   8.792  1.00  0.00     0.210 HD
ENDBRANCH  33  37
BRANCH  34  39
HETATM   39  N5  UNL     1       3.784 -18.709   9.073  1.00  0.00    -0.070 N 
ATOM     40  H53 UNL     1       4.270 -18.635   9.966  1.00  0.00     0.274 HD
ATOM     41  H52 UNL     1       4.286 -19.513   8.694  1.00  0.00     0.274 HD
ATOM     42  H51 UNL     1       3.915 -17.876   8.500  1.00  0.00     0.274 HD
ENDBRANCH  34  39
ENDBRANCH  28  29
ENDBRANCH  27  28
ENDBRANCH  26  27
ENDBRANCH   1  26
BRANCH   3  43
HETATM   43  N3  UNL     1      -1.690 -20.651   6.083  1.00  0.00    -0.027 N 
ATOM     44  H33 UNL     1      -0.676 -20.741   6.025  1.00  0.00     0.279 HD
ATOM     45  H32 UNL     1      -1.869 -21.247   6.892  1.00  0.00     0.279 HD
ATOM     46  H31 UNL     1      -2.134 -21.034   5.249  1.00  0.00     0.279 HD
ENDBRANCH   3  43
TORSDOF 16
ENDMDL
MODEL 4
REMARK VINA RESULT: -5.195397961      2.730      4.740
REMARK  16 active torsions:
REMARK  status: ('A' for Active; 'I' for Inactive)
REMARK    1  A    between atoms: S1_2  and  C2_3 
REMARK    2  A    between atoms: C3_6  and  S2_7 
REMARK    3  A    between atoms: S2_7  and  S3_8 
REMARK    4  A    between atoms: S3_8  and  C4_9 
REMARK    5  A    between atoms: C4_9  and  C5_10 
REMARK    6  A    between atoms: C6_12  and  N3_13 
REMARK    7  A    between atoms: C7_20  and  O2_21 
REMARK    8  A    between atoms: O2_21  and  C8_22 
REMARK    9  A    between atoms: C8_22  and  C9_23 
REMARK   10  A    between atoms: C10_24  and  O3_25 
REMARK   11  A    between atoms: C11_27  and  O4_28 
REMARK   12  A    between atoms: C12_30  and  O5_31 
REMARK   13  A    between atoms: C13_33  and  O6_34 
REMARK   14  A    between atoms: C14_36  and  O7_37 
REMARK   15  A    between atoms: C15_39  and  N5_40 
REMARK   16  A    between atoms: C16_44  and  O8_45 
ROOT
HETATM    1  C5  UNL     1      -1.841 -18.451   7.978  1.00  0.00     0.192 C 
HETATM    2  O1  UNL     1      -2.059 -19.765   7.574  1.00  0.00    -0.328 OA
HETATM    3  C6  UNL     1      -2.182 -19.666   6.208  1.00  0.00     0.525 C 
HETATM    4  N4  UNL     1      -1.042 -18.802   5.869  1.00  0.00     0.006 N 
ATOM      5  H41 UNL     1      -0.938 -18.557   4.884  1.00  0.00     0.285 HD
ATOM      6  H42 UNL     1      -0.117 -19.227   5.936  1.00  0.00     0.285 HD
HETATM    7  C7  UNL     1      -1.317 -17.689   6.793  1.00  0.00     0.356 C 
ENDROOT
BRANCH   7   8
HETATM    8  O2  UNL     1      -2.352 -16.965   6.215  1.00  0.00    -0.356 OA
BRANCH   8   9
HETATM    9  C8  UNL     1      -1.931 -16.305   5.054  1.00  0.00     0.180 C 
BRANCH   9  10
HETATM   10  C9  UNL     1      -2.951 -16.493   3.937  1.00  0.00     0.072 C 
HETATM   11  C10 UNL     1      -4.325 -16.319   4.482  1.00  0.00     0.158 C 
HETATM   12  C11 UNL     1      -5.371 -15.894   3.522  1.00  0.00     0.178 C 
HETATM   13  C12 UNL     1      -4.979 -16.265   2.130  1.00  0.00     0.180 C 
HETATM   14  C13 UNL     1      -3.731 -15.494   1.767  1.00  0.00     0.178 C 
HETATM   15  C14 UNL     1      -2.636 -15.633   2.750  1.00  0.00     0.158 C 
BRANCH  11  16
HETATM   16  O3  UNL     1      -4.734 -17.472   5.175  1.00  0.00    -0.392 OA
ATOM     17  H3  UNL     1      -3.991 -18.033   5.362  1.00  0.00     0.210 HD
ENDBRANCH  11  16
BRANCH  12  18
HETATM   18  O4  UNL     1      -5.736 -14.558   3.650  1.00  0.00    -0.390 OA
ATOM     19  H4  UNL     1      -6.644 -14.433   3.900  1.00  0.00     0.210 HD
ENDBRANCH  12  18
BRANCH  13  20
HETATM   20  O5  UNL     1      -4.772 -17.622   2.057  1.00  0.00    -0.390 OA
ATOM     21  H5  UNL     1      -5.179 -17.964   1.269  1.00  0.00     0.210 HD
ENDBRANCH  13  20
BRANCH  14  22
HETATM   22  O6  UNL     1      -3.306 -16.000   0.532  1.00  0.00    -0.390 OA
ATOM     23  H6  UNL     1      -2.912 -15.270   0.069  1.00  0.00     0.210 HD
ENDBRANCH  14  22
BRANCH  15  24
HETATM   24  O7  UNL     1      -2.322 -14.350   3.247  1.00  0.00    -0.392 OA
ATOM     25  H7  UNL     1      -1.524 -14.075   2.813  1.00  0.00     0.210 HD
ENDBRANCH  15  24
ENDBRANCH   9  10
ENDBRANCH   8   9
ENDBRANCH   7   8
BRANCH   1  26
HETATM   26  C4  UNL     1      -0.966 -18.341   9.187  1.00  0.00     0.122 C 
BRANCH  26  27
HETATM   27  S3  UNL     1      -0.916 -16.680   9.878  1.00  0.00    -0.093 SA
BRANCH  27  28
HETATM   28  S2  UNL     1      -2.575 -16.296  11.141  1.00  0.00    -0.072 SA
BRANCH  28  29
HETATM   29  C3  UNL     1      -3.980 -15.631  10.254  1.00  0.00     0.200 C 
HETATM   30  N2  UNL     1      -4.399 -14.377  10.861  1.00  0.00    -0.129 NA
HETATM   31  N1  UNL     1      -5.445 -13.795  10.140  1.00  0.00    -0.129 NA
HETATM   32  C2  UNL     1      -4.950 -13.257   8.912  1.00  0.00     0.186 C 
HETATM   33  C16 UNL     1      -3.820 -14.037   8.331  1.00  0.00     0.181 C 
HETATM   34  C15 UNL     1      -3.768 -15.483   8.770  1.00  0.00     0.245 C 
BRANCH  32  35
HETATM   35  S1  UNL     1      -4.408 -11.520   9.109  1.00  0.00    -0.148 SA
HETATM   36  C1  UNL     1      -5.148 -10.570   7.745  1.00  0.00     0.091 C 
ENDBRANCH  32  35
BRANCH  33  37
HETATM   37  O8  UNL     1      -2.585 -13.413   8.500  1.00  0.00    -0.391 OA
ATOM     38  H8  UNL     1      -1.925 -13.730   7.896  1.00  0.00     0.210 HD
ENDBRANCH  33  37
BRANCH  34  39
HETATM   39  N5  UNL     1      -4.785 -16.213   8.036  1.00  0.00    -0.070 N 
ATOM     40  H53 UNL     1      -4.728 -17.217   8.206  1.00  0.00     0.274 HD
ATOM     41  H52 UNL     1      -5.718 -16.048   8.413  1.00  0.00     0.274 HD
ATOM     42  H51 UNL     1      -4.733 -15.994   7.041  1.00  0.00     0.274 HD
ENDBRANCH  34  39
ENDBRANCH  28  29
ENDBRANCH  27  28
ENDBRANCH  26  27
ENDBRANCH   1  26
BRANCH   3  43
HETATM   43  N3  UNL     1      -1.990 -20.909   5.518  1.00  0.00    -0.027 N 
ATOM     44  H33 UNL     1      -1.428 -21.549   6.080  1.00  0.00     0.279 HD
ATOM     45  H32 UNL     1      -2.863 -21.437   5.479  1.00  0.00     0.279 HD
ATOM     46  H31 UNL     1      -1.591 -20.805   4.585  1.00  0.00     0.279 HD
ENDBRANCH   3  43
TORSDOF 16
ENDMDL
MODEL 5
REMARK VINA RESULT: -5.141403053      2.029      3.255
REMARK  16 active torsions:
REMARK  status: ('A' for Active; 'I' for Inactive)
REMARK    1  A    between atoms: S1_2  and  C2_3 
REMARK    2  A    between atoms: C3_6  and  S2_7 
REMARK    3  A    between atoms: S2_7  and  S3_8 
REMARK    4  A    between atoms: S3_8  and  C4_9 
REMARK    5  A    between atoms: C4_9  and  C5_10 
REMARK    6  A    between atoms: C6_12  and  N3_13 
REMARK    7  A    between atoms: C7_20  and  O2_21 
REMARK    8  A    between atoms: O2_21  and  C8_22 
REMARK    9  A    between atoms: C8_22  and  C9_23 
REMARK   10  A    between atoms: C10_24  and  O3_25 
REMARK   11  A    between atoms: C11_27  and  O4_28 
REMARK   12  A    between atoms: C12_30  and  O5_31 
REMARK   13  A    between atoms: C13_33  and  O6_34 
REMARK   14  A    between atoms: C14_36  and  O7_37 
REMARK   15  A    between atoms: C15_39  and  N5_40 
REMARK   16  A    between atoms: C16_44  and  O8_45 
ROOT
HETATM    1  C5  UNL     1      -4.013 -17.177   5.697  1.00  0.00     0.192 C 
HETATM    2  O1  UNL     1      -3.143 -18.121   6.234  1.00  0.00    -0.328 OA
HETATM    3  C6  UNL     1      -2.029 -18.025   5.434  1.00  0.00     0.525 C 
HETATM    4  N4  UNL     1      -1.838 -16.569   5.364  1.00  0.00     0.006 N 
ATOM      5  H41 UNL     1      -1.064 -16.242   4.785  1.00  0.00     0.285 HD
ATOM      6  H42 UNL     1      -1.491 -16.117   6.210  1.00  0.00     0.285 HD
HETATM    7  C7  UNL     1      -3.190 -16.184   4.925  1.00  0.00     0.356 C 
ENDROOT
BRANCH   7   8
HETATM    8  O2  UNL     1      -3.249 -16.487   3.571  1.00  0.00    -0.356 OA
BRANCH   8   9
HETATM    9  C8  UNL     1      -4.571 -16.614   3.130  1.00  0.00     0.180 C 
BRANCH   9  10
HETATM   10  C9  UNL     1      -4.932 -15.467   2.194  1.00  0.00     0.072 C 
HETATM   11  C10 UNL     1      -3.837 -15.268   1.205  1.00  0.00     0.158 C 
HETATM   12  C11 UNL     1      -4.214 -14.644  -0.087  1.00  0.00     0.178 C 
HETATM   13  C12 UNL     1      -5.463 -13.841   0.071  1.00  0.00     0.180 C 
HETATM   14  C13 UNL     1      -6.589 -14.781   0.433  1.00  0.00     0.178 C 
HETATM   15  C14 UNL     1      -6.292 -15.650   1.591  1.00  0.00     0.158 C 
BRANCH  11  16
HETATM   16  O3  UNL     1      -2.760 -14.576   1.788  1.00  0.00    -0.392 OA
ATOM     17  H3  UNL     1      -2.477 -15.006   2.586  1.00  0.00     0.210 HD
ENDBRANCH  11  16
BRANCH  12  18
HETATM   18  O4  UNL     1      -4.272 -15.545  -1.145  1.00  0.00    -0.390 OA
ATOM     19  H4  UNL     1      -4.083 -15.154  -1.989  1.00  0.00     0.210 HD
ENDBRANCH  12  18
BRANCH  13  20
HETATM   20  O5  UNL     1      -5.274 -12.883   1.038  1.00  0.00    -0.390 OA
ATOM     21  H5  UNL     1      -5.197 -12.029   0.629  1.00  0.00     0.210 HD
ENDBRANCH  13  20
BRANCH  14  22
HETATM   22  O6  UNL     1      -7.689 -13.970   0.738  1.00  0.00    -0.390 OA
ATOM     23  H6  UNL     1      -8.337 -14.542   1.134  1.00  0.00     0.210 HD
ENDBRANCH  14  22
BRANCH  15  24
HETATM   24  O7  UNL     1      -6.373 -16.994   1.167  1.00  0.00    -0.392 OA
ATOM     25  H7  UNL     1      -6.273 -16.990   0.223  1.00  0.00     0.210 HD
ENDBRANCH  15  24
ENDBRANCH   9  10
ENDBRANCH   8   9
ENDBRANCH   7   8
BRANCH   1  26
HETATM   26  C4  UNL     1      -4.903 -16.543   6.720  1.00  0.00     0.122 C 
BRANCH  26  27
HETATM   27  S3  UNL     1      -4.480 -14.827   7.060  1.00  0.00    -0.093 SA
BRANCH  27  28
HETATM   28  S2  UNL     1      -2.821 -14.662   8.369  1.00  0.00    -0.072 SA
BRANCH  28  29
HETATM   29  C3  UNL     1      -2.360 -16.229   9.101  1.00  0.00     0.200 C 
HETATM   30  N2  UNL     1      -1.049 -16.633   8.618  1.00  0.00    -0.129 NA
HETATM   31  N1  UNL     1      -0.628 -17.815   9.235  1.00  0.00    -0.129 NA
HETATM   32  C2  UNL     1      -0.259 -17.551  10.590  1.00  0.00     0.186 C 
HETATM   33  C16 UNL     1      -1.067 -16.474  11.231  1.00  0.00     0.181 C 
HETATM   34  C15 UNL     1      -2.427 -16.258  10.606  1.00  0.00     0.245 C 
BRANCH  32  35
HETATM   35  S1  UNL     1       1.510 -17.105  10.732  1.00  0.00    -0.148 SA
HETATM   36  C1  UNL     1       2.433 -18.212   9.623  1.00  0.00     0.091 C 
ENDBRANCH  32  35
BRANCH  33  37
HETATM   37  O8  UNL     1      -0.371 -15.274  11.354  1.00  0.00    -0.391 OA
ATOM     38  H8  UNL     1      -0.704 -14.593  10.781  1.00  0.00     0.210 HD
ENDBRANCH  33  37
BRANCH  34  39
HETATM   39  N5  UNL     1      -3.304 -17.324  11.055  1.00  0.00    -0.070 N 
ATOM     40  H53 UNL     1      -3.735 -17.107  11.953  1.00  0.00     0.274 HD
ATOM     41  H52 UNL     1      -4.151 -17.382  10.490  1.00  0.00     0.274 HD
ATOM     42  H51 UNL     1      -2.802 -18.212  11.080  1.00  0.00     0.274 HD
ENDBRANCH  34  39
ENDBRANCH  28  29
ENDBRANCH  27  28
ENDBRANCH  26  27
ENDBRANCH   1  26
BRANCH   3  43
HETATM   43  N3  UNL     1      -0.843 -18.579   6.022  1.00  0.00    -0.027 N 
ATOM     44  H33 UNL     1      -0.658 -18.148   6.929  1.00  0.00     0.279 HD
ATOM     45  H32 UNL     1      -1.005 -19.541   6.320  1.00  0.00     0.279 HD
ATOM     46  H31 UNL     1      -0.020 -18.521   5.423  1.00  0.00     0.279 HD
ENDBRANCH   3  43
TORSDOF 16
ENDMDL
