MODEL 1
REMARK VINA RESULT: -5.906705341      0.000      0.000
REMARK  1 active torsions:
REMARK  status: ('A' for Active; 'I' for Inactive)
REMARK       I    between atoms: C1_2  and  N2_4 
REMARK    1  A    between atoms: N2_4  and  N3_6 
REMARK       I    between atoms: C2_8  and  N5_10 
ROOT
HETATM    1  N3  UNL     1      12.680  44.296  83.298  1.00  0.00    -0.269 N 
ATOM      2  H3  UNL     1      12.678  45.315  83.320  1.00  0.00     0.190 HD
HETATM    3  C2  UNL     1      12.299  43.608  84.334  1.00  0.00     0.213 C 
HETATM    4  N4  UNL     1      11.887  44.346  85.478  1.00  0.00    -0.061 NA
HETATM    5  N5  UNL     1      12.295  42.195  84.322  1.00  0.00    -0.293 N 
ATOM      6  H5  UNL     1      13.190  41.712  84.235  1.00  0.00     0.177 HD
HETATM    7  S1  UNL     1      10.870  41.243  84.447  1.00  0.00     0.044 SA
ENDROOT
BRANCH   1   8
HETATM    8  N2  UNL     1      13.089  43.608  82.159  1.00  0.00    -0.252 N 
HETATM    9  C1  UNL     1      14.427  43.644  81.684  1.00  0.00     0.347 C 
HETATM   10  N1  UNL     1      14.860  42.957  80.537  1.00  0.00    -0.038 NA
HETATM   11  O1  UNL     1      15.300  44.319  82.303  1.00  0.00    -0.249 OA
ATOM     12  H2  UNL     1      12.402  43.057  81.645  1.00  0.00     0.191 HD
ENDBRANCH   1   8
TORSDOF 1
ENDMDL
MODEL 2
REMARK VINA RESULT: -5.741656887      1.782      1.782
REMARK  1 active torsions:
REMARK  status: ('A' for Active; 'I' for Inactive)
REMARK       I    between atoms: C1_2  and  N2_4 
REMARK    1  A    between atoms: N2_4  and  N3_6 
REMARK       I    between atoms: C2_8  and  N5_10 
ROOT
HETATM    1  N3  UNL     1      12.556  44.928  82.593  1.00  0.00    -0.269 N 
ATOM      2  H3  UNL     1      13.105  45.767  82.781  1.00  0.00     0.190 HD
HETATM    3  C2  UNL     1      11.438  44.710  83.221  1.00  0.00     0.213 C 
HETATM    4  N4  UNL     1      11.032  45.693  84.166  1.00  0.00    -0.061 NA
HETATM    5  N5  UNL     1      10.664  43.554  82.974  1.00  0.00    -0.293 N 
ATOM      6  H5  UNL     1      11.064  42.647  83.215  1.00  0.00     0.177 HD
HETATM    7  S1  UNL     1       9.087  43.587  82.291  1.00  0.00     0.044 SA
ENDROOT
BRANCH   1   8
HETATM    8  N2  UNL     1      12.986  43.989  81.659  1.00  0.00    -0.252 N 
HETATM    9  C1  UNL     1      14.358  43.697  81.444  1.00  0.00     0.347 C 
HETATM   10  N1  UNL     1      14.813  42.754  80.507  1.00  0.00    -0.038 NA
HETATM   11  O1  UNL     1      15.245  44.300  82.116  1.00  0.00    -0.249 OA
ATOM     12  H2  UNL     1      12.287  43.491  81.108  1.00  0.00     0.191 HD
ENDBRANCH   1   8
TORSDOF 1
ENDMDL
MODEL 3
REMARK VINA RESULT: -5.643054560      1.878      1.918
REMARK  1 active torsions:
REMARK  status: ('A' for Active; 'I' for Inactive)
REMARK       I    between atoms: C1_2  and  N2_4 
REMARK    1  A    between atoms: N2_4  and  N3_6 
REMARK       I    between atoms: C2_8  and  N5_10 
ROOT
HETATM    1  N3  UNL     1      14.624  44.259  83.293  1.00  0.00    -0.269 N 
ATOM      2  H3  UNL     1      15.519  44.734  83.411  1.00  0.00     0.190 HD
HETATM    3  C2  UNL     1      14.180  43.443  84.204  1.00  0.00     0.213 C 
HETATM    4  N4  UNL     1      14.998  43.258  85.353  1.00  0.00    -0.061 NA
HETATM    5  N5  UNL     1      12.943  42.776  84.058  1.00  0.00    -0.293 N 
ATOM      6  H5  UNL     1      12.847  42.101  83.298  1.00  0.00     0.177 HD
HETATM    7  S1  UNL     1      11.590  43.036  85.086  1.00  0.00     0.044 SA
ENDROOT
BRANCH   1   8
HETATM    8  N2  UNL     1      13.851  44.468  82.155  1.00  0.00    -0.252 N 
HETATM    9  C1  UNL     1      14.133  43.838  80.914  1.00  0.00     0.347 C 
HETATM   10  N1  UNL     1      13.365  44.036  79.753  1.00  0.00    -0.038 NA
HETATM   11  O1  UNL     1      15.119  43.052  80.812  1.00  0.00    -0.249 OA
ATOM     12  H2  UNL     1      13.051  45.097  82.214  1.00  0.00     0.191 HD
ENDBRANCH   1   8
TORSDOF 1
ENDMDL
MODEL 4
REMARK VINA RESULT: -5.591676230      4.160      4.651
REMARK  1 active torsions:
REMARK  status: ('A' for Active; 'I' for Inactive)
REMARK       I    between atoms: C1_2  and  N2_4 
REMARK    1  A    between atoms: N2_4  and  N3_6 
REMARK       I    between atoms: C2_8  and  N5_10 
ROOT
HETATM    1  N3  UNL     1       9.571  42.328  83.596  1.00  0.00    -0.269 N 
ATOM      2  H3  UNL     1       9.098  41.621  83.033  1.00  0.00     0.190 HD
HETATM    3  C2  UNL     1      10.423  41.985  84.517  1.00  0.00     0.213 C 
HETATM    4  N4  UNL     1      10.655  40.592  84.689  1.00  0.00    -0.061 NA
HETATM    5  N5  UNL     1      11.087  42.950  85.306  1.00  0.00    -0.293 N 
ATOM      6  H5  UNL     1      10.526  43.528  85.933  1.00  0.00     0.177 HD
HETATM    7  S1  UNL     1      12.786  43.209  85.270  1.00  0.00     0.044 SA
ENDROOT
BRANCH   1   8
HETATM    8  N2  UNL     1       9.319  43.682  83.397  1.00  0.00    -0.252 N 
HETATM    9  C1  UNL     1       8.737  44.185  82.203  1.00  0.00     0.347 C 
HETATM   10  N1  UNL     1       8.474  45.547  81.983  1.00  0.00    -0.038 NA
HETATM   11  O1  UNL     1       8.425  43.390  81.269  1.00  0.00    -0.249 OA
ATOM     12  H2  UNL     1       9.562  44.340  84.137  1.00  0.00     0.191 HD
ENDBRANCH   1   8
TORSDOF 1
ENDMDL
MODEL 5
REMARK VINA RESULT: -5.378336450      2.103      2.581
REMARK  1 active torsions:
REMARK  status: ('A' for Active; 'I' for Inactive)
REMARK       I    between atoms: C1_2  and  N2_4 
REMARK    1  A    between atoms: N2_4  and  N3_6 
REMARK       I    between atoms: C2_8  and  N5_10 
ROOT
HETATM    1  N3  UNL     1      13.346  44.440  83.117  1.00  0.00    -0.269 N 
ATOM      2  H3  UNL     1      14.264  44.860  83.264  1.00  0.00     0.190 HD
HETATM    3  C2  UNL     1      13.119  43.203  83.449  1.00  0.00     0.213 C 
HETATM    4  N4  UNL     1      14.205  42.483  84.020  1.00  0.00    -0.061 NA
HETATM    5  N5  UNL     1      11.854  42.604  83.252  1.00  0.00    -0.293 N 
ATOM      6  H5  UNL     1      11.520  42.488  82.295  1.00  0.00     0.177 HD
HETATM    7  S1  UNL     1      10.845  42.061  84.533  1.00  0.00     0.044 SA
ENDROOT
BRANCH   1   8
HETATM    8  N2  UNL     1      12.307  45.177  82.556  1.00  0.00    -0.252 N 
HETATM    9  C1  UNL     1      12.161  45.349  81.154  1.00  0.00     0.347 C 
HETATM   10  N1  UNL     1      11.119  46.089  80.569  1.00  0.00    -0.038 NA
HETATM   11  O1  UNL     1      12.994  44.821  80.362  1.00  0.00    -0.249 OA
ATOM     12  H2  UNL     1      11.623  45.611  83.176  1.00  0.00     0.191 HD
ENDBRANCH   1   8
TORSDOF 1
ENDMDL
