MODEL 1
REMARK VINA RESULT: -6.181079474      0.000      0.000
REMARK  6 active torsions:
REMARK  status: ('A' for Active; 'I' for Inactive)
REMARK    1  A    between atoms: C6_11  and  N3_12 
REMARK    2  A    between atoms: N4_15  and  C7_16 
REMARK    3  A    between atoms: C8_18  and  C9_19 
REMARK    4  A    between atoms: C9_19  and  S1_20 
REMARK    5  A    between atoms: S1_20  and  C10_21 
REMARK    6  A    between atoms: C13_24  and  O2_25 
ROOT
HETATM    1  C1  UNL     1       0.081   5.268  26.608  1.00  0.00     0.044 C 
HETATM    2  C2  UNL     1       0.972   4.338  26.959  1.00  0.00     0.047 A 
HETATM    3  C3  UNL     1       1.635   3.263  26.230  1.00  0.00     0.078 A 
HETATM    4  C4  UNL     1       2.331   2.864  27.353  1.00  0.00     0.128 A 
HETATM    5  N1  UNL     1       3.176   1.821  27.267  1.00  0.00    -0.318 N 
ATOM      6  H1  UNL     1       3.686   1.535  28.104  1.00  0.00     0.170 HD
HETATM    7  C5  UNL     1       3.380   1.137  26.126  1.00  0.00     0.182 A 
HETATM    8 CL1  UNL     1       4.489  -0.221  26.044  1.00  0.00    -0.045 Cl
HETATM    9  N2  UNL     1       2.720   1.495  25.015  1.00  0.00    -0.318 N 
ATOM     10  H2  UNL     1       2.862   0.987  24.142  1.00  0.00     0.170 HD
HETATM   11  C6  UNL     1       1.864   2.541  25.070  1.00  0.00     0.117 A 
HETATM   12  N4  UNL     1       1.687   3.919  28.090  1.00  0.00    -0.304 N 
ENDROOT
BRANCH  12  13
HETATM   13  C7  UNL     1       1.776   4.340  29.449  1.00  0.00     0.236 C 
HETATM   14  O1  UNL     1       0.601   4.991  29.878  1.00  0.00    -0.357 OA
HETATM   15  C8  UNL     1       0.999   5.320  31.188  1.00  0.00     0.162 C 
HETATM   16  C13 UNL     1       2.252   6.076  30.953  1.00  0.00     0.155 C 
HETATM   17  C14 UNL     1       2.856   5.315  29.762  1.00  0.00     0.062 C 
HETATM   18  C15 UNL     1       3.226   6.225  28.643  1.00  0.00     0.017 C 
BRANCH  15  19
HETATM   19  C9  UNL     1      -0.061   6.048  31.941  1.00  0.00     0.109 C 
BRANCH  19  20
HETATM   20  S1  UNL     1      -1.729   5.567  31.524  1.00  0.00    -0.162 SA
BRANCH  20  21
HETATM   21  C10 UNL     1      -2.349   6.579  30.177  1.00  0.00     0.039 C 
HETATM   22  C11 UNL     1      -3.759   7.066  30.414  1.00  0.00     0.021 C 
HETATM   23  C12 UNL     1      -1.486   7.795  29.916  1.00  0.00     0.021 C 
ENDBRANCH  20  21
ENDBRANCH  19  20
ENDBRANCH  15  19
BRANCH  16  24
HETATM   24  O2  UNL     1       2.088   7.378  30.573  1.00  0.00    -0.392 OA
ATOM     25  H2  UNL     1       2.827   7.766  30.119  1.00  0.00     0.210 HD
ENDBRANCH  16  24
ENDBRANCH  12  13
BRANCH  11  26
HETATM   26  N3  UNL     1       1.262   2.835  23.966  1.00  0.00    -0.385 N 
ATOM     27  H32 UNL     1       0.283   2.558  23.906  1.00  0.00     0.157 HD
ATOM     28  H31 UNL     1       1.749   3.315  23.209  1.00  0.00     0.157 HD
ENDBRANCH  11  26
TORSDOF 6
ENDMDL
MODEL 2
REMARK VINA RESULT: -5.887796797      4.881      7.163
REMARK  6 active torsions:
REMARK  status: ('A' for Active; 'I' for Inactive)
REMARK    1  A    between atoms: C6_11  and  N3_12 
REMARK    2  A    between atoms: N4_15  and  C7_16 
REMARK    3  A    between atoms: C8_18  and  C9_19 
REMARK    4  A    between atoms: C9_19  and  S1_20 
REMARK    5  A    between atoms: S1_20  and  C10_21 
REMARK    6  A    between atoms: C13_24  and  O2_25 
ROOT
HETATM    1  C1  UNL     1       2.587   3.185  25.490  1.00  0.00     0.044 C 
HETATM    2  C2  UNL     1       2.282   3.674  26.694  1.00  0.00     0.047 A 
HETATM    3  C3  UNL     1       1.267   4.610  27.165  1.00  0.00     0.078 A 
HETATM    4  C4  UNL     1       1.703   4.503  28.470  1.00  0.00     0.128 A 
HETATM    5  N1  UNL     1       1.080   5.208  29.432  1.00  0.00    -0.318 N 
ATOM      6  H1  UNL     1       1.411   5.120  30.393  1.00  0.00     0.170 HD
HETATM    7  C5  UNL     1       0.039   6.024  29.182  1.00  0.00     0.182 A 
HETATM    8 CL1  UNL     1      -0.753   6.932  30.458  1.00  0.00    -0.045 Cl
HETATM    9  N2  UNL     1      -0.411   6.155  27.926  1.00  0.00    -0.318 N 
ATOM     10  H2  UNL     1      -1.198   6.770  27.719  1.00  0.00     0.170 HD
HETATM   11  C6  UNL     1       0.195   5.458  26.938  1.00  0.00     0.117 A 
HETATM   12  N4  UNL     1       2.711   3.577  28.026  1.00  0.00    -0.304 N 
ENDROOT
BRANCH  12  13
HETATM   13  C7  UNL     1       3.734   2.860  28.713  1.00  0.00     0.236 C 
HETATM   14  O1  UNL     1       4.913   2.758  27.947  1.00  0.00    -0.357 OA
HETATM   15  C8  UNL     1       5.685   1.985  28.837  1.00  0.00     0.162 C 
HETATM   16  C13 UNL     1       4.813   0.808  29.063  1.00  0.00     0.155 C 
HETATM   17  C14 UNL     1       3.417   1.450  29.067  1.00  0.00     0.062 C 
HETATM   18  C15 UNL     1       2.479   0.763  28.136  1.00  0.00     0.017 C 
BRANCH  15  19
HETATM   19  C9  UNL     1       7.044   1.687  28.303  1.00  0.00     0.109 C 
BRANCH  19  20
HETATM   20  S1  UNL     1       8.154   0.937  29.483  1.00  0.00    -0.162 SA
BRANCH  20  21
HETATM   21  C10 UNL     1       9.078   2.203  30.359  1.00  0.00     0.039 C 
HETATM   22  C11 UNL     1       8.297   2.814  31.497  1.00  0.00     0.021 C 
HETATM   23  C12 UNL     1      10.382   1.686  30.928  1.00  0.00     0.021 C 
ENDBRANCH  20  21
ENDBRANCH  19  20
ENDBRANCH  15  19
BRANCH  16  24
HETATM   24  O2  UNL     1       4.833  -0.135  28.075  1.00  0.00    -0.392 OA
ATOM     25  H2  UNL     1       5.634  -0.642  28.010  1.00  0.00     0.210 HD
ENDBRANCH  16  24
ENDBRANCH  12  13
BRANCH  11  26
HETATM   26  N3  UNL     1      -0.288   5.626  25.752  1.00  0.00    -0.385 N 
ATOM     27  H32 UNL     1      -0.218   6.571  25.373  1.00  0.00     0.157 HD
ATOM     28  H31 UNL     1      -0.711   4.854  25.237  1.00  0.00     0.157 HD
ENDBRANCH  11  26
TORSDOF 6
ENDMDL
MODEL 3
REMARK VINA RESULT: -5.882215745      2.601      3.792
REMARK  6 active torsions:
REMARK  status: ('A' for Active; 'I' for Inactive)
REMARK    1  A    between atoms: C6_11  and  N3_12 
REMARK    2  A    between atoms: N4_15  and  C7_16 
REMARK    3  A    between atoms: C8_18  and  C9_19 
REMARK    4  A    between atoms: C9_19  and  S1_20 
REMARK    5  A    between atoms: S1_20  and  C10_21 
REMARK    6  A    between atoms: C13_24  and  O2_25 
ROOT
HETATM    1  C1  UNL     1       3.343   5.920  30.172  1.00  0.00     0.044 C 
HETATM    2  C2  UNL     1       2.412   5.366  29.393  1.00  0.00     0.047 A 
HETATM    3  C3  UNL     1       2.461   4.695  28.099  1.00  0.00     0.078 A 
HETATM    4  C4  UNL     1       1.097   4.483  28.101  1.00  0.00     0.128 A 
HETATM    5  N1  UNL     1       0.528   3.848  27.061  1.00  0.00    -0.318 N 
ATOM      6  H1  UNL     1      -0.481   3.697  27.074  1.00  0.00     0.170 HD
HETATM    7  C5  UNL     1       1.232   3.402  26.003  1.00  0.00     0.182 A 
HETATM    8 CL1  UNL     1       0.462   2.577  24.659  1.00  0.00    -0.045 Cl
HETATM    9  N2  UNL     1       2.559   3.591  25.965  1.00  0.00    -0.318 N 
ATOM     10  H2  UNL     1       3.107   3.260  25.171  1.00  0.00     0.170 HD
HETATM   11  C6  UNL     1       3.159   4.226  26.997  1.00  0.00     0.117 A 
HETATM   12  N4  UNL     1       1.028   5.143  29.378  1.00  0.00    -0.304 N 
ENDROOT
BRANCH  12  13
HETATM   13  C7  UNL     1      -0.057   5.433  30.257  1.00  0.00     0.236 C 
HETATM   14  O1  UNL     1      -1.191   4.643  29.975  1.00  0.00    -0.357 OA
HETATM   15  C8  UNL     1      -2.072   5.177  30.935  1.00  0.00     0.162 C 
HETATM   16  C13 UNL     1      -2.046   6.623  30.614  1.00  0.00     0.155 C 
HETATM   17  C14 UNL     1      -0.576   6.827  30.215  1.00  0.00     0.062 C 
HETATM   18  C15 UNL     1      -0.440   7.510  28.899  1.00  0.00     0.017 C 
BRANCH  15  19
HETATM   19  C9  UNL     1      -3.415   4.533  30.898  1.00  0.00     0.109 C 
BRANCH  19  20
HETATM   20  S1  UNL     1      -3.772   3.482  32.297  1.00  0.00    -0.162 SA
BRANCH  20  21
HETATM   21  C10 UNL     1      -2.989   4.130  33.777  1.00  0.00     0.039 C 
HETATM   22  C11 UNL     1      -3.701   5.340  34.332  1.00  0.00     0.021 C 
HETATM   23  C12 UNL     1      -2.900   3.105  34.887  1.00  0.00     0.021 C 
ENDBRANCH  20  21
ENDBRANCH  19  20
ENDBRANCH  15  19
BRANCH  16  24
HETATM   24  O2  UNL     1      -2.819   7.002  29.553  1.00  0.00    -0.392 OA
ATOM     25  H2  UNL     1      -3.711   7.249  29.766  1.00  0.00     0.210 HD
ENDBRANCH  16  24
ENDBRANCH  12  13
BRANCH  11  26
HETATM   26  N3  UNL     1       4.438   4.374  26.901  1.00  0.00    -0.385 N 
ATOM     27  H32 UNL     1       4.802   5.288  27.171  1.00  0.00     0.157 HD
ATOM     28  H31 UNL     1       5.036   3.616  26.571  1.00  0.00     0.157 HD
ENDBRANCH  11  26
TORSDOF 6
ENDMDL
MODEL 4
REMARK VINA RESULT: -5.870552339      1.800      2.585
REMARK  6 active torsions:
REMARK  status: ('A' for Active; 'I' for Inactive)
REMARK    1  A    between atoms: C6_11  and  N3_12 
REMARK    2  A    between atoms: N4_15  and  C7_16 
REMARK    3  A    between atoms: C8_18  and  C9_19 
REMARK    4  A    between atoms: C9_19  and  S1_20 
REMARK    5  A    between atoms: S1_20  and  C10_21 
REMARK    6  A    between atoms: C13_24  and  O2_25 
ROOT
HETATM    1  C1  UNL     1       5.248   2.757  29.597  1.00  0.00     0.044 C 
HETATM    2  C2  UNL     1       4.173   3.042  28.860  1.00  0.00     0.047 A 
HETATM    3  C3  UNL     1       3.746   2.654  27.520  1.00  0.00     0.078 A 
HETATM    4  C4  UNL     1       2.584   3.393  27.622  1.00  0.00     0.128 A 
HETATM    5  N1  UNL     1       1.723   3.409  26.589  1.00  0.00    -0.318 N 
ATOM      6  H1  UNL     1       0.867   3.958  26.676  1.00  0.00     0.170 HD
HETATM    7  C5  UNL     1       1.939   2.732  25.446  1.00  0.00     0.182 A 
HETATM    8 CL1  UNL     1       0.797   2.773  24.114  1.00  0.00    -0.045 Cl
HETATM    9  N2  UNL     1       3.057   2.005  25.310  1.00  0.00    -0.318 N 
ATOM     10  H2  UNL     1       3.238   1.487  24.450  1.00  0.00     0.170 HD
HETATM   11  C6  UNL     1       3.942   1.969  26.332  1.00  0.00     0.117 A 
HETATM   12  N4  UNL     1       2.987   3.787  28.946  1.00  0.00    -0.304 N 
ENDROOT
BRANCH  12  13
HETATM   13  C7  UNL     1       2.380   4.619  29.932  1.00  0.00     0.236 C 
HETATM   14  O1  UNL     1       1.036   4.912  29.621  1.00  0.00    -0.357 OA
HETATM   15  C8  UNL     1       0.739   5.756  30.708  1.00  0.00     0.162 C 
HETATM   16  C13 UNL     1       1.795   6.790  30.598  1.00  0.00     0.155 C 
HETATM   17  C14 UNL     1       2.999   5.958  30.129  1.00  0.00     0.062 C 
HETATM   18  C15 UNL     1       3.645   6.536  28.919  1.00  0.00     0.017 C 
BRANCH  15  19
HETATM   19  C9  UNL     1      -0.663   6.260  30.674  1.00  0.00     0.109 C 
BRANCH  19  20
HETATM   20  S1  UNL     1      -1.899   4.995  30.425  1.00  0.00    -0.162 SA
BRANCH  20  21
HETATM   21  C10 UNL     1      -3.525   5.624  30.851  1.00  0.00     0.039 C 
HETATM   22  C11 UNL     1      -3.782   5.618  32.339  1.00  0.00     0.021 C 
HETATM   23  C12 UNL     1      -3.754   7.036  30.355  1.00  0.00     0.021 C 
ENDBRANCH  20  21
ENDBRANCH  19  20
ENDBRANCH  15  19
BRANCH  16  24
HETATM   24  O2  UNL     1       1.571   7.758  29.661  1.00  0.00    -0.392 OA
ATOM     25  H2  UNL     1       1.140   8.543  29.979  1.00  0.00     0.210 HD
ENDBRANCH  16  24
ENDBRANCH  12  13
BRANCH  11  26
HETATM   26  N3  UNL     1       4.997   1.250  26.139  1.00  0.00    -0.385 N 
ATOM     27  H32 UNL     1       4.847   0.242  26.096  1.00  0.00     0.157 HD
ATOM     28  H31 UNL     1       5.919   1.676  26.039  1.00  0.00     0.157 HD
ENDBRANCH  11  26
TORSDOF 6
ENDMDL
MODEL 5
REMARK VINA RESULT: -5.842630498      4.600      6.685
REMARK  6 active torsions:
REMARK  status: ('A' for Active; 'I' for Inactive)
REMARK    1  A    between atoms: C6_11  and  N3_12 
REMARK    2  A    between atoms: N4_15  and  C7_16 
REMARK    3  A    between atoms: C8_18  and  C9_19 
REMARK    4  A    between atoms: C9_19  and  S1_20 
REMARK    5  A    between atoms: S1_20  and  C10_21 
REMARK    6  A    between atoms: C13_24  and  O2_25 
ROOT
HETATM    1  C1  UNL     1       2.086   6.399  30.052  1.00  0.00     0.044 C 
HETATM    2  C2  UNL     1       2.267   5.454  29.126  1.00  0.00     0.047 A 
HETATM    3  C3  UNL     1       1.541   5.089  27.915  1.00  0.00     0.078 A 
HETATM    4  C4  UNL     1       2.419   4.060  27.640  1.00  0.00     0.128 A 
HETATM    5  N1  UNL     1       2.226   3.308  26.542  1.00  0.00    -0.318 N 
ATOM      6  H1  UNL     1       2.882   2.550  26.348  1.00  0.00     0.170 HD
HETATM    7  C5  UNL     1       1.207   3.510  25.686  1.00  0.00     0.182 A 
HETATM    8 CL1  UNL     1       0.981   2.511  24.261  1.00  0.00    -0.045 Cl
HETATM    9  N2  UNL     1       0.333   4.500  25.921  1.00  0.00    -0.318 N 
ATOM     10  H2  UNL     1      -0.445   4.666  25.284  1.00  0.00     0.170 HD
HETATM   11  C6  UNL     1       0.501   5.274  27.018  1.00  0.00     0.117 A 
HETATM   12  N4  UNL     1       3.149   4.405  28.831  1.00  0.00    -0.304 N 
ENDROOT
BRANCH  12  13
HETATM   13  C7  UNL     1       4.317   3.859  29.438  1.00  0.00     0.236 C 
HETATM   14  O1  UNL     1       5.048   3.049  28.544  1.00  0.00    -0.357 OA
HETATM   15  C8  UNL     1       6.073   2.633  29.416  1.00  0.00     0.162 C 
HETATM   16  C13 UNL     1       5.307   2.039  30.537  1.00  0.00     0.155 C 
HETATM   17  C14 UNL     1       4.091   2.975  30.614  1.00  0.00     0.062 C 
HETATM   18  C15 UNL     1       2.804   2.228  30.600  1.00  0.00     0.017 C 
BRANCH  15  19
HETATM   19  C9  UNL     1       7.052   1.726  28.753  1.00  0.00     0.109 C 
BRANCH  19  20
HETATM   20  S1  UNL     1       8.178   0.906  29.872  1.00  0.00    -0.162 SA
BRANCH  20  21
HETATM   21  C10 UNL     1       9.393   2.072  30.494  1.00  0.00     0.039 C 
HETATM   22  C11 UNL     1       8.883   2.878  31.665  1.00  0.00     0.021 C 
HETATM   23  C12 UNL     1      10.677   1.399  30.930  1.00  0.00     0.021 C 
ENDBRANCH  20  21
ENDBRANCH  19  20
ENDBRANCH  15  19
BRANCH  16  24
HETATM   24  O2  UNL     1       4.842   0.772  30.323  1.00  0.00    -0.392 OA
ATOM     25  H2  UNL     1       5.509   0.107  30.204  1.00  0.00     0.210 HD
ENDBRANCH  16  24
ENDBRANCH  12  13
BRANCH  11  26
HETATM   26  N3  UNL     1      -0.372   6.210  27.186  1.00  0.00    -0.385 N 
ATOM     27  H32 UNL     1      -0.003   7.159  27.236  1.00  0.00     0.157 HD
ATOM     28  H31 UNL     1      -1.367   5.998  27.265  1.00  0.00     0.157 HD
ENDBRANCH  11  26
TORSDOF 6
ENDMDL
