MODEL 1
REMARK VINA RESULT: -10.283556471      0.000      0.000
REMARK  9 active torsions:
REMARK  status: ('A' for Active; 'I' for Inactive)
REMARK       I    between atoms: C1_2  and  N1_3 
REMARK    1  A    between atoms: C1_2  and  C9_17 
REMARK    2  A    between atoms: N1_3  and  N2_5 
REMARK    3  A    between atoms: C2_7  and  C3_8 
REMARK    4  A    between atoms: C8_13  and  N3_14 
REMARK       I    between atoms: C9_17  and  N4_19 
REMARK    5  A    between atoms: N4_19  and  N5_21 
REMARK    6  A    between atoms: C10_23  and  C11_24 
REMARK    7  A    between atoms: C12_25  and  O5_26 
REMARK    8  A    between atoms: N7_32  and  C14_33 
REMARK    9  A    between atoms: C14_33  and  O7_34 
ROOT
HETATM    1  C9  UNL     1      44.148  50.487   6.659  1.00  0.00     0.329 C 
HETATM    2  O4  UNL     1      44.987  50.024   5.856  1.00  0.00    -0.261 OA
HETATM    3  N4  UNL     1      43.207  51.434   6.194  1.00  0.00    -0.262 N 
ATOM      4  H4  UNL     1      42.521  51.814   6.846  1.00  0.00     0.190 HD
ENDROOT
BRANCH   1   5
HETATM    5  C1  UNL     1      44.130  50.069   8.033  1.00  0.00     0.329 C 
HETATM    6  O1  UNL     1      44.374  50.891   8.942  1.00  0.00    -0.261 OA
HETATM    7  N1  UNL     1      43.839  48.729   8.368  1.00  0.00    -0.262 N 
ATOM      8  H1  UNL     1      43.640  48.061   7.623  1.00  0.00     0.190 HD
BRANCH   7   9
HETATM    9  N2  UNL     1      43.818  48.318   9.641  1.00  0.00    -0.308 N 
HETATM   10  C2  UNL     1      44.400  47.440  10.293  1.00  0.00     0.121 C 
ATOM     11  H2  UNL     1      43.165  48.856  10.212  1.00  0.00     0.186 HD
BRANCH  10  12
HETATM   12  C3  UNL     1      45.395  46.452   9.908  1.00  0.00     0.014 A 
HETATM   13  C4  UNL     1      46.688  46.517  10.420  1.00  0.00     0.015 A 
HETATM   14  C5  UNL     1      47.660  45.562  10.124  1.00  0.00     0.001 A 
HETATM   15  C6  UNL     1      47.295  44.533   9.296  1.00  0.00     0.002 A 
HETATM   16  C7  UNL     1      46.033  44.467   8.793  1.00  0.00     0.037 A 
HETATM   17  C8  UNL     1      45.031  45.415   9.072  1.00  0.00     0.114 A 
BRANCH  17  18
HETATM   18  N3  UNL     1      43.759  45.225   8.476  1.00  0.00    -0.115 N 
HETATM   19  O2  UNL     1      43.342  44.017   8.466  1.00  0.00    -0.532 OA
HETATM   20  O3  UNL     1      42.922  46.122   7.920  1.00  0.00    -0.532 OA
ENDBRANCH  17  18
ENDBRANCH  10  12
ENDBRANCH   7   9
ENDBRANCH   1   5
BRANCH   3  21
HETATM   21  N5  UNL     1      43.194  51.862   4.872  1.00  0.00    -0.307 N 
HETATM   22  C10 UNL     1      42.248  52.583   4.394  1.00  0.00     0.141 C 
ATOM     23  H5  UNL     1      43.964  51.594   4.260  1.00  0.00     0.186 HD
BRANCH  22  24
HETATM   24  C11 UNL     1      42.275  53.007   3.005  1.00  0.00     0.108 A 
HETATM   25  C12 UNL     1      43.108  52.463   2.018  1.00  0.00     0.173 A 
HETATM   26  N6  UNL     1      42.888  53.075   0.853  1.00  0.00    -0.287 N 
HETATM   27  C13 UNL     1      41.936  53.987   1.096  1.00  0.00     0.331 A 
ATOM     28  H6  UNL     1      43.349  52.888  -0.037  1.00  0.00     0.172 HD
HETATM   29  O6  UNL     1      41.449  54.777   0.238  1.00  0.00    -0.246 OA
HETATM   30  N7  UNL     1      41.557  53.958   2.387  1.00  0.00    -0.272 N 
BRANCH  25  31
HETATM   31  O5  UNL     1      44.027  51.436   2.224  1.00  0.00    -0.344 OA
ATOM     32  H5  UNL     1      44.111  50.661   1.679  1.00  0.00     0.219 HD
ENDBRANCH  25  31
BRANCH  30  33
HETATM   33  C14 UNL     1      40.537  54.821   2.949  1.00  0.00     0.300 C 
BRANCH  33  34
HETATM   34  O7  UNL     1      39.372  54.111   3.220  1.00  0.00    -0.382 OA
ATOM     35  H7  UNL     1      38.705  54.676   3.593  1.00  0.00     0.211 HD
ENDBRANCH  33  34
ENDBRANCH  30  33
ENDBRANCH  22  24
ENDBRANCH   3  21
TORSDOF 9
ENDMDL
MODEL 2
REMARK VINA RESULT: -10.063231458      2.005      2.479
REMARK  9 active torsions:
REMARK  status: ('A' for Active; 'I' for Inactive)
REMARK       I    between atoms: C1_2  and  N1_3 
REMARK    1  A    between atoms: C1_2  and  C9_17 
REMARK    2  A    between atoms: N1_3  and  N2_5 
REMARK    3  A    between atoms: C2_7  and  C3_8 
REMARK    4  A    between atoms: C8_13  and  N3_14 
REMARK       I    between atoms: C9_17  and  N4_19 
REMARK    5  A    between atoms: N4_19  and  N5_21 
REMARK    6  A    between atoms: C10_23  and  C11_24 
REMARK    7  A    between atoms: C12_25  and  O5_26 
REMARK    8  A    between atoms: N7_32  and  C14_33 
REMARK    9  A    between atoms: C14_33  and  O7_34 
ROOT
HETATM    1  C9  UNL     1      44.057  51.167   7.211  1.00  0.00     0.329 C 
HETATM    2  O4  UNL     1      45.144  51.061   6.601  1.00  0.00    -0.261 OA
HETATM    3  N4  UNL     1      42.923  51.640   6.511  1.00  0.00    -0.262 N 
ATOM      4  H4  UNL     1      42.035  51.727   7.004  1.00  0.00     0.190 HD
ENDROOT
BRANCH   1   5
HETATM    5  C1  UNL     1      43.951  50.816   8.600  1.00  0.00     0.329 C 
HETATM    6  O1  UNL     1      43.704  51.695   9.452  1.00  0.00    -0.261 OA
HETATM    7  N1  UNL     1      44.125  49.477   9.012  1.00  0.00    -0.262 N 
ATOM      8  H1  UNL     1      44.326  48.762   8.313  1.00  0.00     0.190 HD
BRANCH   7   9
HETATM    9  N2  UNL     1      44.032  49.127  10.301  1.00  0.00    -0.308 N 
HETATM   10  C2  UNL     1      44.517  48.234  11.008  1.00  0.00     0.121 C 
ATOM     11  H2  UNL     1      43.412  49.744  10.826  1.00  0.00     0.186 HD
BRANCH  10  12
HETATM   12  C3  UNL     1      45.433  47.148  10.699  1.00  0.00     0.014 A 
HETATM   13  C4  UNL     1      45.330  46.460   9.493  1.00  0.00     0.015 A 
HETATM   14  C5  UNL     1      46.218  45.450   9.128  1.00  0.00     0.001 A 
HETATM   15  C6  UNL     1      47.220  45.147  10.013  1.00  0.00     0.002 A 
HETATM   16  C7  UNL     1      47.323  45.816  11.193  1.00  0.00     0.037 A 
HETATM   17  C8  UNL     1      46.442  46.840  11.589  1.00  0.00     0.114 A 
BRANCH  17  18
HETATM   18  N3  UNL     1      46.665  47.449  12.849  1.00  0.00    -0.115 N 
HETATM   19  O2  UNL     1      47.794  48.036  12.974  1.00  0.00    -0.532 OA
HETATM   20  O3  UNL     1      45.869  47.508  13.934  1.00  0.00    -0.532 OA
ENDBRANCH  17  18
ENDBRANCH  10  12
ENDBRANCH   7   9
ENDBRANCH   1   5
BRANCH   3  21
HETATM   21  N5  UNL     1      42.988  51.989   5.167  1.00  0.00    -0.307 N 
HETATM   22  C10 UNL     1      42.133  52.772   4.621  1.00  0.00     0.141 C 
ATOM     23  H5  UNL     1      43.743  51.610   4.596  1.00  0.00     0.186 HD
BRANCH  22  24
HETATM   24  C11 UNL     1      42.239  53.110   3.211  1.00  0.00     0.108 A 
HETATM   25  C12 UNL     1      43.173  52.559   2.324  1.00  0.00     0.173 A 
HETATM   26  N6  UNL     1      43.006  53.082   1.109  1.00  0.00    -0.287 N 
HETATM   27  C13 UNL     1      41.988  53.947   1.223  1.00  0.00     0.331 A 
ATOM     28  H6  UNL     1      43.542  52.869   0.268  1.00  0.00     0.172 HD
HETATM   29  O6  UNL     1      41.522  54.651   0.282  1.00  0.00    -0.246 OA
HETATM   30  N7  UNL     1      41.515  53.975   2.483  1.00  0.00    -0.272 N 
BRANCH  25  31
HETATM   31  O5  UNL     1      44.132  51.606   2.662  1.00  0.00    -0.344 OA
ATOM     32  H5  UNL     1      44.154  51.120   3.479  1.00  0.00     0.219 HD
ENDBRANCH  25  31
BRANCH  30  33
HETATM   33  C14 UNL     1      40.408  54.805   2.912  1.00  0.00     0.300 C 
BRANCH  33  34
HETATM   34  O7  UNL     1      39.266  54.044   3.136  1.00  0.00    -0.382 OA
ATOM     35  H7  UNL     1      39.273  53.252   2.612  1.00  0.00     0.211 HD
ENDBRANCH  33  34
ENDBRANCH  30  33
ENDBRANCH  22  24
ENDBRANCH   3  21
TORSDOF 9
ENDMDL
MODEL 3
REMARK VINA RESULT: -9.588685270      1.881      2.166
REMARK  9 active torsions:
REMARK  status: ('A' for Active; 'I' for Inactive)
REMARK       I    between atoms: C1_2  and  N1_3 
REMARK    1  A    between atoms: C1_2  and  C9_17 
REMARK    2  A    between atoms: N1_3  and  N2_5 
REMARK    3  A    between atoms: C2_7  and  C3_8 
REMARK    4  A    between atoms: C8_13  and  N3_14 
REMARK       I    between atoms: C9_17  and  N4_19 
REMARK    5  A    between atoms: N4_19  and  N5_21 
REMARK    6  A    between atoms: C10_23  and  C11_24 
REMARK    7  A    between atoms: C12_25  and  O5_26 
REMARK    8  A    between atoms: N7_32  and  C14_33 
REMARK    9  A    between atoms: C14_33  and  O7_34 
ROOT
HETATM    1  C9  UNL     1      44.390  50.588   6.457  1.00  0.00     0.329 C 
HETATM    2  O4  UNL     1      44.935  49.910   5.558  1.00  0.00    -0.261 OA
HETATM    3  N4  UNL     1      43.624  51.719   6.091  1.00  0.00    -0.262 N 
ATOM      4  H4  UNL     1      43.178  52.274   6.820  1.00  0.00     0.190 HD
ENDROOT
BRANCH   1   5
HETATM    5  C1  UNL     1      44.533  50.233   7.841  1.00  0.00     0.329 C 
HETATM    6  O1  UNL     1      43.953  50.900   8.723  1.00  0.00    -0.261 OA
HETATM    7  N1  UNL     1      45.330  49.129   8.215  1.00  0.00    -0.262 N 
ATOM      8  H1  UNL     1      45.802  48.587   7.492  1.00  0.00     0.190 HD
BRANCH   7   9
HETATM    9  N2  UNL     1      45.478  48.780   9.499  1.00  0.00    -0.308 N 
HETATM   10  C2  UNL     1      45.459  47.714  10.129  1.00  0.00     0.121 C 
ATOM     11  H2  UNL     1      45.648  49.585  10.102  1.00  0.00     0.186 HD
BRANCH  10  12
HETATM   12  C3  UNL     1      45.254  46.341   9.698  1.00  0.00     0.014 A 
HETATM   13  C4  UNL     1      44.181  46.013   8.874  1.00  0.00     0.015 A 
HETATM   14  C5  UNL     1      43.975  44.722   8.390  1.00  0.00     0.001 A 
HETATM   15  C6  UNL     1      44.881  43.763   8.759  1.00  0.00     0.002 A 
HETATM   16  C7  UNL     1      45.930  44.079   9.566  1.00  0.00     0.037 A 
HETATM   17  C8  UNL     1      46.164  45.372  10.070  1.00  0.00     0.114 A 
BRANCH  17  18
HETATM   18  N3  UNL     1      47.295  45.558  10.904  1.00  0.00    -0.115 N 
HETATM   19  O2  UNL     1      48.413  45.226  10.381  1.00  0.00    -0.532 OA
HETATM   20  O3  UNL     1      47.372  46.034  12.162  1.00  0.00    -0.532 OA
ENDBRANCH  17  18
ENDBRANCH  10  12
ENDBRANCH   7   9
ENDBRANCH   1   5
BRANCH   3  21
HETATM   21  N5  UNL     1      43.464  52.094   4.762  1.00  0.00    -0.307 N 
HETATM   22  C10 UNL     1      42.394  52.654   4.332  1.00  0.00     0.141 C 
ATOM     23  H5  UNL     1      44.224  51.916   4.106  1.00  0.00     0.186 HD
BRANCH  22  24
HETATM   24  C11 UNL     1      42.270  53.029   2.933  1.00  0.00     0.108 A 
HETATM   25  C12 UNL     1      42.942  52.403   1.875  1.00  0.00     0.173 A 
HETATM   26  N6  UNL     1      42.612  52.987   0.722  1.00  0.00    -0.287 N 
HETATM   27  C13 UNL     1      41.748  53.960   1.042  1.00  0.00     0.331 A 
ATOM     28  H6  UNL     1      42.947  52.742  -0.210  1.00  0.00     0.172 HD
HETATM   29  O6  UNL     1      41.201  54.748   0.219  1.00  0.00    -0.246 OA
HETATM   30  N7  UNL     1      41.533  53.998   2.370  1.00  0.00    -0.272 N 
BRANCH  25  31
HETATM   31  O5  UNL     1      43.824  51.332   2.008  1.00  0.00    -0.344 OA
ATOM     32  H5  UNL     1      44.706  51.303   1.655  1.00  0.00     0.219 HD
ENDBRANCH  25  31
BRANCH  30  33
HETATM   33  C14 UNL     1      40.639  54.937   3.017  1.00  0.00     0.300 C 
BRANCH  33  34
HETATM   34  O7  UNL     1      39.446  54.324   3.386  1.00  0.00    -0.382 OA
ATOM     35  H7  UNL     1      38.697  54.852   3.136  1.00  0.00     0.211 HD
ENDBRANCH  33  34
ENDBRANCH  30  33
ENDBRANCH  22  24
ENDBRANCH   3  21
TORSDOF 9
ENDMDL
MODEL 4
REMARK VINA RESULT: -9.284632725      2.026      3.031
REMARK  9 active torsions:
REMARK  status: ('A' for Active; 'I' for Inactive)
REMARK       I    between atoms: C1_2  and  N1_3 
REMARK    1  A    between atoms: C1_2  and  C9_17 
REMARK    2  A    between atoms: N1_3  and  N2_5 
REMARK    3  A    between atoms: C2_7  and  C3_8 
REMARK    4  A    between atoms: C8_13  and  N3_14 
REMARK       I    between atoms: C9_17  and  N4_19 
REMARK    5  A    between atoms: N4_19  and  N5_21 
REMARK    6  A    between atoms: C10_23  and  C11_24 
REMARK    7  A    between atoms: C12_25  and  O5_26 
REMARK    8  A    between atoms: N7_32  and  C14_33 
REMARK    9  A    between atoms: C14_33  and  O7_34 
ROOT
HETATM    1  C9  UNL     1      43.843  51.034   6.748  1.00  0.00     0.329 C 
HETATM    2  O4  UNL     1      44.661  50.520   5.953  1.00  0.00    -0.261 OA
HETATM    3  N4  UNL     1      42.803  51.842   6.233  1.00  0.00    -0.262 N 
ATOM      4  H4  UNL     1      42.135  52.262   6.878  1.00  0.00     0.190 HD
ENDROOT
BRANCH   1   5
HETATM    5  C1  UNL     1      43.950  50.814   8.163  1.00  0.00     0.329 C 
HETATM    6  O1  UNL     1      44.183  51.770   8.931  1.00  0.00    -0.261 OA
HETATM    7  N1  UNL     1      43.793  49.516   8.696  1.00  0.00    -0.262 N 
ATOM      8  H1  UNL     1      43.603  48.737   8.066  1.00  0.00     0.190 HD
BRANCH   7   9
HETATM    9  N2  UNL     1      43.889  49.286  10.012  1.00  0.00    -0.308 N 
HETATM   10  C2  UNL     1      44.478  48.459  10.720  1.00  0.00     0.121 C 
ATOM     11  H2  UNL     1      43.347  49.953  10.562  1.00  0.00     0.186 HD
BRANCH  10  12
HETATM   12  C3  UNL     1      45.349  47.345  10.383  1.00  0.00     0.014 A 
HETATM   13  C4  UNL     1      45.270  46.742   9.131  1.00  0.00     0.015 A 
HETATM   14  C5  UNL     1      46.120  45.708   8.742  1.00  0.00     0.001 A 
HETATM   15  C6  UNL     1      47.058  45.293   9.651  1.00  0.00     0.002 A 
HETATM   16  C7  UNL     1      47.137  45.879  10.877  1.00  0.00     0.037 A 
HETATM   17  C8  UNL     1      46.293  46.923  11.298  1.00  0.00     0.114 A 
BRANCH  17  18
HETATM   18  N3  UNL     1      46.485  47.438  12.605  1.00  0.00    -0.115 N 
HETATM   19  O2  UNL     1      47.655  47.894  12.840  1.00  0.00    -0.532 OA
HETATM   20  O3  UNL     1      45.622  47.522  13.636  1.00  0.00    -0.532 OA
ENDBRANCH  17  18
ENDBRANCH  10  12
ENDBRANCH   7   9
ENDBRANCH   1   5
BRANCH   3  21
HETATM   21  N5  UNL     1      42.669  52.078   4.870  1.00  0.00    -0.307 N 
HETATM   22  C10 UNL     1      42.064  53.110   4.410  1.00  0.00     0.141 C 
ATOM     23  H5  UNL     1      43.066  51.407   4.212  1.00  0.00     0.186 HD
BRANCH  22  24
HETATM   24  C11 UNL     1      41.947  53.317   2.976  1.00  0.00     0.108 A 
HETATM   25  C12 UNL     1      41.033  54.186   2.365  1.00  0.00     0.173 A 
HETATM   26  N6  UNL     1      41.182  54.140   1.041  1.00  0.00    -0.287 N 
HETATM   27  C13 UNL     1      42.170  53.262   0.816  1.00  0.00     0.331 A 
ATOM     28  H6  UNL     1      40.654  54.665   0.343  1.00  0.00     0.172 HD
HETATM   29  O6  UNL     1      42.612  52.939  -0.323  1.00  0.00    -0.246 OA
HETATM   30  N7  UNL     1      42.640  52.758   1.972  1.00  0.00    -0.272 N 
BRANCH  25  31
HETATM   31  O5  UNL     1      40.108  54.979   3.041  1.00  0.00    -0.344 OA
ATOM     32  H5  UNL     1      40.148  55.926   3.111  1.00  0.00     0.219 HD
ENDBRANCH  25  31
BRANCH  30  33
HETATM   33  C14 UNL     1      43.718  51.792   2.053  1.00  0.00     0.300 C 
BRANCH  33  34
HETATM   34  O7  UNL     1      43.418  50.642   1.331  1.00  0.00    -0.382 OA
ATOM     35  H7  UNL     1      43.174  50.850   0.437  1.00  0.00     0.211 HD
ENDBRANCH  33  34
ENDBRANCH  30  33
ENDBRANCH  22  24
ENDBRANCH   3  21
TORSDOF 9
ENDMDL
MODEL 5
REMARK VINA RESULT: -9.219950990      1.161      2.174
REMARK  9 active torsions:
REMARK  status: ('A' for Active; 'I' for Inactive)
REMARK       I    between atoms: C1_2  and  N1_3 
REMARK    1  A    between atoms: C1_2  and  C9_17 
REMARK    2  A    between atoms: N1_3  and  N2_5 
REMARK    3  A    between atoms: C2_7  and  C3_8 
REMARK    4  A    between atoms: C8_13  and  N3_14 
REMARK       I    between atoms: C9_17  and  N4_19 
REMARK    5  A    between atoms: N4_19  and  N5_21 
REMARK    6  A    between atoms: C10_23  and  C11_24 
REMARK    7  A    between atoms: C12_25  and  O5_26 
REMARK    8  A    between atoms: N7_32  and  C14_33 
REMARK    9  A    between atoms: C14_33  and  O7_34 
ROOT
HETATM    1  C9  UNL     1      43.801  51.067   6.826  1.00  0.00     0.329 C 
HETATM    2  O4  UNL     1      44.644  50.566   6.049  1.00  0.00    -0.261 OA
HETATM    3  N4  UNL     1      42.779  51.884   6.290  1.00  0.00    -0.262 N 
ATOM      4  H4  UNL     1      42.090  52.294   6.919  1.00  0.00     0.190 HD
ENDROOT
BRANCH   1   5
HETATM    5  C1  UNL     1      43.862  50.825   8.240  1.00  0.00     0.329 C 
HETATM    6  O1  UNL     1      43.880  51.784   9.041  1.00  0.00    -0.261 OA
HETATM    7  N1  UNL     1      43.903  49.504   8.736  1.00  0.00    -0.262 N 
ATOM      8  H1  UNL     1      43.888  48.724   8.080  1.00  0.00     0.190 HD
BRANCH   7   9
HETATM    9  N2  UNL     1      43.960  49.254  10.050  1.00  0.00    -0.308 N 
HETATM   10  C2  UNL     1      44.528  48.416  10.762  1.00  0.00     0.121 C 
ATOM     11  H2  UNL     1      43.404  49.913  10.594  1.00  0.00     0.186 HD
BRANCH  10  12
HETATM   12  C3  UNL     1      45.406  47.304  10.434  1.00  0.00     0.014 A 
HETATM   13  C4  UNL     1      46.397  46.901  11.325  1.00  0.00     0.015 A 
HETATM   14  C5  UNL     1      47.226  45.807  11.079  1.00  0.00     0.001 A 
HETATM   15  C6  UNL     1      47.031  45.126   9.906  1.00  0.00     0.002 A 
HETATM   16  C7  UNL     1      46.065  45.518   9.032  1.00  0.00     0.037 A 
HETATM   17  C8  UNL     1      45.214  46.617   9.252  1.00  0.00     0.114 A 
BRANCH  17  18
HETATM   18  N3  UNL     1      44.253  46.915   8.253  1.00  0.00    -0.115 N 
HETATM   19  O2  UNL     1      44.735  47.351   7.153  1.00  0.00    -0.532 OA
HETATM   20  O3  UNL     1      42.911  46.807   8.286  1.00  0.00    -0.532 OA
ENDBRANCH  17  18
ENDBRANCH  10  12
ENDBRANCH   7   9
ENDBRANCH   1   5
BRANCH   3  21
HETATM   21  N5  UNL     1      42.689  52.141   4.927  1.00  0.00    -0.307 N 
HETATM   22  C10 UNL     1      41.955  53.079   4.454  1.00  0.00     0.141 C 
ATOM     23  H5  UNL     1      43.225  51.563   4.280  1.00  0.00     0.186 HD
BRANCH  22  24
HETATM   24  C11 UNL     1      41.890  53.313   3.021  1.00  0.00     0.108 A 
HETATM   25  C12 UNL     1      41.019  54.214   2.395  1.00  0.00     0.173 A 
HETATM   26  N6  UNL     1      41.210  54.187   1.076  1.00  0.00    -0.287 N 
HETATM   27  C13 UNL     1      42.183  53.288   0.869  1.00  0.00     0.331 A 
ATOM     28  H6  UNL     1      40.718  54.736   0.371  1.00  0.00     0.172 HD
HETATM   29  O6  UNL     1      42.654  52.972  -0.261  1.00  0.00    -0.246 OA
HETATM   30  N7  UNL     1      42.602  52.753   2.030  1.00  0.00    -0.272 N 
BRANCH  25  31
HETATM   31  O5  UNL     1      40.091  55.019   3.055  1.00  0.00    -0.344 OA
ATOM     32  H5  UNL     1      39.294  55.363   2.668  1.00  0.00     0.219 HD
ENDBRANCH  25  31
BRANCH  30  33
HETATM   33  C14 UNL     1      43.653  51.759   2.130  1.00  0.00     0.300 C 
BRANCH  33  34
HETATM   34  O7  UNL     1      43.373  50.650   1.339  1.00  0.00    -0.382 OA
ATOM     35  H7  UNL     1      44.167  50.183   1.109  1.00  0.00     0.211 HD
ENDBRANCH  33  34
ENDBRANCH  30  33
ENDBRANCH  22  24
ENDBRANCH   3  21
TORSDOF 9
ENDMDL
