MODEL 1
REMARK VINA RESULT: -11.444680382      0.000      0.000
REMARK  4 active torsions:
REMARK  status: ('A' for Active; 'I' for Inactive)
REMARK    1  A    between atoms: C5_6  and  N2_7 
REMARK    2  A    between atoms: C7_12  and  C8_13 
REMARK    3  A    between atoms: C11_16  and  N4_17 
REMARK    4  A    between atoms: C15_25  and  C16_26 
ROOT
HETATM    1  C1  UNL     1     -14.013   1.234 -16.147  1.00  0.00     0.231 C 
HETATM    2  N1  UNL     1     -13.339   0.321 -16.053  1.00  0.00    -0.411 NA
HETATM    3  C2  UNL     1     -12.542  -0.787 -15.936  1.00  0.00     0.179 A 
HETATM    4  C3  UNL     1     -12.127  -1.321 -14.723  1.00  0.00     0.081 A 
HETATM    5  C4  UNL     1     -11.361  -2.402 -15.020  1.00  0.00     0.041 A 
HETATM    6  C5  UNL     1     -10.683  -3.317 -14.177  1.00  0.00     0.075 A 
HETATM    7  C12 UNL     1      -9.993  -4.308 -14.835  1.00  0.00     0.019 A 
HETATM    8  C13 UNL     1      -9.283  -5.272 -14.152  1.00  0.00     0.017 A 
HETATM    9  C14 UNL     1      -8.586  -6.271 -14.809  1.00  0.00     0.013 A 
HETATM   10  C15 UNL     1      -8.573  -6.341 -16.173  1.00  0.00    -0.024 A 
HETATM   11  C22 UNL     1      -9.280  -5.381 -16.868  1.00  0.00     0.042 A 
HETATM   12  C23 UNL     1      -9.980  -4.378 -16.235  1.00  0.00     0.047 A 
HETATM   13  N6  UNL     1     -10.636  -3.489 -16.976  1.00  0.00    -0.341 N 
ATOM     14  H6  UNL     1     -10.616  -3.557 -17.993  1.00  0.00     0.167 HD
HETATM   15  C24 UNL     1     -11.318  -2.514 -16.388  1.00  0.00     0.120 A 
HETATM   16  N7  UNL     1     -12.044  -1.523 -16.947  1.00  0.00    -0.317 N 
ATOM     17  H7  UNL     1     -12.187  -1.362 -17.944  1.00  0.00     0.170 HD
ENDROOT
BRANCH   6  18
HETATM   18  N2  UNL     1     -10.762  -3.161 -12.986  1.00  0.00    -0.190 N 
HETATM   19  C6  UNL     1     -10.855  -2.385 -11.899  1.00  0.00     0.684 A 
HETATM   20  N3  UNL     1     -12.104  -2.061 -11.438  1.00  0.00    -0.192 N 
HETATM   21  N5  UNL     1      -9.826  -1.871 -11.181  1.00  0.00    -0.177 N 
HETATM   22  C7  UNL     1     -12.355  -1.312 -10.383  1.00  0.00     0.052 A 
ATOM     23  H3  UNL     1     -12.904  -2.429 -11.953  1.00  0.00     0.184 HD
HETATM   24  C10 UNL     1     -11.285  -0.803  -9.671  1.00  0.00     0.078 A 
HETATM   25  C11 UNL     1     -10.021  -1.098 -10.092  1.00  0.00     0.116 A 
ATOM     26  H5  UNL     1      -8.872  -2.077 -11.475  1.00  0.00     0.185 HD
ATOM     27  H2  UNL     1     -10.753  -4.110 -12.613  1.00  0.00     0.184 HD
BRANCH  22  28
HETATM   28  C8  UNL     1     -13.715  -1.022  -9.970  1.00  0.00     0.020 C 
HETATM   29  C9  UNL     1     -14.286   0.109 -10.302  1.00  0.00     0.013 C 
ENDBRANCH  22  28
BRANCH  25  30
HETATM   30  N4  UNL     1      -9.015  -0.623  -9.427  1.00  0.00    -0.385 N 
ATOM     31  H42 UNL     1      -8.809  -0.953  -8.484  1.00  0.00     0.157 HD
ATOM     32  H41 UNL     1      -8.430   0.089  -9.864  1.00  0.00     0.157 HD
ENDBRANCH  25  30
ENDBRANCH   6  18
BRANCH  10  33
HETATM   33  C16 UNL     1      -7.829  -7.407 -16.835  1.00  0.00    -0.026 A 
HETATM   34  C17 UNL     1      -8.515  -8.483 -17.341  1.00  0.00     0.012 A 
HETATM   35  C18 UNL     1      -7.813  -9.513 -17.979  1.00  0.00     0.001 A 
HETATM   36  C19 UNL     1      -6.441  -9.467 -18.109  1.00  0.00     0.000 A 
HETATM   37  C20 UNL     1      -5.753  -8.385 -17.601  1.00  0.00     0.001 A 
HETATM   38  C21 UNL     1      -6.458  -7.360 -16.965  1.00  0.00     0.012 A 
ENDBRANCH  10  33
TORSDOF 4
ENDMDL
MODEL 2
REMARK VINA RESULT: -11.138240673      1.019      1.139
REMARK  4 active torsions:
REMARK  status: ('A' for Active; 'I' for Inactive)
REMARK    1  A    between atoms: C5_6  and  N2_7 
REMARK    2  A    between atoms: C7_12  and  C8_13 
REMARK    3  A    between atoms: C11_16  and  N4_17 
REMARK    4  A    between atoms: C15_25  and  C16_26 
ROOT
HETATM    1  C1  UNL     1     -14.049   1.523 -16.383  1.00  0.00     0.231 C 
HETATM    2  N1  UNL     1     -13.417   0.604 -16.151  1.00  0.00    -0.411 NA
HETATM    3  C2  UNL     1     -12.673  -0.509 -15.865  1.00  0.00     0.179 A 
HETATM    4  C3  UNL     1     -12.259  -0.860 -14.587  1.00  0.00     0.081 A 
HETATM    5  C4  UNL     1     -11.551  -2.012 -14.713  1.00  0.00     0.041 A 
HETATM    6  C5  UNL     1     -10.901  -2.812 -13.742  1.00  0.00     0.075 A 
HETATM    7  C12 UNL     1     -10.272  -3.930 -14.238  1.00  0.00     0.019 A 
HETATM    8  C13 UNL     1      -9.596  -4.806 -13.417  1.00  0.00     0.017 A 
HETATM    9  C14 UNL     1      -8.961  -5.932 -13.911  1.00  0.00     0.013 A 
HETATM   10  C15 UNL     1      -8.980  -6.222 -15.246  1.00  0.00    -0.024 A 
HETATM   11  C22 UNL     1      -9.654  -5.353 -16.078  1.00  0.00     0.042 A 
HETATM   12  C23 UNL     1     -10.292  -4.226 -15.609  1.00  0.00     0.047 A 
HETATM   13  N6  UNL     1     -10.921  -3.437 -16.476  1.00  0.00    -0.341 N 
ATOM     14  H6  UNL     1     -10.924  -3.670 -17.469  1.00  0.00     0.167 HD
HETATM   15  C24 UNL     1     -11.543  -2.347 -16.046  1.00  0.00     0.120 A 
HETATM   16  N7  UNL     1     -12.231  -1.423 -16.750  1.00  0.00    -0.317 N 
ATOM     17  H7  UNL     1     -12.387  -1.418 -17.758  1.00  0.00     0.170 HD
ENDROOT
BRANCH   6  18
HETATM   18  N2  UNL     1     -10.948  -2.462 -12.592  1.00  0.00    -0.190 N 
HETATM   19  C6  UNL     1     -10.845  -1.531 -11.633  1.00  0.00     0.684 A 
HETATM   20  N3  UNL     1     -11.971  -0.832 -11.286  1.00  0.00    -0.192 N 
HETATM   21  N5  UNL     1      -9.725  -1.196 -10.948  1.00  0.00    -0.177 N 
HETATM   22  C7  UNL     1     -12.027   0.109 -10.363  1.00  0.00     0.052 A 
ATOM     23  H3  UNL     1     -12.834  -1.056 -11.780  1.00  0.00     0.184 HD
HETATM   24  C10 UNL     1     -10.868   0.428  -9.681  1.00  0.00     0.078 A 
HETATM   25  C11 UNL     1      -9.721  -0.242  -9.993  1.00  0.00     0.116 A 
ATOM     26  H5  UNL     1      -8.854  -1.682 -11.162  1.00  0.00     0.185 HD
ATOM     27  H2  UNL     1     -11.190  -3.313 -12.084  1.00  0.00     0.184 HD
BRANCH  22  28
HETATM   28  C8  UNL     1     -13.268   0.797 -10.063  1.00  0.00     0.020 C 
HETATM   29  C9  UNL     1     -14.403   0.143 -10.036  1.00  0.00     0.013 C 
ENDBRANCH  22  28
BRANCH  25  30
HETATM   30  N4  UNL     1      -8.632   0.054  -9.356  1.00  0.00    -0.385 N 
ATOM     31  H42 UNL     1      -8.636   0.173  -8.343  1.00  0.00     0.157 HD
ATOM     32  H41 UNL     1      -7.768   0.167  -9.886  1.00  0.00     0.157 HD
ENDBRANCH  25  30
ENDBRANCH   6  18
BRANCH  10  33
HETATM   33  C16 UNL     1      -8.302  -7.417 -15.735  1.00  0.00    -0.026 A 
HETATM   34  C17 UNL     1      -8.166  -7.599 -17.089  1.00  0.00     0.012 A 
HETATM   35  C18 UNL     1      -7.517  -8.741 -17.573  1.00  0.00     0.001 A 
HETATM   36  C19 UNL     1      -7.009  -9.691 -16.711  1.00  0.00     0.000 A 
HETATM   37  C20 UNL     1      -7.145  -9.508 -15.352  1.00  0.00     0.001 A 
HETATM   38  C21 UNL     1      -7.794  -8.365 -14.875  1.00  0.00     0.012 A 
ENDBRANCH  10  33
TORSDOF 4
ENDMDL
MODEL 3
REMARK VINA RESULT: -11.074677683      1.717      2.158
REMARK  4 active torsions:
REMARK  status: ('A' for Active; 'I' for Inactive)
REMARK    1  A    between atoms: C5_6  and  N2_7 
REMARK    2  A    between atoms: C7_12  and  C8_13 
REMARK    3  A    between atoms: C11_16  and  N4_17 
REMARK    4  A    between atoms: C15_25  and  C16_26 
ROOT
HETATM    1  C1  UNL     1     -14.375   1.982 -16.432  1.00  0.00     0.231 C 
HETATM    2  N1  UNL     1     -13.740   1.095 -16.106  1.00  0.00    -0.411 NA
HETATM    3  C2  UNL     1     -12.991   0.020 -15.707  1.00  0.00     0.179 A 
HETATM    4  C3  UNL     1     -12.526  -0.164 -14.411  1.00  0.00     0.081 A 
HETATM    5  C4  UNL     1     -11.831  -1.331 -14.413  1.00  0.00     0.041 A 
HETATM    6  C5  UNL     1     -11.146  -2.004 -13.372  1.00  0.00     0.075 A 
HETATM    7  C12 UNL     1     -10.546  -3.185 -13.742  1.00  0.00     0.019 A 
HETATM    8  C13 UNL     1      -9.841  -3.952 -12.841  1.00  0.00     0.017 A 
HETATM    9  C14 UNL     1      -9.234  -5.141 -13.207  1.00  0.00     0.013 A 
HETATM   10  C15 UNL     1      -9.311  -5.604 -14.490  1.00  0.00    -0.024 A 
HETATM   11  C22 UNL     1     -10.014  -4.844 -15.402  1.00  0.00     0.042 A 
HETATM   12  C23 UNL     1     -10.624  -3.658 -15.059  1.00  0.00     0.047 A 
HETATM   13  N6  UNL     1     -11.284  -2.983 -15.996  1.00  0.00    -0.341 N 
ATOM     14  H6  UNL     1     -11.331  -3.344 -16.949  1.00  0.00     0.167 HD
HETATM   15  C24 UNL     1     -11.880  -1.838 -15.689  1.00  0.00     0.120 A 
HETATM   16  N7  UNL     1     -12.592  -1.007 -16.480  1.00  0.00    -0.317 N 
ATOM     17  H7  UNL     1     -12.790  -1.133 -17.473  1.00  0.00     0.170 HD
ENDROOT
BRANCH   6  18
HETATM   18  N2  UNL     1     -11.142  -1.505 -12.277  1.00  0.00    -0.190 N 
HETATM   19  C6  UNL     1     -10.798  -0.533 -11.421  1.00  0.00     0.684 A 
HETATM   20  N3  UNL     1     -11.653   0.526 -11.264  1.00  0.00    -0.192 N 
HETATM   21  N5  UNL     1      -9.671  -0.479 -10.670  1.00  0.00    -0.177 N 
HETATM   22  C7  UNL     1     -11.453   1.552 -10.460  1.00  0.00     0.052 A 
ATOM     23  H3  UNL     1     -12.512   0.520 -11.813  1.00  0.00     0.184 HD
HETATM   24  C10 UNL     1     -10.294   1.578  -9.706  1.00  0.00     0.078 A 
HETATM   25  C11 UNL     1      -9.412   0.545  -9.829  1.00  0.00     0.116 A 
ATOM     26  H5  UNL     1      -8.994  -1.239 -10.744  1.00  0.00     0.185 HD
ATOM     27  H2  UNL     1     -11.677  -2.159 -11.706  1.00  0.00     0.184 HD
BRANCH  22  28
HETATM   28  C8  UNL     1     -12.418   2.630 -10.360  1.00  0.00     0.020 C 
HETATM   29  C9  UNL     1     -12.378   3.469  -9.355  1.00  0.00     0.013 C 
ENDBRANCH  22  28
BRANCH  25  30
HETATM   30  N4  UNL     1      -8.324   0.566  -9.125  1.00  0.00    -0.385 N 
ATOM     31  H42 UNL     1      -7.699   1.371  -9.155  1.00  0.00     0.157 HD
ATOM     32  H41 UNL     1      -8.103  -0.239  -8.539  1.00  0.00     0.157 HD
ENDBRANCH  25  30
ENDBRANCH   6  18
BRANCH  10  33
HETATM   33  C16 UNL     1      -8.661  -6.861 -14.844  1.00  0.00    -0.026 A 
HETATM   34  C17 UNL     1      -8.720  -7.298 -16.145  1.00  0.00     0.012 A 
HETATM   35  C18 UNL     1      -8.101  -8.502 -16.500  1.00  0.00     0.001 A 
HETATM   36  C19 UNL     1      -7.430  -9.261 -15.563  1.00  0.00     0.000 A 
HETATM   37  C20 UNL     1      -7.370  -8.822 -14.258  1.00  0.00     0.001 A 
HETATM   38  C21 UNL     1      -7.991  -7.619 -13.910  1.00  0.00     0.012 A 
ENDBRANCH  10  33
TORSDOF 4
ENDMDL
MODEL 4
REMARK VINA RESULT: -11.027252370      1.219      1.422
REMARK  4 active torsions:
REMARK  status: ('A' for Active; 'I' for Inactive)
REMARK    1  A    between atoms: C5_6  and  N2_7 
REMARK    2  A    between atoms: C7_12  and  C8_13 
REMARK    3  A    between atoms: C11_16  and  N4_17 
REMARK    4  A    between atoms: C15_25  and  C16_26 
ROOT
HETATM    1  C1  UNL     1     -14.083   1.466 -16.268  1.00  0.00     0.231 C 
HETATM    2  N1  UNL     1     -13.430   0.545 -16.122  1.00  0.00    -0.411 NA
HETATM    3  C2  UNL     1     -12.659  -0.573 -15.943  1.00  0.00     0.179 A 
HETATM    4  C3  UNL     1     -12.313  -1.087 -14.700  1.00  0.00     0.081 A 
HETATM    5  C4  UNL     1     -11.552  -2.186 -14.936  1.00  0.00     0.041 A 
HETATM    6  C5  UNL     1     -10.932  -3.093 -14.042  1.00  0.00     0.075 A 
HETATM    7  C12 UNL     1     -10.227  -4.110 -14.644  1.00  0.00     0.019 A 
HETATM    8  C13 UNL     1      -9.568  -5.070 -13.907  1.00  0.00     0.017 A 
HETATM    9  C14 UNL     1      -8.858  -6.094 -14.507  1.00  0.00     0.013 A 
HETATM   10  C15 UNL     1      -8.780  -6.194 -15.867  1.00  0.00    -0.024 A 
HETATM   11  C22 UNL     1      -9.435  -5.239 -16.616  1.00  0.00     0.042 A 
HETATM   12  C23 UNL     1     -10.148  -4.211 -16.040  1.00  0.00     0.047 A 
HETATM   13  N6  UNL     1     -10.752  -3.328 -16.831  1.00  0.00    -0.341 N 
ATOM     14  H6  UNL     1     -10.684  -3.419 -17.844  1.00  0.00     0.167 HD
HETATM   15  C24 UNL     1     -11.445  -2.329 -16.298  1.00  0.00     0.120 A 
HETATM   16  N7  UNL     1     -12.125  -1.339 -16.913  1.00  0.00    -0.317 N 
ATOM     17  H7  UNL     1     -12.217  -1.198 -17.919  1.00  0.00     0.170 HD
ENDROOT
BRANCH   6  18
HETATM   18  N2  UNL     1     -11.065  -2.910 -12.860  1.00  0.00    -0.190 N 
HETATM   19  C6  UNL     1     -10.583  -2.603 -11.649  1.00  0.00     0.684 A 
HETATM   20  N3  UNL     1     -10.586  -1.288 -11.263  1.00  0.00    -0.192 N 
HETATM   21  N5  UNL     1     -10.080  -3.469 -10.735  1.00  0.00    -0.177 N 
HETATM   22  C7  UNL     1     -10.148  -0.833 -10.106  1.00  0.00     0.052 A 
ATOM     23  H3  UNL     1     -10.957  -0.606 -11.925  1.00  0.00     0.184 HD
HETATM   24  C10 UNL     1      -9.642  -1.741  -9.194  1.00  0.00     0.078 A 
HETATM   25  C11 UNL     1      -9.617  -3.063  -9.534  1.00  0.00     0.116 A 
ATOM     26  H5  UNL     1     -10.050  -4.462 -10.964  1.00  0.00     0.185 HD
ATOM     27  H2  UNL     1     -12.059  -3.071 -12.696  1.00  0.00     0.184 HD
BRANCH  22  28
HETATM   28  C8  UNL     1     -10.192   0.581  -9.785  1.00  0.00     0.020 C 
HETATM   29  C9  UNL     1     -11.112   1.053  -8.982  1.00  0.00     0.013 C 
ENDBRANCH  22  28
BRANCH  25  30
HETATM   30  N4  UNL     1      -9.143  -3.917  -8.682  1.00  0.00    -0.385 N 
ATOM     31  H42 UNL     1      -8.151  -3.924  -8.448  1.00  0.00     0.157 HD
ATOM     32  H41 UNL     1      -9.781  -4.585  -8.249  1.00  0.00     0.157 HD
ENDBRANCH  25  30
ENDBRANCH   6  18
BRANCH  10  33
HETATM   33  C16 UNL     1      -8.023  -7.286 -16.469  1.00  0.00    -0.026 A 
HETATM   34  C17 UNL     1      -8.553  -8.553 -16.452  1.00  0.00     0.012 A 
HETATM   35  C18 UNL     1      -7.838  -9.611 -17.026  1.00  0.00     0.001 A 
HETATM   36  C19 UNL     1      -6.606  -9.404 -17.611  1.00  0.00     0.000 A 
HETATM   37  C20 UNL     1      -6.074  -8.132 -17.628  1.00  0.00     0.001 A 
HETATM   38  C21 UNL     1      -6.793  -7.080 -17.053  1.00  0.00     0.012 A 
ENDBRANCH  10  33
TORSDOF 4
ENDMDL
MODEL 5
REMARK VINA RESULT: -10.965243183      1.438      2.169
REMARK  4 active torsions:
REMARK  status: ('A' for Active; 'I' for Inactive)
REMARK    1  A    between atoms: C5_6  and  N2_7 
REMARK    2  A    between atoms: C7_12  and  C8_13 
REMARK    3  A    between atoms: C11_16  and  N4_17 
REMARK    4  A    between atoms: C15_25  and  C16_26 
ROOT
HETATM    1  C1  UNL     1     -13.966   1.435 -16.413  1.00  0.00     0.231 C 
HETATM    2  N1  UNL     1     -13.308   0.530 -16.201  1.00  0.00    -0.411 NA
HETATM    3  C2  UNL     1     -12.530  -0.565 -15.936  1.00  0.00     0.179 A 
HETATM    4  C3  UNL     1     -11.823  -0.748 -14.754  1.00  0.00     0.081 A 
HETATM    5  C4  UNL     1     -11.181  -1.939 -14.869  1.00  0.00     0.041 A 
HETATM    6  C5  UNL     1     -10.324  -2.620 -13.971  1.00  0.00     0.075 A 
HETATM    7  C12 UNL     1      -9.848  -3.827 -14.427  1.00  0.00     0.019 A 
HETATM    8  C13 UNL     1      -9.003  -4.607 -13.667  1.00  0.00     0.017 A 
HETATM    9  C14 UNL     1      -8.520  -5.822 -14.121  1.00  0.00     0.013 A 
HETATM   10  C15 UNL     1      -8.865  -6.300 -15.353  1.00  0.00    -0.024 A 
HETATM   11  C22 UNL     1      -9.710  -5.529 -16.123  1.00  0.00     0.042 A 
HETATM   12  C23 UNL     1     -10.202  -4.317 -15.692  1.00  0.00     0.047 A 
HETATM   13  N6  UNL     1     -11.013  -3.632 -16.494  1.00  0.00    -0.341 N 
ATOM     14  H6  UNL     1     -11.259  -4.005 -17.411  1.00  0.00     0.167 HD
HETATM   15  C24 UNL     1     -11.499  -2.462 -16.099  1.00  0.00     0.120 A 
HETATM   16  N7  UNL     1     -12.326  -1.617 -16.750  1.00  0.00    -0.317 N 
ATOM     17  H7  UNL     1     -12.722  -1.750 -17.681  1.00  0.00     0.170 HD
ENDROOT
BRANCH   6  18
HETATM   18  N2  UNL     1     -10.086  -2.106 -12.909  1.00  0.00    -0.190 N 
HETATM   19  C6  UNL     1     -10.379  -1.848 -11.627  1.00  0.00     0.684 A 
HETATM   20  N3  UNL     1      -9.895  -2.697 -10.668  1.00  0.00    -0.192 N 
HETATM   21  N5  UNL     1     -11.118  -0.812 -11.160  1.00  0.00    -0.177 N 
HETATM   22  C7  UNL     1     -10.096  -2.573  -9.370  1.00  0.00     0.052 A 
ATOM     23  H3  UNL     1      -9.334  -3.489 -10.981  1.00  0.00     0.184 HD
HETATM   24  C10 UNL     1     -10.853  -1.506  -8.924  1.00  0.00     0.078 A 
HETATM   25  C11 UNL     1     -11.357  -0.633  -9.843  1.00  0.00     0.116 A 
ATOM     26  H5  UNL     1     -11.507  -0.145 -11.826  1.00  0.00     0.185 HD
ATOM     27  H2  UNL     1      -9.208  -1.611 -13.066  1.00  0.00     0.184 HD
BRANCH  22  28
HETATM   28  C8  UNL     1      -9.541  -3.525  -8.427  1.00  0.00     0.020 C 
HETATM   29  C9  UNL     1      -8.301  -3.931  -8.541  1.00  0.00     0.013 C 
ENDBRANCH  22  28
BRANCH  25  30
HETATM   30  N4  UNL     1     -12.068   0.369  -9.429  1.00  0.00    -0.385 N 
ATOM     31  H42 UNL     1     -12.875   0.692  -9.961  1.00  0.00     0.157 HD
ATOM     32  H41 UNL     1     -11.805   0.830  -8.558  1.00  0.00     0.157 HD
ENDBRANCH  25  30
ENDBRANCH   6  18
BRANCH  10  33
HETATM   33  C16 UNL     1      -8.340  -7.584 -15.803  1.00  0.00    -0.026 A 
HETATM   34  C17 UNL     1      -7.951  -8.510 -14.865  1.00  0.00     0.012 A 
HETATM   35  C18 UNL     1      -7.445  -9.747 -15.282  1.00  0.00     0.001 A 
HETATM   36  C19 UNL     1      -7.329 -10.054 -16.622  1.00  0.00     0.000 A 
HETATM   37  C20 UNL     1      -7.719  -9.125 -17.562  1.00  0.00     0.001 A 
HETATM   38  C21 UNL     1      -8.224  -7.892 -17.140  1.00  0.00     0.012 A 
ENDBRANCH  10  33
TORSDOF 4
ENDMDL
