MODEL 1
REMARK VINA RESULT: -9.977092383      0.000      0.000
REMARK  9 active torsions:
REMARK  status: ('A' for Active; 'I' for Inactive)
REMARK    1  A    between atoms: C2_3  and  C3_4 
REMARK    2  A    between atoms: C4_7  and  C5_8 
REMARK    3  A    between atoms: C11_16  and  N4_17 
REMARK    4  A    between atoms: N5_19  and  C12_21 
REMARK    5  A    between atoms: C15_24  and  C16_25 
REMARK    6  A    between atoms: C19_28  and  O1_29 
REMARK    7  A    between atoms: C24_37  and  C25_38 
REMARK    8  A    between atoms: C25_38  and  C26_39 
REMARK    9  A    between atoms: C26_39  and  N8_40 
ROOT
HETATM    1  C3  UNL     1      -6.705 -22.889 -14.507  1.00  0.00     0.108 A 
HETATM    2  N2  UNL     1      -7.109 -22.366 -13.323  1.00  0.00    -0.337 N 
ATOM      3  H2  UNL     1      -7.303 -21.376 -13.177  1.00  0.00     0.167 HD
HETATM    4  C4  UNL     1      -7.226 -23.295 -12.371  1.00  0.00     0.117 A 
HETATM    5  N3  UNL     1      -6.888 -24.452 -12.951  1.00  0.00    -0.325 N 
ATOM      6  H3  UNL     1      -6.872 -25.360 -12.487  1.00  0.00     0.169 HD
HETATM    7  C11 UNL     1      -6.565 -24.229 -14.263  1.00  0.00     0.151 A 
ENDROOT
BRANCH   7   8
HETATM    8  N4  UNL     1      -6.216 -25.254 -15.199  1.00  0.00    -0.283 N 
HETATM    9  N5  UNL     1      -7.118 -25.870 -15.843  1.00  0.00    -0.299 N 
ATOM     10  H5  UNL     1      -8.087 -25.605 -15.669  1.00  0.00     0.187 HD
ATOM     11  H4  UNL     1      -5.235 -25.491 -15.349  1.00  0.00     0.188 HD
BRANCH   9  12
HETATM   12  C12 UNL     1      -6.877 -26.899 -16.786  1.00  0.00     0.050 A 
HETATM   13  C13 UNL     1      -5.580 -27.089 -17.247  1.00  0.00     0.032 A 
HETATM   14  C14 UNL     1      -5.281 -28.074 -18.173  1.00  0.00     0.016 A 
HETATM   15  C15 UNL     1      -6.248 -28.913 -18.681  1.00  0.00     0.000 A 
HETATM   16  C22 UNL     1      -7.544 -28.726 -18.222  1.00  0.00     0.059 A 
HETATM   17  N7  UNL     1      -8.568 -29.574 -18.720  1.00  0.00    -0.101 NA
HETATM   18  C23 UNL     1      -7.842 -27.740 -17.295  1.00  0.00     0.058 A 
BRANCH  15  19
HETATM   19  C16 UNL     1      -5.949 -29.942 -19.664  1.00  0.00     0.000 A 
HETATM   20  C17 UNL     1      -5.929 -29.690 -21.031  1.00  0.00     0.017 A 
HETATM   21  C18 UNL     1      -5.627 -30.688 -21.937  1.00  0.00     0.037 A 
HETATM   22  C19 UNL     1      -5.334 -31.969 -21.521  1.00  0.00     0.067 A 
HETATM   23  C20 UNL     1      -5.350 -32.229 -20.180  1.00  0.00     0.064 A 
HETATM   24  C21 UNL     1      -5.657 -31.216 -19.269  1.00  0.00     0.060 A 
HETATM   25  N6  UNL     1      -5.663 -31.560 -17.904  1.00  0.00    -0.101 NA
BRANCH  22  26
HETATM   26  O1  UNL     1      -5.036 -32.937 -22.479  1.00  0.00    -0.361 OA
ATOM     27  H1  UNL     1      -5.624 -33.676 -22.585  1.00  0.00     0.217 HD
ENDBRANCH  22  26
ENDBRANCH  15  19
ENDBRANCH   9  12
ENDBRANCH   7   8
BRANCH   1  28
HETATM   28  C2  UNL     1      -6.575 -22.189 -15.776  1.00  0.00     0.089 A 
HETATM   29  N1  UNL     1      -5.400 -21.485 -15.955  1.00  0.00    -0.185 N 
HETATM   30  C1  UNL     1      -4.388 -21.586 -14.926  1.00  0.00     0.175 C 
HETATM   31  C28 UNL     1      -5.241 -20.720 -17.033  1.00  0.00     0.678 A 
HETATM   32  N9  UNL     1      -6.257 -20.645 -17.947  1.00  0.00    -0.201 N 
HETATM   33  N10 UNL     1      -4.167 -20.064 -17.259  1.00  0.00    -0.234 N 
HETATM   34  C27 UNL     1      -7.399 -21.311 -17.803  1.00  0.00     0.115 A 
ATOM     35  H9  UNL     1      -6.133 -20.056 -18.770  1.00  0.00     0.183 HD
HETATM   36  C24 UNL     1      -7.584 -22.129 -16.670  1.00  0.00    -0.011 A 
ATOM     37 2H10 UNL     1      -3.411 -20.120 -16.578  1.00  0.00     0.174 HD
ATOM     38 1H10 UNL     1      -4.045 -19.478 -18.085  1.00  0.00     0.174 HD
BRANCH  36  39
HETATM   39  C25 UNL     1      -8.795 -22.958 -16.586  1.00  0.00     0.069 C 
BRANCH  39  40
HETATM   40  C26 UNL     1      -9.655 -22.547 -17.807  1.00  0.00     0.234 C 
BRANCH  40  41
HETATM   41  N8  UNL     1     -10.982 -22.199 -17.394  1.00  0.00    -0.079 N 
ATOM     42  H83 UNL     1     -10.976 -21.532 -16.622  1.00  0.00     0.274 HD
ATOM     43  H82 UNL     1     -11.457 -21.623 -18.089  1.00  0.00     0.274 HD
ATOM     44  H81 UNL     1     -11.516 -23.037 -17.167  1.00  0.00     0.274 HD
ENDBRANCH  40  41
ENDBRANCH  39  40
ENDBRANCH  36  39
ENDBRANCH   1  28
BRANCH   4  45
HETATM   45  C5  UNL     1      -7.633 -23.088 -10.987  1.00  0.00     0.008 A 
HETATM   46  C6  UNL     1      -6.738 -23.105  -9.938  1.00  0.00     0.015 A 
HETATM   47  C7  UNL     1      -7.158 -22.903  -8.624  1.00  0.00     0.001 A 
HETATM   48  C8  UNL     1      -8.485 -22.680  -8.335  1.00  0.00     0.000 A 
HETATM   49  C9  UNL     1      -9.386 -22.662  -9.373  1.00  0.00     0.001 A 
HETATM   50  C10 UNL     1      -8.952 -22.864 -10.665  1.00  0.00     0.015 A 
ENDBRANCH   4  45
TORSDOF 9
ENDMDL
MODEL 2
REMARK VINA RESULT: -9.896152128      0.806      1.118
REMARK  9 active torsions:
REMARK  status: ('A' for Active; 'I' for Inactive)
REMARK    1  A    between atoms: C2_3  and  C3_4 
REMARK    2  A    between atoms: C4_7  and  C5_8 
REMARK    3  A    between atoms: C11_16  and  N4_17 
REMARK    4  A    between atoms: N5_19  and  C12_21 
REMARK    5  A    between atoms: C15_24  and  C16_25 
REMARK    6  A    between atoms: C19_28  and  O1_29 
REMARK    7  A    between atoms: C24_37  and  C25_38 
REMARK    8  A    between atoms: C25_38  and  C26_39 
REMARK    9  A    between atoms: C26_39  and  N8_40 
ROOT
HETATM    1  C3  UNL     1      -7.261 -23.032 -14.431  1.00  0.00     0.108 A 
HETATM    2  N2  UNL     1      -7.610 -22.493 -13.237  1.00  0.00    -0.337 N 
ATOM      3  H2  UNL     1      -7.930 -21.532 -13.120  1.00  0.00     0.167 HD
HETATM    4  C4  UNL     1      -7.486 -23.362 -12.231  1.00  0.00     0.117 A 
HETATM    5  N3  UNL     1      -7.044 -24.496 -12.786  1.00  0.00    -0.325 N 
ATOM      6  H3  UNL     1      -6.846 -25.360 -12.281  1.00  0.00     0.169 HD
HETATM    7  C11 UNL     1      -6.899 -24.319 -14.137  1.00  0.00     0.151 A 
ENDROOT
BRANCH   7   8
HETATM    8  N4  UNL     1      -6.505 -25.346 -15.053  1.00  0.00    -0.283 N 
HETATM    9  N5  UNL     1      -7.358 -25.885 -15.820  1.00  0.00    -0.299 N 
ATOM     10  H5  UNL     1      -8.323 -25.558 -15.758  1.00  0.00     0.187 HD
ATOM     11  H4  UNL     1      -5.530 -25.646 -15.089  1.00  0.00     0.188 HD
BRANCH   9  12
HETATM   12  C12 UNL     1      -7.070 -26.908 -16.757  1.00  0.00     0.050 A 
HETATM   13  C13 UNL     1      -5.764 -27.044 -17.213  1.00  0.00     0.032 A 
HETATM   14  C14 UNL     1      -5.420 -28.020 -18.132  1.00  0.00     0.016 A 
HETATM   15  C15 UNL     1      -6.348 -28.903 -18.638  1.00  0.00     0.000 A 
HETATM   16  C22 UNL     1      -7.653 -28.770 -18.184  1.00  0.00     0.059 A 
HETATM   17  N7  UNL     1      -8.637 -29.664 -18.681  1.00  0.00    -0.101 NA
HETATM   18  C23 UNL     1      -7.996 -27.792 -17.264  1.00  0.00     0.058 A 
BRANCH  15  19
HETATM   19  C16 UNL     1      -6.001 -29.924 -19.615  1.00  0.00     0.000 A 
HETATM   20  C17 UNL     1      -5.975 -29.675 -20.981  1.00  0.00     0.017 A 
HETATM   21  C18 UNL     1      -5.627 -30.664 -21.881  1.00  0.00     0.037 A 
HETATM   22  C19 UNL     1      -5.293 -31.933 -21.458  1.00  0.00     0.067 A 
HETATM   23  C20 UNL     1      -5.316 -32.189 -20.116  1.00  0.00     0.064 A 
HETATM   24  C21 UNL     1      -5.669 -31.185 -19.212  1.00  0.00     0.060 A 
HETATM   25  N6  UNL     1      -5.678 -31.525 -17.845  1.00  0.00    -0.101 NA
BRANCH  22  26
HETATM   26  O1  UNL     1      -4.951 -32.893 -22.409  1.00  0.00    -0.361 OA
ATOM     27  H1  UNL     1      -5.463 -33.690 -22.463  1.00  0.00     0.217 HD
ENDBRANCH  22  26
ENDBRANCH  15  19
ENDBRANCH   9  12
ENDBRANCH   7   8
BRANCH   1  28
HETATM   28  C2  UNL     1      -7.372 -22.407 -15.741  1.00  0.00     0.089 A 
HETATM   29  N1  UNL     1      -6.254 -21.723 -16.176  1.00  0.00    -0.185 N 
HETATM   30  C1  UNL     1      -5.068 -21.771 -15.349  1.00  0.00     0.175 C 
HETATM   31  C28 UNL     1      -6.301 -21.023 -17.308  1.00  0.00     0.678 A 
HETATM   32  N9  UNL     1      -7.469 -20.995 -18.020  1.00  0.00    -0.201 N 
HETATM   33  N10 UNL     1      -5.290 -20.389 -17.767  1.00  0.00    -0.234 N 
HETATM   34  C27 UNL     1      -8.562 -21.644 -17.627  1.00  0.00     0.115 A 
ATOM     35  H9  UNL     1      -7.503 -20.455 -18.885  1.00  0.00     0.183 HD
HETATM   36  C24 UNL     1      -8.530 -22.393 -16.434  1.00  0.00    -0.011 A 
ATOM     37 2H10 UNL     1      -4.420 -20.411 -17.236  1.00  0.00     0.174 HD
ATOM     38 1H10 UNL     1      -5.326 -19.853 -18.634  1.00  0.00     0.174 HD
BRANCH  36  39
HETATM   39  C25 UNL     1      -9.701 -23.207 -16.079  1.00  0.00     0.069 C 
BRANCH  39  40
HETATM   40  C26 UNL     1     -10.831 -22.189 -15.791  1.00  0.00     0.234 C 
BRANCH  40  41
HETATM   41  N8  UNL     1     -10.825 -21.808 -14.410  1.00  0.00    -0.079 N 
ATOM     42  H83 UNL     1     -11.261 -20.897 -14.266  1.00  0.00     0.274 HD
ATOM     43  H82 UNL     1     -11.470 -22.373 -13.857  1.00  0.00     0.274 HD
ATOM     44  H81 UNL     1      -9.877 -21.838 -14.034  1.00  0.00     0.274 HD
ENDBRANCH  40  41
ENDBRANCH  39  40
ENDBRANCH  36  39
ENDBRANCH   1  28
BRANCH   4  45
HETATM   45  C5  UNL     1      -7.769 -23.122 -10.822  1.00  0.00     0.008 A 
HETATM   46  C6  UNL     1      -9.043 -22.888 -10.349  1.00  0.00     0.015 A 
HETATM   47  C7  UNL     1      -9.284 -22.663  -8.995  1.00  0.00     0.001 A 
HETATM   48  C8  UNL     1      -8.250 -22.667  -8.085  1.00  0.00     0.000 A 
HETATM   49  C9  UNL     1      -6.975 -22.899  -8.546  1.00  0.00     0.001 A 
HETATM   50  C10 UNL     1      -6.758 -23.120  -9.889  1.00  0.00     0.015 A 
ENDBRANCH   4  45
TORSDOF 9
ENDMDL
MODEL 3
REMARK VINA RESULT: -9.882542944      0.760      2.424
REMARK  9 active torsions:
REMARK  status: ('A' for Active; 'I' for Inactive)
REMARK    1  A    between atoms: C2_3  and  C3_4 
REMARK    2  A    between atoms: C4_7  and  C5_8 
REMARK    3  A    between atoms: C11_16  and  N4_17 
REMARK    4  A    between atoms: N5_19  and  C12_21 
REMARK    5  A    between atoms: C15_24  and  C16_25 
REMARK    6  A    between atoms: C19_28  and  O1_29 
REMARK    7  A    between atoms: C24_37  and  C25_38 
REMARK    8  A    between atoms: C25_38  and  C26_39 
REMARK    9  A    between atoms: C26_39  and  N8_40 
ROOT
HETATM    1  C3  UNL     1      -7.546 -23.040 -14.449  1.00  0.00     0.108 A 
HETATM    2  N2  UNL     1      -7.829 -22.536 -13.223  1.00  0.00    -0.337 N 
ATOM      3  H2  UNL     1      -8.258 -21.624 -13.069  1.00  0.00     0.167 HD
HETATM    4  C4  UNL     1      -7.481 -23.369 -12.238  1.00  0.00     0.117 A 
HETATM    5  N3  UNL     1      -6.958 -24.442 -12.841  1.00  0.00    -0.325 N 
ATOM      6  H3  UNL     1      -6.593 -25.266 -12.363  1.00  0.00     0.169 HD
HETATM    7  C11 UNL     1      -6.988 -24.265 -14.199  1.00  0.00     0.151 A 
ENDROOT
BRANCH   7   8
HETATM    8  N4  UNL     1      -6.565 -25.244 -15.155  1.00  0.00    -0.283 N 
HETATM    9  N5  UNL     1      -7.418 -25.957 -15.764  1.00  0.00    -0.299 N 
ATOM     10  H5  UNL     1      -8.403 -25.804 -15.548  1.00  0.00     0.187 HD
ATOM     11  H4  UNL     1      -5.571 -25.368 -15.347  1.00  0.00     0.188 HD
BRANCH   9  12
HETATM   12  C12 UNL     1      -7.102 -26.951 -16.723  1.00  0.00     0.050 A 
HETATM   13  C13 UNL     1      -5.791 -27.050 -17.171  1.00  0.00     0.032 A 
HETATM   14  C14 UNL     1      -5.420 -27.997 -18.111  1.00  0.00     0.016 A 
HETATM   15  C15 UNL     1      -6.327 -28.885 -18.646  1.00  0.00     0.000 A 
HETATM   16  C22 UNL     1      -7.638 -28.788 -18.200  1.00  0.00     0.059 A 
HETATM   17  N7  UNL     1      -8.600 -29.689 -18.725  1.00  0.00    -0.101 NA
HETATM   18  C23 UNL     1      -8.007 -27.840 -17.259  1.00  0.00     0.058 A 
BRANCH  15  19
HETATM   19  C16 UNL     1      -5.953 -29.875 -19.644  1.00  0.00     0.000 A 
HETATM   20  C17 UNL     1      -5.967 -29.606 -21.008  1.00  0.00     0.017 A 
HETATM   21  C18 UNL     1      -5.592 -30.565 -21.928  1.00  0.00     0.037 A 
HETATM   22  C19 UNL     1      -5.189 -31.822 -21.530  1.00  0.00     0.067 A 
HETATM   23  C20 UNL     1      -5.171 -32.097 -20.193  1.00  0.00     0.064 A 
HETATM   24  C21 UNL     1      -5.553 -31.123 -19.267  1.00  0.00     0.060 A 
HETATM   25  N6  UNL     1      -5.516 -31.483 -17.905  1.00  0.00    -0.101 NA
BRANCH  22  26
HETATM   26  O1  UNL     1      -4.821 -32.751 -22.503  1.00  0.00    -0.361 OA
ATOM     27  H1  UNL     1      -5.396 -33.487 -22.676  1.00  0.00     0.217 HD
ENDBRANCH  22  26
ENDBRANCH  15  19
ENDBRANCH   9  12
ENDBRANCH   7   8
BRANCH   1  28
HETATM   28  C2  UNL     1      -7.882 -22.453 -15.737  1.00  0.00     0.089 A 
HETATM   29  N1  UNL     1      -9.195 -22.603 -16.140  1.00  0.00    -0.185 N 
HETATM   30  C1  UNL     1     -10.117 -23.233 -15.220  1.00  0.00     0.175 C 
HETATM   31  C28 UNL     1      -9.569 -22.202 -17.353  1.00  0.00     0.678 A 
HETATM   32  N9  UNL     1      -8.633 -21.647 -18.184  1.00  0.00    -0.201 N 
HETATM   33  N10 UNL     1     -10.773 -22.298 -17.769  1.00  0.00    -0.234 N 
HETATM   34  C27 UNL     1      -7.362 -21.489 -17.824  1.00  0.00     0.115 A 
ATOM     35  H9  UNL     1      -8.921 -21.343 -19.114  1.00  0.00     0.183 HD
HETATM   36  C24 UNL     1      -6.949 -21.904 -16.542  1.00  0.00    -0.011 A 
ATOM     37 2H10 UNL     1     -11.470 -22.711 -17.150  1.00  0.00     0.174 HD
ATOM     38 1H10 UNL     1     -11.060 -21.991 -18.699  1.00  0.00     0.174 HD
BRANCH  36  39
HETATM   39  C25 UNL     1      -5.576 -21.607 -16.111  1.00  0.00     0.069 C 
BRANCH  39  40
HETATM   40  C26 UNL     1      -5.021 -20.622 -17.169  1.00  0.00     0.234 C 
BRANCH  40  41
HETATM   41  N8  UNL     1      -3.605 -20.468 -17.019  1.00  0.00    -0.079 N 
ATOM     42  H83 UNL     1      -3.217 -21.144 -16.360  1.00  0.00     0.274 HD
ATOM     43  H82 UNL     1      -3.100 -20.764 -17.854  1.00  0.00     0.274 HD
ATOM     44  H81 UNL     1      -3.375 -19.509 -16.757  1.00  0.00     0.274 HD
ENDBRANCH  40  41
ENDBRANCH  39  40
ENDBRANCH  36  39
ENDBRANCH   1  28
BRANCH   4  45
HETATM   45  C5  UNL     1      -7.636 -23.150 -10.806  1.00  0.00     0.008 A 
HETATM   46  C6  UNL     1      -6.566 -23.134  -9.936  1.00  0.00     0.015 A 
HETATM   47  C7  UNL     1      -6.746 -22.921  -8.570  1.00  0.00     0.001 A 
HETATM   48  C8  UNL     1      -8.004 -22.720  -8.048  1.00  0.00     0.000 A 
HETATM   49  C9  UNL     1      -9.078 -22.734  -8.906  1.00  0.00     0.001 A 
HETATM   50  C10 UNL     1      -8.879 -22.947 -10.254  1.00  0.00     0.015 A 
ENDBRANCH   4  45
TORSDOF 9
ENDMDL
MODEL 4
REMARK VINA RESULT: -9.765549717      0.855      2.580
REMARK  9 active torsions:
REMARK  status: ('A' for Active; 'I' for Inactive)
REMARK    1  A    between atoms: C2_3  and  C3_4 
REMARK    2  A    between atoms: C4_7  and  C5_8 
REMARK    3  A    between atoms: C11_16  and  N4_17 
REMARK    4  A    between atoms: N5_19  and  C12_21 
REMARK    5  A    between atoms: C15_24  and  C16_25 
REMARK    6  A    between atoms: C19_28  and  O1_29 
REMARK    7  A    between atoms: C24_37  and  C25_38 
REMARK    8  A    between atoms: C25_38  and  C26_39 
REMARK    9  A    between atoms: C26_39  and  N8_40 
ROOT
HETATM    1  C3  UNL     1      -6.635 -22.830 -14.272  1.00  0.00     0.108 A 
HETATM    2  N2  UNL     1      -7.063 -22.334 -13.085  1.00  0.00    -0.337 N 
ATOM      3  H2  UNL     1      -7.229 -21.344 -12.910  1.00  0.00     0.167 HD
HETATM    4  C4  UNL     1      -7.244 -23.290 -12.171  1.00  0.00     0.117 A 
HETATM    5  N3  UNL     1      -6.924 -24.438 -12.779  1.00  0.00    -0.325 N 
ATOM      6  H3  UNL     1      -6.955 -25.361 -12.347  1.00  0.00     0.169 HD
HETATM    7  C11 UNL     1      -6.548 -24.182 -14.072  1.00  0.00     0.151 A 
ENDROOT
BRANCH   7   8
HETATM    8  N4  UNL     1      -6.202 -25.186 -15.031  1.00  0.00    -0.283 N 
HETATM    9  N5  UNL     1      -7.106 -25.853 -15.618  1.00  0.00    -0.299 N 
ATOM     10  H5  UNL     1      -8.076 -25.643 -15.383  1.00  0.00     0.187 HD
ATOM     11  H4  UNL     1      -5.220 -25.367 -15.243  1.00  0.00     0.188 HD
BRANCH   9  12
HETATM   12  C12 UNL     1      -6.867 -26.867 -16.578  1.00  0.00     0.050 A 
HETATM   13  C13 UNL     1      -5.576 -27.029 -17.068  1.00  0.00     0.032 A 
HETATM   14  C14 UNL     1      -5.280 -27.998 -18.011  1.00  0.00     0.016 A 
HETATM   15  C15 UNL     1      -6.242 -28.848 -18.509  1.00  0.00     0.000 A 
HETATM   16  C22 UNL     1      -7.533 -28.689 -18.021  1.00  0.00     0.059 A 
HETATM   17  N7  UNL     1      -8.551 -29.549 -18.508  1.00  0.00    -0.101 NA
HETATM   18  C23 UNL     1      -7.827 -27.718 -17.077  1.00  0.00     0.058 A 
BRANCH  15  19
HETATM   19  C16 UNL     1      -5.946 -29.861 -19.510  1.00  0.00     0.000 A 
HETATM   20  C17 UNL     1      -5.983 -29.599 -20.874  1.00  0.00     0.017 A 
HETATM   21  C18 UNL     1      -5.682 -30.581 -21.798  1.00  0.00     0.037 A 
HETATM   22  C19 UNL     1      -5.334 -31.855 -21.402  1.00  0.00     0.067 A 
HETATM   23  C20 UNL     1      -5.295 -32.124 -20.064  1.00  0.00     0.064 A 
HETATM   24  C21 UNL     1      -5.601 -31.127 -19.135  1.00  0.00     0.060 A 
HETATM   25  N6  UNL     1      -5.547 -31.480 -17.772  1.00  0.00    -0.101 NA
BRANCH  22  26
HETATM   26  O1  UNL     1      -5.040 -32.807 -22.378  1.00  0.00    -0.361 OA
ATOM     27  H1  UNL     1      -4.192 -32.780 -22.805  1.00  0.00     0.217 HD
ENDBRANCH  22  26
ENDBRANCH  15  19
ENDBRANCH   9  12
ENDBRANCH   7   8
BRANCH   1  28
HETATM   28  C2  UNL     1      -6.438 -22.092 -15.511  1.00  0.00     0.089 A 
HETATM   29  N1  UNL     1      -7.450 -22.207 -16.445  1.00  0.00    -0.185 N 
HETATM   30  C1  UNL     1      -8.630 -22.958 -16.074  1.00  0.00     0.175 C 
HETATM   31  C28 UNL     1      -7.306 -21.664 -17.651  1.00  0.00     0.678 A 
HETATM   32  N9  UNL     1      -6.146 -20.998 -17.944  1.00  0.00    -0.201 N 
HETATM   33  N10 UNL     1      -8.217 -21.722 -18.546  1.00  0.00    -0.234 N 
HETATM   34  C27 UNL     1      -5.155 -20.870 -17.065  1.00  0.00     0.115 A 
ATOM     35  H9  UNL     1      -6.038 -20.585 -18.870  1.00  0.00     0.183 HD
HETATM   36  C24 UNL     1      -5.291 -21.436 -15.781  1.00  0.00    -0.011 A 
ATOM     37 2H10 UNL     1      -9.082 -22.218 -18.328  1.00  0.00     0.174 HD
ATOM     38 1H10 UNL     1      -8.107 -21.306 -19.471  1.00  0.00     0.174 HD
BRANCH  36  39
HETATM   39  C25 UNL     1      -4.246 -21.178 -14.781  1.00  0.00     0.069 C 
BRANCH  39  40
HETATM   40  C26 UNL     1      -3.167 -20.352 -15.523  1.00  0.00     0.234 C 
BRANCH  40  41
HETATM   41  N8  UNL     1      -1.932 -20.370 -14.797  1.00  0.00    -0.079 N 
ATOM     42  H83 UNL     1      -1.710 -19.456 -14.404  1.00  0.00     0.274 HD
ATOM     43  H82 UNL     1      -2.012 -20.895 -13.926  1.00  0.00     0.274 HD
ATOM     44  H81 UNL     1      -1.177 -20.724 -15.384  1.00  0.00     0.274 HD
ENDBRANCH  40  41
ENDBRANCH  39  40
ENDBRANCH  36  39
ENDBRANCH   1  28
BRANCH   4  45
HETATM   45  C5  UNL     1      -7.692 -23.117 -10.795  1.00  0.00     0.008 A 
HETATM   46  C6  UNL     1      -9.025 -23.014 -10.455  1.00  0.00     0.015 A 
HETATM   47  C7  UNL     1      -9.423 -22.850  -9.129  1.00  0.00     0.001 A 
HETATM   48  C8  UNL     1      -8.493 -22.786  -8.116  1.00  0.00     0.000 A 
HETATM   49  C9  UNL     1      -7.161 -22.886  -8.445  1.00  0.00     0.001 A 
HETATM   50  C10 UNL     1      -6.787 -23.048  -9.761  1.00  0.00     0.015 A 
ENDBRANCH   4  45
TORSDOF 9
ENDMDL
MODEL 5
REMARK VINA RESULT: -9.697706741      0.951      2.649
REMARK  9 active torsions:
REMARK  status: ('A' for Active; 'I' for Inactive)
REMARK    1  A    between atoms: C2_3  and  C3_4 
REMARK    2  A    between atoms: C4_7  and  C5_8 
REMARK    3  A    between atoms: C11_16  and  N4_17 
REMARK    4  A    between atoms: N5_19  and  C12_21 
REMARK    5  A    between atoms: C15_24  and  C16_25 
REMARK    6  A    between atoms: C19_28  and  O1_29 
REMARK    7  A    between atoms: C24_37  and  C25_38 
REMARK    8  A    between atoms: C25_38  and  C26_39 
REMARK    9  A    between atoms: C26_39  and  N8_40 
ROOT
HETATM    1  C3  UNL     1      -7.580 -23.030 -14.458  1.00  0.00     0.108 A 
HETATM    2  N2  UNL     1      -7.885 -22.543 -13.230  1.00  0.00    -0.337 N 
ATOM      3  H2  UNL     1      -8.351 -21.650 -13.073  1.00  0.00     0.167 HD
HETATM    4  C4  UNL     1      -7.506 -23.366 -12.249  1.00  0.00     0.117 A 
HETATM    5  N3  UNL     1      -6.939 -24.415 -12.856  1.00  0.00    -0.325 N 
ATOM      6  H3  UNL     1      -6.542 -25.226 -12.381  1.00  0.00     0.169 HD
HETATM    7  C11 UNL     1      -6.974 -24.232 -14.213  1.00  0.00     0.151 A 
ENDROOT
BRANCH   7   8
HETATM    8  N4  UNL     1      -6.511 -25.188 -15.173  1.00  0.00    -0.283 N 
HETATM    9  N5  UNL     1      -7.336 -25.897 -15.823  1.00  0.00    -0.299 N 
ATOM     10  H5  UNL     1      -8.329 -25.756 -15.638  1.00  0.00     0.187 HD
ATOM     11  H4  UNL     1      -5.509 -25.300 -15.334  1.00  0.00     0.188 HD
BRANCH   9  12
HETATM   12  C12 UNL     1      -6.979 -26.869 -16.790  1.00  0.00     0.050 A 
HETATM   13  C13 UNL     1      -7.985 -27.639 -17.363  1.00  0.00     0.032 A 
HETATM   14  C14 UNL     1      -7.699 -28.608 -18.309  1.00  0.00     0.016 A 
HETATM   15  C15 UNL     1      -6.412 -28.858 -18.731  1.00  0.00     0.000 A 
HETATM   16  C22 UNL     1      -5.406 -28.089 -18.161  1.00  0.00     0.059 A 
HETATM   17  N7  UNL     1      -4.067 -28.315 -18.574  1.00  0.00    -0.101 NA
HETATM   18  C23 UNL     1      -5.693 -27.120 -17.214  1.00  0.00     0.058 A 
BRANCH  15  19
HETATM   19  C16 UNL     1      -6.099 -29.882 -19.714  1.00  0.00     0.000 A 
HETATM   20  C17 UNL     1      -5.982 -29.608 -21.071  1.00  0.00     0.017 A 
HETATM   21  C18 UNL     1      -5.669 -30.602 -21.977  1.00  0.00     0.037 A 
HETATM   22  C19 UNL     1      -5.460 -31.903 -21.570  1.00  0.00     0.067 A 
HETATM   23  C20 UNL     1      -5.572 -32.185 -20.238  1.00  0.00     0.064 A 
HETATM   24  C21 UNL     1      -5.890 -31.174 -19.328  1.00  0.00     0.060 A 
HETATM   25  N6  UNL     1      -5.997 -31.541 -17.972  1.00  0.00    -0.101 NA
BRANCH  22  26
HETATM   26  O1  UNL     1      -5.146 -32.867 -22.527  1.00  0.00    -0.361 OA
ATOM     27  H1  UNL     1      -4.883 -33.733 -22.238  1.00  0.00     0.217 HD
ENDBRANCH  22  26
ENDBRANCH  15  19
ENDBRANCH   9  12
ENDBRANCH   7   8
BRANCH   1  28
HETATM   28  C2  UNL     1      -7.937 -22.450 -15.744  1.00  0.00     0.089 A 
HETATM   29  N1  UNL     1      -9.258 -22.596 -16.121  1.00  0.00    -0.185 N 
HETATM   30  C1  UNL     1     -10.165 -23.216 -15.180  1.00  0.00     0.175 C 
HETATM   31  C28 UNL     1      -9.652 -22.202 -17.331  1.00  0.00     0.678 A 
HETATM   32  N9  UNL     1      -8.729 -21.657 -18.182  1.00  0.00    -0.201 N 
HETATM   33  N10 UNL     1     -10.865 -22.295 -17.724  1.00  0.00    -0.234 N 
HETATM   34  C27 UNL     1      -7.451 -21.503 -17.847  1.00  0.00     0.115 A 
ATOM     35  H9  UNL     1      -9.033 -21.359 -19.108  1.00  0.00     0.183 HD
HETATM   36  C24 UNL     1      -7.016 -21.910 -16.570  1.00  0.00    -0.011 A 
ATOM     37 2H10 UNL     1     -11.552 -22.701 -17.089  1.00  0.00     0.174 HD
ATOM     38 1H10 UNL     1     -11.167 -21.993 -18.650  1.00  0.00     0.174 HD
BRANCH  36  39
HETATM   39  C25 UNL     1      -5.634 -21.617 -16.166  1.00  0.00     0.069 C 
BRANCH  39  40
HETATM   40  C26 UNL     1      -5.119 -20.584 -17.198  1.00  0.00     0.234 C 
BRANCH  40  41
HETATM   41  N8  UNL     1      -3.690 -20.496 -17.152  1.00  0.00    -0.079 N 
ATOM     42  H83 UNL     1      -3.377 -19.674 -16.636  1.00  0.00     0.274 HD
ATOM     43  H82 UNL     1      -3.285 -21.215 -16.551  1.00  0.00     0.274 HD
ATOM     44  H81 UNL     1      -3.299 -20.525 -18.093  1.00  0.00     0.274 HD
ENDBRANCH  40  41
ENDBRANCH  39  40
ENDBRANCH  36  39
ENDBRANCH   1  28
BRANCH   4  45
HETATM   45  C5  UNL     1      -7.672 -23.161 -10.816  1.00  0.00     0.008 A 
HETATM   46  C6  UNL     1      -6.606 -23.119  -9.942  1.00  0.00     0.015 A 
HETATM   47  C7  UNL     1      -6.797 -22.920  -8.576  1.00  0.00     0.001 A 
HETATM   48  C8  UNL     1      -8.062 -22.759  -8.056  1.00  0.00     0.000 A 
HETATM   49  C9  UNL     1      -9.132 -22.800  -8.919  1.00  0.00     0.001 A 
HETATM   50  C10 UNL     1      -8.923 -22.998 -10.267  1.00  0.00     0.015 A 
ENDBRANCH   4  45
TORSDOF 9
ENDMDL
