MODEL 1
REMARK VINA RESULT: -10.476800681      0.000      0.000
REMARK  10 active torsions:
REMARK  status: ('A' for Active; 'I' for Inactive)
REMARK    1  A    between atoms: C2_2  and  N1_3 
REMARK    2  A    between atoms: C2_2  and  C3_7 
REMARK    3  A    between atoms: C2_2  and  C4_12 
REMARK    4  A    between atoms: C3_7  and  N2_8 
REMARK    5  A    between atoms: C7_15  and  C8_16 
REMARK    6  A    between atoms: C10_18  and  N3_19 
REMARK    7  A    between atoms: N3_19  and  N4_20 
REMARK    8  A    between atoms: N3_19  and  C11_23 
REMARK    9  A    between atoms: C11_23  and  C12_24 
REMARK   10  A    between atoms: C15_27  and  C16_28 
ROOT
HETATM    1  C8  UNL     1      -9.759 -22.907 -14.504  1.00  0.00     0.046 A 
HETATM    2  C9  UNL     1      -8.714 -22.744 -13.640  1.00  0.00     0.064 A 
HETATM    3  C10 UNL     1      -7.680 -23.630 -13.555  1.00  0.00     0.083 A 
HETATM    4  C25 UNL     1      -7.720 -24.736 -14.391  1.00  0.00     0.109 A 
HETATM    5  N7  UNL     1      -6.852 -25.740 -14.507  1.00  0.00    -0.303 N 
ATOM      6  H7  UNL     1      -5.986 -25.866 -13.982  1.00  0.00     0.171 HD
HETATM    7  C26 UNL     1      -7.349 -26.559 -15.462  1.00  0.00     0.326 A 
HETATM    8  O1  UNL     1      -6.793 -27.609 -15.833  1.00  0.00    -0.247 OA
HETATM    9  N8  UNL     1      -8.509 -26.076 -15.933  1.00  0.00    -0.292 N 
ATOM     10  H8  UNL     1      -9.089 -26.502 -16.656  1.00  0.00     0.172 HD
HETATM   11  C27 UNL     1      -8.771 -24.918 -15.273  1.00  0.00     0.139 A 
HETATM   12  N9  UNL     1      -9.740 -24.018 -15.302  1.00  0.00    -0.340 N 
ATOM     13  H9  UNL     1     -10.513 -24.159 -15.954  1.00  0.00     0.167 HD
ENDROOT
BRANCH   3  14
HETATM   14  N3  UNL     1      -6.563 -23.499 -12.661  1.00  0.00    -0.292 N 
BRANCH  14  15
HETATM   15  N4  UNL     1      -5.322 -23.472 -13.265  1.00  0.00    -0.342 N 
ATOM     16  H42 UNL     1      -5.108 -23.206 -14.226  1.00  0.00     0.177 HD
ATOM     17  H41 UNL     1      -4.543 -23.767 -12.677  1.00  0.00     0.177 HD
ENDBRANCH  14  15
BRANCH  14  18
HETATM   18  C11 UNL     1      -6.846 -23.393 -11.283  1.00  0.00     0.187 C 
BRANCH  18  19
HETATM   19  C12 UNL     1      -7.763 -22.357 -10.796  1.00  0.00    -0.038 A 
HETATM   20  C13 UNL     1      -7.405 -21.010 -11.014  1.00  0.00     0.010 A 
HETATM   21  C14 UNL     1      -8.193 -19.959 -10.659  1.00  0.00     0.016 A 
HETATM   22  C15 UNL     1      -9.419 -20.212 -10.050  1.00  0.00     0.008 A 
HETATM   23  C23 UNL     1      -9.780 -21.519  -9.826  1.00  0.00     0.016 A 
HETATM   24  C24 UNL     1      -8.967 -22.583 -10.192  1.00  0.00     0.010 A 
BRANCH  22  25
HETATM   25  C16 UNL     1     -10.293 -19.095  -9.696  1.00  0.00     0.116 A 
HETATM   26  N5  UNL     1      -9.932 -17.802  -9.779  1.00  0.00    -0.340 N 
HETATM   27  C17 UNL     1     -10.939 -17.002  -9.427  1.00  0.00     0.060 A 
ATOM     28  H5  UNL     1      -9.010 -17.477 -10.071  1.00  0.00     0.167 HD
HETATM   29  C18 UNL     1     -11.028 -15.631  -9.361  1.00  0.00     0.032 A 
HETATM   30  C22 UNL     1     -11.995 -17.832  -9.104  1.00  0.00     0.060 A 
HETATM   31  C19 UNL     1     -12.218 -15.058  -8.964  1.00  0.00     0.002 A 
HETATM   32  C20 UNL     1     -13.288 -15.881  -8.642  1.00  0.00     0.002 A 
HETATM   33  C21 UNL     1     -13.177 -17.257  -8.712  1.00  0.00     0.032 A 
HETATM   34  N6  UNL     1     -11.557 -19.096  -9.282  1.00  0.00    -0.340 N 
ATOM     35  H6  UNL     1     -12.116 -19.934  -9.122  1.00  0.00     0.167 HD
ENDBRANCH  22  25
ENDBRANCH  18  19
ENDBRANCH  14  18
ENDBRANCH   3  14
BRANCH   1  36
HETATM   36  C7  UNL     1     -10.869 -21.972 -14.603  1.00  0.00    -0.009 A 
HETATM   37  C6  UNL     1     -11.377 -21.380 -13.442  1.00  0.00     0.014 A 
HETATM   38  C5  UNL     1     -12.413 -20.473 -13.459  1.00  0.00     0.011 A 
HETATM   39  C4  UNL     1     -12.992 -20.109 -14.651  1.00  0.00    -0.021 A 
HETATM   40  C29 UNL     1     -12.506 -20.682 -15.796  1.00  0.00     0.011 A 
HETATM   41  C28 UNL     1     -11.452 -21.607 -15.782  1.00  0.00     0.014 A 
BRANCH  39  42
HETATM   42  C2  UNL     1     -14.092 -19.117 -14.654  1.00  0.00     0.170 C 
HETATM   43  C1  UNL     1     -13.621 -17.797 -15.278  1.00  0.00     0.053 C 
BRANCH  42  44
HETATM   44  N1  UNL     1     -14.507 -18.783 -13.277  1.00  0.00    -0.065 N 
ATOM     45  H13 UNL     1     -14.735 -17.797 -13.146  1.00  0.00     0.275 HD
ATOM     46  H12 UNL     1     -15.423 -19.154 -13.025  1.00  0.00     0.275 HD
ATOM     47  H11 UNL     1     -13.754 -19.112 -12.673  1.00  0.00     0.275 HD
ENDBRANCH  42  44
BRANCH  42  48
HETATM   48  C3  UNL     1     -15.322 -19.584 -15.355  1.00  0.00     0.272 C 
BRANCH  48  49
HETATM   49  N2  UNL     1     -15.907 -20.646 -14.524  1.00  0.00    -0.077 N 
ATOM     50  H23 UNL     1     -15.874 -20.440 -13.525  1.00  0.00     0.274 HD
ATOM     51  H22 UNL     1     -16.922 -20.710 -14.608  1.00  0.00     0.274 HD
ATOM     52  H21 UNL     1     -15.428 -21.511 -14.773  1.00  0.00     0.274 HD
ENDBRANCH  48  49
ENDBRANCH  42  48
ENDBRANCH  39  42
ENDBRANCH   1  36
TORSDOF 10
ENDMDL
MODEL 2
REMARK VINA RESULT: -10.466945697      1.523      1.826
REMARK  10 active torsions:
REMARK  status: ('A' for Active; 'I' for Inactive)
REMARK    1  A    between atoms: C2_2  and  N1_3 
REMARK    2  A    between atoms: C2_2  and  C3_7 
REMARK    3  A    between atoms: C2_2  and  C4_12 
REMARK    4  A    between atoms: C3_7  and  N2_8 
REMARK    5  A    between atoms: C7_15  and  C8_16 
REMARK    6  A    between atoms: C10_18  and  N3_19 
REMARK    7  A    between atoms: N3_19  and  N4_20 
REMARK    8  A    between atoms: N3_19  and  C11_23 
REMARK    9  A    between atoms: C11_23  and  C12_24 
REMARK   10  A    between atoms: C15_27  and  C16_28 
ROOT
HETATM    1  C8  UNL     1      -9.940 -22.578 -13.340  1.00  0.00     0.046 A 
HETATM    2  C9  UNL     1      -9.126 -22.443 -12.251  1.00  0.00     0.064 A 
HETATM    3  C10 UNL     1      -8.261 -23.419 -11.850  1.00  0.00     0.083 A 
HETATM    4  C25 UNL     1      -8.230 -24.588 -12.596  1.00  0.00     0.109 A 
HETATM    5  N7  UNL     1      -7.490 -25.681 -12.423  1.00  0.00    -0.303 N 
ATOM      6  H7  UNL     1      -6.802 -25.846 -11.688  1.00  0.00     0.171 HD
HETATM    7  C26 UNL     1      -7.834 -26.531 -13.419  1.00  0.00     0.326 A 
HETATM    8  O1  UNL     1      -7.337 -27.662 -13.568  1.00  0.00    -0.247 OA
HETATM    9  N8  UNL     1      -8.776 -25.977 -14.199  1.00  0.00    -0.292 N 
ATOM     10  H8  UNL     1      -9.208 -26.406 -15.016  1.00  0.00     0.172 HD
HETATM   11  C27 UNL     1      -9.047 -24.742 -13.702  1.00  0.00     0.139 A 
HETATM   12  N9  UNL     1      -9.862 -23.754 -14.034  1.00  0.00    -0.340 N 
ATOM     13  H9  UNL     1     -10.463 -23.875 -14.850  1.00  0.00     0.167 HD
ENDROOT
BRANCH   3  14
HETATM   14  N3  UNL     1      -7.389 -23.320 -10.712  1.00  0.00    -0.292 N 
BRANCH  14  15
HETATM   15  N4  UNL     1      -6.060 -23.593 -10.960  1.00  0.00    -0.342 N 
ATOM     16  H42 UNL     1      -5.651 -24.489 -11.226  1.00  0.00     0.177 HD
ATOM     17  H41 UNL     1      -5.424 -22.803 -10.850  1.00  0.00     0.177 HD
ENDBRANCH  14  15
BRANCH  14  18
HETATM   18  C11 UNL     1      -7.970 -22.943  -9.483  1.00  0.00     0.187 C 
BRANCH  18  19
HETATM   19  C12 UNL     1      -8.810 -21.743  -9.401  1.00  0.00    -0.038 A 
HETATM   20  C13 UNL     1      -8.212 -20.503  -9.703  1.00  0.00     0.010 A 
HETATM   21  C14 UNL     1      -8.893 -19.325  -9.716  1.00  0.00     0.016 A 
HETATM   22  C15 UNL     1     -10.254 -19.332  -9.421  1.00  0.00     0.008 A 
HETATM   23  C23 UNL     1     -10.852 -20.533  -9.120  1.00  0.00     0.016 A 
HETATM   24  C24 UNL     1     -10.145 -21.727  -9.109  1.00  0.00     0.010 A 
BRANCH  22  25
HETATM   25  C16 UNL     1     -11.009 -18.081  -9.467  1.00  0.00     0.116 A 
HETATM   26  N5  UNL     1     -10.981 -17.223 -10.503  1.00  0.00    -0.340 N 
HETATM   27  C17 UNL     1     -11.791 -16.187 -10.288  1.00  0.00     0.060 A 
ATOM     28  H5  UNL     1     -10.414 -17.349 -11.342  1.00  0.00     0.167 HD
HETATM   29  C18 UNL     1     -12.079 -15.085 -11.058  1.00  0.00     0.032 A 
HETATM   30  C22 UNL     1     -12.364 -16.398  -9.048  1.00  0.00     0.060 A 
HETATM   31  C19 UNL     1     -12.979 -14.154 -10.582  1.00  0.00     0.002 A 
HETATM   32  C20 UNL     1     -13.566 -14.358  -9.340  1.00  0.00     0.002 A 
HETATM   33  C21 UNL     1     -13.261 -15.471  -8.580  1.00  0.00     0.032 A 
HETATM   34  N6  UNL     1     -11.859 -17.561  -8.586  1.00  0.00    -0.340 N 
ATOM     35  H6  UNL     1     -12.097 -17.983  -7.689  1.00  0.00     0.167 HD
ENDBRANCH  22  25
ENDBRANCH  18  19
ENDBRANCH  14  18
ENDBRANCH   3  14
BRANCH   1  36
HETATM   36  C7  UNL     1     -10.868 -21.547 -13.777  1.00  0.00    -0.009 A 
HETATM   37  C6  UNL     1     -11.311 -20.585 -12.863  1.00  0.00     0.014 A 
HETATM   38  C5  UNL     1     -12.175 -19.570 -13.208  1.00  0.00     0.011 A 
HETATM   39  C4  UNL     1     -12.638 -19.466 -14.497  1.00  0.00    -0.021 A 
HETATM   40  C29 UNL     1     -12.213 -20.401 -15.403  1.00  0.00     0.011 A 
HETATM   41  C28 UNL     1     -11.336 -21.438 -15.055  1.00  0.00     0.014 A 
BRANCH  39  42
HETATM   42  C2  UNL     1     -13.551 -18.356 -14.857  1.00  0.00     0.170 C 
HETATM   43  C1  UNL     1     -13.337 -17.162 -13.918  1.00  0.00     0.053 C 
BRANCH  42  44
HETATM   44  N1  UNL     1     -14.962 -18.755 -14.683  1.00  0.00    -0.065 N 
ATOM     45  H13 UNL     1     -15.513 -18.694 -15.540  1.00  0.00     0.275 HD
ATOM     46  H12 UNL     1     -15.087 -19.755 -14.528  1.00  0.00     0.275 HD
ATOM     47  H11 UNL     1     -15.322 -18.176 -13.924  1.00  0.00     0.275 HD
ENDBRANCH  42  44
BRANCH  42  48
HETATM   48  C3  UNL     1     -13.420 -17.903 -16.271  1.00  0.00     0.272 C 
BRANCH  48  49
HETATM   49  N2  UNL     1     -13.832 -16.491 -16.303  1.00  0.00    -0.077 N 
ATOM     50  H23 UNL     1     -14.773 -16.355 -16.674  1.00  0.00     0.274 HD
ATOM     51  H22 UNL     1     -14.002 -16.100 -15.376  1.00  0.00     0.274 HD
ATOM     52  H21 UNL     1     -13.116 -15.988 -16.826  1.00  0.00     0.274 HD
ENDBRANCH  48  49
ENDBRANCH  42  48
ENDBRANCH  39  42
ENDBRANCH   1  36
TORSDOF 10
ENDMDL
MODEL 3
REMARK VINA RESULT: -10.409769592      0.923      1.555
REMARK  10 active torsions:
REMARK  status: ('A' for Active; 'I' for Inactive)
REMARK    1  A    between atoms: C2_2  and  N1_3 
REMARK    2  A    between atoms: C2_2  and  C3_7 
REMARK    3  A    between atoms: C2_2  and  C4_12 
REMARK    4  A    between atoms: C3_7  and  N2_8 
REMARK    5  A    between atoms: C7_15  and  C8_16 
REMARK    6  A    between atoms: C10_18  and  N3_19 
REMARK    7  A    between atoms: N3_19  and  N4_20 
REMARK    8  A    between atoms: N3_19  and  C11_23 
REMARK    9  A    between atoms: C11_23  and  C12_24 
REMARK   10  A    between atoms: C15_27  and  C16_28 
ROOT
HETATM    1  C8  UNL     1     -10.037 -22.760 -14.667  1.00  0.00     0.046 A 
HETATM    2  C9  UNL     1      -9.466 -23.338 -13.569  1.00  0.00     0.064 A 
HETATM    3  C10 UNL     1      -8.461 -24.256 -13.656  1.00  0.00     0.083 A 
HETATM    4  C25 UNL     1      -8.022 -24.600 -14.926  1.00  0.00     0.109 A 
HETATM    5  N7  UNL     1      -7.070 -25.459 -15.288  1.00  0.00    -0.303 N 
ATOM      6  H7  UNL     1      -6.488 -26.025 -14.670  1.00  0.00     0.171 HD
HETATM    7  C26 UNL     1      -7.030 -25.429 -16.640  1.00  0.00     0.326 A 
HETATM    8  O1  UNL     1      -6.250 -26.115 -17.326  1.00  0.00    -0.247 OA
HETATM    9  N8  UNL     1      -7.944 -24.568 -17.115  1.00  0.00    -0.292 N 
ATOM     10  H8  UNL     1      -8.121 -24.360 -18.097  1.00  0.00     0.172 HD
HETATM   11  C27 UNL     1      -8.589 -24.025 -16.050  1.00  0.00     0.139 A 
HETATM   12  N9  UNL     1      -9.561 -23.140 -15.891  1.00  0.00    -0.340 N 
ATOM     13  H9  UNL     1      -9.975 -22.722 -16.723  1.00  0.00     0.167 HD
ENDROOT
BRANCH   3  14
HETATM   14  N3  UNL     1      -7.832 -24.889 -12.530  1.00  0.00    -0.292 N 
BRANCH  14  15
HETATM   15  N4  UNL     1      -7.824 -26.269 -12.556  1.00  0.00    -0.342 N 
ATOM     16  H42 UNL     1      -7.015 -26.880 -12.666  1.00  0.00     0.177 HD
ATOM     17  H41 UNL     1      -8.737 -26.713 -12.467  1.00  0.00     0.177 HD
ENDBRANCH  14  15
BRANCH  14  18
HETATM   18  C11 UNL     1      -7.282 -24.048 -11.539  1.00  0.00     0.187 C 
BRANCH  18  19
HETATM   19  C12 UNL     1      -8.031 -22.881 -11.063  1.00  0.00    -0.038 A 
HETATM   20  C13 UNL     1      -7.574 -21.605 -11.455  1.00  0.00     0.010 A 
HETATM   21  C14 UNL     1      -8.210 -20.448 -11.125  1.00  0.00     0.016 A 
HETATM   22  C15 UNL     1      -9.374 -20.513 -10.364  1.00  0.00     0.008 A 
HETATM   23  C23 UNL     1      -9.830 -21.748  -9.971  1.00  0.00     0.016 A 
HETATM   24  C24 UNL     1      -9.172 -22.921 -10.312  1.00  0.00     0.010 A 
BRANCH  22  25
HETATM   25  C16 UNL     1     -10.089 -19.282 -10.033  1.00  0.00     0.116 A 
HETATM   26  N5  UNL     1     -11.407 -19.225  -9.770  1.00  0.00    -0.340 N 
HETATM   27  C17 UNL     1     -11.781 -17.983  -9.466  1.00  0.00     0.060 A 
ATOM     28  H5  UNL     1     -12.038 -20.027  -9.801  1.00  0.00     0.167 HD
HETATM   29  C18 UNL     1     -13.009 -17.460  -9.133  1.00  0.00     0.032 A 
HETATM   30  C22 UNL     1     -10.639 -17.208  -9.539  1.00  0.00     0.060 A 
HETATM   31  C19 UNL     1     -13.107 -16.113  -8.853  1.00  0.00     0.002 A 
HETATM   32  C20 UNL     1     -11.965 -15.326  -8.918  1.00  0.00     0.002 A 
HETATM   33  C21 UNL     1     -10.741 -15.869  -9.258  1.00  0.00     0.032 A 
HETATM   34  N6  UNL     1      -9.635 -18.040  -9.887  1.00  0.00    -0.340 N 
ATOM     35  H6  UNL     1      -8.664 -17.757 -10.020  1.00  0.00     0.167 HD
ENDBRANCH  22  25
ENDBRANCH  18  19
ENDBRANCH  14  18
ENDBRANCH   3  14
BRANCH   1  36
HETATM   36  C7  UNL     1     -11.111 -21.782 -14.588  1.00  0.00    -0.009 A 
HETATM   37  C6  UNL     1     -11.779 -21.396 -15.755  1.00  0.00     0.014 A 
HETATM   38  C5  UNL     1     -12.816 -20.490 -15.757  1.00  0.00     0.011 A 
HETATM   39  C4  UNL     1     -13.241 -19.925 -14.579  1.00  0.00    -0.021 A 
HETATM   40  C29 UNL     1     -12.596 -20.293 -13.428  1.00  0.00     0.011 A 
HETATM   41  C28 UNL     1     -11.538 -21.214 -13.422  1.00  0.00     0.014 A 
BRANCH  39  42
HETATM   42  C2  UNL     1     -14.371 -18.968 -14.595  1.00  0.00     0.170 C 
HETATM   43  C1  UNL     1     -13.912 -17.608 -15.138  1.00  0.00     0.053 C 
BRANCH  42  44
HETATM   44  N1  UNL     1     -14.863 -18.708 -13.227  1.00  0.00    -0.065 N 
ATOM     45  H13 UNL     1     -15.751 -19.165 -13.019  1.00  0.00     0.275 HD
ATOM     46  H12 UNL     1     -14.315 -19.169 -12.502  1.00  0.00     0.275 HD
ATOM     47  H11 UNL     1     -14.894 -17.692 -13.132  1.00  0.00     0.275 HD
ENDBRANCH  42  44
BRANCH  42  48
HETATM   48  C3  UNL     1     -15.549 -19.439 -15.377  1.00  0.00     0.272 C 
BRANCH  48  49
HETATM   49  N2  UNL     1     -16.111 -20.585 -14.647  1.00  0.00    -0.077 N 
ATOM     50  H23 UNL     1     -15.901 -21.483 -15.085  1.00  0.00     0.274 HD
ATOM     51  H22 UNL     1     -15.644 -20.764 -13.757  1.00  0.00     0.274 HD
ATOM     52  H21 UNL     1     -17.110 -20.410 -14.548  1.00  0.00     0.274 HD
ENDBRANCH  48  49
ENDBRANCH  42  48
ENDBRANCH  39  42
ENDBRANCH   1  36
TORSDOF 10
ENDMDL
MODEL 4
REMARK VINA RESULT: -10.290389009      1.233      1.471
REMARK  10 active torsions:
REMARK  status: ('A' for Active; 'I' for Inactive)
REMARK    1  A    between atoms: C2_2  and  N1_3 
REMARK    2  A    between atoms: C2_2  and  C3_7 
REMARK    3  A    between atoms: C2_2  and  C4_12 
REMARK    4  A    between atoms: C3_7  and  N2_8 
REMARK    5  A    between atoms: C7_15  and  C8_16 
REMARK    6  A    between atoms: C10_18  and  N3_19 
REMARK    7  A    between atoms: N3_19  and  N4_20 
REMARK    8  A    between atoms: N3_19  and  C11_23 
REMARK    9  A    between atoms: C11_23  and  C12_24 
REMARK   10  A    between atoms: C15_27  and  C16_28 
ROOT
HETATM    1  C8  UNL     1      -9.972 -22.859 -14.951  1.00  0.00     0.046 A 
HETATM    2  C9  UNL     1      -9.454 -23.471 -13.846  1.00  0.00     0.064 A 
HETATM    3  C10 UNL     1      -8.512 -24.454 -13.918  1.00  0.00     0.083 A 
HETATM    4  C25 UNL     1      -8.081 -24.830 -15.182  1.00  0.00     0.109 A 
HETATM    5  N7  UNL     1      -7.184 -25.751 -15.530  1.00  0.00    -0.303 N 
ATOM      6  H7  UNL     1      -6.649 -26.353 -14.904  1.00  0.00     0.171 HD
HETATM    7  C26 UNL     1      -7.126 -25.728 -16.882  1.00  0.00     0.326 A 
HETATM    8  O1  UNL     1      -6.385 -26.467 -17.557  1.00  0.00    -0.247 OA
HETATM    9  N8  UNL     1      -7.974 -24.809 -17.370  1.00  0.00    -0.292 N 
ATOM     10  H8  UNL     1      -8.124 -24.592 -18.355  1.00  0.00     0.172 HD
HETATM   11  C27 UNL     1      -8.594 -24.221 -16.314  1.00  0.00     0.139 A 
HETATM   12  N9  UNL     1      -9.507 -23.274 -16.169  1.00  0.00    -0.340 N 
ATOM     13  H9  UNL     1      -9.882 -22.830 -17.007  1.00  0.00     0.167 HD
ENDROOT
BRANCH   3  14
HETATM   14  N3  UNL     1      -7.941 -25.125 -12.783  1.00  0.00    -0.292 N 
BRANCH  14  15
HETATM   15  N4  UNL     1      -7.985 -26.503 -12.826  1.00  0.00    -0.342 N 
ATOM     16  H42 UNL     1      -7.556 -27.114 -13.521  1.00  0.00     0.177 HD
ATOM     17  H41 UNL     1      -8.522 -26.947 -12.081  1.00  0.00     0.177 HD
ENDBRANCH  14  15
BRANCH  14  18
HETATM   18  C11 UNL     1      -7.387 -24.318 -11.767  1.00  0.00     0.187 C 
BRANCH  18  19
HETATM   19  C12 UNL     1      -8.113 -23.140 -11.281  1.00  0.00    -0.038 A 
HETATM   20  C13 UNL     1      -7.614 -21.870 -11.637  1.00  0.00     0.010 A 
HETATM   21  C14 UNL     1      -8.224 -20.702 -11.295  1.00  0.00     0.016 A 
HETATM   22  C15 UNL     1      -9.405 -20.751 -10.559  1.00  0.00     0.008 A 
HETATM   23  C23 UNL     1      -9.903 -21.981 -10.201  1.00  0.00     0.016 A 
HETATM   24  C24 UNL     1      -9.270 -23.165 -10.554  1.00  0.00     0.010 A 
BRANCH  22  25
HETATM   25  C16 UNL     1     -10.093 -19.507 -10.216  1.00  0.00     0.116 A 
HETATM   26  N5  UNL     1     -10.081 -18.404 -10.987  1.00  0.00    -0.340 N 
HETATM   27  C17 UNL     1     -10.820 -17.436 -10.445  1.00  0.00     0.060 A 
ATOM     28  H5  UNL     1      -9.574 -18.320 -11.868  1.00  0.00     0.167 HD
HETATM   29  C18 UNL     1     -11.094 -16.158 -10.871  1.00  0.00     0.032 A 
HETATM   30  C22 UNL     1     -11.328 -17.951  -9.268  1.00  0.00     0.060 A 
HETATM   31  C19 UNL     1     -11.912 -15.358 -10.101  1.00  0.00     0.002 A 
HETATM   32  C20 UNL     1     -12.433 -15.867  -8.919  1.00  0.00     0.002 A 
HETATM   33  C21 UNL     1     -12.143 -17.153  -8.506  1.00  0.00     0.032 A 
HETATM   34  N6  UNL     1     -10.859 -19.213  -9.170  1.00  0.00    -0.340 N 
ATOM     35  H6  UNL     1     -11.064 -19.852  -8.401  1.00  0.00     0.167 HD
ENDBRANCH  22  25
ENDBRANCH  18  19
ENDBRANCH  14  18
ENDBRANCH   3  14
BRANCH   1  36
HETATM   36  C7  UNL     1     -10.980 -21.812 -14.888  1.00  0.00    -0.009 A 
HETATM   37  C6  UNL     1     -11.263 -21.201 -13.662  1.00  0.00     0.014 A 
HETATM   38  C5  UNL     1     -12.190 -20.191 -13.528  1.00  0.00     0.011 A 
HETATM   39  C4  UNL     1     -12.881 -19.738 -14.626  1.00  0.00    -0.021 A 
HETATM   40  C29 UNL     1     -12.614 -20.328 -15.833  1.00  0.00     0.011 A 
HETATM   41  C28 UNL     1     -11.673 -21.357 -15.973  1.00  0.00     0.014 A 
BRANCH  39  42
HETATM   42  C2  UNL     1     -13.860 -18.638 -14.468  1.00  0.00     0.170 C 
HETATM   43  C1  UNL     1     -13.224 -17.458 -13.721  1.00  0.00     0.053 C 
BRANCH  42  44
HETATM   44  N1  UNL     1     -15.007 -19.065 -13.642  1.00  0.00    -0.065 N 
ATOM     45  H13 UNL     1     -15.786 -18.406 -13.652  1.00  0.00     0.275 HD
ATOM     46  H12 UNL     1     -15.514 -19.861 -14.028  1.00  0.00     0.275 HD
ATOM     47  H11 UNL     1     -14.628 -19.235 -12.710  1.00  0.00     0.275 HD
ENDBRANCH  42  44
BRANCH  42  48
HETATM   48  C3  UNL     1     -14.435 -18.154 -15.756  1.00  0.00     0.272 C 
BRANCH  48  49
HETATM   49  N2  UNL     1     -14.000 -16.759 -15.916  1.00  0.00    -0.077 N 
ATOM     50  H23 UNL     1     -14.509 -16.107 -15.318  1.00  0.00     0.274 HD
ATOM     51  H22 UNL     1     -13.070 -16.581 -15.538  1.00  0.00     0.274 HD
ATOM     52  H21 UNL     1     -14.079 -16.539 -16.909  1.00  0.00     0.274 HD
ENDBRANCH  48  49
ENDBRANCH  42  48
ENDBRANCH  39  42
ENDBRANCH   1  36
TORSDOF 10
ENDMDL
MODEL 5
REMARK VINA RESULT: -9.992012024      3.452      7.583
REMARK  10 active torsions:
REMARK  status: ('A' for Active; 'I' for Inactive)
REMARK    1  A    between atoms: C2_2  and  N1_3 
REMARK    2  A    between atoms: C2_2  and  C3_7 
REMARK    3  A    between atoms: C2_2  and  C4_12 
REMARK    4  A    between atoms: C3_7  and  N2_8 
REMARK    5  A    between atoms: C7_15  and  C8_16 
REMARK    6  A    between atoms: C10_18  and  N3_19 
REMARK    7  A    between atoms: N3_19  and  N4_20 
REMARK    8  A    between atoms: N3_19  and  C11_23 
REMARK    9  A    between atoms: C11_23  and  C12_24 
REMARK   10  A    between atoms: C15_27  and  C16_28 
ROOT
HETATM    1  C8  UNL     1      -7.427 -24.877 -17.458  1.00  0.00     0.046 A 
HETATM    2  C9  UNL     1      -8.647 -24.293 -17.275  1.00  0.00     0.064 A 
HETATM    3  C10 UNL     1      -8.834 -22.942 -17.316  1.00  0.00     0.083 A 
HETATM    4  C25 UNL     1      -7.719 -22.153 -17.553  1.00  0.00     0.109 A 
HETATM    5  N7  UNL     1      -7.624 -20.827 -17.641  1.00  0.00    -0.303 N 
ATOM      6  H7  UNL     1      -8.381 -20.151 -17.543  1.00  0.00     0.171 HD
HETATM    7  C26 UNL     1      -6.320 -20.558 -17.885  1.00  0.00     0.326 A 
HETATM    8  O1  UNL     1      -5.864 -19.408 -18.026  1.00  0.00    -0.247 OA
HETATM    9  N8  UNL     1      -5.613 -21.697 -17.948  1.00  0.00    -0.292 N 
ATOM     10  H8  UNL     1      -4.610 -21.774 -18.119  1.00  0.00     0.172 HD
HETATM   11  C27 UNL     1      -6.473 -22.727 -17.742  1.00  0.00     0.139 A 
HETATM   12  N9  UNL     1      -6.366 -24.046 -17.689  1.00  0.00    -0.340 N 
ATOM     13  H9  UNL     1      -5.445 -24.462 -17.827  1.00  0.00     0.167 HD
ENDROOT
BRANCH   3  14
HETATM   14  N3  UNL     1     -10.098 -22.286 -17.127  1.00  0.00    -0.292 N 
BRANCH  14  15
HETATM   15  N4  UNL     1     -10.491 -21.453 -18.155  1.00  0.00    -0.342 N 
ATOM     16  H42 UNL     1     -11.133 -21.672 -18.918  1.00  0.00     0.177 HD
ATOM     17  H41 UNL     1     -10.076 -20.522 -18.146  1.00  0.00     0.177 HD
ENDBRANCH  14  15
BRANCH  14  18
HETATM   18  C11 UNL     1     -10.804 -22.571 -15.939  1.00  0.00     0.187 C 
BRANCH  18  19
HETATM   19  C12 UNL     1     -11.242 -21.480 -15.062  1.00  0.00    -0.038 A 
HETATM   20  C13 UNL     1     -10.835 -21.521 -13.712  1.00  0.00     0.010 A 
HETATM   21  C14 UNL     1     -11.129 -20.545 -12.811  1.00  0.00     0.016 A 
HETATM   22  C15 UNL     1     -11.867 -19.442 -13.230  1.00  0.00     0.008 A 
HETATM   23  C23 UNL     1     -12.275 -19.389 -14.542  1.00  0.00     0.016 A 
HETATM   24  C24 UNL     1     -11.970 -20.391 -15.452  1.00  0.00     0.010 A 
BRANCH  22  25
HETATM   25  C16 UNL     1     -12.160 -18.367 -12.284  1.00  0.00     0.116 A 
HETATM   26  N5  UNL     1     -12.407 -18.563 -10.976  1.00  0.00    -0.340 N 
HETATM   27  C17 UNL     1     -12.606 -17.404 -10.348  1.00  0.00     0.060 A 
ATOM     28  H5  UNL     1     -12.438 -19.478 -10.524  1.00  0.00     0.167 HD
HETATM   29  C18 UNL     1     -12.885 -17.121  -9.032  1.00  0.00     0.032 A 
HETATM   30  C22 UNL     1     -12.479 -16.420 -11.309  1.00  0.00     0.060 A 
HETATM   31  C19 UNL     1     -13.038 -15.805  -8.650  1.00  0.00     0.002 A 
HETATM   32  C20 UNL     1     -12.906 -14.806  -9.605  1.00  0.00     0.002 A 
HETATM   33  C21 UNL     1     -12.630 -15.111 -10.924  1.00  0.00     0.032 A 
HETATM   34  N6  UNL     1     -12.208 -17.051 -12.471  1.00  0.00    -0.340 N 
ATOM     35  H6  UNL     1     -12.061 -16.586 -13.366  1.00  0.00     0.167 HD
ENDBRANCH  22  25
ENDBRANCH  18  19
ENDBRANCH  14  18
ENDBRANCH   3  14
BRANCH   1  36
HETATM   36  C7  UNL     1      -7.213 -26.315 -17.415  1.00  0.00    -0.009 A 
HETATM   37  C6  UNL     1      -5.908 -26.818 -17.377  1.00  0.00     0.014 A 
HETATM   38  C5  UNL     1      -5.629 -28.165 -17.316  1.00  0.00     0.011 A 
HETATM   39  C4  UNL     1      -6.652 -29.082 -17.287  1.00  0.00    -0.021 A 
HETATM   40  C29 UNL     1      -7.935 -28.604 -17.325  1.00  0.00     0.011 A 
HETATM   41  C28 UNL     1      -8.224 -27.234 -17.388  1.00  0.00     0.014 A 
BRANCH  39  42
HETATM   42  C2  UNL     1      -6.335 -30.526 -17.202  1.00  0.00     0.170 C 
HETATM   43  C1  UNL     1      -6.162 -30.950 -15.737  1.00  0.00     0.053 C 
BRANCH  42  44
HETATM   44  N1  UNL     1      -5.047 -30.824 -17.860  1.00  0.00    -0.065 N 
ATOM     45  H13 UNL     1      -4.316 -31.121 -17.213  1.00  0.00     0.275 HD
ATOM     46  H12 UNL     1      -5.064 -31.674 -18.423  1.00  0.00     0.275 HD
ATOM     47  H11 UNL     1      -4.807 -29.987 -18.392  1.00  0.00     0.275 HD
ENDBRANCH  42  44
BRANCH  42  48
HETATM   48  C3  UNL     1      -7.347 -31.405 -17.854  1.00  0.00     0.272 C 
BRANCH  48  49
HETATM   49  N2  UNL     1      -6.750 -31.877 -19.112  1.00  0.00    -0.077 N 
ATOM     50  H23 UNL     1      -7.065 -32.810 -19.382  1.00  0.00     0.274 HD
ATOM     51  H22 UNL     1      -7.097 -31.382 -19.934  1.00  0.00     0.274 HD
ATOM     52  H21 UNL     1      -5.739 -31.811 -19.000  1.00  0.00     0.274 HD
ENDBRANCH  48  49
ENDBRANCH  42  48
ENDBRANCH  39  42
ENDBRANCH   1  36
TORSDOF 10
ENDMDL
