MODEL 1
REMARK VINA RESULT: -6.442097293      0.000      0.000
REMARK  7 active torsions:
REMARK  status: ('A' for Active; 'I' for Inactive)
REMARK    1  A    between atoms: N1_2  and  C2_4 
REMARK    2  A    between atoms: C2_4  and  S1_8 
REMARK    3  A    between atoms: S1_8  and  C3_9 
REMARK    4  A    between atoms: C3_9  and  C4_10 
REMARK    5  A    between atoms: C4_10  and  C5_11 
REMARK    6  A    between atoms: C5_11  and  C6_12 
REMARK    7  A    between atoms: C6_12  and  N4_16 
ROOT
HETATM    1  C5  UNL     1      31.173  -7.313  31.579  1.00  0.00     0.076 C 
ENDROOT
BRANCH   1   2
HETATM    2  C4  UNL     1      31.161  -7.094  30.116  1.00  0.00     0.018 C 
BRANCH   2   3
HETATM    3  C3  UNL     1      32.533  -7.047  29.501  1.00  0.00     0.082 C 
BRANCH   3   4
HETATM    4  S1  UNL     1      32.876  -8.336  28.315  1.00  0.00    -0.095 SA
BRANCH   4   5
HETATM    5  C2  UNL     1      34.390  -7.942  27.467  1.00  0.00     0.133 C 
HETATM    6  N2  UNL     1      35.488  -8.337  27.975  1.00  0.00    -0.380 N 
ATOM      7  H22 UNL     1      36.355  -8.111  27.489  1.00  0.00     0.158 HD
ATOM      8  H21 UNL     1      35.478  -8.865  28.847  1.00  0.00     0.158 HD
BRANCH   5   9
HETATM    9  N1  UNL     1      34.403  -7.209  26.257  1.00  0.00    -0.376 N 
HETATM   10  C1  UNL     1      33.285  -7.242  25.346  1.00  0.00     0.148 C 
ATOM     11  H1  UNL     1      35.220  -6.645  26.024  1.00  0.00     0.161 HD
ENDBRANCH   5   9
ENDBRANCH   4   5
ENDBRANCH   3   4
ENDBRANCH   2   3
ENDBRANCH   1   2
BRANCH   1  12
HETATM   12  C6  UNL     1      29.952  -7.045  32.334  1.00  0.00     0.072 C 
HETATM   13  N3  UNL     1      29.989  -7.328  33.615  1.00  0.00    -0.389 N 
ATOM     14  H32 UNL     1      30.852  -7.720  33.991  1.00  0.00     0.157 HD
ATOM     15  H31 UNL     1      29.136  -7.141  34.142  1.00  0.00     0.157 HD
BRANCH  12  16
HETATM   16  N4  UNL     1      28.766  -6.507  31.818  1.00  0.00    -0.371 N 
HETATM   17  C7  UNL     1      28.761  -5.045  31.688  1.00  0.00     0.124 C 
HETATM   18  C8  UNL     1      27.442  -4.504  31.227  1.00  0.00     0.020 C 
HETATM   19  C9  UNL     1      27.258  -4.682  29.726  1.00  0.00     0.002 C 
HETATM   20  C10 UNL     1      27.655  -6.120  29.376  1.00  0.00     0.002 C 
HETATM   21  C11 UNL     1      26.879  -7.003  30.298  1.00  0.00     0.020 C 
HETATM   22  C12 UNL     1      27.729  -7.426  31.479  1.00  0.00     0.124 C 
ENDBRANCH  12  16
ENDBRANCH   1  12
TORSDOF 7
ENDMDL
MODEL 2
REMARK VINA RESULT: -6.341849863      0.611      1.230
REMARK  7 active torsions:
REMARK  status: ('A' for Active; 'I' for Inactive)
REMARK    1  A    between atoms: N1_2  and  C2_4 
REMARK    2  A    between atoms: C2_4  and  S1_8 
REMARK    3  A    between atoms: S1_8  and  C3_9 
REMARK    4  A    between atoms: C3_9  and  C4_10 
REMARK    5  A    between atoms: C4_10  and  C5_11 
REMARK    6  A    between atoms: C5_11  and  C6_12 
REMARK    7  A    between atoms: C6_12  and  N4_16 
ROOT
HETATM    1  C5  UNL     1      31.088  -7.300  31.534  1.00  0.00     0.076 C 
ENDROOT
BRANCH   1   2
HETATM    2  C4  UNL     1      31.120  -6.954  30.096  1.00  0.00     0.018 C 
BRANCH   2   3
HETATM    3  C3  UNL     1      32.503  -6.958  29.504  1.00  0.00     0.082 C 
BRANCH   3   4
HETATM    4  S1  UNL     1      32.866  -8.342  28.438  1.00  0.00    -0.095 SA
BRANCH   4   5
HETATM    5  C2  UNL     1      34.275  -7.932  27.431  1.00  0.00     0.133 C 
HETATM    6  N2  UNL     1      34.088  -7.231  26.386  1.00  0.00    -0.380 N 
ATOM      7  H22 UNL     1      34.895  -6.996  25.809  1.00  0.00     0.158 HD
ATOM      8  H21 UNL     1      33.145  -6.922  26.149  1.00  0.00     0.158 HD
BRANCH   5   9
HETATM    9  N1  UNL     1      35.583  -8.360  27.760  1.00  0.00    -0.376 N 
HETATM   10  C1  UNL     1      36.671  -8.247  26.819  1.00  0.00     0.148 C 
ATOM     11  H1  UNL     1      35.760  -8.758  28.682  1.00  0.00     0.161 HD
ENDBRANCH   5   9
ENDBRANCH   4   5
ENDBRANCH   3   4
ENDBRANCH   2   3
ENDBRANCH   1   2
BRANCH   1  12
HETATM   12  C6  UNL     1      29.880  -7.001  32.296  1.00  0.00     0.072 C 
HETATM   13  N3  UNL     1      29.910  -7.303  33.573  1.00  0.00    -0.389 N 
ATOM     14  H32 UNL     1      30.760  -7.731  33.940  1.00  0.00     0.157 HD
ATOM     15  H31 UNL     1      29.066  -7.094  34.106  1.00  0.00     0.157 HD
BRANCH  12  16
HETATM   16  N4  UNL     1      28.712  -6.413  31.793  1.00  0.00    -0.371 N 
HETATM   17  C7  UNL     1      28.729  -4.946  31.757  1.00  0.00     0.124 C 
HETATM   18  C8  UNL     1      27.427  -4.357  31.306  1.00  0.00     0.020 C 
HETATM   19  C9  UNL     1      27.273  -4.436  29.793  1.00  0.00     0.002 C 
HETATM   20  C10 UNL     1      27.658  -5.853  29.359  1.00  0.00     0.002 C 
HETATM   21  C11 UNL     1      26.852  -6.782  30.206  1.00  0.00     0.020 C 
HETATM   22  C12 UNL     1      27.670  -7.294  31.374  1.00  0.00     0.124 C 
ENDBRANCH  12  16
ENDBRANCH   1  12
TORSDOF 7
ENDMDL
MODEL 3
REMARK VINA RESULT: -6.163201766      2.477      4.031
REMARK  7 active torsions:
REMARK  status: ('A' for Active; 'I' for Inactive)
REMARK    1  A    between atoms: N1_2  and  C2_4 
REMARK    2  A    between atoms: C2_4  and  S1_8 
REMARK    3  A    between atoms: S1_8  and  C3_9 
REMARK    4  A    between atoms: C3_9  and  C4_10 
REMARK    5  A    between atoms: C4_10  and  C5_11 
REMARK    6  A    between atoms: C5_11  and  C6_12 
REMARK    7  A    between atoms: C6_12  and  N4_16 
ROOT
HETATM    1  C5  UNL     1      27.348  -6.963  30.408  1.00  0.00     0.076 C 
ENDROOT
BRANCH   1   2
HETATM    2  C4  UNL     1      28.178  -7.312  31.581  1.00  0.00     0.018 C 
BRANCH   2   3
HETATM    3  C3  UNL     1      29.443  -6.505  31.687  1.00  0.00     0.082 C 
BRANCH   3   4
HETATM    4  S1  UNL     1      30.948  -7.463  31.748  1.00  0.00    -0.095 SA
BRANCH   4   5
HETATM    5  C2  UNL     1      31.875  -7.164  30.258  1.00  0.00     0.133 C 
HETATM    6  N2  UNL     1      31.675  -6.076  29.630  1.00  0.00    -0.380 N 
ATOM      7  H22 UNL     1      32.205  -5.905  28.776  1.00  0.00     0.158 HD
ATOM      8  H21 UNL     1      30.996  -5.405  29.988  1.00  0.00     0.158 HD
BRANCH   5   9
HETATM    9  N1  UNL     1      32.817  -8.096  29.761  1.00  0.00    -0.376 N 
HETATM   10  C1  UNL     1      32.993  -8.303  28.343  1.00  0.00     0.148 C 
ATOM     11  H1  UNL     1      33.382  -8.633  30.418  1.00  0.00     0.161 HD
ENDBRANCH   5   9
ENDBRANCH   4   5
ENDBRANCH   3   4
ENDBRANCH   2   3
ENDBRANCH   1   2
BRANCH   1  12
HETATM   12  C6  UNL     1      26.154  -6.149  30.616  1.00  0.00     0.072 C 
HETATM   13  N3  UNL     1      25.003  -6.776  30.539  1.00  0.00    -0.389 N 
ATOM     14  H32 UNL     1      25.019  -7.775  30.331  1.00  0.00     0.157 HD
ATOM     15  H31 UNL     1      24.169  -6.207  30.684  1.00  0.00     0.157 HD
BRANCH  12  16
HETATM   16  N4  UNL     1      26.131  -4.778  30.902  1.00  0.00    -0.371 N 
HETATM   17  C7  UNL     1      25.127  -4.374  31.894  1.00  0.00     0.124 C 
HETATM   18  C8  UNL     1      25.070  -2.890  32.096  1.00  0.00     0.020 C 
HETATM   19  C9  UNL     1      26.208  -2.403  32.984  1.00  0.00     0.002 C 
HETATM   20  C10 UNL     1      27.501  -3.053  32.482  1.00  0.00     0.002 C 
HETATM   21  C11 UNL     1      27.569  -2.769  31.017  1.00  0.00     0.020 C 
HETATM   22  C12 UNL     1      27.073  -3.955  30.215  1.00  0.00     0.124 C 
ENDBRANCH  12  16
ENDBRANCH   1  12
TORSDOF 7
ENDMDL
MODEL 4
REMARK VINA RESULT: -6.114595228      4.093      7.505
REMARK  7 active torsions:
REMARK  status: ('A' for Active; 'I' for Inactive)
REMARK    1  A    between atoms: N1_2  and  C2_4 
REMARK    2  A    between atoms: C2_4  and  S1_8 
REMARK    3  A    between atoms: S1_8  and  C3_9 
REMARK    4  A    between atoms: C3_9  and  C4_10 
REMARK    5  A    between atoms: C4_10  and  C5_11 
REMARK    6  A    between atoms: C5_11  and  C6_12 
REMARK    7  A    between atoms: C6_12  and  N4_16 
ROOT
HETATM    1  C5  UNL     1      28.460  -3.684  31.635  1.00  0.00     0.076 C 
ENDROOT
BRANCH   1   2
HETATM    2  C4  UNL     1      28.619  -3.380  33.074  1.00  0.00     0.018 C 
BRANCH   2   3
HETATM    3  C3  UNL     1      27.650  -2.351  33.585  1.00  0.00     0.082 C 
BRANCH   3   4
HETATM    4  S1  UNL     1      27.154  -1.120  32.391  1.00  0.00    -0.095 SA
BRANCH   4   5
HETATM    5  C2  UNL     1      25.519  -1.517  31.809  1.00  0.00     0.133 C 
HETATM    6  N2  UNL     1      24.883  -2.454  32.387  1.00  0.00    -0.380 N 
ATOM      7  H22 UNL     1      23.946  -2.682  32.053  1.00  0.00     0.158 HD
ATOM      8  H21 UNL     1      25.317  -2.954  33.163  1.00  0.00     0.158 HD
BRANCH   5   9
HETATM    9  N1  UNL     1      24.917  -0.824  30.732  1.00  0.00    -0.376 N 
HETATM   10  C1  UNL     1      24.615   0.585  30.819  1.00  0.00     0.148 C 
ATOM     11  H1  UNL     1      24.692  -1.331  29.876  1.00  0.00     0.161 HD
ENDBRANCH   5   9
ENDBRANCH   4   5
ENDBRANCH   3   4
ENDBRANCH   2   3
ENDBRANCH   1   2
BRANCH   1  12
HETATM   12  C6  UNL     1      28.052  -5.031  31.248  1.00  0.00     0.072 C 
HETATM   13  N3  UNL     1      26.764  -5.223  31.085  1.00  0.00    -0.389 N 
ATOM     14  H32 UNL     1      26.141  -4.432  31.248  1.00  0.00     0.157 HD
ATOM     15  H31 UNL     1      26.479  -6.165  30.815  1.00  0.00     0.157 HD
BRANCH  12  16
HETATM   16  N4  UNL     1      28.907  -6.119  31.025  1.00  0.00    -0.371 N 
HETATM   17  C7  UNL     1      29.763  -5.993  29.839  1.00  0.00     0.124 C 
HETATM   18  C8  UNL     1      30.588  -7.218  29.582  1.00  0.00     0.020 C 
HETATM   19  C9  UNL     1      31.799  -7.280  30.504  1.00  0.00     0.002 C 
HETATM   20  C10 UNL     1      31.317  -6.971  31.925  1.00  0.00     0.002 C 
HETATM   21  C11 UNL     1      30.174  -7.896  32.188  1.00  0.00     0.020 C 
HETATM   22  C12 UNL     1      28.851  -7.193  31.962  1.00  0.00     0.124 C 
ENDBRANCH  12  16
ENDBRANCH   1  12
TORSDOF 7
ENDMDL
MODEL 5
REMARK VINA RESULT: -6.097818623      4.180      7.412
REMARK  7 active torsions:
REMARK  status: ('A' for Active; 'I' for Inactive)
REMARK    1  A    between atoms: N1_2  and  C2_4 
REMARK    2  A    between atoms: C2_4  and  S1_8 
REMARK    3  A    between atoms: S1_8  and  C3_9 
REMARK    4  A    between atoms: C3_9  and  C4_10 
REMARK    5  A    between atoms: C4_10  and  C5_11 
REMARK    6  A    between atoms: C5_11  and  C6_12 
REMARK    7  A    between atoms: C6_12  and  N4_16 
ROOT
HETATM    1  C5  UNL     1      25.908  -6.220  30.191  1.00  0.00     0.076 C 
ENDROOT
BRANCH   1   2
HETATM    2  C4  UNL     1      24.626  -5.826  30.814  1.00  0.00     0.018 C 
BRANCH   2   3
HETATM    3  C3  UNL     1      24.729  -4.611  31.694  1.00  0.00     0.082 C 
BRANCH   3   4
HETATM    4  S1  UNL     1      25.815  -3.329  31.090  1.00  0.00    -0.095 SA
BRANCH   4   5
HETATM    5  C2  UNL     1      25.622  -1.888  32.116  1.00  0.00     0.133 C 
HETATM    6  N2  UNL     1      25.004  -0.884  31.638  1.00  0.00    -0.380 N 
ATOM      7  H22 UNL     1      24.894  -0.058  32.226  1.00  0.00     0.158 HD
ATOM      8  H21 UNL     1      24.636  -0.925  30.688  1.00  0.00     0.158 HD
BRANCH   5   9
HETATM    9  N1  UNL     1      26.133  -1.832  33.435  1.00  0.00    -0.376 N 
HETATM   10  C1  UNL     1      27.440  -2.353  33.757  1.00  0.00     0.148 C 
ATOM     11  H1  UNL     1      25.566  -1.414  34.172  1.00  0.00     0.161 HD
ENDBRANCH   5   9
ENDBRANCH   4   5
ENDBRANCH   3   4
ENDBRANCH   2   3
ENDBRANCH   1   2
BRANCH   1  12
HETATM   12  C6  UNL     1      26.815  -7.078  30.947  1.00  0.00     0.072 C 
HETATM   13  N3  UNL     1      26.331  -8.234  31.336  1.00  0.00    -0.389 N 
ATOM     14  H32 UNL     1      25.363  -8.448  31.097  1.00  0.00     0.157 HD
ATOM     15  H31 UNL     1      26.966  -8.834  31.864  1.00  0.00     0.157 HD
BRANCH  12  16
HETATM   16  N4  UNL     1      28.146  -6.784  31.275  1.00  0.00    -0.371 N 
HETATM   17  C7  UNL     1      28.736  -7.663  32.292  1.00  0.00     0.124 C 
HETATM   18  C8  UNL     1      30.122  -7.253  32.684  1.00  0.00     0.020 C 
HETATM   19  C9  UNL     1      31.149  -7.692  31.648  1.00  0.00     0.002 C 
HETATM   20  C10 UNL     1      30.606  -7.314  30.266  1.00  0.00     0.002 C 
HETATM   21  C11 UNL     1      30.244  -5.866  30.342  1.00  0.00     0.020 C 
HETATM   22  C12 UNL     1      28.759  -5.694  30.587  1.00  0.00     0.124 C 
ENDBRANCH  12  16
ENDBRANCH   1  12
TORSDOF 7
ENDMDL
