MODEL 1
REMARK VINA RESULT: -7.781998493      0.000      0.000
REMARK  9 active torsions:
REMARK  status: ('A' for Active; 'I' for Inactive)
REMARK    1  A    between atoms: N1_1  and  C1_4 
REMARK    2  A    between atoms: C2_9  and  C3_10 
REMARK    3  A    between atoms: N5_15  and  C6_16 
REMARK    4  A    between atoms: C8_21  and  N7_22 
REMARK    5  A    between atoms: N9_28  and  O2_30 
REMARK    6  A    between atoms: O2_30  and  C10_31 
REMARK    7  A    between atoms: C10_31  and  C11_32 
REMARK    8  A    between atoms: C11_32  and  C12_33 
REMARK    9  A    between atoms: C12_33  and  N10_34 
ROOT
HETATM    1  C3  UNL     1     -24.395 -21.565 -21.819  1.00  0.00     0.085 A 
HETATM    2  C4  UNL     1     -25.599 -22.045 -21.373  1.00  0.00     0.083 A 
HETATM    3  N4  UNL     1     -26.720 -21.312 -21.377  1.00  0.00    -0.348 N 
ATOM      4  H4  UNL     1     -26.712 -20.351 -21.722  1.00  0.00     0.167 HD
HETATM    5  C5  UNL     1     -27.849 -21.861 -20.922  1.00  0.00     0.209 A 
HETATM    6  N5  UNL     1     -27.887 -23.126 -20.463  1.00  0.00    -0.226 N 
HETATM    7  N6  UNL     1     -26.814 -23.896 -20.436  1.00  0.00    -0.285 N 
ATOM      8  H6  UNL     1     -26.884 -24.849 -20.080  1.00  0.00     0.188 HD
HETATM    9  C7  UNL     1     -25.639 -23.434 -20.869  1.00  0.00     0.120 A 
HETATM   10  C8  UNL     1     -24.493 -24.181 -20.866  1.00  0.00     0.131 A 
HETATM   11  N8  UNL     1     -23.351 -23.644 -21.319  1.00  0.00    -0.325 N 
ATOM     12  H8  UNL     1     -22.509 -24.219 -21.308  1.00  0.00     0.169 HD
HETATM   13  C9  UNL     1     -23.259 -22.388 -21.788  1.00  0.00     0.143 A 
HETATM   14  N9  UNL     1     -22.166 -21.884 -22.217  1.00  0.00    -0.249 N 
ATOM     15  H9  UNL     1     -22.149 -20.924 -22.562  1.00  0.00     0.196 HD
ENDROOT
BRANCH   1  16
HETATM   16  C2  UNL     1     -24.233 -20.225 -22.334  1.00  0.00     0.152 A 
HETATM   17  N3  UNL     1     -24.544 -19.806 -23.598  1.00  0.00    -0.270 N 
HETATM   18  N2  UNL     1     -24.275 -18.528 -23.742  1.00  0.00    -0.131 N 
ATOM     19  H3  UNL     1     -24.932 -20.404 -24.328  1.00  0.00     0.189 HD
HETATM   20  C1  UNL     1     -23.783 -18.055 -22.598  1.00  0.00     0.692 A 
ATOM     21  H2  UNL     1     -24.420 -17.985 -24.593  1.00  0.00     0.205 HD
HETATM   22  N11 UNL     1     -23.767 -19.121 -21.745  1.00  0.00    -0.173 N 
ATOM     23  H11 UNL     1     -23.439 -19.079 -20.780  1.00  0.00     0.186 HD
BRANCH  20  24
HETATM   24  N1  UNL     1     -23.400 -16.860 -22.335  1.00  0.00    -0.233 N 
ATOM     25  H12 UNL     1     -23.379 -16.072 -22.982  1.00  0.00     0.174 HD
ATOM     26  H11 UNL     1     -23.055 -16.490 -21.449  1.00  0.00     0.174 HD
ENDBRANCH  20  24
ENDBRANCH   1  16
BRANCH  14  27
HETATM   27  O2  UNL     1     -21.013 -22.631 -22.217  1.00  0.00    -0.279 OA
BRANCH  27  28
HETATM   28  C10 UNL     1     -20.700 -23.350 -23.375  1.00  0.00     0.203 C 
BRANCH  28  29
HETATM   29  C11 UNL     1     -20.402 -24.802 -23.099  1.00  0.00     0.056 C 
BRANCH  29  30
HETATM   30  C12 UNL     1     -21.430 -25.733 -23.659  1.00  0.00     0.231 C 
BRANCH  30  31
HETATM   31  N10 UNL     1     -20.898 -26.584 -24.706  1.00  0.00    -0.079 N 
ATOM     32 3H10 UNL     1     -21.648 -27.049 -25.217  1.00  0.00     0.274 HD
ATOM     33 2H10 UNL     1     -20.504 -26.028 -25.465  1.00  0.00     0.274 HD
ATOM     34 1H10 UNL     1     -20.219 -27.259 -24.355  1.00  0.00     0.274 HD
ENDBRANCH  30  31
ENDBRANCH  29  30
ENDBRANCH  28  29
ENDBRANCH  27  28
ENDBRANCH  14  27
BRANCH  10  35
HETATM   35  N7  UNL     1     -24.503 -25.407 -20.428  1.00  0.00    -0.383 N 
ATOM     36  H72 UNL     1     -25.048 -25.646 -19.599  1.00  0.00     0.157 HD
ATOM     37  H71 UNL     1     -23.970 -26.133 -20.907  1.00  0.00     0.157 HD
ENDBRANCH  10  35
BRANCH   6  38
HETATM   38  C6  UNL     1     -29.134 -23.655 -19.989  1.00  0.00     0.377 C 
HETATM   39  O1  UNL     1     -30.181 -23.609 -20.663  1.00  0.00    -0.281 OA
ENDBRANCH   6  38
TORSDOF 9
ENDMDL
MODEL 2
REMARK VINA RESULT: -7.654220740      1.576      5.531
REMARK  9 active torsions:
REMARK  status: ('A' for Active; 'I' for Inactive)
REMARK    1  A    between atoms: N1_1  and  C1_4 
REMARK    2  A    between atoms: C2_9  and  C3_10 
REMARK    3  A    between atoms: N5_15  and  C6_16 
REMARK    4  A    between atoms: C8_21  and  N7_22 
REMARK    5  A    between atoms: N9_28  and  O2_30 
REMARK    6  A    between atoms: O2_30  and  C10_31 
REMARK    7  A    between atoms: C10_31  and  C11_32 
REMARK    8  A    between atoms: C11_32  and  C12_33 
REMARK    9  A    between atoms: C12_33  and  N10_34 
ROOT
HETATM    1  C3  UNL     1     -24.184 -21.602 -21.533  1.00  0.00     0.085 A 
HETATM    2  C4  UNL     1     -23.138 -22.381 -21.953  1.00  0.00     0.083 A 
HETATM    3  N4  UNL     1     -22.044 -21.876 -22.538  1.00  0.00    -0.348 N 
ATOM      4  H4  UNL     1     -21.955 -20.871 -22.692  1.00  0.00     0.167 HD
HETATM    5  C5  UNL     1     -21.074 -22.711 -22.916  1.00  0.00     0.209 A 
HETATM    6  N5  UNL     1     -21.167 -24.040 -22.723  1.00  0.00    -0.226 N 
HETATM    7  N6  UNL     1     -22.220 -24.594 -22.151  1.00  0.00    -0.285 N 
ATOM      8  H6  UNL     1     -22.253 -25.606 -22.023  1.00  0.00     0.188 HD
HETATM    9  C7  UNL     1     -23.242 -23.841 -21.740  1.00  0.00     0.120 A 
HETATM   10  C8  UNL     1     -24.360 -24.355 -21.143  1.00  0.00     0.131 A 
HETATM   11  N8  UNL     1     -25.344 -23.530 -20.758  1.00  0.00    -0.325 N 
ATOM     12  H8  UNL     1     -26.168 -23.935 -20.314  1.00  0.00     0.169 HD
HETATM   13  C9  UNL     1     -25.301 -22.197 -20.926  1.00  0.00     0.143 A 
HETATM   14  N9  UNL     1     -26.245 -21.418 -20.557  1.00  0.00    -0.249 N 
ATOM     15  H9  UNL     1     -26.163 -20.413 -20.709  1.00  0.00     0.196 HD
ENDROOT
BRANCH   1  16
HETATM   16  C2  UNL     1     -24.197 -20.166 -21.687  1.00  0.00     0.152 A 
HETATM   17  N3  UNL     1     -24.561 -19.481 -22.814  1.00  0.00    -0.270 N 
HETATM   18  N2  UNL     1     -24.460 -18.185 -22.622  1.00  0.00    -0.131 N 
ATOM     19  H3  UNL     1     -24.868 -19.917 -23.683  1.00  0.00     0.189 HD
HETATM   20  C1  UNL     1     -24.032 -17.961 -21.380  1.00  0.00     0.692 A 
ATOM     21  H2  UNL     1     -24.674 -17.466 -23.312  1.00  0.00     0.205 HD
HETATM   22  N11 UNL     1     -23.877 -19.199 -20.824  1.00  0.00    -0.173 N 
ATOM     23  H11 UNL     1     -23.557 -19.363 -19.870  1.00  0.00     0.186 HD
BRANCH  20  24
HETATM   24  N1  UNL     1     -23.807 -16.835 -20.811  1.00  0.00    -0.233 N 
ATOM     25  H12 UNL     1     -24.488 -16.253 -20.323  1.00  0.00     0.174 HD
ATOM     26  H11 UNL     1     -22.925 -16.327 -20.747  1.00  0.00     0.174 HD
ENDBRANCH  20  24
ENDBRANCH   1  16
BRANCH  14  27
HETATM   27  O2  UNL     1     -27.369 -21.930 -19.955  1.00  0.00    -0.279 OA
BRANCH  27  28
HETATM   28  C10 UNL     1     -28.290 -22.605 -20.762  1.00  0.00     0.203 C 
BRANCH  28  29
HETATM   29  C11 UNL     1     -28.993 -23.725 -20.038  1.00  0.00     0.056 C 
BRANCH  29  30
HETATM   30  C12 UNL     1     -28.560 -23.872 -18.614  1.00  0.00     0.231 C 
BRANCH  30  31
HETATM   31  N10 UNL     1     -27.299 -24.577 -18.486  1.00  0.00    -0.079 N 
ATOM     32 3H10 UNL     1     -26.600 -24.197 -19.123  1.00  0.00     0.274 HD
ATOM     33 2H10 UNL     1     -26.847 -24.359 -17.598  1.00  0.00     0.274 HD
ATOM     34 1H10 UNL     1     -27.400 -25.584 -18.609  1.00  0.00     0.274 HD
ENDBRANCH  30  31
ENDBRANCH  29  30
ENDBRANCH  28  29
ENDBRANCH  27  28
ENDBRANCH  14  27
BRANCH  10  35
HETATM   35  N7  UNL     1     -24.474 -25.636 -20.944  1.00  0.00    -0.383 N 
ATOM     36  H72 UNL     1     -24.131 -26.049 -20.076  1.00  0.00     0.157 HD
ATOM     37  H71 UNL     1     -24.904 -26.234 -21.650  1.00  0.00     0.157 HD
ENDBRANCH  10  35
BRANCH   6  38
HETATM   38  C6  UNL     1     -20.085 -24.881 -23.153  1.00  0.00     0.377 C 
HETATM   39  O1  UNL     1     -20.271 -26.009 -23.649  1.00  0.00    -0.281 OA
ENDBRANCH   6  38
TORSDOF 9
ENDMDL
MODEL 3
REMARK VINA RESULT: -7.607817655      2.587      5.500
REMARK  9 active torsions:
REMARK  status: ('A' for Active; 'I' for Inactive)
REMARK    1  A    between atoms: N1_1  and  C1_4 
REMARK    2  A    between atoms: C2_9  and  C3_10 
REMARK    3  A    between atoms: N5_15  and  C6_16 
REMARK    4  A    between atoms: C8_21  and  N7_22 
REMARK    5  A    between atoms: N9_28  and  O2_30 
REMARK    6  A    between atoms: O2_30  and  C10_31 
REMARK    7  A    between atoms: C10_31  and  C11_32 
REMARK    8  A    between atoms: C11_32  and  C12_33 
REMARK    9  A    between atoms: C12_33  and  N10_34 
ROOT
HETATM    1  C3  UNL     1     -24.972 -21.533 -21.004  1.00  0.00     0.085 A 
HETATM    2  C4  UNL     1     -24.715 -20.188 -20.971  1.00  0.00     0.083 A 
HETATM    3  N4  UNL     1     -24.826 -19.453 -19.856  1.00  0.00    -0.348 N 
ATOM      4  H4  UNL     1     -25.112 -19.883 -18.977  1.00  0.00     0.167 HD
HETATM    5  C5  UNL     1     -24.555 -18.147 -19.919  1.00  0.00     0.209 A 
HETATM    6  N5  UNL     1     -24.174 -17.555 -21.066  1.00  0.00    -0.226 N 
HETATM    7  N6  UNL     1     -24.047 -18.229 -22.195  1.00  0.00    -0.285 N 
ATOM      8  H6  UNL     1     -23.756 -17.744 -23.044  1.00  0.00     0.188 HD
HETATM    9  C7  UNL     1     -24.297 -19.539 -22.232  1.00  0.00     0.120 A 
HETATM   10  C8  UNL     1     -24.184 -20.291 -23.369  1.00  0.00     0.131 A 
HETATM   11  N8  UNL     1     -24.452 -21.604 -23.324  1.00  0.00    -0.325 N 
ATOM     12  H8  UNL     1     -24.362 -22.145 -24.184  1.00  0.00     0.169 HD
HETATM   13  C9  UNL     1     -24.835 -22.243 -22.206  1.00  0.00     0.143 A 
HETATM   14  N9  UNL     1     -25.090 -23.495 -22.173  1.00  0.00    -0.249 N 
ATOM     15  H9  UNL     1     -25.378 -23.932 -21.297  1.00  0.00     0.196 HD
ENDROOT
BRANCH   1  16
HETATM   16  C2  UNL     1     -25.387 -22.275 -19.836  1.00  0.00     0.152 A 
HETATM   17  N3  UNL     1     -24.575 -22.689 -18.816  1.00  0.00    -0.270 N 
HETATM   18  N2  UNL     1     -25.266 -23.340 -17.908  1.00  0.00    -0.131 N 
ATOM     19  H3  UNL     1     -23.571 -22.516 -18.767  1.00  0.00     0.189 HD
HETATM   20  C1  UNL     1     -26.544 -23.384 -18.282  1.00  0.00     0.692 A 
ATOM     21  H2  UNL     1     -24.886 -23.747 -17.053  1.00  0.00     0.205 HD
HETATM   22  N11 UNL     1     -26.592 -22.721 -19.474  1.00  0.00    -0.173 N 
ATOM     23  H11 UNL     1     -27.443 -22.583 -20.020  1.00  0.00     0.186 HD
BRANCH  20  24
HETATM   24  N1  UNL     1     -27.530 -23.928 -17.669  1.00  0.00    -0.233 N 
ATOM     25  H12 UNL     1     -28.081 -23.515 -16.917  1.00  0.00     0.174 HD
ATOM     26  H11 UNL     1     -27.932 -24.853 -17.820  1.00  0.00     0.174 HD
ENDBRANCH  20  24
ENDBRANCH   1  16
BRANCH  14  27
HETATM   27  O2  UNL     1     -24.977 -24.255 -23.312  1.00  0.00    -0.279 OA
BRANCH  27  28
HETATM   28  C10 UNL     1     -24.248 -25.446 -23.233  1.00  0.00     0.203 C 
BRANCH  28  29
HETATM   29  C11 UNL     1     -22.852 -25.245 -22.702  1.00  0.00     0.056 C 
BRANCH  29  30
HETATM   30  C12 UNL     1     -21.788 -25.717 -23.641  1.00  0.00     0.231 C 
BRANCH  30  31
HETATM   31  N10 UNL     1     -20.487 -25.153 -23.336  1.00  0.00    -0.079 N 
ATOM     32 3H10 UNL     1     -19.804 -25.401 -24.052  1.00  0.00     0.274 HD
ATOM     33 2H10 UNL     1     -20.490 -24.140 -23.455  1.00  0.00     0.274 HD
ATOM     34 1H10 UNL     1     -20.156 -25.413 -22.407  1.00  0.00     0.274 HD
ENDBRANCH  30  31
ENDBRANCH  29  30
ENDBRANCH  28  29
ENDBRANCH  27  28
ENDBRANCH  14  27
BRANCH  10  35
HETATM   35  N7  UNL     1     -23.817 -19.743 -24.492  1.00  0.00    -0.383 N 
ATOM     36  H72 UNL     1     -24.522 -19.453 -25.170  1.00  0.00     0.157 HD
ATOM     37  H71 UNL     1     -22.829 -19.601 -24.701  1.00  0.00     0.157 HD
ENDBRANCH  10  35
BRANCH   6  38
HETATM   38  C6  UNL     1     -23.898 -16.146 -21.062  1.00  0.00     0.377 C 
HETATM   39  O1  UNL     1     -23.253 -15.593 -20.151  1.00  0.00    -0.281 OA
ENDBRANCH   6  38
TORSDOF 9
ENDMDL
MODEL 4
REMARK VINA RESULT: -7.574619509      2.979      4.498
REMARK  9 active torsions:
REMARK  status: ('A' for Active; 'I' for Inactive)
REMARK    1  A    between atoms: N1_1  and  C1_4 
REMARK    2  A    between atoms: C2_9  and  C3_10 
REMARK    3  A    between atoms: N5_15  and  C6_16 
REMARK    4  A    between atoms: C8_21  and  N7_22 
REMARK    5  A    between atoms: N9_28  and  O2_30 
REMARK    6  A    between atoms: O2_30  and  C10_31 
REMARK    7  A    between atoms: C10_31  and  C11_32 
REMARK    8  A    between atoms: C11_32  and  C12_33 
REMARK    9  A    between atoms: C12_33  and  N10_34 
ROOT
HETATM    1  C3  UNL     1     -24.809 -20.161 -21.295  1.00  0.00     0.085 A 
HETATM    2  C4  UNL     1     -25.353 -21.168 -20.542  1.00  0.00     0.083 A 
HETATM    3  N4  UNL     1     -25.655 -21.022 -19.245  1.00  0.00    -0.348 N 
ATOM      4  H4  UNL     1     -25.487 -20.136 -18.768  1.00  0.00     0.167 HD
HETATM    5  C5  UNL     1     -26.182 -22.059 -18.588  1.00  0.00     0.209 A 
HETATM    6  N5  UNL     1     -26.416 -23.238 -19.194  1.00  0.00    -0.226 N 
HETATM    7  N6  UNL     1     -26.139 -23.439 -20.470  1.00  0.00    -0.285 N 
ATOM      8  H6  UNL     1     -26.331 -24.347 -20.893  1.00  0.00     0.188 HD
HETATM    9  C7  UNL     1     -25.609 -22.462 -21.209  1.00  0.00     0.120 A 
HETATM   10  C8  UNL     1     -25.299 -22.608 -22.533  1.00  0.00     0.131 A 
HETATM   11  N8  UNL     1     -24.769 -21.578 -23.207  1.00  0.00    -0.325 N 
ATOM     12  H8  UNL     1     -24.545 -21.709 -24.193  1.00  0.00     0.169 HD
HETATM   13  C9  UNL     1     -24.516 -20.381 -22.650  1.00  0.00     0.143 A 
HETATM   14  N9  UNL     1     -24.010 -19.404 -23.300  1.00  0.00    -0.249 N 
ATOM     15  H9  UNL     1     -23.836 -18.515 -22.830  1.00  0.00     0.196 HD
ENDROOT
BRANCH   1  16
HETATM   16  C2  UNL     1     -24.514 -18.854 -20.754  1.00  0.00     0.152 A 
HETATM   17  N3  UNL     1     -23.387 -18.506 -20.062  1.00  0.00    -0.270 N 
HETATM   18  N2  UNL     1     -23.431 -17.241 -19.710  1.00  0.00    -0.131 N 
ATOM     19  H3  UNL     1     -22.618 -19.141 -19.849  1.00  0.00     0.189 HD
HETATM   20  C1  UNL     1     -24.571 -16.707 -20.148  1.00  0.00     0.692 A 
ATOM     21  H2  UNL     1     -22.709 -16.746 -19.186  1.00  0.00     0.205 HD
HETATM   22  N11 UNL     1     -25.221 -17.722 -20.788  1.00  0.00    -0.173 N 
ATOM     23  H11 UNL     1     -26.133 -17.628 -21.235  1.00  0.00     0.186 HD
BRANCH  20  24
HETATM   24  N1  UNL     1     -24.986 -15.503 -20.006  1.00  0.00    -0.233 N 
ATOM     25  H12 UNL     1     -24.643 -14.816 -19.335  1.00  0.00     0.174 HD
ATOM     26  H11 UNL     1     -25.719 -15.024 -20.529  1.00  0.00     0.174 HD
ENDBRANCH  20  24
ENDBRANCH   1  16
BRANCH  14  27
HETATM   27  O2  UNL     1     -23.698 -19.546 -24.631  1.00  0.00    -0.279 OA
BRANCH  27  28
HETATM   28  C10 UNL     1     -23.759 -18.407 -25.441  1.00  0.00     0.203 C 
BRANCH  28  29
HETATM   29  C11 UNL     1     -24.247 -17.188 -24.702  1.00  0.00     0.056 C 
BRANCH  29  30
HETATM   30  C12 UNL     1     -23.185 -16.158 -24.492  1.00  0.00     0.231 C 
BRANCH  30  31
HETATM   31  N10 UNL     1     -22.718 -16.111 -23.120  1.00  0.00    -0.079 N 
ATOM     32 3H10 UNL     1     -22.973 -16.960 -22.617  1.00  0.00     0.274 HD
ATOM     33 2H10 UNL     1     -21.702 -16.192 -23.075  1.00  0.00     0.274 HD
ATOM     34 1H10 UNL     1     -23.042 -15.280 -22.625  1.00  0.00     0.274 HD
ENDBRANCH  30  31
ENDBRANCH  29  30
ENDBRANCH  28  29
ENDBRANCH  27  28
ENDBRANCH  14  27
BRANCH  10  35
HETATM   35  N7  UNL     1     -25.516 -23.738 -23.143  1.00  0.00    -0.383 N 
ATOM     36  H72 UNL     1     -26.470 -24.015 -23.375  1.00  0.00     0.157 HD
ATOM     37  H71 UNL     1     -24.739 -24.351 -23.390  1.00  0.00     0.157 HD
ENDBRANCH  10  35
BRANCH   6  38
HETATM   38  C6  UNL     1     -26.986 -24.311 -18.429  1.00  0.00     0.377 C 
HETATM   39  O1  UNL     1     -27.095 -24.264 -17.189  1.00  0.00    -0.281 OA
ENDBRANCH   6  38
TORSDOF 9
ENDMDL
MODEL 5
REMARK VINA RESULT: -7.501809649      2.912      3.922
REMARK  9 active torsions:
REMARK  status: ('A' for Active; 'I' for Inactive)
REMARK    1  A    between atoms: N1_1  and  C1_4 
REMARK    2  A    between atoms: C2_9  and  C3_10 
REMARK    3  A    between atoms: N5_15  and  C6_16 
REMARK    4  A    between atoms: C8_21  and  N7_22 
REMARK    5  A    between atoms: N9_28  and  O2_30 
REMARK    6  A    between atoms: O2_30  and  C10_31 
REMARK    7  A    between atoms: C10_31  and  C11_32 
REMARK    8  A    between atoms: C11_32  and  C12_33 
REMARK    9  A    between atoms: C12_33  and  N10_34 
ROOT
HETATM    1  C3  UNL     1     -24.760 -20.227 -21.270  1.00  0.00     0.085 A 
HETATM    2  C4  UNL     1     -25.357 -21.202 -20.515  1.00  0.00     0.083 A 
HETATM    3  N4  UNL     1     -25.761 -20.999 -19.254  1.00  0.00    -0.348 N 
ATOM      4  H4  UNL     1     -25.634 -20.090 -18.808  1.00  0.00     0.167 HD
HETATM    5  C5  UNL     1     -26.333 -22.008 -18.593  1.00  0.00     0.209 A 
HETATM    6  N5  UNL     1     -26.513 -23.216 -19.159  1.00  0.00    -0.226 N 
HETATM    7  N6  UNL     1     -26.135 -23.474 -20.399  1.00  0.00    -0.285 N 
ATOM      8  H6  UNL     1     -26.289 -24.402 -20.792  1.00  0.00     0.188 HD
HETATM    9  C7  UNL     1     -25.554 -22.528 -21.139  1.00  0.00     0.120 A 
HETATM   10  C8  UNL     1     -25.140 -22.733 -22.426  1.00  0.00     0.131 A 
HETATM   11  N8  UNL     1     -24.563 -21.730 -23.104  1.00  0.00    -0.325 N 
ATOM     12  H8  UNL     1     -24.262 -21.905 -24.063  1.00  0.00     0.169 HD
HETATM   13  C9  UNL     1     -24.360 -20.507 -22.586  1.00  0.00     0.143 A 
HETATM   14  N9  UNL     1     -23.809 -19.557 -23.240  1.00  0.00    -0.249 N 
ATOM     15  H9  UNL     1     -23.677 -18.646 -22.799  1.00  0.00     0.196 HD
ENDROOT
BRANCH   1  16
HETATM   16  C2  UNL     1     -24.515 -18.894 -20.770  1.00  0.00     0.152 A 
HETATM   17  N3  UNL     1     -23.395 -18.479 -20.103  1.00  0.00    -0.270 N 
HETATM   18  N2  UNL     1     -23.489 -17.207 -19.786  1.00  0.00    -0.131 N 
ATOM     19  H3  UNL     1     -22.597 -19.075 -19.883  1.00  0.00     0.189 HD
HETATM   20  C1  UNL     1     -24.656 -16.735 -20.222  1.00  0.00     0.692 A 
ATOM     21  H2  UNL     1     -22.782 -16.668 -19.286  1.00  0.00     0.205 HD
HETATM   22  N11 UNL     1     -25.270 -17.795 -20.825  1.00  0.00    -0.173 N 
ATOM     23  H11 UNL     1     -26.190 -17.751 -21.263  1.00  0.00     0.186 HD
BRANCH  20  24
HETATM   24  N1  UNL     1     -25.120 -15.546 -20.109  1.00  0.00    -0.233 N 
ATOM     25  H12 UNL     1     -24.659 -14.753 -19.662  1.00  0.00     0.174 HD
ATOM     26  H11 UNL     1     -26.015 -15.185 -20.439  1.00  0.00     0.174 HD
ENDBRANCH  20  24
ENDBRANCH   1  16
BRANCH  14  27
HETATM   27  O2  UNL     1     -23.393 -19.758 -24.534  1.00  0.00    -0.279 OA
BRANCH  27  28
HETATM   28  C10 UNL     1     -23.900 -18.908 -25.522  1.00  0.00     0.203 C 
BRANCH  28  29
HETATM   29  C11 UNL     1     -24.299 -19.642 -26.777  1.00  0.00     0.056 C 
BRANCH  29  30
HETATM   30  C12 UNL     1     -25.508 -20.503 -26.600  1.00  0.00     0.231 C 
BRANCH  30  31
HETATM   31  N10 UNL     1     -26.390 -20.016 -25.557  1.00  0.00    -0.079 N 
ATOM     32 3H10 UNL     1     -26.353 -20.617 -24.734  1.00  0.00     0.274 HD
ATOM     33 2H10 UNL     1     -26.032 -19.153 -25.147  1.00  0.00     0.274 HD
ATOM     34 1H10 UNL     1     -27.350 -19.897 -25.881  1.00  0.00     0.274 HD
ENDBRANCH  30  31
ENDBRANCH  29  30
ENDBRANCH  28  29
ENDBRANCH  27  28
ENDBRANCH  14  27
BRANCH  10  35
HETATM   35  N7  UNL     1     -25.303 -23.891 -22.997  1.00  0.00    -0.383 N 
ATOM     36  H72 UNL     1     -24.999 -24.740 -22.520  1.00  0.00     0.157 HD
ATOM     37  H71 UNL     1     -25.731 -23.958 -23.921  1.00  0.00     0.157 HD
ENDBRANCH  10  35
BRANCH   6  38
HETATM   38  C6  UNL     1     -27.136 -24.257 -18.392  1.00  0.00     0.377 C 
HETATM   39  O1  UNL     1     -27.143 -24.258 -17.146  1.00  0.00    -0.281 OA
ENDBRANCH   6  38
TORSDOF 9
ENDMDL
