MODEL 1
REMARK VINA RESULT: -7.865168653      0.000      0.000
REMARK  7 active torsions:
REMARK  status: ('A' for Active; 'I' for Inactive)
REMARK    1  A    between atoms: C2_2  and  C3_3 
REMARK    2  A    between atoms: C7_8  and  C8_9 
REMARK    3  A    between atoms: C8_9  and  C9_10 
REMARK    4  A    between atoms: C9_10  and  C10_11 
REMARK    5  A    between atoms: C10_11  and  N2_12 
REMARK    6  A    between atoms: C11_13  and  N3_14 
REMARK    7  A    between atoms: C15_18  and  N4_19 
ROOT
HETATM    1  N2  UNL     1      15.298 -13.191  20.838  1.00  0.00    -0.369 N 
HETATM    2  C11 UNL     1      15.702 -12.058  20.392  1.00  0.00     0.078 C 
HETATM    3  C14 UNL     1      14.774 -10.941  20.701  1.00  0.00     0.103 C 
HETATM    4  C15 UNL     1      13.500 -11.705  21.018  1.00  0.00     0.114 C 
HETATM    5  C19 UNL     1      14.046 -12.999  21.526  1.00  0.00     0.150 C 
ENDROOT
BRANCH   1   6
HETATM    6  C10 UNL     1      15.974 -14.486  20.696  1.00  0.00     0.124 C 
BRANCH   6   7
HETATM    7  C9  UNL     1      16.799 -14.811  21.899  1.00  0.00     0.020 C 
BRANCH   7   8
HETATM    8  C8  UNL     1      17.794 -15.905  21.663  1.00  0.00     0.010 C 
BRANCH   8   9
HETATM    9  C7  UNL     1      19.177 -15.364  21.522  1.00  0.00     0.041 C 
HETATM   10  C6  UNL     1      19.625 -14.461  22.653  1.00  0.00     0.266 C 
HETATM   11  N1  UNL     1      20.494 -15.459  23.199  1.00  0.00     0.012 N 
HETATM   12  C5  UNL     1      19.995 -16.048  24.428  1.00  0.00     0.262 C 
HETATM   13  C20 UNL     1      20.287 -16.258  22.010  1.00  0.00     0.266 C 
HETATM   14  N6  UNL     1      21.807 -15.092  23.440  1.00  0.00    -0.042 NA
HETATM   15  C4  UNL     1      20.874 -15.561  25.531  1.00  0.00     0.053 C 
HETATM   16  C3  UNL     1      21.968 -14.814  24.829  1.00  0.00     0.108 C 
BRANCH  16  17
HETATM   17  C2  UNL     1      21.817 -13.322  25.047  1.00  0.00     0.019 C 
HETATM   18  C1  UNL     1      20.840 -13.092  26.175  1.00  0.00     0.007 C 
ENDBRANCH  16  17
ENDBRANCH   8   9
ENDBRANCH   7   8
ENDBRANCH   6   7
ENDBRANCH   1   6
BRANCH   2  19
HETATM   19  N3  UNL     1      16.938 -11.913  19.659  1.00  0.00    -0.379 N 
HETATM   20  C12 UNL     1      16.903 -11.964  18.221  1.00  0.00     0.150 C 
HETATM   21  C13 UNL     1      18.165 -11.722  20.385  1.00  0.00     0.150 C 
ENDBRANCH   2  19
BRANCH   4  22
HETATM   22  N4  UNL     1      12.624 -11.019  21.913  1.00  0.00    -0.326 N 
HETATM   23  C16 UNL     1      12.619  -9.571  22.172  1.00  0.00     0.148 C 
HETATM   24  C17 UNL     1      12.130  -9.434  23.596  1.00  0.00     0.144 C 
HETATM   25  N5  UNL     1      11.192 -10.535  23.690  1.00  0.00    -0.341 N 
HETATM   26  C18 UNL     1      11.591 -11.519  22.739  1.00  0.00     0.318 C 
ATOM     27  H5  UNL     1      10.392 -10.595  24.321  1.00  0.00     0.164 HD
HETATM   28  O1  UNL     1      11.088 -12.661  22.660  1.00  0.00    -0.247 OA
ENDBRANCH   4  22
TORSDOF 7
ENDMDL
MODEL 2
REMARK VINA RESULT: -7.553633634      0.905      1.467
REMARK  7 active torsions:
REMARK  status: ('A' for Active; 'I' for Inactive)
REMARK    1  A    between atoms: C2_2  and  C3_3 
REMARK    2  A    between atoms: C7_8  and  C8_9 
REMARK    3  A    between atoms: C8_9  and  C9_10 
REMARK    4  A    between atoms: C9_10  and  C10_11 
REMARK    5  A    between atoms: C10_11  and  N2_12 
REMARK    6  A    between atoms: C11_13  and  N3_14 
REMARK    7  A    between atoms: C15_18  and  N4_19 
ROOT
HETATM    1  N2  UNL     1      15.454 -13.154  21.084  1.00  0.00    -0.369 N 
HETATM    2  C11 UNL     1      15.764 -12.061  20.488  1.00  0.00     0.078 C 
HETATM    3  C14 UNL     1      14.768 -10.979  20.690  1.00  0.00     0.103 C 
HETATM    4  C15 UNL     1      13.560 -11.780  21.145  1.00  0.00     0.114 C 
HETATM    5  C19 UNL     1      14.210 -12.961  21.788  1.00  0.00     0.150 C 
ENDROOT
BRANCH   1   6
HETATM    6  C10 UNL     1      16.215 -14.408  21.078  1.00  0.00     0.124 C 
BRANCH   6   7
HETATM    7  C9  UNL     1      17.167 -14.479  22.229  1.00  0.00     0.020 C 
BRANCH   7   8
HETATM    8  C8  UNL     1      17.238 -15.835  22.862  1.00  0.00     0.010 C 
BRANCH   8   9
HETATM    9  C7  UNL     1      18.650 -16.268  23.067  1.00  0.00     0.041 C 
HETATM   10  C6  UNL     1      19.664 -15.143  23.082  1.00  0.00     0.266 C 
HETATM   11  N1  UNL     1      19.845 -15.231  24.499  1.00  0.00     0.012 N 
HETATM   12  C5  UNL     1      19.241 -14.131  25.227  1.00  0.00     0.262 C 
HETATM   13  C20 UNL     1      19.079 -16.459  24.499  1.00  0.00     0.266 C 
HETATM   14  N6  UNL     1      21.144 -15.348  24.966  1.00  0.00    -0.042 NA
HETATM   15  C4  UNL     1      20.357 -13.295  25.757  1.00  0.00     0.053 C 
HETATM   16  C3  UNL     1      21.593 -14.076  25.425  1.00  0.00     0.108 C 
BRANCH  16  17
HETATM   17  C2  UNL     1      22.365 -13.401  24.310  1.00  0.00     0.019 C 
HETATM   18  C1  UNL     1      23.464 -14.328  23.849  1.00  0.00     0.007 C 
ENDBRANCH  16  17
ENDBRANCH   8   9
ENDBRANCH   7   8
ENDBRANCH   6   7
ENDBRANCH   1   6
BRANCH   2  19
HETATM   19  N3  UNL     1      16.966 -11.927  19.698  1.00  0.00    -0.379 N 
HETATM   20  C12 UNL     1      18.213 -11.671  20.368  1.00  0.00     0.150 C 
HETATM   21  C13 UNL     1      16.881 -12.054  18.268  1.00  0.00     0.150 C 
ENDBRANCH   2  19
BRANCH   4  22
HETATM   22  N4  UNL     1      12.663 -11.047  21.980  1.00  0.00    -0.326 N 
HETATM   23  C16 UNL     1      12.652  -9.586  22.158  1.00  0.00     0.148 C 
HETATM   24  C17 UNL     1      12.129  -9.372  23.561  1.00  0.00     0.144 C 
HETATM   25  N5  UNL     1      11.189 -10.468  23.692  1.00  0.00    -0.341 N 
HETATM   26  C18 UNL     1      11.611 -11.502  22.807  1.00  0.00     0.318 C 
ATOM     27  H5  UNL     1      10.375 -10.494  24.306  1.00  0.00     0.164 HD
HETATM   28  O1  UNL     1      11.109 -12.647  22.779  1.00  0.00    -0.247 OA
ENDBRANCH   4  22
TORSDOF 7
ENDMDL
MODEL 3
REMARK VINA RESULT: -7.162675600      1.157      1.930
REMARK  7 active torsions:
REMARK  status: ('A' for Active; 'I' for Inactive)
REMARK    1  A    between atoms: C2_2  and  C3_3 
REMARK    2  A    between atoms: C7_8  and  C8_9 
REMARK    3  A    between atoms: C8_9  and  C9_10 
REMARK    4  A    between atoms: C9_10  and  C10_11 
REMARK    5  A    between atoms: C10_11  and  N2_12 
REMARK    6  A    between atoms: C11_13  and  N3_14 
REMARK    7  A    between atoms: C15_18  and  N4_19 
ROOT
HETATM    1  N2  UNL     1      15.441 -13.260  20.724  1.00  0.00    -0.369 N 
HETATM    2  C11 UNL     1      15.774 -12.143  20.187  1.00  0.00     0.078 C 
HETATM    3  C14 UNL     1      14.809 -11.049  20.462  1.00  0.00     0.103 C 
HETATM    4  C15 UNL     1      13.585 -11.843  20.886  1.00  0.00     0.114 C 
HETATM    5  C19 UNL     1      14.210 -13.076  21.453  1.00  0.00     0.150 C 
ENDROOT
BRANCH   1   6
HETATM    6  C10 UNL     1      16.169 -14.532  20.638  1.00  0.00     0.124 C 
BRANCH   6   7
HETATM    7  C9  UNL     1      16.412 -15.118  21.992  1.00  0.00     0.020 C 
BRANCH   7   8
HETATM    8  C8  UNL     1      17.343 -14.304  22.836  1.00  0.00     0.010 C 
BRANCH   8   9
HETATM    9  C7  UNL     1      17.983 -15.132  23.899  1.00  0.00     0.041 C 
HETATM   10  C6  UNL     1      19.341 -15.695  23.534  1.00  0.00     0.266 C 
HETATM   11  N1  UNL     1      20.030 -14.774  24.387  1.00  0.00     0.012 N 
HETATM   12  C5  UNL     1      20.735 -13.733  23.662  1.00  0.00     0.262 C 
HETATM   13  C20 UNL     1      18.756 -14.376  24.947  1.00  0.00     0.266 C 
HETATM   14  N6  UNL     1      20.932 -15.305  25.294  1.00  0.00    -0.042 NA
HETATM   15  C4  UNL     1      22.193 -14.009  23.814  1.00  0.00     0.053 C 
HETATM   16  C3  UNL     1      22.254 -15.149  24.786  1.00  0.00     0.108 C 
BRANCH  16  17
HETATM   17  C2  UNL     1      22.658 -16.427  24.081  1.00  0.00     0.019 C 
HETATM   18  C1  UNL     1      24.165 -16.506  24.044  1.00  0.00     0.007 C 
ENDBRANCH  16  17
ENDBRANCH   8   9
ENDBRANCH   7   8
ENDBRANCH   6   7
ENDBRANCH   1   6
BRANCH   2  19
HETATM   19  N3  UNL     1      16.970 -11.996  19.392  1.00  0.00    -0.379 N 
HETATM   20  C12 UNL     1      18.238 -11.872  20.061  1.00  0.00     0.150 C 
HETATM   21  C13 UNL     1      16.860 -11.978  17.958  1.00  0.00     0.150 C 
ENDBRANCH   2  19
BRANCH   4  22
HETATM   22  N4  UNL     1      12.716 -11.136  21.772  1.00  0.00    -0.326 N 
HETATM   23  C16 UNL     1      12.737  -9.687  22.023  1.00  0.00     0.148 C 
HETATM   24  C17 UNL     1      12.242  -9.534  23.443  1.00  0.00     0.144 C 
HETATM   25  N5  UNL     1      11.282 -10.617  23.536  1.00  0.00    -0.341 N 
HETATM   26  C18 UNL     1      11.669 -11.613  22.593  1.00  0.00     0.318 C 
ATOM     27  H5  UNL     1      10.478 -10.658  24.162  1.00  0.00     0.164 HD
HETATM   28  O1  UNL     1      11.144 -12.745  22.516  1.00  0.00    -0.247 OA
ENDBRANCH   4  22
TORSDOF 7
ENDMDL
MODEL 4
REMARK VINA RESULT: -7.154924880      2.810      8.051
REMARK  7 active torsions:
REMARK  status: ('A' for Active; 'I' for Inactive)
REMARK    1  A    between atoms: C2_2  and  C3_3 
REMARK    2  A    between atoms: C7_8  and  C8_9 
REMARK    3  A    between atoms: C8_9  and  C9_10 
REMARK    4  A    between atoms: C9_10  and  C10_11 
REMARK    5  A    between atoms: C10_11  and  N2_12 
REMARK    6  A    between atoms: C11_13  and  N3_14 
REMARK    7  A    between atoms: C15_18  and  N4_19 
ROOT
HETATM    1  N2  UNL     1      18.437 -14.659  21.645  1.00  0.00    -0.369 N 
HETATM    2  C11 UNL     1      18.054 -15.754  22.195  1.00  0.00     0.078 C 
HETATM    3  C14 UNL     1      18.727 -16.026  23.490  1.00  0.00     0.103 C 
HETATM    4  C15 UNL     1      19.934 -15.109  23.386  1.00  0.00     0.114 C 
HETATM    5  C19 UNL     1      19.412 -14.027  22.498  1.00  0.00     0.150 C 
ENDROOT
BRANCH   1   6
HETATM    6  C10 UNL     1      17.976 -14.108  20.365  1.00  0.00     0.124 C 
BRANCH   6   7
HETATM    7  C9  UNL     1      18.269 -12.646  20.259  1.00  0.00     0.020 C 
BRANCH   7   8
HETATM    8  C8  UNL     1      17.069 -11.779  20.485  1.00  0.00     0.010 C 
BRANCH   8   9
HETATM    9  C7  UNL     1      15.803 -12.557  20.364  1.00  0.00     0.041 C 
HETATM   10  C6  UNL     1      14.870 -12.440  21.552  1.00  0.00     0.266 C 
HETATM   11  N1  UNL     1      13.957 -11.596  20.842  1.00  0.00     0.012 N 
HETATM   12  C5  UNL     1      13.998 -10.211  21.272  1.00  0.00     0.262 C 
HETATM   13  C20 UNL     1      14.682 -11.880  19.621  1.00  0.00     0.266 C 
HETATM   14  N6  UNL     1      12.624 -11.970  20.835  1.00  0.00    -0.042 NA
HETATM   15  C4  UNL     1      12.720  -9.943  21.993  1.00  0.00     0.053 C 
HETATM   16  C3  UNL     1      11.915 -11.191  21.795  1.00  0.00     0.108 C 
BRANCH  16  17
HETATM   17  C2  UNL     1      11.826 -11.977  23.088  1.00  0.00     0.019 C 
HETATM   18  C1  UNL     1      11.153 -11.119  24.132  1.00  0.00     0.007 C 
ENDBRANCH  16  17
ENDBRANCH   8   9
ENDBRANCH   7   8
ENDBRANCH   6   7
ENDBRANCH   1   6
BRANCH   2  19
HETATM   19  N3  UNL     1      17.071 -16.620  21.588  1.00  0.00    -0.379 N 
HETATM   20  C12 UNL     1      15.676 -16.366  21.833  1.00  0.00     0.150 C 
HETATM   21  C13 UNL     1      17.513 -17.709  20.759  1.00  0.00     0.150 C 
ENDBRANCH   2  19
BRANCH   4  22
HETATM   22  N4  UNL     1      20.437 -14.672  24.649  1.00  0.00    -0.326 N 
HETATM   23  C16 UNL     1      19.795 -13.694  25.540  1.00  0.00     0.148 C 
HETATM   24  C17 UNL     1      20.937 -13.036  26.280  1.00  0.00     0.144 C 
HETATM   25  N5  UNL     1      21.875 -14.135  26.405  1.00  0.00    -0.341 N 
HETATM   26  C18 UNL     1      21.616 -15.042  25.337  1.00  0.00     0.318 C 
ATOM     27  H5  UNL     1      22.590 -14.239  27.125  1.00  0.00     0.164 HD
HETATM   28  O1  UNL     1      22.340 -16.024  25.060  1.00  0.00    -0.247 OA
ENDBRANCH   4  22
TORSDOF 7
ENDMDL
MODEL 5
REMARK VINA RESULT: -7.118622283      1.038      1.439
REMARK  7 active torsions:
REMARK  status: ('A' for Active; 'I' for Inactive)
REMARK    1  A    between atoms: C2_2  and  C3_3 
REMARK    2  A    between atoms: C7_8  and  C8_9 
REMARK    3  A    between atoms: C8_9  and  C9_10 
REMARK    4  A    between atoms: C9_10  and  C10_11 
REMARK    5  A    between atoms: C10_11  and  N2_12 
REMARK    6  A    between atoms: C11_13  and  N3_14 
REMARK    7  A    between atoms: C15_18  and  N4_19 
ROOT
HETATM    1  N2  UNL     1      15.496 -13.425  20.644  1.00  0.00    -0.369 N 
HETATM    2  C11 UNL     1      15.855 -12.225  20.362  1.00  0.00     0.078 C 
HETATM    3  C14 UNL     1      14.926 -11.195  20.890  1.00  0.00     0.103 C 
HETATM    4  C15 UNL     1      13.684 -12.032  21.147  1.00  0.00     0.114 C 
HETATM    5  C19 UNL     1      14.280 -13.375  21.416  1.00  0.00     0.150 C 
ENDROOT
BRANCH   1   6
HETATM    6  C10 UNL     1      16.185 -14.664  20.265  1.00  0.00     0.124 C 
BRANCH   6   7
HETATM    7  C9  UNL     1      16.218 -15.642  21.395  1.00  0.00     0.020 C 
BRANCH   7   8
HETATM    8  C8  UNL     1      17.590 -16.162  21.694  1.00  0.00     0.010 C 
BRANCH   8   9
HETATM    9  C7  UNL     1      18.621 -15.094  21.556  1.00  0.00     0.041 C 
HETATM   10  C6  UNL     1      18.902 -14.313  22.824  1.00  0.00     0.266 C 
HETATM   11  N1  UNL     1      20.164 -14.958  23.025  1.00  0.00     0.012 N 
HETATM   12  C5  UNL     1      20.156 -15.914  24.116  1.00  0.00     0.262 C 
HETATM   13  C20 UNL     1      20.053 -15.537  21.703  1.00  0.00     0.266 C 
HETATM   14  N6  UNL     1      21.267 -14.144  23.220  1.00  0.00    -0.042 NA
HETATM   15  C4  UNL     1      20.978 -15.328  25.214  1.00  0.00     0.053 C 
HETATM   16  C3  UNL     1      21.566 -14.088  24.612  1.00  0.00     0.108 C 
BRANCH  16  17
HETATM   17  C2  UNL     1      20.915 -12.852  25.200  1.00  0.00     0.019 C 
HETATM   18  C1  UNL     1      20.815 -13.020  26.697  1.00  0.00     0.007 C 
ENDBRANCH  16  17
ENDBRANCH   8   9
ENDBRANCH   7   8
ENDBRANCH   6   7
ENDBRANCH   1   6
BRANCH   2  19
HETATM   19  N3  UNL     1      17.047 -11.936  19.599  1.00  0.00    -0.379 N 
HETATM   20  C12 UNL     1      18.276 -11.677  20.301  1.00  0.00     0.150 C 
HETATM   21  C13 UNL     1      16.970 -11.915  18.163  1.00  0.00     0.150 C 
ENDBRANCH   2  19
BRANCH   4  22
HETATM   22  N4  UNL     1      12.846 -11.517  22.183  1.00  0.00    -0.326 N 
HETATM   23  C16 UNL     1      11.928 -12.305  23.018  1.00  0.00     0.148 C 
HETATM   24  C17 UNL     1      10.813 -11.348  23.377  1.00  0.00     0.144 C 
HETATM   25  N5  UNL     1      11.529 -10.091  23.476  1.00  0.00    -0.341 N 
HETATM   26  C18 UNL     1      12.688 -10.193  22.653  1.00  0.00     0.318 C 
ATOM     27  H5  UNL     1      11.253  -9.282  24.032  1.00  0.00     0.164 HD
HETATM   28  O1  UNL     1      13.448  -9.234  22.392  1.00  0.00    -0.247 OA
ENDBRANCH   4  22
TORSDOF 7
ENDMDL
