MODEL 1
REMARK VINA RESULT: -6.441600097      0.000      0.000
REMARK  9 active torsions:
REMARK  status: ('A' for Active; 'I' for Inactive)
REMARK    1  A    between atoms: C3_3  and  N1_4 
REMARK    2  A    between atoms: N2_7  and  C6_8 
REMARK    3  A    between atoms: C6_8  and  C7_9 
REMARK    4  A    between atoms: C7_9  and  C8_10 
REMARK    5  A    between atoms: C8_10  and  C9_11 
REMARK       I    between atoms: C9_11  and  N3_13 
REMARK    6  A    between atoms: C11_15  and  N4_16 
REMARK    7  A    between atoms: C12_20  and  C13_21 
REMARK    8  A    between atoms: C13_21  and  N5_22 
REMARK    9  A    between atoms: C14_26  and  C15_27 
ROOT
HETATM    1  C1  UNL     1      21.071 -12.028  25.609  1.00  0.00     0.013 C 
HETATM    2  C2  UNL     1      21.291 -13.220  25.595  1.00  0.00    -0.089 C 
HETATM    3  C3  UNL     1      21.570 -14.662  25.566  1.00  0.00     0.330 C 
ENDROOT
BRANCH   3   4
HETATM    4  N1  UNL     1      20.521 -15.296  24.821  1.00  0.00    -0.052 N 
HETATM    5  C4  UNL     1      19.268 -14.652  25.158  1.00  0.00     0.266 C 
HETATM    6  C5  UNL     1      18.275 -15.012  24.063  1.00  0.00     0.265 C 
HETATM    7  N2  UNL     1      18.653 -16.286  23.509  1.00  0.00    -0.062 N 
HETATM    8  C18 UNL     1      19.031 -17.176  24.564  1.00  0.00     0.265 C 
HETATM    9  C20 UNL     1      19.832 -16.064  22.674  1.00  0.00     0.265 C 
HETATM   10  C19 UNL     1      20.387 -16.702  25.101  1.00  0.00     0.266 C 
HETATM   11  C21 UNL     1      20.771 -15.130  23.401  1.00  0.00     0.266 C 
BRANCH   7  12
HETATM   12  C6  UNL     1      17.637 -16.826  22.629  1.00  0.00     0.238 C 
BRANCH  12  13
HETATM   13  C7  UNL     1      17.751 -16.384  21.224  1.00  0.00     0.037 C 
BRANCH  13  14
HETATM   14  C8  UNL     1      16.690 -15.366  20.927  1.00  0.00     0.105 C 
BRANCH  14  15
HETATM   15  C9  UNL     1      17.203 -13.978  20.919  1.00  0.00     0.219 C 
HETATM   16  O1  UNL     1      18.440 -13.815  20.685  1.00  0.00    -0.273 OA
HETATM   17  N3  UNL     1      16.343 -12.880  21.161  1.00  0.00    -0.350 N 
HETATM   18  C10 UNL     1      16.848 -11.531  21.147  1.00  0.00     0.159 C 
HETATM   19  C17 UNL     1      14.958 -13.098  21.422  1.00  0.00     0.130 C 
HETATM   20  C11 UNL     1      15.947 -10.751  20.220  1.00  0.00     0.207 C 
HETATM   21  C12 UNL     1      14.567 -10.686  20.850  1.00  0.00     0.049 C 
HETATM   22  C14 UNL     1      14.251 -11.784  21.768  1.00  0.00     0.011 C 
BRANCH  20  23
HETATM   23  N4  UNL     1      15.938 -11.425  18.947  1.00  0.00    -0.073 N 
ATOM     24  H43 UNL     1      16.693 -11.121  18.331  1.00  0.00     0.274 HD
ATOM     25  H42 UNL     1      16.209 -12.407  19.016  1.00  0.00     0.274 HD
ATOM     26  H41 UNL     1      15.014 -11.297  18.535  1.00  0.00     0.274 HD
ENDBRANCH  20  23
BRANCH  21  27
HETATM   27  C13 UNL     1      13.594 -10.451  19.729  1.00  0.00     0.236 C 
BRANCH  27  28
HETATM   28  N5  UNL     1      13.151  -9.045  19.775  1.00  0.00    -0.079 N 
ATOM     29  H53 UNL     1      13.596  -8.520  20.527  1.00  0.00     0.274 HD
ATOM     30  H52 UNL     1      13.506  -8.498  18.992  1.00  0.00     0.274 HD
ATOM     31  H51 UNL     1      12.132  -9.026  19.834  1.00  0.00     0.274 HD
ENDBRANCH  27  28
ENDBRANCH  21  27
BRANCH  22  32
HETATM   32  C15 UNL     1      12.814 -12.148  21.980  1.00  0.00     0.002 C 
HETATM   33  C16 UNL     1      12.027 -11.162  22.767  1.00  0.00     0.005 C 
ENDBRANCH  22  32
ENDBRANCH  14  15
ENDBRANCH  13  14
ENDBRANCH  12  13
ENDBRANCH   7  12
ENDBRANCH   3   4
TORSDOF 9
ENDMDL
MODEL 2
REMARK VINA RESULT: -6.355534195      2.911      6.883
REMARK  9 active torsions:
REMARK  status: ('A' for Active; 'I' for Inactive)
REMARK    1  A    between atoms: C3_3  and  N1_4 
REMARK    2  A    between atoms: N2_7  and  C6_8 
REMARK    3  A    between atoms: C6_8  and  C7_9 
REMARK    4  A    between atoms: C7_9  and  C8_10 
REMARK    5  A    between atoms: C8_10  and  C9_11 
REMARK       I    between atoms: C9_11  and  N3_13 
REMARK    6  A    between atoms: C11_15  and  N4_16 
REMARK    7  A    between atoms: C12_20  and  C13_21 
REMARK    8  A    between atoms: C13_21  and  N5_22 
REMARK    9  A    between atoms: C14_26  and  C15_27 
ROOT
HETATM    1  C1  UNL     1      20.356 -11.661  19.222  1.00  0.00     0.013 C 
HETATM    2  C2  UNL     1      19.356 -11.678  19.908  1.00  0.00    -0.089 C 
HETATM    3  C3  UNL     1      18.154 -11.694  20.751  1.00  0.00     0.330 C 
ENDROOT
BRANCH   3   4
HETATM    4  N1  UNL     1      17.921 -13.049  21.158  1.00  0.00    -0.052 N 
HETATM    5  C4  UNL     1      17.823 -13.082  22.603  1.00  0.00     0.266 C 
HETATM    6  C5  UNL     1      17.146 -14.393  22.974  1.00  0.00     0.265 C 
HETATM    7  N2  UNL     1      17.437 -15.358  21.947  1.00  0.00    -0.062 N 
HETATM    8  C18 UNL     1      18.812 -15.254  21.563  1.00  0.00     0.265 C 
HETATM    9  C20 UNL     1      16.626 -15.012  20.782  1.00  0.00     0.265 C 
HETATM   10  C19 UNL     1      18.968 -13.955  20.764  1.00  0.00     0.266 C 
HETATM   11  C21 UNL     1      16.669 -13.514  20.589  1.00  0.00     0.266 C 
BRANCH   7  12
HETATM   12  C6  UNL     1      17.039 -16.698  22.325  1.00  0.00     0.238 C 
BRANCH  12  13
HETATM   13  C7  UNL     1      18.166 -17.612  22.606  1.00  0.00     0.037 C 
BRANCH  13  14
HETATM   14  C8  UNL     1      18.382 -17.706  24.087  1.00  0.00     0.105 C 
BRANCH  14  15
HETATM   15  C9  UNL     1      19.801 -17.902  24.457  1.00  0.00     0.219 C 
HETATM   16  O1  UNL     1      20.257 -19.086  24.412  1.00  0.00    -0.273 OA
HETATM   17  N3  UNL     1      20.614 -16.810  24.841  1.00  0.00    -0.350 N 
HETATM   18  C10 UNL     1      21.997 -17.008  25.196  1.00  0.00     0.159 C 
HETATM   19  C17 UNL     1      20.071 -15.492  24.882  1.00  0.00     0.130 C 
HETATM   20  C11 UNL     1      22.790 -16.021  24.374  1.00  0.00     0.207 C 
HETATM   21  C12 UNL     1      22.425 -14.621  24.836  1.00  0.00     0.049 C 
HETATM   22  C14 UNL     1      21.094 -14.494  25.435  1.00  0.00     0.011 C 
BRANCH  20  23
HETATM   23  N4  UNL     1      22.464 -16.243  22.987  1.00  0.00    -0.073 N 
ATOM     24  H43 UNL     1      22.695 -17.186  22.672  1.00  0.00     0.274 HD
ATOM     25  H42 UNL     1      21.459 -16.286  22.818  1.00  0.00     0.274 HD
ATOM     26  H41 UNL     1      22.927 -15.517  22.440  1.00  0.00     0.274 HD
ENDBRANCH  20  23
BRANCH  21  27
HETATM   27  C13 UNL     1      22.735 -13.696  23.694  1.00  0.00     0.236 C 
BRANCH  27  28
HETATM   28  N5  UNL     1      24.170 -13.360  23.734  1.00  0.00    -0.079 N 
ATOM     29  H53 UNL     1      24.391 -12.681  24.463  1.00  0.00     0.274 HD
ATOM     30  H52 UNL     1      24.742 -14.130  24.081  1.00  0.00     0.274 HD
ATOM     31  H51 UNL     1      24.458 -13.046  22.808  1.00  0.00     0.274 HD
ENDBRANCH  27  28
ENDBRANCH  21  27
BRANCH  22  32
HETATM   32  C15 UNL     1      20.413 -13.160  25.390  1.00  0.00     0.002 C 
HETATM   33  C16 UNL     1      20.790 -12.226  26.485  1.00  0.00     0.005 C 
ENDBRANCH  22  32
ENDBRANCH  14  15
ENDBRANCH  13  14
ENDBRANCH  12  13
ENDBRANCH   7  12
ENDBRANCH   3   4
TORSDOF 9
ENDMDL
MODEL 3
REMARK VINA RESULT: -6.331765468      1.569      7.896
REMARK  9 active torsions:
REMARK  status: ('A' for Active; 'I' for Inactive)
REMARK    1  A    between atoms: C3_3  and  N1_4 
REMARK    2  A    between atoms: N2_7  and  C6_8 
REMARK    3  A    between atoms: C6_8  and  C7_9 
REMARK    4  A    between atoms: C7_9  and  C8_10 
REMARK    5  A    between atoms: C8_10  and  C9_11 
REMARK       I    between atoms: C9_11  and  N3_13 
REMARK    6  A    between atoms: C11_15  and  N4_16 
REMARK    7  A    between atoms: C12_20  and  C13_21 
REMARK    8  A    between atoms: C13_21  and  N5_22 
REMARK    9  A    between atoms: C14_26  and  C15_27 
ROOT
HETATM    1  C1  UNL     1      12.404  -8.648  23.531  1.00  0.00     0.013 C 
HETATM    2  C2  UNL     1      12.271  -9.419  22.605  1.00  0.00    -0.089 C 
HETATM    3  C3  UNL     1      12.107 -10.365  21.494  1.00  0.00     0.330 C 
ENDROOT
BRANCH   3   4
HETATM    4  N1  UNL     1      13.414 -10.777  21.072  1.00  0.00    -0.052 N 
HETATM    5  C4  UNL     1      13.317 -11.292  19.721  1.00  0.00     0.266 C 
HETATM    6  C5  UNL     1      14.725 -11.296  19.144  1.00  0.00     0.265 C 
HETATM    7  N2  UNL     1      15.659 -11.443  20.230  1.00  0.00    -0.062 N 
HETATM    8  C18 UNL     1      15.174 -12.426  21.152  1.00  0.00     0.265 C 
HETATM    9  C20 UNL     1      15.712 -10.164  20.935  1.00  0.00     0.265 C 
HETATM   10  C19 UNL     1      13.986 -11.807  21.899  1.00  0.00     0.266 C 
HETATM   11  C21 UNL     1      14.305  -9.631  21.078  1.00  0.00     0.266 C 
BRANCH   7  12
HETATM   12  C6  UNL     1      17.006 -11.698  19.765  1.00  0.00     0.238 C 
BRANCH  12  13
HETATM   13  C7  UNL     1      18.039 -11.626  20.818  1.00  0.00     0.037 C 
BRANCH  13  14
HETATM   14  C8  UNL     1      19.043 -12.721  20.617  1.00  0.00     0.105 C 
BRANCH  14  15
HETATM   15  C9  UNL     1      18.704 -13.963  21.347  1.00  0.00     0.219 C 
HETATM   16  O1  UNL     1      17.990 -14.819  20.739  1.00  0.00    -0.273 OA
HETATM   17  N3  UNL     1      19.160 -14.182  22.668  1.00  0.00    -0.350 N 
HETATM   18  C10 UNL     1      18.829 -15.396  23.371  1.00  0.00     0.159 C 
HETATM   19  C17 UNL     1      19.959 -13.199  23.323  1.00  0.00     0.130 C 
HETATM   20  C11 UNL     1      20.132 -15.952  23.893  1.00  0.00     0.207 C 
HETATM   21  C12 UNL     1      20.673 -14.987  24.934  1.00  0.00     0.049 C 
HETATM   22  C14 UNL     1      20.237 -13.597  24.776  1.00  0.00     0.011 C 
BRANCH  20  23
HETATM   23  N4  UNL     1      21.024 -16.105  22.771  1.00  0.00    -0.073 N 
ATOM     24  H43 UNL     1      21.133 -15.246  22.231  1.00  0.00     0.274 HD
ATOM     25  H42 UNL     1      21.999 -16.212  23.052  1.00  0.00     0.274 HD
ATOM     26  H41 UNL     1      20.685 -16.886  22.210  1.00  0.00     0.274 HD
ENDBRANCH  20  23
BRANCH  21  27
HETATM   27  C13 UNL     1      22.155 -15.219  25.005  1.00  0.00     0.236 C 
BRANCH  27  28
HETATM   28  N5  UNL     1      22.497 -15.671  26.367  1.00  0.00    -0.079 N 
ATOM     29  H53 UNL     1      22.125 -15.054  27.088  1.00  0.00     0.274 HD
ATOM     30  H52 UNL     1      21.997 -16.519  26.634  1.00  0.00     0.274 HD
ATOM     31  H51 UNL     1      23.510 -15.780  26.430  1.00  0.00     0.274 HD
ENDBRANCH  27  28
ENDBRANCH  21  27
BRANCH  22  32
HETATM   32  C15 UNL     1      21.106 -12.508  25.328  1.00  0.00     0.002 C 
HETATM   33  C16 UNL     1      20.801 -12.113  26.729  1.00  0.00     0.005 C 
ENDBRANCH  22  32
ENDBRANCH  14  15
ENDBRANCH  13  14
ENDBRANCH  12  13
ENDBRANCH   7  12
ENDBRANCH   3   4
TORSDOF 9
ENDMDL
MODEL 4
REMARK VINA RESULT: -6.261192756      2.663      4.968
REMARK  9 active torsions:
REMARK  status: ('A' for Active; 'I' for Inactive)
REMARK    1  A    between atoms: C3_3  and  N1_4 
REMARK    2  A    between atoms: N2_7  and  C6_8 
REMARK    3  A    between atoms: C6_8  and  C7_9 
REMARK    4  A    between atoms: C7_9  and  C8_10 
REMARK    5  A    between atoms: C8_10  and  C9_11 
REMARK       I    between atoms: C9_11  and  N3_13 
REMARK    6  A    between atoms: C11_15  and  N4_16 
REMARK    7  A    between atoms: C12_20  and  C13_21 
REMARK    8  A    between atoms: C13_21  and  N5_22 
REMARK    9  A    between atoms: C14_26  and  C15_27 
ROOT
HETATM    1  C1  UNL     1      24.655 -19.232  27.378  1.00  0.00     0.013 C 
HETATM    2  C2  UNL     1      24.024 -19.143  26.347  1.00  0.00    -0.089 C 
HETATM    3  C3  UNL     1      23.273 -19.037  25.089  1.00  0.00     0.330 C 
ENDROOT
BRANCH   3   4
HETATM    4  N1  UNL     1      23.002 -17.648  24.855  1.00  0.00    -0.052 N 
HETATM    5  C4  UNL     1      22.275 -17.528  23.608  1.00  0.00     0.266 C 
HETATM    6  C5  UNL     1      21.621 -16.154  23.606  1.00  0.00     0.265 C 
HETATM    7  N2  UNL     1      22.421 -15.270  24.411  1.00  0.00    -0.062 N 
HETATM    8  C18 UNL     1      23.808 -15.491  24.135  1.00  0.00     0.265 C 
HETATM    9  C20 UNL     1      22.187 -15.624  25.810  1.00  0.00     0.265 C 
HETATM   10  C19 UNL     1      24.190 -16.841  24.755  1.00  0.00     0.266 C 
HETATM   11  C21 UNL     1      22.181 -17.130  25.934  1.00  0.00     0.266 C 
BRANCH   7  12
HETATM   12  C6  UNL     1      22.016 -13.886  24.277  1.00  0.00     0.238 C 
BRANCH  12  13
HETATM   13  C7  UNL     1      21.255 -13.360  25.429  1.00  0.00     0.037 C 
BRANCH  13  14
HETATM   14  C8  UNL     1      19.936 -12.823  24.960  1.00  0.00     0.105 C 
BRANCH  14  15
HETATM   15  C9  UNL     1      19.083 -13.851  24.322  1.00  0.00     0.219 C 
HETATM   16  O1  UNL     1      18.690 -14.814  25.049  1.00  0.00    -0.273 OA
HETATM   17  N3  UNL     1      18.722 -13.757  22.957  1.00  0.00    -0.350 N 
HETATM   18  C10 UNL     1      17.888 -14.759  22.344  1.00  0.00     0.159 C 
HETATM   19  C17 UNL     1      19.181 -12.661  22.168  1.00  0.00     0.130 C 
HETATM   20  C11 UNL     1      16.765 -14.016  21.662  1.00  0.00     0.207 C 
HETATM   21  C12 UNL     1      17.359 -13.201  20.527  1.00  0.00     0.049 C 
HETATM   22  C14 UNL     1      18.766 -12.828  20.703  1.00  0.00     0.011 C 
BRANCH  20  23
HETATM   23  N4  UNL     1      16.120 -13.190  22.652  1.00  0.00    -0.073 N 
ATOM     24  H43 UNL     1      15.407 -13.691  23.183  1.00  0.00     0.274 HD
ATOM     25  H42 UNL     1      16.733 -12.958  23.434  1.00  0.00     0.274 HD
ATOM     26  H41 UNL     1      15.754 -12.366  22.177  1.00  0.00     0.274 HD
ENDBRANCH  20  23
BRANCH  21  27
HETATM   27  C13 UNL     1      16.400 -12.077  20.256  1.00  0.00     0.236 C 
BRANCH  27  28
HETATM   28  N5  UNL     1      15.461 -12.502  19.201  1.00  0.00    -0.079 N 
ATOM     29  H53 UNL     1      15.740 -12.176  18.276  1.00  0.00     0.274 HD
ATOM     30  H52 UNL     1      15.509 -13.504  19.017  1.00  0.00     0.274 HD
ATOM     31  H51 UNL     1      14.522 -12.197  19.457  1.00  0.00     0.274 HD
ENDBRANCH  27  28
ENDBRANCH  21  27
BRANCH  22  32
HETATM   32  C15 UNL     1      19.275 -11.606  20.003  1.00  0.00     0.002 C 
HETATM   33  C16 UNL     1      20.326 -11.860  18.982  1.00  0.00     0.005 C 
ENDBRANCH  22  32
ENDBRANCH  14  15
ENDBRANCH  13  14
ENDBRANCH  12  13
ENDBRANCH   7  12
ENDBRANCH   3   4
TORSDOF 9
ENDMDL
MODEL 5
REMARK VINA RESULT: -6.240708747      2.185      3.534
REMARK  9 active torsions:
REMARK  status: ('A' for Active; 'I' for Inactive)
REMARK    1  A    between atoms: C3_3  and  N1_4 
REMARK    2  A    between atoms: N2_7  and  C6_8 
REMARK    3  A    between atoms: C6_8  and  C7_9 
REMARK    4  A    between atoms: C7_9  and  C8_10 
REMARK    5  A    between atoms: C8_10  and  C9_11 
REMARK       I    between atoms: C9_11  and  N3_13 
REMARK    6  A    between atoms: C11_15  and  N4_16 
REMARK    7  A    between atoms: C12_20  and  C13_21 
REMARK    8  A    between atoms: C13_21  and  N5_22 
REMARK    9  A    between atoms: C14_26  and  C15_27 
ROOT
HETATM    1  C1  UNL     1      21.477 -13.306  26.066  1.00  0.00     0.013 C 
HETATM    2  C2  UNL     1      21.366 -14.061  25.124  1.00  0.00    -0.089 C 
HETATM    3  C3  UNL     1      21.245 -14.967  23.975  1.00  0.00     0.330 C 
ENDROOT
BRANCH   3   4
HETATM    4  N1  UNL     1      20.157 -14.504  23.164  1.00  0.00    -0.052 N 
HETATM    5  C4  UNL     1      18.958 -14.478  23.977  1.00  0.00     0.266 C 
HETATM    6  C5  UNL     1      17.955 -13.585  23.263  1.00  0.00     0.265 C 
HETATM    7  N2  UNL     1      18.230 -13.633  21.851  1.00  0.00    -0.062 N 
HETATM    8  C18 UNL     1      18.514 -14.981  21.462  1.00  0.00     0.265 C 
HETATM    9  C20 UNL     1      19.437 -12.842  21.616  1.00  0.00     0.265 C 
HETATM   10  C19 UNL     1      19.898 -15.338  22.020  1.00  0.00     0.266 C 
HETATM   11  C21 UNL     1      20.442 -13.158  22.699  1.00  0.00     0.266 C 
BRANCH   7  12
HETATM   12  C6  UNL     1      17.186 -13.010  21.066  1.00  0.00     0.238 C 
BRANCH  12  13
HETATM   13  C7  UNL     1      17.577 -11.731  20.437  1.00  0.00     0.037 C 
BRANCH  13  14
HETATM   14  C8  UNL     1      16.463 -10.737  20.580  1.00  0.00     0.105 C 
BRANCH  14  15
HETATM   15  C9  UNL     1      15.151 -11.267  20.150  1.00  0.00     0.219 C 
HETATM   16  O1  UNL     1      15.147 -12.118  19.207  1.00  0.00    -0.273 OA
HETATM   17  N3  UNL     1      13.952 -10.842  20.769  1.00  0.00    -0.350 N 
HETATM   18  C10 UNL     1      12.678 -11.366  20.347  1.00  0.00     0.159 C 
HETATM   19  C17 UNL     1      13.991  -9.884  21.825  1.00  0.00     0.130 C 
HETATM   20  C11 UNL     1      11.981 -11.844  21.598  1.00  0.00     0.207 C 
HETATM   21  C12 UNL     1      11.681 -10.632  22.463  1.00  0.00     0.049 C 
HETATM   22  C14 UNL     1      12.576  -9.489  22.260  1.00  0.00     0.011 C 
BRANCH  20  23
HETATM   23  N4  UNL     1      12.854 -12.784  22.255  1.00  0.00    -0.073 N 
ATOM     24  H43 UNL     1      12.369 -13.627  22.564  1.00  0.00     0.274 HD
ATOM     25  H42 UNL     1      13.509 -13.232  21.613  1.00  0.00     0.274 HD
ATOM     26  H41 UNL     1      13.321 -12.293  23.018  1.00  0.00     0.274 HD
ENDBRANCH  20  23
BRANCH  21  27
HETATM   27  C13 UNL     1      11.546 -11.133  23.873  1.00  0.00     0.236 C 
BRANCH  27  28
HETATM   28  N5  UNL     1      10.196 -11.701  24.045  1.00  0.00    -0.079 N 
ATOM     29  H53 UNL     1       9.863 -12.177  23.206  1.00  0.00     0.274 HD
ATOM     30  H52 UNL     1      10.187 -12.503  24.674  1.00  0.00     0.274 HD
ATOM     31  H51 UNL     1       9.566 -10.959  24.349  1.00  0.00     0.274 HD
ENDBRANCH  27  28
ENDBRANCH  21  27
BRANCH  22  32
HETATM   32  C15 UNL     1      12.762  -8.518  23.385  1.00  0.00     0.002 C 
HETATM   33  C16 UNL     1      11.507  -8.096  24.063  1.00  0.00     0.005 C 
ENDBRANCH  22  32
ENDBRANCH  14  15
ENDBRANCH  13  14
ENDBRANCH  12  13
ENDBRANCH   7  12
ENDBRANCH   3   4
TORSDOF 9
ENDMDL
