MODEL 1
REMARK VINA RESULT: -4.854351456      0.000      0.000
REMARK  2 active torsions:
REMARK  status: ('A' for Active; 'I' for Inactive)
REMARK    1  A    between atoms: S1_2  and  C2_3 
REMARK    2  A    between atoms: C3_6  and  N2_7 
ROOT
HETATM    1  C2  UNL     1       2.087  11.585  13.825  1.00  0.00     0.105 C 
HETATM    2  N1  UNL     1       2.564  11.001  12.847  1.00  0.00    -0.350 N 
ATOM      3  H1  UNL     1       3.295  11.450  12.298  1.00  0.00     0.162 HD
HETATM    4  C3  UNL     1       2.120   9.752  12.493  1.00  0.00     0.301 C 
HETATM    5  C4  UNL     1       0.917   9.287  13.214  1.00  0.00     0.060 C 
HETATM    6  C5  UNL     1       0.840   7.882  13.664  1.00  0.00     0.025 C 
HETATM    7  C6  UNL     1      -0.298   7.663  12.660  1.00  0.00     0.003 C 
HETATM    8  C7  UNL     1      -0.360   9.176  12.428  1.00  0.00     0.025 C 
HETATM    9  S2  UNL     1       0.840  10.538  14.561  1.00  0.00    -0.091 SA
ENDROOT
BRANCH   4  10
HETATM   10  N2  UNL     1       3.234   8.812  12.561  1.00  0.00    -0.057 N 
ATOM     11  H23 UNL     1       3.675   8.667  11.653  1.00  0.00     0.276 HD
ATOM     12  H22 UNL     1       4.040   9.201  13.050  1.00  0.00     0.276 HD
ATOM     13  H21 UNL     1       2.910   7.940  12.979  1.00  0.00     0.276 HD
ENDBRANCH   4  10
BRANCH   1  14
HETATM   14  S1  UNL     1       2.549  13.189  14.411  1.00  0.00    -0.110 SA
HETATM   15  C1  UNL     1       1.054  14.124  14.781  1.00  0.00     0.097 C 
ENDBRANCH   1  14
TORSDOF 2
ENDMDL
MODEL 2
REMARK VINA RESULT: -4.815099479      2.299      2.683
REMARK  2 active torsions:
REMARK  status: ('A' for Active; 'I' for Inactive)
REMARK    1  A    between atoms: S1_2  and  C2_3 
REMARK    2  A    between atoms: C3_6  and  N2_7 
ROOT
HETATM    1  C2  UNL     1       3.784  10.682  11.999  1.00  0.00     0.105 C 
HETATM    2  N1  UNL     1       4.020   9.484  11.816  1.00  0.00    -0.350 N 
ATOM      3  H1  UNL     1       4.827   9.209  11.258  1.00  0.00     0.162 HD
HETATM    4  C3  UNL     1       3.207   8.520  12.356  1.00  0.00     0.301 C 
HETATM    5  C4  UNL     1       1.953   9.021  12.955  1.00  0.00     0.060 C 
HETATM    6  C5  UNL     1       1.479   8.445  14.230  1.00  0.00     0.025 C 
HETATM    7  C6  UNL     1       0.285   7.852  13.473  1.00  0.00     0.003 C 
HETATM    8  C7  UNL     1       0.669   8.689  12.249  1.00  0.00     0.025 C 
HETATM    9  S2  UNL     1       2.315  10.825  13.006  1.00  0.00    -0.091 SA
ENDROOT
BRANCH   4  10
HETATM   10  N2  UNL     1       3.991   7.688  13.263  1.00  0.00    -0.057 N 
ATOM     11  H23 UNL     1       3.590   7.653  14.200  1.00  0.00     0.276 HD
ATOM     12  H22 UNL     1       3.919   6.696  13.040  1.00  0.00     0.276 HD
ATOM     13  H21 UNL     1       4.956   8.017  13.267  1.00  0.00     0.276 HD
ENDBRANCH   4  10
BRANCH   1  14
HETATM   14  S1  UNL     1       4.731  12.041  11.377  1.00  0.00    -0.110 SA
HETATM   15  C1  UNL     1       6.261  12.161  12.319  1.00  0.00     0.097 C 
ENDBRANCH   1  14
TORSDOF 2
ENDMDL
MODEL 3
REMARK VINA RESULT: -4.643652457      2.085      2.688
REMARK  2 active torsions:
REMARK  status: ('A' for Active; 'I' for Inactive)
REMARK    1  A    between atoms: S1_2  and  C2_3 
REMARK    2  A    between atoms: C3_6  and  N2_7 
ROOT
HETATM    1  C2  UNL     1       2.023  11.337  13.734  1.00  0.00     0.105 C 
HETATM    2  N1  UNL     1       1.370  10.341  14.061  1.00  0.00    -0.350 N 
ATOM      3  H1  UNL     1       0.662  10.419  14.791  1.00  0.00     0.162 HD
HETATM    4  C3  UNL     1       1.587   9.131  13.453  1.00  0.00     0.301 C 
HETATM    5  C4  UNL     1       2.774   9.075  12.575  1.00  0.00     0.060 C 
HETATM    6  C5  UNL     1       2.686   8.362  11.284  1.00  0.00     0.025 C 
HETATM    7  C6  UNL     1       3.674   7.326  11.835  1.00  0.00     0.003 C 
HETATM    8  C7  UNL     1       3.935   8.239  13.035  1.00  0.00     0.025 C 
HETATM    9  S2  UNL     1       3.168  10.868  12.446  1.00  0.00    -0.091 SA
ENDROOT
BRANCH   4  10
HETATM   10  N2  UNL     1       0.358   8.701  12.793  1.00  0.00    -0.057 N 
ATOM     11  H23 UNL     1       0.337   7.695  12.631  1.00  0.00     0.276 HD
ATOM     12  H22 UNL     1      -0.454   8.764  13.407  1.00  0.00     0.276 HD
ATOM     13  H21 UNL     1       0.237   9.235  11.933  1.00  0.00     0.276 HD
ENDBRANCH   4  10
BRANCH   1  14
HETATM   14  S1  UNL     1       1.863  12.961  14.417  1.00  0.00    -0.110 SA
HETATM   15  C1  UNL     1       3.482  13.751  14.417  1.00  0.00     0.097 C 
ENDBRANCH   1  14
TORSDOF 2
ENDMDL
MODEL 4
REMARK VINA RESULT: -4.518597113      1.956      2.479
REMARK  2 active torsions:
REMARK  status: ('A' for Active; 'I' for Inactive)
REMARK    1  A    between atoms: S1_2  and  C2_3 
REMARK    2  A    between atoms: C3_6  and  N2_7 
ROOT
HETATM    1  C2  UNL     1       2.211  11.857  13.860  1.00  0.00     0.105 C 
HETATM    2  N1  UNL     1       1.458  10.946  14.217  1.00  0.00    -0.350 N 
ATOM      3  H1  UNL     1       0.806  11.102  14.985  1.00  0.00     0.162 HD
HETATM    4  C3  UNL     1       1.489   9.726  13.590  1.00  0.00     0.301 C 
HETATM    5  C4  UNL     1       2.611   9.535  12.647  1.00  0.00     0.060 C 
HETATM    6  C5  UNL     1       2.365   8.856  11.358  1.00  0.00     0.025 C 
HETATM    7  C6  UNL     1       3.244   7.698  11.846  1.00  0.00     0.003 C 
HETATM    8  C7  UNL     1       3.682   8.556  13.036  1.00  0.00     0.025 C 
HETATM    9  S2  UNL     1       3.218  11.267  12.507  1.00  0.00    -0.091 SA
ENDROOT
BRANCH   4  10
HETATM   10  N2  UNL     1       0.183   9.461  12.996  1.00  0.00    -0.057 N 
ATOM     11  H23 UNL     1       0.033   9.988  12.136  1.00  0.00     0.276 HD
ATOM     12  H22 UNL     1       0.119   8.523  12.602  1.00  0.00     0.276 HD
ATOM     13  H21 UNL     1      -0.542   9.640  13.692  1.00  0.00     0.276 HD
ENDBRANCH   4  10
BRANCH   1  14
HETATM   14  S1  UNL     1       2.293  13.480  14.561  1.00  0.00    -0.110 SA
HETATM   15  C1  UNL     1       0.617  14.064  14.867  1.00  0.00     0.097 C 
ENDBRANCH   1  14
TORSDOF 2
ENDMDL
MODEL 5
REMARK VINA RESULT: -4.473963598      3.083      3.673
REMARK  2 active torsions:
REMARK  status: ('A' for Active; 'I' for Inactive)
REMARK    1  A    between atoms: S1_2  and  C2_3 
REMARK    2  A    between atoms: C3_6  and  N2_7 
ROOT
HETATM    1  C2  UNL     1       3.901  10.645  12.285  1.00  0.00     0.105 C 
HETATM    2  N1  UNL     1       2.847  10.288  12.822  1.00  0.00    -0.350 N 
ATOM      3  H1  UNL     1       2.227  10.987  13.228  1.00  0.00     0.162 HD
HETATM    4  C3  UNL     1       2.503   8.962  12.876  1.00  0.00     0.301 C 
HETATM    5  C4  UNL     1       3.565   8.022  12.460  1.00  0.00     0.060 C 
HETATM    6  C5  UNL     1       3.211   6.852  11.630  1.00  0.00     0.025 C 
HETATM    7  C6  UNL     1       3.581   5.950  12.814  1.00  0.00     0.003 C 
HETATM    8  C7  UNL     1       4.185   7.164  13.526  1.00  0.00     0.025 C 
HETATM    9  S2  UNL     1       4.751   9.194  11.682  1.00  0.00    -0.091 SA
ENDROOT
BRANCH   4  10
HETATM   10  N2  UNL     1       1.245   8.765  12.165  1.00  0.00    -0.057 N 
ATOM     11  H23 UNL     1       0.773   9.646  11.961  1.00  0.00     0.276 HD
ATOM     12  H22 UNL     1       1.387   8.454  11.204  1.00  0.00     0.276 HD
ATOM     13  H21 UNL     1       0.657   8.124  12.698  1.00  0.00     0.276 HD
ENDBRANCH   4  10
BRANCH   1  14
HETATM   14  S1  UNL     1       4.485  12.308  12.132  1.00  0.00    -0.110 SA
HETATM   15  C1  UNL     1       6.284  12.302  12.223  1.00  0.00     0.097 C 
ENDBRANCH   1  14
TORSDOF 2
ENDMDL
