MODEL 1
REMARK VINA RESULT: -7.816422842      0.000      0.000
REMARK  2 active torsions:
REMARK  status: ('A' for Active; 'I' for Inactive)
REMARK    1  A    between atoms: O1_1  and  C1_3 
REMARK    2  A    between atoms: C1_3  and  O2_4 
ROOT
HETATM    1  C1  UNL     1      -4.728 -17.955  13.122  1.00  0.00     0.164 C 
HETATM    2  C2  UNL     1      -3.731 -19.032  13.365  1.00  0.00     0.068 C 
HETATM    3  C3  UNL     1      -4.321 -20.396  13.558  1.00  0.00     0.006 C 
HETATM    4  C4  UNL     1      -4.964 -20.596  14.890  1.00  0.00     0.006 C 
HETATM    5  C5  UNL     1      -5.611 -19.353  15.447  1.00  0.00     0.074 C 
HETATM    6  C6  UNL     1      -6.643 -18.764  14.535  1.00  0.00     0.234 C 
HETATM    7  C7  UNL     1      -6.149 -18.395  13.187  1.00  0.00     0.142 C 
HETATM    8  O3  UNL     1      -7.645 -19.747  14.364  1.00  0.00    -0.194 OA
HETATM    9  O4  UNL     1      -8.418 -19.855  15.395  1.00  0.00    -0.195 OA
HETATM   10  C8  UNL     1      -9.087 -18.666  15.717  1.00  0.00     0.229 C 
HETATM   11  C9  UNL     1     -10.496 -18.780  15.169  1.00  0.00     0.074 C 
HETATM   12  C10 UNL     1     -11.543 -18.528  16.225  1.00  0.00     0.006 C 
HETATM   13  C11 UNL     1     -11.369 -19.379  17.448  1.00  0.00     0.000 C 
HETATM   14  C12 UNL     1      -9.940 -19.731  17.732  1.00  0.00     0.006 C 
HETATM   15  C13 UNL     1      -9.083 -18.575  17.232  1.00  0.00     0.074 C 
HETATM   16  O5  UNL     1      -8.461 -17.576  15.133  1.00  0.00    -0.195 OA
HETATM   17  O6  UNL     1      -7.168 -17.637  15.166  1.00  0.00    -0.194 OA
ENDROOT
BRANCH   1  18
HETATM   18  O1  UNL     1      -4.571 -16.913  14.065  1.00  0.00    -0.365 OA
ATOM     19  H1  UNL     1      -4.138 -17.326  14.802  1.00  0.00     0.213 HD
ENDBRANCH   1  18
BRANCH   1  20
HETATM   20  O2  UNL     1      -4.547 -17.324  11.869  1.00  0.00    -0.365 OA
ATOM     21  H2  UNL     1      -5.411 -17.000  11.642  1.00  0.00     0.213 HD
ENDBRANCH   1  20
TORSDOF 2
ENDMDL
MODEL 2
REMARK VINA RESULT: -7.633451706      2.508      6.224
REMARK  2 active torsions:
REMARK  status: ('A' for Active; 'I' for Inactive)
REMARK    1  A    between atoms: O1_1  and  C1_3 
REMARK    2  A    between atoms: C1_3  and  O2_4 
ROOT
HETATM    1  C1  UNL     1      -6.762 -17.848  15.156  1.00  0.00     0.164 C 
HETATM    2  C2  UNL     1      -7.724 -18.590  16.016  1.00  0.00     0.068 C 
HETATM    3  C3  UNL     1      -7.152 -19.800  16.690  1.00  0.00     0.006 C 
HETATM    4  C4  UNL     1      -6.959 -20.967  15.780  1.00  0.00     0.006 C 
HETATM    5  C5  UNL     1      -6.594 -20.585  14.369  1.00  0.00     0.074 C 
HETATM    6  C6  UNL     1      -5.359 -19.742  14.284  1.00  0.00     0.234 C 
HETATM    7  C7  UNL     1      -5.415 -18.472  15.046  1.00  0.00     0.142 C 
HETATM    8  O3  UNL     1      -4.301 -20.512  14.822  1.00  0.00    -0.194 OA
HETATM    9  O4  UNL     1      -3.895 -21.435  14.012  1.00  0.00    -0.195 OA
HETATM   10  C8  UNL     1      -3.431 -20.936  12.788  1.00  0.00     0.229 C 
HETATM   11  C9  UNL     1      -1.916 -20.909  12.857  1.00  0.00     0.074 C 
HETATM   12  C10 UNL     1      -1.278 -21.645  11.705  1.00  0.00     0.006 C 
HETATM   13  C11 UNL     1      -1.786 -23.047  11.541  1.00  0.00     0.000 C 
HETATM   14  C12 UNL     1      -3.210 -23.220  11.978  1.00  0.00     0.006 C 
HETATM   15  C13 UNL     1      -3.924 -21.899  11.724  1.00  0.00     0.074 C 
HETATM   16  O5  UNL     1      -3.896 -19.648  12.573  1.00  0.00    -0.195 OA
HETATM   17  O6  UNL     1      -5.126 -19.470  12.936  1.00  0.00    -0.194 OA
ENDROOT
BRANCH   1  18
HETATM   18  O1  UNL     1      -7.270 -17.719  13.842  1.00  0.00    -0.365 OA
ATOM     19  H1  UNL     1      -6.650 -17.147  13.407  1.00  0.00     0.213 HD
ENDBRANCH   1  18
BRANCH   1  20
HETATM   20  O2  UNL     1      -6.568 -16.515  15.588  1.00  0.00    -0.365 OA
ATOM     21  H2  UNL     1      -5.767 -16.548  16.098  1.00  0.00     0.213 HD
ENDBRANCH   1  20
TORSDOF 2
ENDMDL
MODEL 3
REMARK VINA RESULT: -6.965183171     10.134     13.036
REMARK  2 active torsions:
REMARK  status: ('A' for Active; 'I' for Inactive)
REMARK    1  A    between atoms: O1_1  and  C1_3 
REMARK    2  A    between atoms: C1_3  and  O2_4 
ROOT
HETATM    1  C1  UNL     1       7.682 -19.056  11.015  1.00  0.00     0.164 C 
HETATM    2  C2  UNL     1       8.331 -19.393   9.719  1.00  0.00     0.068 C 
HETATM    3  C3  UNL     1       7.392 -19.478   8.555  1.00  0.00     0.006 C 
HETATM    4  C4  UNL     1       6.559 -20.716   8.538  1.00  0.00     0.006 C 
HETATM    5  C5  UNL     1       6.188 -21.220   9.909  1.00  0.00     0.074 C 
HETATM    6  C6  UNL     1       5.464 -20.203  10.738  1.00  0.00     0.234 C 
HETATM    7  C7  UNL     1       6.200 -18.936  10.957  1.00  0.00     0.142 C 
HETATM    8  O3  UNL     1       4.272 -19.887  10.044  1.00  0.00    -0.194 OA
HETATM    9  O4  UNL     1       3.375 -20.814  10.147  1.00  0.00    -0.195 OA
HETATM   10  C8  UNL     1       2.999 -21.080  11.470  1.00  0.00     0.229 C 
HETATM   11  C9  UNL     1       1.687 -20.361  11.719  1.00  0.00     0.074 C 
HETATM   12  C10 UNL     1       0.617 -21.287  12.240  1.00  0.00     0.006 C 
HETATM   13  C11 UNL     1       0.413 -22.501  11.382  1.00  0.00     0.000 C 
HETATM   14  C12 UNL     1       1.657 -22.950  10.677  1.00  0.00     0.006 C 
HETATM   15  C13 UNL     1       2.837 -22.586  11.569  1.00  0.00     0.074 C 
HETATM   16  O5  UNL     1       3.951 -20.604  12.358  1.00  0.00    -0.195 OA
HETATM   17  O6  UNL     1       5.170 -20.794  11.967  1.00  0.00    -0.194 OA
ENDROOT
BRANCH   1  18
HETATM   18  O1  UNL     1       7.982 -20.036  11.989  1.00  0.00    -0.365 OA
ATOM     19  H1  UNL     1       7.360 -19.870  12.687  1.00  0.00     0.213 HD
ENDBRANCH   1  18
BRANCH   1  20
HETATM   20  O2  UNL     1       8.174 -17.850  11.569  1.00  0.00    -0.365 OA
ATOM     21  H2  UNL     1       7.404 -17.428  11.932  1.00  0.00     0.213 HD
ENDBRANCH   1  20
TORSDOF 2
ENDMDL
MODEL 4
REMARK VINA RESULT: -6.648137490      1.902      5.953
REMARK  2 active torsions:
REMARK  status: ('A' for Active; 'I' for Inactive)
REMARK    1  A    between atoms: O1_1  and  C1_3 
REMARK    2  A    between atoms: C1_3  and  O2_4 
ROOT
HETATM    1  C1  UNL     1     -11.245 -19.555  17.366  1.00  0.00     0.164 C 
HETATM    2  C2  UNL     1     -11.557 -20.976  17.676  1.00  0.00     0.068 C 
HETATM    3  C3  UNL     1     -10.359 -21.831  17.954  1.00  0.00     0.006 C 
HETATM    4  C4  UNL     1      -9.579 -22.197  16.735  1.00  0.00     0.006 C 
HETATM    5  C5  UNL     1      -9.575 -21.130  15.671  1.00  0.00     0.074 C 
HETATM    6  C6  UNL     1      -9.056 -19.811  16.157  1.00  0.00     0.234 C 
HETATM    7  C7  UNL     1      -9.792 -19.234  17.307  1.00  0.00     0.142 C 
HETATM    8  O3  UNL     1      -7.721 -20.026  16.573  1.00  0.00    -0.194 OA
HETATM    9  O4  UNL     1      -6.902 -20.140  15.578  1.00  0.00    -0.195 OA
HETATM   10  C8  UNL     1      -6.876 -19.012  14.747  1.00  0.00     0.229 C 
HETATM   11  C9  UNL     1      -5.650 -18.202  15.126  1.00  0.00     0.074 C 
HETATM   12  C10 UNL     1      -4.768 -17.910  13.938  1.00  0.00     0.006 C 
HETATM   13  C11 UNL     1      -4.386 -19.139  13.167  1.00  0.00     0.000 C 
HETATM   14  C12 UNL     1      -5.425 -20.219  13.211  1.00  0.00     0.006 C 
HETATM   15  C13 UNL     1      -6.781 -19.535  13.326  1.00  0.00     0.074 C 
HETATM   16  O5  UNL     1      -8.008 -18.234  14.936  1.00  0.00    -0.195 OA
HETATM   17  O6  UNL     1      -9.095 -18.922  15.083  1.00  0.00    -0.194 OA
ENDROOT
BRANCH   1  18
HETATM   18  O1  UNL     1     -11.803 -19.185  16.120  1.00  0.00    -0.365 OA
ATOM     19  H1  UNL     1     -12.716 -19.009  16.315  1.00  0.00     0.213 HD
ENDBRANCH   1  18
BRANCH   1  20
HETATM   20  O2  UNL     1     -11.830 -18.658  18.291  1.00  0.00    -0.365 OA
ATOM     21  H2  UNL     1     -11.803 -19.124  19.119  1.00  0.00     0.213 HD
ENDBRANCH   1  20
TORSDOF 2
ENDMDL
MODEL 5
REMARK VINA RESULT: -6.410060433      9.547     13.878
REMARK  2 active torsions:
REMARK  status: ('A' for Active; 'I' for Inactive)
REMARK    1  A    between atoms: O1_1  and  C1_3 
REMARK    2  A    between atoms: C1_3  and  O2_4 
ROOT
HETATM    1  C1  UNL     1       2.024 -19.832  12.918  1.00  0.00     0.164 C 
HETATM    2  C2  UNL     1       1.042 -20.883  12.538  1.00  0.00     0.068 C 
HETATM    3  C3  UNL     1       1.650 -22.206  12.184  1.00  0.00     0.006 C 
HETATM    4  C4  UNL     1       2.301 -22.234  10.843  1.00  0.00     0.006 C 
HETATM    5  C5  UNL     1       2.936 -20.926  10.445  1.00  0.00     0.074 C 
HETATM    6  C6  UNL     1       3.956 -20.440  11.429  1.00  0.00     0.234 C 
HETATM    7  C7  UNL     1       3.450 -20.244  12.809  1.00  0.00     0.142 C 
HETATM    8  O3  UNL     1       4.970 -21.425  11.485  1.00  0.00    -0.194 OA
HETATM    9  O4  UNL     1       5.748 -21.397  10.453  1.00  0.00    -0.195 OA
HETATM   10  C8  UNL     1       6.404 -20.171  10.283  1.00  0.00     0.229 C 
HETATM   11  C9  UNL     1       7.812 -20.334  10.823  1.00  0.00     0.074 C 
HETATM   12  C10 UNL     1       8.861 -19.943   9.812  1.00  0.00     0.006 C 
HETATM   13  C11 UNL     1       8.704 -20.641   8.493  1.00  0.00     0.000 C 
HETATM   14  C12 UNL     1       7.281 -20.971   8.159  1.00  0.00     0.006 C 
HETATM   15  C13 UNL     1       6.407 -19.895   8.791  1.00  0.00     0.074 C 
HETATM   16  O5  UNL     1       5.762 -19.167  10.992  1.00  0.00    -0.195 OA
HETATM   17  O6  UNL     1       4.471 -19.238  10.944  1.00  0.00    -0.194 OA
ENDROOT
BRANCH   1  18
HETATM   18  O1  UNL     1       1.860 -18.684  12.108  1.00  0.00    -0.365 OA
ATOM     19  H1  UNL     1       2.702 -18.248  12.146  1.00  0.00     0.213 HD
ENDBRANCH   1  18
BRANCH   1  20
HETATM   20  O2  UNL     1       1.829 -19.360  14.237  1.00  0.00    -0.365 OA
ATOM     21  H2  UNL     1       2.691 -19.410  14.634  1.00  0.00     0.213 HD
ENDBRANCH   1  20
TORSDOF 2
ENDMDL
