MODEL 1
REMARK VINA RESULT: -7.431576972      0.000      0.000
REMARK  3 active torsions:
REMARK  status: ('A' for Active; 'I' for Inactive)
REMARK    1  A    between atoms: C7_9  and  N2_10 
REMARK    2  A    between atoms: N2_10  and  C8_12 
REMARK    3  A    between atoms: C9_15  and  O1_16 
ROOT
HETATM    1  C1  UNL     1      -5.142 -22.078  14.771  1.00  0.00     0.013 C 
HETATM    2  C2  UNL     1      -4.611 -20.762  14.267  1.00  0.00     0.020 C 
HETATM    3  C3  UNL     1      -3.823 -20.908  12.992  1.00  0.00     0.007 C 
HETATM    4  C4  UNL     1      -4.880 -21.086  11.943  1.00  0.00     0.004 C 
HETATM    5  C5  UNL     1      -6.117 -20.360  12.420  1.00  0.00     0.043 C 
HETATM    6  C6  UNL     1      -5.794 -19.937  13.815  1.00  0.00     0.083 C 
HETATM    7  N1  UNL     1      -6.845 -19.988  14.741  1.00  0.00    -0.360 N 
ATOM      8  H1  UNL     1      -7.446 -20.812  14.758  1.00  0.00     0.162 HD
HETATM    9  C7  UNL     1      -7.068 -19.070  15.539  1.00  0.00     0.089 C 
HETATM   10  C11 UNL     1      -6.182 -17.883  15.503  1.00  0.00     0.152 C 
HETATM   11  S2  UNL     1      -5.375 -18.146  13.893  1.00  0.00    -0.130 SA
ENDROOT
BRANCH   9  12
HETATM   12  N2  UNL     1      -8.156 -19.130  16.491  1.00  0.00    -0.326 N 
ATOM     13  H2  UNL     1      -7.974 -19.049  17.491  1.00  0.00     0.169 HD
BRANCH  12  14
HETATM   14  C8  UNL     1      -9.381 -19.291  16.047  1.00  0.00     0.151 A 
HETATM   15  N3  UNL     1      -9.937 -18.738  14.973  1.00  0.00    -0.317 N 
HETATM   16  C9  UNL     1     -11.191 -19.032  14.700  1.00  0.00     0.148 A 
ATOM     17  H3  UNL     1      -9.406 -18.104  14.377  1.00  0.00     0.170 HD
HETATM   18  C10 UNL     1     -11.838 -19.892  15.546  1.00  0.00     0.109 A 
HETATM   19  S1  UNL     1     -10.628 -20.243  16.695  1.00  0.00    -0.061 SA
BRANCH  16  20
HETATM   20  O1  UNL     1     -11.887 -18.497  13.572  1.00  0.00    -0.346 OA
ATOM     21  H1  UNL     1     -12.734 -18.817  13.289  1.00  0.00     0.219 HD
ENDBRANCH  16  20
ENDBRANCH  12  14
ENDBRANCH   9  12
TORSDOF 3
ENDMDL
MODEL 2
REMARK VINA RESULT: -7.222658788      1.331      1.953
REMARK  3 active torsions:
REMARK  status: ('A' for Active; 'I' for Inactive)
REMARK    1  A    between atoms: C7_9  and  N2_10 
REMARK    2  A    between atoms: N2_10  and  C8_12 
REMARK    3  A    between atoms: C9_15  and  O1_16 
ROOT
HETATM    1  C1  UNL     1      -6.325 -19.645  11.998  1.00  0.00     0.013 C 
HETATM    2  C2  UNL     1      -5.881 -20.933  12.639  1.00  0.00     0.020 C 
HETATM    3  C3  UNL     1      -4.655 -21.510  11.985  1.00  0.00     0.007 C 
HETATM    4  C4  UNL     1      -3.539 -20.657  12.513  1.00  0.00     0.004 C 
HETATM    5  C5  UNL     1      -3.954 -20.166  13.881  1.00  0.00     0.043 C 
HETATM    6  C6  UNL     1      -5.376 -20.602  14.025  1.00  0.00     0.083 C 
HETATM    7  N1  UNL     1      -6.234 -19.718  14.691  1.00  0.00    -0.360 N 
ATOM      8  H1  UNL     1      -6.197 -18.725  14.458  1.00  0.00     0.162 HD
HETATM    9  C7  UNL     1      -7.036 -20.099  15.553  1.00  0.00     0.089 C 
HETATM   10  C11 UNL     1      -7.079 -21.543  15.876  1.00  0.00     0.152 C 
HETATM   11  S2  UNL     1      -5.517 -22.080  15.112  1.00  0.00    -0.130 SA
ENDROOT
BRANCH   9  12
HETATM   12  N2  UNL     1      -7.919 -19.179  16.238  1.00  0.00    -0.326 N 
ATOM     13  H2  UNL     1      -7.549 -18.517  16.919  1.00  0.00     0.169 HD
BRANCH  12  14
HETATM   14  C8  UNL     1      -9.204 -19.212  15.969  1.00  0.00     0.151 A 
HETATM   15  N3  UNL     1      -9.812 -18.818  14.854  1.00  0.00    -0.317 N 
HETATM   16  C9  UNL     1     -11.121 -18.935  14.786  1.00  0.00     0.148 A 
ATOM     17  H3  UNL     1      -9.279 -18.436  14.074  1.00  0.00     0.170 HD
HETATM   18  C10 UNL     1     -11.769 -19.458  15.872  1.00  0.00     0.109 A 
HETATM   19  S1  UNL     1     -10.479 -19.759  16.946  1.00  0.00    -0.061 SA
BRANCH  16  20
HETATM   20  O1  UNL     1     -11.877 -18.545  13.636  1.00  0.00    -0.346 OA
ATOM     21  H1  UNL     1     -12.382 -17.741  13.599  1.00  0.00     0.219 HD
ENDBRANCH  16  20
ENDBRANCH  12  14
ENDBRANCH   9  12
TORSDOF 3
ENDMDL
MODEL 3
REMARK VINA RESULT: -7.163103409      2.007      2.139
REMARK  3 active torsions:
REMARK  status: ('A' for Active; 'I' for Inactive)
REMARK    1  A    between atoms: C7_9  and  N2_10 
REMARK    2  A    between atoms: N2_10  and  C8_12 
REMARK    3  A    between atoms: C9_15  and  O1_16 
ROOT
HETATM    1  C1  UNL     1      -5.468 -22.359  14.728  1.00  0.00     0.013 C 
HETATM    2  C2  UNL     1      -4.495 -21.356  14.168  1.00  0.00     0.020 C 
HETATM    3  C3  UNL     1      -3.561 -21.962  13.156  1.00  0.00     0.007 C 
HETATM    4  C4  UNL     1      -4.409 -22.093  11.925  1.00  0.00     0.004 C 
HETATM    5  C5  UNL     1      -5.449 -20.997  11.976  1.00  0.00     0.043 C 
HETATM    6  C6  UNL     1      -5.283 -20.379  13.326  1.00  0.00     0.083 C 
HETATM    7  N1  UNL     1      -6.458 -19.969  13.971  1.00  0.00    -0.360 N 
ATOM      8  H1  UNL     1      -7.264 -20.594  13.971  1.00  0.00     0.162 HD
HETATM    9  C7  UNL     1      -6.551 -18.875  14.541  1.00  0.00     0.089 C 
HETATM   10  C11 UNL     1      -5.369 -17.982  14.534  1.00  0.00     0.152 C 
HETATM   11  S2  UNL     1      -4.387 -18.775  13.223  1.00  0.00    -0.130 SA
ENDROOT
BRANCH   9  12
HETATM   12  N2  UNL     1      -7.767 -18.458  15.204  1.00  0.00    -0.326 N 
ATOM     13  H2  UNL     1      -7.998 -17.468  15.290  1.00  0.00     0.169 HD
BRANCH  12  14
HETATM   14  C8  UNL     1      -8.569 -19.374  15.696  1.00  0.00     0.151 A 
HETATM   15  N3  UNL     1      -8.245 -20.582  16.148  1.00  0.00    -0.317 N 
HETATM   16  C9  UNL     1      -9.209 -21.355  16.602  1.00  0.00     0.148 A 
ATOM     17  H3  UNL     1      -7.276 -20.900  16.145  1.00  0.00     0.170 HD
HETATM   18  C10 UNL     1     -10.484 -20.860  16.576  1.00  0.00     0.109 A 
HETATM   19  S1  UNL     1     -10.252 -19.310  15.904  1.00  0.00    -0.061 SA
BRANCH  16  20
HETATM   20  O1  UNL     1      -8.974 -22.670  17.113  1.00  0.00    -0.346 OA
ATOM     21  H1  UNL     1      -8.919 -22.861  18.041  1.00  0.00     0.219 HD
ENDBRANCH  16  20
ENDBRANCH  12  14
ENDBRANCH   9  12
TORSDOF 3
ENDMDL
MODEL 4
REMARK VINA RESULT: -7.131508356      2.875      5.845
REMARK  3 active torsions:
REMARK  status: ('A' for Active; 'I' for Inactive)
REMARK    1  A    between atoms: C7_9  and  N2_10 
REMARK    2  A    between atoms: N2_10  and  C8_12 
REMARK    3  A    between atoms: C9_15  and  O1_16 
ROOT
HETATM    1  C1  UNL     1      -8.909 -22.419  16.995  1.00  0.00     0.013 C 
HETATM    2  C2  UNL     1     -10.264 -22.155  16.393  1.00  0.00     0.020 C 
HETATM    3  C3  UNL     1     -11.305 -23.135  16.865  1.00  0.00     0.007 C 
HETATM    4  C4  UNL     1     -11.632 -22.663  18.251  1.00  0.00     0.004 C 
HETATM    5  C5  UNL     1     -11.401 -21.170  18.285  1.00  0.00     0.043 C 
HETATM    6  C6  UNL     1     -10.772 -20.853  16.968  1.00  0.00     0.083 C 
HETATM    7  N1  UNL     1      -9.777 -19.867  16.974  1.00  0.00    -0.360 N 
ATOM      8  H1  UNL     1      -9.063 -19.891  17.703  1.00  0.00     0.162 HD
HETATM    9  C7  UNL     1      -9.733 -18.967  16.126  1.00  0.00     0.089 C 
HETATM   10  C11 UNL     1     -10.775 -18.949  15.073  1.00  0.00     0.152 C 
HETATM   11  S2  UNL     1     -11.985 -20.090  15.813  1.00  0.00    -0.130 SA
ENDROOT
BRANCH   9  12
HETATM   12  N2  UNL     1      -8.702 -17.951  16.139  1.00  0.00    -0.326 N 
ATOM     13  H2  UNL     1      -8.856 -17.064  16.617  1.00  0.00     0.169 HD
BRANCH  12  14
HETATM   14  C8  UNL     1      -7.567 -18.190  15.525  1.00  0.00     0.151 A 
HETATM   15  N3  UNL     1      -6.730 -17.308  14.987  1.00  0.00    -0.317 N 
HETATM   16  C9  UNL     1      -5.636 -17.758  14.411  1.00  0.00     0.148 A 
ATOM     17  H3  UNL     1      -6.931 -16.308  15.020  1.00  0.00     0.170 HD
HETATM   18  C10 UNL     1      -5.433 -19.111  14.406  1.00  0.00     0.109 A 
HETATM   19  S1  UNL     1      -6.816 -19.682  15.224  1.00  0.00    -0.061 SA
BRANCH  16  20
HETATM   20  O1  UNL     1      -4.668 -16.899  13.803  1.00  0.00    -0.346 OA
ATOM     21  H1  UNL     1      -4.853 -16.378  13.031  1.00  0.00     0.219 HD
ENDBRANCH  16  20
ENDBRANCH  12  14
ENDBRANCH   9  12
TORSDOF 3
ENDMDL
MODEL 5
REMARK VINA RESULT: -6.990210582      1.831      1.963
REMARK  3 active torsions:
REMARK  status: ('A' for Active; 'I' for Inactive)
REMARK    1  A    between atoms: C7_9  and  N2_10 
REMARK    2  A    between atoms: N2_10  and  C8_12 
REMARK    3  A    between atoms: C9_15  and  O1_16 
ROOT
HETATM    1  C1  UNL     1      -6.729 -21.551  15.707  1.00  0.00     0.013 C 
HETATM    2  C2  UNL     1      -5.668 -20.562  15.300  1.00  0.00     0.020 C 
HETATM    3  C3  UNL     1      -4.576 -21.193  14.480  1.00  0.00     0.007 C 
HETATM    4  C4  UNL     1      -5.199 -21.351  13.124  1.00  0.00     0.004 C 
HETATM    5  C5  UNL     1      -6.226 -20.253  12.969  1.00  0.00     0.043 C 
HETATM    6  C6  UNL     1      -6.293 -19.604  14.313  1.00  0.00     0.083 C 
HETATM    7  N1  UNL     1      -7.559 -19.177  14.736  1.00  0.00    -0.360 N 
ATOM      8  H1  UNL     1      -8.357 -19.801  14.611  1.00  0.00     0.162 HD
HETATM    9  C7  UNL     1      -7.744 -18.070  15.256  1.00  0.00     0.089 C 
HETATM   10  C11 UNL     1      -6.574 -17.179  15.432  1.00  0.00     0.152 C 
HETATM   11  S2  UNL     1      -5.384 -18.004  14.330  1.00  0.00    -0.130 SA
ENDROOT
BRANCH   9  12
HETATM   12  N2  UNL     1      -9.054 -17.636  15.689  1.00  0.00    -0.326 N 
ATOM     13  H2  UNL     1      -9.270 -16.643  15.770  1.00  0.00     0.169 HD
BRANCH  12  14
HETATM   14  C8  UNL     1      -9.960 -18.541  15.977  1.00  0.00     0.151 A 
HETATM   15  N3  UNL     1     -10.088 -19.237  17.103  1.00  0.00    -0.317 N 
HETATM   16  C9  UNL     1     -11.073 -20.105  17.190  1.00  0.00     0.148 A 
ATOM     17  H3  UNL     1      -9.440 -19.100  17.879  1.00  0.00     0.170 HD
HETATM   18  C10 UNL     1     -11.903 -20.233  16.110  1.00  0.00     0.109 A 
HETATM   19  S1  UNL     1     -11.238 -19.107  15.015  1.00  0.00    -0.061 SA
BRANCH  16  20
HETATM   20  O1  UNL     1     -11.304 -20.904  18.354  1.00  0.00    -0.346 OA
ATOM     21  H1  UNL     1     -10.698 -21.573  18.649  1.00  0.00     0.219 HD
ENDBRANCH  16  20
ENDBRANCH  12  14
ENDBRANCH   9  12
TORSDOF 3
ENDMDL
