MODEL 1
REMARK VINA RESULT: -8.107521534      0.000      0.000
REMARK  15 active torsions:
REMARK  status: ('A' for Active; 'I' for Inactive)
REMARK    1  A    between atoms: O1_2  and  C2_3 
REMARK    2  A    between atoms: C2_3  and  C3_4 
REMARK    3  A    between atoms: C2_3  and  C16_22 
REMARK    4  A    between atoms: C4_5  and  C5_6 
REMARK    5  A    between atoms: C5_6  and  C6_7 
REMARK    6  A    between atoms: C7_9  and  O3_10 
REMARK    7  A    between atoms: C8_12  and  O4_13 
REMARK    8  A    between atoms: O4_13  and  C9_14 
REMARK    9  A    between atoms: C9_14  and  C10_16 
REMARK   10  A    between atoms: C16_22  and  C17_23 
REMARK   11  A    between atoms: C18_25  and  C19_26 
REMARK   12  A    between atoms: C19_26  and  O7_27 
REMARK   13  A    between atoms: C20_29  and  O8_30 
REMARK   14  A    between atoms: C21_32  and  O9_33 
REMARK   15  A    between atoms: C22_35  and  O10_36 
ROOT
HETATM    1  C2  UNL     1      33.342 -41.252  -5.975  1.00  0.00     0.146 C 
ENDROOT
BRANCH   1   2
HETATM    2  O1  UNL     1      31.985 -41.564  -5.754  1.00  0.00    -0.387 OA
HETATM    3  C1  UNL     1      31.150 -40.821  -6.557  1.00  0.00     0.202 C 
ENDBRANCH   1   2
BRANCH   1   4
HETATM    4  C3  UNL     1      33.307 -40.248  -7.093  1.00  0.00     0.001 C 
HETATM    5  C4  UNL     1      33.907 -40.537  -8.231  1.00  0.00    -0.026 C 
BRANCH   5   6
HETATM    6  C5  UNL     1      34.605 -41.799  -8.438  1.00  0.00     0.059 C 
BRANCH   6   7
HETATM    7  C6  UNL     1      36.127 -41.702  -8.306  1.00  0.00     0.134 C 
HETATM    8  O2  UNL     1      36.691 -42.933  -8.112  1.00  0.00    -0.353 OA
HETATM    9  C7  UNL     1      37.748 -43.110  -9.001  1.00  0.00     0.287 C 
HETATM   10  C8  UNL     1      38.046 -41.770  -9.621  1.00  0.00     0.193 C 
HETATM   11  C14 UNL     1      36.733 -41.034  -9.491  1.00  0.00     0.045 C 
HETATM   12  C15 UNL     1      36.881 -39.545  -9.362  1.00  0.00     0.015 C 
BRANCH   9  13
HETATM   13  O3  UNL     1      37.321 -44.031  -9.959  1.00  0.00    -0.369 OA
ATOM     14  H3  UNL     1      37.314 -43.577 -10.793  1.00  0.00     0.212 HD
ENDBRANCH   9  13
BRANCH  10  15
HETATM   15  O4  UNL     1      39.151 -41.127  -9.093  1.00  0.00    -0.307 OA
BRANCH  15  16
HETATM   16  C9  UNL     1      40.344 -41.701  -8.760  1.00  0.00     0.283 C 
HETATM   17  O5  UNL     1      40.492 -42.002  -7.548  1.00  0.00    -0.260 OA
BRANCH  16  18
HETATM   18  C10 UNL     1      41.407 -41.970  -9.689  1.00  0.00     0.084 C 
HETATM   19  C11 UNL     1      41.807 -43.157 -10.032  1.00  0.00    -0.082 C 
HETATM   20  C12 UNL     1      42.944 -43.289 -11.025  1.00  0.00     0.043 C 
HETATM   21  C13 UNL     1      41.169 -44.363  -9.474  1.00  0.00     0.043 C 
ENDBRANCH  16  18
ENDBRANCH  15  16
ENDBRANCH  10  15
ENDBRANCH   6   7
ENDBRANCH   5   6
ENDBRANCH   1   4
BRANCH   1  22
HETATM   22  C16 UNL     1      33.923 -40.633  -4.755  1.00  0.00     0.070 C 
BRANCH  22  23
HETATM   23  C17 UNL     1      34.334 -41.660  -3.744  1.00  0.00     0.156 C 
HETATM   24  O6  UNL     1      34.194 -42.921  -4.243  1.00  0.00    -0.373 OA
HETATM   25  C18 UNL     1      33.656 -43.851  -3.396  1.00  0.00     0.176 C 
HETATM   26  C20 UNL     1      32.321 -43.448  -2.817  1.00  0.00     0.180 C 
HETATM   27  C21 UNL     1      32.301 -42.045  -2.313  1.00  0.00     0.180 C 
HETATM   28  C22 UNL     1      33.667 -41.451  -2.404  1.00  0.00     0.178 C 
BRANCH  25  29
HETATM   29  C19 UNL     1      33.392 -45.115  -4.226  1.00  0.00     0.198 C 
BRANCH  29  30
HETATM   30  O7  UNL     1      32.910 -46.148  -3.437  1.00  0.00    -0.398 OA
ATOM     31  H7  UNL     1      32.195 -45.858  -2.884  1.00  0.00     0.209 HD
ENDBRANCH  29  30
ENDBRANCH  25  29
BRANCH  26  32
HETATM   32  O8  UNL     1      31.300 -43.732  -3.714  1.00  0.00    -0.390 OA
ATOM     33  H8  UNL     1      30.643 -43.047  -3.694  1.00  0.00     0.210 HD
ENDBRANCH  26  32
BRANCH  27  34
HETATM   34  O9  UNL     1      31.419 -41.302  -3.090  1.00  0.00    -0.390 OA
ATOM     35  H9  UNL     1      30.897 -40.750  -2.519  1.00  0.00     0.210 HD
ENDBRANCH  27  34
BRANCH  28  36
HETATM   36  O10 UNL     1      34.526 -41.894  -1.402  1.00  0.00    -0.390 OA
ATOM     37  H10 UNL     1      35.386 -42.040  -1.778  1.00  0.00     0.210 HD
ENDBRANCH  28  36
ENDBRANCH  22  23
ENDBRANCH   1  22
TORSDOF 15
ENDMDL
MODEL 2
REMARK VINA RESULT: -7.777018857      1.329      2.265
REMARK  15 active torsions:
REMARK  status: ('A' for Active; 'I' for Inactive)
REMARK    1  A    between atoms: O1_2  and  C2_3 
REMARK    2  A    between atoms: C2_3  and  C3_4 
REMARK    3  A    between atoms: C2_3  and  C16_22 
REMARK    4  A    between atoms: C4_5  and  C5_6 
REMARK    5  A    between atoms: C5_6  and  C6_7 
REMARK    6  A    between atoms: C7_9  and  O3_10 
REMARK    7  A    between atoms: C8_12  and  O4_13 
REMARK    8  A    between atoms: O4_13  and  C9_14 
REMARK    9  A    between atoms: C9_14  and  C10_16 
REMARK   10  A    between atoms: C16_22  and  C17_23 
REMARK   11  A    between atoms: C18_25  and  C19_26 
REMARK   12  A    between atoms: C19_26  and  O7_27 
REMARK   13  A    between atoms: C20_29  and  O8_30 
REMARK   14  A    between atoms: C21_32  and  O9_33 
REMARK   15  A    between atoms: C22_35  and  O10_36 
ROOT
HETATM    1  C2  UNL     1      32.817 -40.889  -7.333  1.00  0.00     0.146 C 
ENDROOT
BRANCH   1   2
HETATM    2  O1  UNL     1      31.442 -40.650  -7.533  1.00  0.00    -0.387 OA
HETATM    3  C1  UNL     1      30.987 -41.221  -8.699  1.00  0.00     0.202 C 
ENDBRANCH   1   2
BRANCH   1   4
HETATM    4  C3  UNL     1      33.494 -39.868  -8.206  1.00  0.00     0.001 C 
HETATM    5  C4  UNL     1      34.543 -40.230  -8.917  1.00  0.00    -0.026 C 
BRANCH   5   6
HETATM    6  C5  UNL     1      35.069 -41.588  -8.884  1.00  0.00     0.059 C 
BRANCH   6   7
HETATM    7  C6  UNL     1      36.561 -41.675  -8.556  1.00  0.00     0.134 C 
HETATM    8  O2  UNL     1      36.930 -42.954  -8.244  1.00  0.00    -0.353 OA
HETATM    9  C7  UNL     1      38.059 -43.309  -8.978  1.00  0.00     0.287 C 
HETATM   10  C8  UNL     1      38.605 -42.052  -9.603  1.00  0.00     0.193 C 
HETATM   11  C14 UNL     1      37.394 -41.153  -9.675  1.00  0.00     0.045 C 
HETATM   12  C15 UNL     1      37.717 -39.688  -9.583  1.00  0.00     0.015 C 
BRANCH   9  13
HETATM   13  O3  UNL     1      37.640 -44.220  -9.948  1.00  0.00    -0.369 OA
ATOM     14  H3  UNL     1      37.207 -43.717 -10.628  1.00  0.00     0.212 HD
ENDBRANCH   9  13
BRANCH  10  15
HETATM   15  O4  UNL     1      39.709 -41.525  -8.957  1.00  0.00    -0.307 OA
BRANCH  15  16
HETATM   16  C9  UNL     1      41.011 -41.637  -9.350  1.00  0.00     0.283 C 
HETATM   17  O5  UNL     1      41.728 -40.618  -9.177  1.00  0.00    -0.260 OA
BRANCH  16  18
HETATM   18  C10 UNL     1      41.590 -42.816  -9.932  1.00  0.00     0.084 C 
HETATM   19  C11 UNL     1      41.779 -43.936  -9.302  1.00  0.00    -0.082 C 
HETATM   20  C12 UNL     1      42.403 -45.099 -10.046  1.00  0.00     0.043 C 
HETATM   21  C13 UNL     1      41.391 -44.085  -7.888  1.00  0.00     0.043 C 
ENDBRANCH  16  18
ENDBRANCH  15  16
ENDBRANCH  10  15
ENDBRANCH   6   7
ENDBRANCH   5   6
ENDBRANCH   1   4
BRANCH   1  22
HETATM   22  C16 UNL     1      33.169 -40.651  -5.909  1.00  0.00     0.070 C 
BRANCH  22  23
HETATM   23  C17 UNL     1      32.952 -41.871  -5.065  1.00  0.00     0.156 C 
HETATM   24  O6  UNL     1      31.861 -41.722  -4.261  1.00  0.00    -0.373 OA
HETATM   25  C18 UNL     1      31.995 -42.157  -2.971  1.00  0.00     0.176 C 
HETATM   26  C20 UNL     1      33.173 -41.555  -2.244  1.00  0.00     0.180 C 
HETATM   27  C21 UNL     1      34.427 -41.565  -3.051  1.00  0.00     0.180 C 
HETATM   28  C22 UNL     1      34.203 -42.296  -4.332  1.00  0.00     0.178 C 
BRANCH  25  29
HETATM   29  C19 UNL     1      30.746 -41.695  -2.209  1.00  0.00     0.198 C 
BRANCH  29  30
HETATM   30  O7  UNL     1      29.753 -41.265  -3.075  1.00  0.00    -0.398 OA
ATOM     31  H7  UNL     1      29.455 -40.391  -2.855  1.00  0.00     0.209 HD
ENDBRANCH  29  30
ENDBRANCH  25  29
BRANCH  26  32
HETATM   32  O8  UNL     1      32.842 -40.302  -1.745  1.00  0.00    -0.390 OA
ATOM     33  H8  UNL     1      32.842 -40.314  -0.795  1.00  0.00     0.210 HD
ENDBRANCH  26  32
BRANCH  27  34
HETATM   34  O9  UNL     1      34.796 -40.252  -3.323  1.00  0.00    -0.390 OA
ATOM     35  H9  UNL     1      35.722 -40.150  -3.141  1.00  0.00     0.210 HD
ENDBRANCH  27  34
BRANCH  28  36
HETATM   36  O10 UNL     1      34.184 -43.681  -4.178  1.00  0.00    -0.390 OA
ATOM     37  H10 UNL     1      35.028 -44.029  -4.438  1.00  0.00     0.210 HD
ENDBRANCH  28  36
ENDBRANCH  22  23
ENDBRANCH   1  22
TORSDOF 15
ENDMDL
MODEL 3
REMARK VINA RESULT: -7.519193067      1.674      2.780
REMARK  15 active torsions:
REMARK  status: ('A' for Active; 'I' for Inactive)
REMARK    1  A    between atoms: O1_2  and  C2_3 
REMARK    2  A    between atoms: C2_3  and  C3_4 
REMARK    3  A    between atoms: C2_3  and  C16_22 
REMARK    4  A    between atoms: C4_5  and  C5_6 
REMARK    5  A    between atoms: C5_6  and  C6_7 
REMARK    6  A    between atoms: C7_9  and  O3_10 
REMARK    7  A    between atoms: C8_12  and  O4_13 
REMARK    8  A    between atoms: O4_13  and  C9_14 
REMARK    9  A    between atoms: C9_14  and  C10_16 
REMARK   10  A    between atoms: C16_22  and  C17_23 
REMARK   11  A    between atoms: C18_25  and  C19_26 
REMARK   12  A    between atoms: C19_26  and  O7_27 
REMARK   13  A    between atoms: C20_29  and  O8_30 
REMARK   14  A    between atoms: C21_32  and  O9_33 
REMARK   15  A    between atoms: C22_35  and  O10_36 
ROOT
HETATM    1  C2  UNL     1      33.155 -41.265  -7.324  1.00  0.00     0.146 C 
ENDROOT
BRANCH   1   2
HETATM    2  O1  UNL     1      31.833 -41.642  -7.638  1.00  0.00    -0.387 OA
HETATM    3  C1  UNL     1      30.952 -40.594  -7.493  1.00  0.00     0.202 C 
ENDBRANCH   1   2
BRANCH   1   4
HETATM    4  C3  UNL     1      33.417 -40.084  -8.217  1.00  0.00     0.001 C 
HETATM    5  C4  UNL     1      34.139 -40.254  -9.307  1.00  0.00    -0.026 C 
BRANCH   5   6
HETATM    6  C5  UNL     1      34.691 -41.552  -9.674  1.00  0.00     0.059 C 
BRANCH   6   7
HETATM    7  C6  UNL     1      36.165 -41.513 -10.082  1.00  0.00     0.134 C 
HETATM    8  O2  UNL     1      36.520 -40.279 -10.553  1.00  0.00    -0.353 OA
HETATM    9  C7  UNL     1      37.684 -39.852  -9.918  1.00  0.00     0.287 C 
HETATM   10  C8  UNL     1      38.259 -41.034  -9.184  1.00  0.00     0.193 C 
HETATM   11  C14 UNL     1      37.051 -41.912  -8.953  1.00  0.00     0.045 C 
HETATM   12  C15 UNL     1      37.368 -43.380  -8.895  1.00  0.00     0.015 C 
BRANCH   9  13
HETATM   13  O3  UNL     1      37.313 -38.835  -9.037  1.00  0.00    -0.369 OA
ATOM     14  H3  UNL     1      37.693 -39.051  -8.193  1.00  0.00     0.212 HD
ENDBRANCH   9  13
BRANCH  10  15
HETATM   15  O4  UNL     1      39.329 -41.638  -9.818  1.00  0.00    -0.307 OA
BRANCH  15  16
HETATM   16  C9  UNL     1      40.543 -41.929  -9.267  1.00  0.00     0.283 C 
HETATM   17  O5  UNL     1      41.525 -41.293  -9.729  1.00  0.00    -0.260 OA
BRANCH  16  18
HETATM   18  C10 UNL     1      40.755 -42.892  -8.222  1.00  0.00     0.084 C 
HETATM   19  C11 UNL     1      40.976 -44.157  -8.415  1.00  0.00    -0.082 C 
HETATM   20  C12 UNL     1      41.181 -45.057  -7.213  1.00  0.00     0.043 C 
HETATM   21  C13 UNL     1      41.034 -44.717  -9.776  1.00  0.00     0.043 C 
ENDBRANCH  16  18
ENDBRANCH  15  16
ENDBRANCH  10  15
ENDBRANCH   6   7
ENDBRANCH   5   6
ENDBRANCH   1   4
BRANCH   1  22
HETATM   22  C16 UNL     1      33.237 -40.852  -5.899  1.00  0.00     0.070 C 
BRANCH  22  23
HETATM   23  C17 UNL     1      33.036 -42.007  -4.965  1.00  0.00     0.156 C 
HETATM   24  O6  UNL     1      31.902 -41.846  -4.225  1.00  0.00    -0.373 OA
HETATM   25  C18 UNL     1      31.995 -42.166  -2.899  1.00  0.00     0.176 C 
HETATM   26  C20 UNL     1      33.109 -41.450  -2.174  1.00  0.00     0.180 C 
HETATM   27  C21 UNL     1      34.399 -41.466  -2.922  1.00  0.00     0.180 C 
HETATM   28  C22 UNL     1      34.268 -42.310  -4.146  1.00  0.00     0.178 C 
BRANCH  25  29
HETATM   29  C19 UNL     1      30.692 -41.704  -2.233  1.00  0.00     0.198 C 
BRANCH  29  30
HETATM   30  O7  UNL     1      29.753 -41.312  -3.174  1.00  0.00    -0.398 OA
ATOM     31  H7  UNL     1      29.326 -40.501  -2.922  1.00  0.00     0.209 HD
ENDBRANCH  29  30
ENDBRANCH  25  29
BRANCH  26  32
HETATM   32  O8  UNL     1      32.699 -40.177  -1.797  1.00  0.00    -0.390 OA
ATOM     33  H8  UNL     1      33.330 -39.791  -1.202  1.00  0.00     0.210 HD
ENDBRANCH  26  32
BRANCH  27  34
HETATM   34  O9  UNL     1      34.721 -40.163  -3.289  1.00  0.00    -0.390 OA
ATOM     35  H9  UNL     1      35.021 -39.694  -2.519  1.00  0.00     0.210 HD
ENDBRANCH  27  34
BRANCH  28  36
HETATM   36  O10 UNL     1      34.303 -43.676  -3.877  1.00  0.00    -0.390 OA
ATOM     37  H10 UNL     1      35.210 -43.949  -3.802  1.00  0.00     0.210 HD
ENDBRANCH  28  36
ENDBRANCH  22  23
ENDBRANCH   1  22
TORSDOF 15
ENDMDL
MODEL 4
REMARK VINA RESULT: -7.480896456      1.181      2.487
REMARK  15 active torsions:
REMARK  status: ('A' for Active; 'I' for Inactive)
REMARK    1  A    between atoms: O1_2  and  C2_3 
REMARK    2  A    between atoms: C2_3  and  C3_4 
REMARK    3  A    between atoms: C2_3  and  C16_22 
REMARK    4  A    between atoms: C4_5  and  C5_6 
REMARK    5  A    between atoms: C5_6  and  C6_7 
REMARK    6  A    between atoms: C7_9  and  O3_10 
REMARK    7  A    between atoms: C8_12  and  O4_13 
REMARK    8  A    between atoms: O4_13  and  C9_14 
REMARK    9  A    between atoms: C9_14  and  C10_16 
REMARK   10  A    between atoms: C16_22  and  C17_23 
REMARK   11  A    between atoms: C18_25  and  C19_26 
REMARK   12  A    between atoms: C19_26  and  O7_27 
REMARK   13  A    between atoms: C20_29  and  O8_30 
REMARK   14  A    between atoms: C21_32  and  O9_33 
REMARK   15  A    between atoms: C22_35  and  O10_36 
ROOT
HETATM    1  C2  UNL     1      32.927 -41.367  -6.925  1.00  0.00     0.146 C 
ENDROOT
BRANCH   1   2
HETATM    2  O1  UNL     1      31.568 -41.115  -6.644  1.00  0.00    -0.387 OA
HETATM    3  C1  UNL     1      30.835 -40.918  -7.791  1.00  0.00     0.202 C 
ENDBRANCH   1   2
BRANCH   1   4
HETATM    4  C3  UNL     1      33.450 -40.041  -7.404  1.00  0.00     0.001 C 
HETATM    5  C4  UNL     1      34.415 -40.022  -8.302  1.00  0.00    -0.026 C 
BRANCH   5   6
HETATM    6  C5  UNL     1      34.991 -41.246  -8.844  1.00  0.00     0.059 C 
BRANCH   6   7
HETATM    7  C6  UNL     1      36.470 -41.445  -8.505  1.00  0.00     0.134 C 
HETATM    8  O2  UNL     1      36.739 -42.749  -8.191  1.00  0.00    -0.353 OA
HETATM    9  C7  UNL     1      37.843 -43.189  -8.917  1.00  0.00     0.287 C 
HETATM   10  C8  UNL     1      38.487 -41.978  -9.538  1.00  0.00     0.193 C 
HETATM   11  C14 UNL     1      37.348 -40.989  -9.619  1.00  0.00     0.045 C 
HETATM   12  C15 UNL     1      37.782 -39.553  -9.525  1.00  0.00     0.015 C 
BRANCH   9  13
HETATM   13  O3  UNL     1      37.362 -44.066  -9.890  1.00  0.00    -0.369 OA
ATOM     14  H3  UNL     1      36.767 -43.568 -10.438  1.00  0.00     0.212 HD
ENDBRANCH   9  13
BRANCH  10  15
HETATM   15  O4  UNL     1      39.623 -41.536  -8.885  1.00  0.00    -0.307 OA
BRANCH  15  16
HETATM   16  C9  UNL     1      40.915 -41.707  -9.292  1.00  0.00     0.283 C 
HETATM   17  O5  UNL     1      41.665 -40.703  -9.183  1.00  0.00    -0.260 OA
BRANCH  16  18
HETATM   18  C10 UNL     1      41.448 -42.932  -9.822  1.00  0.00     0.084 C 
HETATM   19  C11 UNL     1      41.562 -44.039  -9.154  1.00  0.00    -0.082 C 
HETATM   20  C12 UNL     1      42.146 -45.255  -9.846  1.00  0.00     0.043 C 
HETATM   21  C13 UNL     1      41.129 -44.125  -7.748  1.00  0.00     0.043 C 
ENDBRANCH  16  18
ENDBRANCH  15  16
ENDBRANCH  10  15
ENDBRANCH   6   7
ENDBRANCH   5   6
ENDBRANCH   1   4
BRANCH   1  22
HETATM   22  C16 UNL     1      33.632 -41.772  -5.682  1.00  0.00     0.070 C 
BRANCH  22  23
HETATM   23  C17 UNL     1      32.756 -41.650  -4.471  1.00  0.00     0.156 C 
HETATM   24  O6  UNL     1      33.326 -40.840  -3.535  1.00  0.00    -0.373 OA
HETATM   25  C18 UNL     1      33.244 -41.265  -2.237  1.00  0.00     0.176 C 
HETATM   26  C20 UNL     1      33.785 -42.657  -2.015  1.00  0.00     0.180 C 
HETATM   27  C21 UNL     1      33.313 -43.637  -3.035  1.00  0.00     0.180 C 
HETATM   28  C22 UNL     1      32.316 -42.992  -3.938  1.00  0.00     0.178 C 
BRANCH  25  29
HETATM   29  C19 UNL     1      34.129 -40.329  -1.401  1.00  0.00     0.198 C 
BRANCH  29  30
HETATM   30  O7  UNL     1      34.004 -39.012  -1.812  1.00  0.00    -0.398 OA
ATOM     31  H7  UNL     1      34.701 -38.470  -1.461  1.00  0.00     0.209 HD
ENDBRANCH  29  30
ENDBRANCH  25  29
BRANCH  26  32
HETATM   32  O8  UNL     1      35.166 -42.621  -1.874  1.00  0.00    -0.390 OA
ATOM     33  H8  UNL     1      35.532 -43.490  -1.988  1.00  0.00     0.210 HD
ENDBRANCH  26  32
BRANCH  27  34
HETATM   34  O9  UNL     1      34.405 -44.069  -3.781  1.00  0.00    -0.390 OA
ATOM     35  H9  UNL     1      34.103 -44.330  -4.643  1.00  0.00     0.210 HD
ENDBRANCH  27  34
BRANCH  28  36
HETATM   36  O10 UNL     1      31.058 -42.854  -3.358  1.00  0.00    -0.390 OA
ATOM     37  H10 UNL     1      30.495 -43.549  -3.678  1.00  0.00     0.210 HD
ENDBRANCH  28  36
ENDBRANCH  22  23
ENDBRANCH   1  22
TORSDOF 15
ENDMDL
MODEL 5
REMARK VINA RESULT: -7.305942392      1.870      9.094
REMARK  15 active torsions:
REMARK  status: ('A' for Active; 'I' for Inactive)
REMARK    1  A    between atoms: O1_2  and  C2_3 
REMARK    2  A    between atoms: C2_3  and  C3_4 
REMARK    3  A    between atoms: C2_3  and  C16_22 
REMARK    4  A    between atoms: C4_5  and  C5_6 
REMARK    5  A    between atoms: C5_6  and  C6_7 
REMARK    6  A    between atoms: C7_9  and  O3_10 
REMARK    7  A    between atoms: C8_12  and  O4_13 
REMARK    8  A    between atoms: O4_13  and  C9_14 
REMARK    9  A    between atoms: C9_14  and  C10_16 
REMARK   10  A    between atoms: C16_22  and  C17_23 
REMARK   11  A    between atoms: C18_25  and  C19_26 
REMARK   12  A    between atoms: C19_26  and  O7_27 
REMARK   13  A    between atoms: C20_29  and  O8_30 
REMARK   14  A    between atoms: C21_32  and  O9_33 
REMARK   15  A    between atoms: C22_35  and  O10_36 
ROOT
HETATM    1  C2  UNL     1      38.370 -41.668  -8.882  1.00  0.00     0.146 C 
ENDROOT
BRANCH   1   2
HETATM    2  O1  UNL     1      38.155 -40.798  -9.971  1.00  0.00    -0.387 OA
HETATM    3  C1  UNL     1      37.637 -39.589  -9.567  1.00  0.00     0.202 C 
ENDBRANCH   1   2
BRANCH   1   4
HETATM    4  C3  UNL     1      37.442 -42.821  -9.150  1.00  0.00     0.001 C 
HETATM    5  C4  UNL     1      36.247 -42.822  -8.592  1.00  0.00    -0.026 C 
BRANCH   5   6
HETATM    6  C5  UNL     1      35.797 -41.742  -7.724  1.00  0.00     0.059 C 
BRANCH   6   7
HETATM    7  C6  UNL     1      34.612 -42.110  -6.829  1.00  0.00     0.134 C 
HETATM    8  O2  UNL     1      35.003 -42.906  -5.787  1.00  0.00    -0.353 OA
HETATM    9  C7  UNL     1      34.502 -42.394  -4.592  1.00  0.00     0.287 C 
HETATM   10  C8  UNL     1      33.486 -41.339  -4.943  1.00  0.00     0.193 C 
HETATM   11  C14 UNL     1      33.918 -40.895  -6.321  1.00  0.00     0.045 C 
HETATM   12  C15 UNL     1      32.788 -40.413  -7.186  1.00  0.00     0.015 C 
BRANCH   9  13
HETATM   13  O3  UNL     1      35.585 -41.849  -3.902  1.00  0.00    -0.369 OA
ATOM     14  H3  UNL     1      35.824 -41.048  -4.354  1.00  0.00     0.212 HD
ENDBRANCH   9  13
BRANCH  10  15
HETATM   15  O4  UNL     1      32.171 -41.750  -4.828  1.00  0.00    -0.307 OA
BRANCH  15  16
HETATM   16  C9  UNL     1      31.642 -42.517  -3.830  1.00  0.00     0.283 C 
HETATM   17  O5  UNL     1      31.992 -43.726  -3.820  1.00  0.00    -0.260 OA
BRANCH  16  18
HETATM   18  C10 UNL     1      30.736 -42.036  -2.823  1.00  0.00     0.084 C 
HETATM   19  C11 UNL     1      31.092 -41.385  -1.758  1.00  0.00    -0.082 C 
HETATM   20  C12 UNL     1      30.024 -40.940  -0.781  1.00  0.00     0.043 C 
HETATM   21  C13 UNL     1      32.509 -41.073  -1.498  1.00  0.00     0.043 C 
ENDBRANCH  16  18
ENDBRANCH  15  16
ENDBRANCH  10  15
ENDBRANCH   6   7
ENDBRANCH   5   6
ENDBRANCH   1   4
BRANCH   1  22
HETATM   22  C16 UNL     1      39.778 -42.140  -8.883  1.00  0.00     0.070 C 
BRANCH  22  23
HETATM   23  C17 UNL     1      39.897 -43.559  -8.414  1.00  0.00     0.156 C 
HETATM   24  O6  UNL     1      40.720 -43.648  -7.331  1.00  0.00    -0.373 OA
HETATM   25  C18 UNL     1      41.602 -44.693  -7.325  1.00  0.00     0.176 C 
HETATM   26  C20 UNL     1      42.474 -44.762  -8.556  1.00  0.00     0.180 C 
HETATM   27  C21 UNL     1      41.711 -44.583  -9.825  1.00  0.00     0.180 C 
HETATM   28  C22 UNL     1      40.249 -44.510  -9.534  1.00  0.00     0.178 C 
BRANCH  25  29
HETATM   29  C19 UNL     1      42.556 -44.470  -6.143  1.00  0.00     0.198 C 
BRANCH  29  30
HETATM   30  O7  UNL     1      41.919 -43.830  -5.092  1.00  0.00    -0.398 OA
ATOM     31  H7  UNL     1      42.325 -42.993  -4.897  1.00  0.00     0.209 HD
ENDBRANCH  29  30
ENDBRANCH  25  29
BRANCH  26  32
HETATM   32  O8  UNL     1      43.555 -43.900  -8.430  1.00  0.00    -0.390 OA
ATOM     33  H8  UNL     1      43.690 -43.419  -9.238  1.00  0.00     0.210 HD
ENDBRANCH  26  32
BRANCH  27  34
HETATM   34  O9  UNL     1      42.123 -43.402 -10.433  1.00  0.00    -0.390 OA
ATOM     35  H9  UNL     1      41.903 -43.440 -11.356  1.00  0.00     0.210 HD
ENDBRANCH  27  34
BRANCH  28  36
HETATM   36  O10 UNL     1      39.681 -45.752  -9.262  1.00  0.00    -0.390 OA
ATOM     37  H10 UNL     1      39.900 -46.000  -8.371  1.00  0.00     0.210 HD
ENDBRANCH  28  36
ENDBRANCH  22  23
ENDBRANCH   1  22
TORSDOF 15
ENDMDL
