MODEL 1
REMARK VINA RESULT: -5.716597993      0.000      0.000
REMARK  15 active torsions:
REMARK  status: ('A' for Active; 'I' for Inactive)
REMARK    1  A    between atoms: C2_2  and  C3_3 
REMARK    2  A    between atoms: C3_3  and  C4_4 
REMARK    3  A    between atoms: C4_4  and  C5_5 
REMARK    4  A    between atoms: C5_5  and  C6_6 
REMARK    5  A    between atoms: C6_6  and  O2_8 
REMARK    6  A    between atoms: O2_8  and  C7_9 
REMARK    7  A    between atoms: C8_10  and  C9_11 
REMARK    8  A    between atoms: C9_11  and  O3_12 
REMARK    9  A    between atoms: O3_12  and  C10_13 
REMARK   10  A    between atoms: C11_15  and  C12_16 
REMARK   11  A    between atoms: C12_16  and  O5_17 
REMARK   12  A    between atoms: C13_19  and  O6_20 
REMARK   13  A    between atoms: C14_22  and  O7_23 
REMARK   14  A    between atoms: C15_25  and  O8_26 
REMARK   15  A    between atoms: C17_29  and  O9_31 
ROOT
HETATM    1  C7  UNL     1     -22.214   7.482 -30.435  1.00  0.00     0.151 C 
HETATM    2  C8  UNL     1     -22.154   6.462 -31.528  1.00  0.00     0.044 C 
HETATM    3  C16 UNL     1     -23.523   6.125 -32.085  1.00  0.00     0.058 C 
HETATM    4  C17 UNL     1     -24.210   5.131 -31.193  1.00  0.00     0.103 C 
HETATM    5  C18 UNL     1     -25.715   5.252 -31.280  1.00  0.00     0.058 C 
HETATM    6  S1  UNL     1     -23.604   5.295 -29.515  1.00  0.00    -0.125 SA
HETATM    7  C19 UNL     1     -23.064   7.007 -29.271  1.00  0.00     0.076 C 
HETATM    8  C20 UNL     1     -24.276   7.881 -29.051  1.00  0.00     0.024 C 
ENDROOT
BRANCH   2   9
HETATM    9  C9  UNL     1     -21.118   6.690 -32.559  1.00  0.00     0.178 C 
BRANCH   9  10
HETATM   10  O3  UNL     1     -19.972   5.950 -32.492  1.00  0.00    -0.358 OA
BRANCH  10  11
HETATM   11  C10 UNL     1     -20.198   4.617 -32.176  1.00  0.00     0.291 C 
HETATM   12  O4  UNL     1     -19.635   3.836 -33.180  1.00  0.00    -0.348 OA
HETATM   13  C11 UNL     1     -20.081   2.527 -33.202  1.00  0.00     0.179 C 
HETATM   14  C13 UNL     1     -20.269   1.991 -31.832  1.00  0.00     0.180 C 
HETATM   15  C14 UNL     1     -19.434   2.704 -30.772  1.00  0.00     0.183 C 
HETATM   16  C15 UNL     1     -19.702   4.203 -30.811  1.00  0.00     0.204 C 
BRANCH  13  17
HETATM   17  C12 UNL     1     -21.269   2.341 -34.113  1.00  0.00     0.198 C 
BRANCH  17  18
HETATM   18  O5  UNL     1     -22.260   3.268 -33.928  1.00  0.00    -0.398 OA
ATOM     19  H5  UNL     1     -22.640   3.592 -34.736  1.00  0.00     0.209 HD
ENDBRANCH  17  18
ENDBRANCH  13  17
BRANCH  14  20
HETATM   20  O6  UNL     1     -21.605   1.960 -31.421  1.00  0.00    -0.390 OA
ATOM     21  H6  UNL     1     -21.712   1.821 -30.487  1.00  0.00     0.210 HD
ENDBRANCH  14  20
BRANCH  15  22
HETATM   22  O7  UNL     1     -19.733   2.251 -29.500  1.00  0.00    -0.390 OA
ATOM     23  H7  UNL     1     -18.957   2.212 -28.952  1.00  0.00     0.210 HD
ENDBRANCH  15  22
BRANCH  16  24
HETATM   24  O8  UNL     1     -18.557   4.832 -30.397  1.00  0.00    -0.388 OA
ATOM     25  H8  UNL     1     -17.820   4.255 -30.238  1.00  0.00     0.210 HD
ENDBRANCH  16  24
ENDBRANCH  10  11
ENDBRANCH   9  10
ENDBRANCH   2   9
BRANCH   1  26
HETATM   26  O2  UNL     1     -22.746   8.732 -30.823  1.00  0.00    -0.314 OA
BRANCH  26  27
HETATM   27  C6  UNL     1     -21.935   9.879 -30.900  1.00  0.00     0.259 C 
HETATM   28  O1  UNL     1     -21.905  10.579 -29.856  1.00  0.00    -0.265 OA
BRANCH  27  29
HETATM   29  C5  UNL     1     -21.178  10.230 -32.118  1.00  0.00     0.111 C 
BRANCH  29  30
HETATM   30  C4  UNL     1     -21.313  11.684 -32.488  1.00  0.00     0.010 C 
BRANCH  30  31
HETATM   31  C3  UNL     1     -20.005  12.351 -32.803  1.00  0.00     0.000 C 
BRANCH  31  32
HETATM   32  C2  UNL     1     -19.441  13.140 -31.668  1.00  0.00    -0.005 C 
HETATM   33  C1  UNL     1     -20.532  13.745 -30.808  1.00  0.00     0.005 C 
ENDBRANCH  31  32
ENDBRANCH  30  31
ENDBRANCH  29  30
ENDBRANCH  27  29
ENDBRANCH  26  27
ENDBRANCH   1  26
BRANCH   4  34
HETATM   34  O9  UNL     1     -23.843   3.842 -31.637  1.00  0.00    -0.380 OA
ATOM     35  H9  UNL     1     -23.325   3.442 -30.949  1.00  0.00     0.211 HD
ENDBRANCH   4  34
TORSDOF 15
ENDMDL
MODEL 2
REMARK VINA RESULT: -5.643472226      9.949     12.423
REMARK  15 active torsions:
REMARK  status: ('A' for Active; 'I' for Inactive)
REMARK    1  A    between atoms: C2_2  and  C3_3 
REMARK    2  A    between atoms: C3_3  and  C4_4 
REMARK    3  A    between atoms: C4_4  and  C5_5 
REMARK    4  A    between atoms: C5_5  and  C6_6 
REMARK    5  A    between atoms: C6_6  and  O2_8 
REMARK    6  A    between atoms: O2_8  and  C7_9 
REMARK    7  A    between atoms: C8_10  and  C9_11 
REMARK    8  A    between atoms: C9_11  and  O3_12 
REMARK    9  A    between atoms: O3_12  and  C10_13 
REMARK   10  A    between atoms: C11_15  and  C12_16 
REMARK   11  A    between atoms: C12_16  and  O5_17 
REMARK   12  A    between atoms: C13_19  and  O6_20 
REMARK   13  A    between atoms: C14_22  and  O7_23 
REMARK   14  A    between atoms: C15_25  and  O8_26 
REMARK   15  A    between atoms: C17_29  and  O9_31 
ROOT
HETATM    1  C7  UNL     1     -12.261  10.578 -26.466  1.00  0.00     0.151 C 
HETATM    2  C8  UNL     1     -12.769  10.607 -25.060  1.00  0.00     0.044 C 
HETATM    3  C16 UNL     1     -11.911  11.461 -24.148  1.00  0.00     0.058 C 
HETATM    4  C17 UNL     1     -10.707  10.682 -23.698  1.00  0.00     0.103 C 
HETATM    5  C18 UNL     1      -9.542  11.592 -23.381  1.00  0.00     0.058 C 
HETATM    6  S1  UNL     1     -10.293   9.438 -24.919  1.00  0.00    -0.125 SA
HETATM    7  C19 UNL     1     -10.849  10.027 -26.541  1.00  0.00     0.076 C 
HETATM    8  C20 UNL     1      -9.862  11.045 -27.062  1.00  0.00     0.024 C 
ENDROOT
BRANCH   2   9
HETATM    9  C9  UNL     1     -14.224  10.832 -24.910  1.00  0.00     0.178 C 
BRANCH   9  10
HETATM   10  O3  UNL     1     -15.005   9.769 -24.557  1.00  0.00    -0.358 OA
BRANCH  10  11
HETATM   11  C10 UNL     1     -14.519   9.073 -23.457  1.00  0.00     0.291 C 
HETATM   12  O4  UNL     1     -15.255   9.462 -22.343  1.00  0.00    -0.348 OA
HETATM   13  C11 UNL     1     -14.668   9.142 -21.133  1.00  0.00     0.179 C 
HETATM   14  C13 UNL     1     -14.000   7.819 -21.183  1.00  0.00     0.180 C 
HETATM   15  C14 UNL     1     -14.556   6.889 -22.258  1.00  0.00     0.183 C 
HETATM   16  C15 UNL     1     -14.512   7.572 -23.618  1.00  0.00     0.204 C 
BRANCH  13  17
HETATM   17  C12 UNL     1     -13.804  10.258 -20.600  1.00  0.00     0.198 C 
BRANCH  17  18
HETATM   18  O5  UNL     1     -14.115  11.490 -21.111  1.00  0.00    -0.398 OA
ATOM     19  H5  UNL     1     -13.408  12.122 -21.044  1.00  0.00     0.209 HD
ENDBRANCH  17  18
ENDBRANCH  13  17
BRANCH  14  20
HETATM   20  O6  UNL     1     -12.611   7.897 -21.316  1.00  0.00    -0.390 OA
ATOM     21  H6  UNL     1     -12.147   7.177 -20.905  1.00  0.00     0.210 HD
ENDBRANCH  14  20
BRANCH  15  22
HETATM   22  O7  UNL     1     -13.824   5.718 -22.345  1.00  0.00    -0.390 OA
ATOM     23  H7  UNL     1     -14.370   4.983 -22.599  1.00  0.00     0.210 HD
ENDBRANCH  15  22
BRANCH  16  24
HETATM   24  O8  UNL     1     -15.548   7.066 -24.360  1.00  0.00    -0.388 OA
ATOM     25  H8  UNL     1     -15.524   6.125 -24.490  1.00  0.00     0.210 HD
ENDBRANCH  16  24
ENDBRANCH  10  11
ENDBRANCH   9  10
ENDBRANCH   2   9
BRANCH   1  26
HETATM   26  O2  UNL     1     -12.223  11.837 -27.107  1.00  0.00    -0.314 OA
BRANCH  26  27
HETATM   27  C6  UNL     1     -12.966  12.084 -28.276  1.00  0.00     0.259 C 
HETATM   28  O1  UNL     1     -12.291  12.477 -29.260  1.00  0.00    -0.265 OA
BRANCH  27  29
HETATM   29  C5  UNL     1     -14.430  11.894 -28.336  1.00  0.00     0.111 C 
BRANCH  29  30
HETATM   30  C4  UNL     1     -15.190  13.185 -28.185  1.00  0.00     0.010 C 
BRANCH  30  31
HETATM   31  C3  UNL     1     -16.083  13.499 -29.351  1.00  0.00     0.000 C 
BRANCH  31  32
HETATM   32  C2  UNL     1     -16.986  14.666 -29.122  1.00  0.00    -0.005 C 
HETATM   33  C1  UNL     1     -16.503  15.535 -27.980  1.00  0.00     0.005 C 
ENDBRANCH  31  32
ENDBRANCH  30  31
ENDBRANCH  29  30
ENDBRANCH  27  29
ENDBRANCH  26  27
ENDBRANCH   1  26
BRANCH   4  34
HETATM   34  O9  UNL     1     -11.067   9.995 -22.519  1.00  0.00    -0.380 OA
ATOM     35  H9  UNL     1     -10.292   9.542 -22.206  1.00  0.00     0.211 HD
ENDBRANCH   4  34
TORSDOF 15
ENDMDL
MODEL 3
REMARK VINA RESULT: -5.508738394      3.228      5.743
REMARK  15 active torsions:
REMARK  status: ('A' for Active; 'I' for Inactive)
REMARK    1  A    between atoms: C2_2  and  C3_3 
REMARK    2  A    between atoms: C3_3  and  C4_4 
REMARK    3  A    between atoms: C4_4  and  C5_5 
REMARK    4  A    between atoms: C5_5  and  C6_6 
REMARK    5  A    between atoms: C6_6  and  O2_8 
REMARK    6  A    between atoms: O2_8  and  C7_9 
REMARK    7  A    between atoms: C8_10  and  C9_11 
REMARK    8  A    between atoms: C9_11  and  O3_12 
REMARK    9  A    between atoms: O3_12  and  C10_13 
REMARK   10  A    between atoms: C11_15  and  C12_16 
REMARK   11  A    between atoms: C12_16  and  O5_17 
REMARK   12  A    between atoms: C13_19  and  O6_20 
REMARK   13  A    between atoms: C14_22  and  O7_23 
REMARK   14  A    between atoms: C15_25  and  O8_26 
REMARK   15  A    between atoms: C17_29  and  O9_31 
ROOT
HETATM    1  C7  UNL     1     -22.889   7.710 -31.349  1.00  0.00     0.151 C 
HETATM    2  C8  UNL     1     -23.136   6.836 -30.161  1.00  0.00     0.044 C 
HETATM    3  C16 UNL     1     -22.015   5.844 -29.925  1.00  0.00     0.058 C 
HETATM    4  C17 UNL     1     -22.179   4.658 -30.833  1.00  0.00     0.103 C 
HETATM    5  C18 UNL     1     -20.851   4.004 -31.139  1.00  0.00     0.058 C 
HETATM    6  S1  UNL     1     -23.064   5.141 -32.314  1.00  0.00    -0.125 SA
HETATM    7  C19 UNL     1     -22.741   6.897 -32.622  1.00  0.00     0.076 C 
HETATM    8  C20 UNL     1     -21.371   7.046 -33.241  1.00  0.00     0.024 C 
ENDROOT
BRANCH   2   9
HETATM    9  C9  UNL     1     -23.598   7.533 -28.939  1.00  0.00     0.178 C 
BRANCH   9  10
HETATM   10  O3  UNL     1     -24.817   7.192 -28.427  1.00  0.00    -0.358 OA
BRANCH  10  11
HETATM   11  C10 UNL     1     -24.734   6.515 -27.218  1.00  0.00     0.291 C 
HETATM   12  O4  UNL     1     -25.846   6.859 -26.456  1.00  0.00    -0.348 OA
HETATM   13  C11 UNL     1     -25.729   6.561 -25.110  1.00  0.00     0.179 C 
HETATM   14  C13 UNL     1     -25.024   5.275 -24.895  1.00  0.00     0.180 C 
HETATM   15  C14 UNL     1     -25.099   4.324 -26.087  1.00  0.00     0.183 C 
HETATM   16  C15 UNL     1     -24.594   5.017 -27.345  1.00  0.00     0.204 C 
BRANCH  13  17
HETATM   17  C12 UNL     1     -25.177   7.716 -24.313  1.00  0.00     0.198 C 
BRANCH  17  18
HETATM   18  O5  UNL     1     -23.920   8.103 -24.695  1.00  0.00    -0.398 OA
ATOM     19  H5  UNL     1     -23.225   7.718 -24.173  1.00  0.00     0.209 HD
ENDBRANCH  17  18
ENDBRANCH  13  17
BRANCH  14  20
HETATM   20  O6  UNL     1     -23.688   5.425 -24.511  1.00  0.00    -0.390 OA
ATOM     21  H6  UNL     1     -23.110   4.766 -24.877  1.00  0.00     0.210 HD
ENDBRANCH  14  20
BRANCH  15  22
HETATM   22  O7  UNL     1     -24.328   3.193 -25.885  1.00  0.00    -0.390 OA
ATOM     23  H7  UNL     1     -23.451   3.300 -26.235  1.00  0.00     0.210 HD
ENDBRANCH  15  22
BRANCH  16  24
HETATM   24  O8  UNL     1     -25.258   4.464 -28.409  1.00  0.00    -0.388 OA
ATOM     25  H8  UNL     1     -26.174   4.706 -28.478  1.00  0.00     0.210 HD
ENDBRANCH  16  24
ENDBRANCH  10  11
ENDBRANCH   9  10
ENDBRANCH   2   9
BRANCH   1  26
HETATM   26  O2  UNL     1     -21.731   8.514 -31.261  1.00  0.00    -0.314 OA
BRANCH  26  27
HETATM   27  C6  UNL     1     -21.813   9.918 -31.274  1.00  0.00     0.259 C 
HETATM   28  O1  UNL     1     -21.962  10.452 -30.146  1.00  0.00    -0.265 OA
BRANCH  27  29
HETATM   29  C5  UNL     1     -21.730  10.702 -32.523  1.00  0.00     0.111 C 
BRANCH  29  30
HETATM   30  C4  UNL     1     -20.519  11.599 -32.568  1.00  0.00     0.010 C 
BRANCH  30  31
HETATM   31  C3  UNL     1     -20.850  13.061 -32.491  1.00  0.00     0.000 C 
BRANCH  31  32
HETATM   32  C2  UNL     1     -20.570  13.674 -31.159  1.00  0.00    -0.005 C 
HETATM   33  C1  UNL     1     -19.372  13.035 -30.487  1.00  0.00     0.005 C 
ENDBRANCH  31  32
ENDBRANCH  30  31
ENDBRANCH  29  30
ENDBRANCH  27  29
ENDBRANCH  26  27
ENDBRANCH   1  26
BRANCH   4  34
HETATM   34  O9  UNL     1     -22.991   3.720 -30.158  1.00  0.00    -0.380 OA
ATOM     35  H9  UNL     1     -23.173   3.014 -30.766  1.00  0.00     0.211 HD
ENDBRANCH   4  34
TORSDOF 15
ENDMDL
MODEL 4
REMARK VINA RESULT: -5.485797834      9.679     11.784
REMARK  15 active torsions:
REMARK  status: ('A' for Active; 'I' for Inactive)
REMARK    1  A    between atoms: C2_2  and  C3_3 
REMARK    2  A    between atoms: C3_3  and  C4_4 
REMARK    3  A    between atoms: C4_4  and  C5_5 
REMARK    4  A    between atoms: C5_5  and  C6_6 
REMARK    5  A    between atoms: C6_6  and  O2_8 
REMARK    6  A    between atoms: O2_8  and  C7_9 
REMARK    7  A    between atoms: C8_10  and  C9_11 
REMARK    8  A    between atoms: C9_11  and  O3_12 
REMARK    9  A    between atoms: O3_12  and  C10_13 
REMARK   10  A    between atoms: C11_15  and  C12_16 
REMARK   11  A    between atoms: C12_16  and  O5_17 
REMARK   12  A    between atoms: C13_19  and  O6_20 
REMARK   13  A    between atoms: C14_22  and  O7_23 
REMARK   14  A    between atoms: C15_25  and  O8_26 
REMARK   15  A    between atoms: C17_29  and  O9_31 
ROOT
HETATM    1  C7  UNL     1     -12.239  10.545 -26.474  1.00  0.00     0.151 C 
HETATM    2  C8  UNL     1     -12.800  10.450 -25.090  1.00  0.00     0.044 C 
HETATM    3  C16 UNL     1     -12.061  11.329 -24.101  1.00  0.00     0.058 C 
HETATM    4  C17 UNL     1     -10.806  10.643 -23.641  1.00  0.00     0.103 C 
HETATM    5  C18 UNL     1      -9.746  11.640 -23.229  1.00  0.00     0.058 C 
HETATM    6  S1  UNL     1     -10.230   9.513 -24.905  1.00  0.00    -0.125 SA
HETATM    7  C19 UNL     1     -10.779  10.134 -26.517  1.00  0.00     0.076 C 
HETATM    8  C20 UNL     1      -9.876  11.268 -26.944  1.00  0.00     0.024 C 
ENDROOT
BRANCH   2   9
HETATM    9  C9  UNL     1     -14.274  10.529 -24.991  1.00  0.00     0.178 C 
BRANCH   9  10
HETATM   10  O3  UNL     1     -14.868  10.049 -23.858  1.00  0.00    -0.358 OA
BRANCH  10  11
HETATM   11  C10 UNL     1     -14.850   8.663 -23.774  1.00  0.00     0.291 C 
HETATM   12  O4  UNL     1     -13.884   8.302 -22.840  1.00  0.00    -0.348 OA
HETATM   13  C11 UNL     1     -13.496   6.976 -22.906  1.00  0.00     0.179 C 
HETATM   14  C13 UNL     1     -14.642   6.085 -23.203  1.00  0.00     0.180 C 
HETATM   15  C14 UNL     1     -15.996   6.671 -22.811  1.00  0.00     0.183 C 
HETATM   16  C15 UNL     1     -16.186   8.036 -23.459  1.00  0.00     0.204 C 
BRANCH  13  17
HETATM   17  C12 UNL     1     -12.299   6.773 -23.801  1.00  0.00     0.198 C 
BRANCH  17  18
HETATM   18  O5  UNL     1     -11.880   5.471 -23.879  1.00  0.00    -0.398 OA
ATOM     19  H5  UNL     1     -12.070   5.056 -24.713  1.00  0.00     0.209 HD
ENDBRANCH  17  18
ENDBRANCH  13  17
BRANCH  14  20
HETATM   20  O6  UNL     1     -14.694   5.662 -24.534  1.00  0.00    -0.390 OA
ATOM     21  H6  UNL     1     -15.324   6.139 -25.062  1.00  0.00     0.210 HD
ENDBRANCH  14  20
BRANCH  15  22
HETATM   22  O7  UNL     1     -17.039   5.858 -23.216  1.00  0.00    -0.390 OA
ATOM     23  H7  UNL     1     -17.881   6.216 -22.960  1.00  0.00     0.210 HD
ENDBRANCH  15  22
BRANCH  16  24
HETATM   24  O8  UNL     1     -16.988   8.773 -22.626  1.00  0.00    -0.388 OA
ATOM     25  H8  UNL     1     -17.917   8.587 -22.698  1.00  0.00     0.210 HD
ENDBRANCH  16  24
ENDBRANCH  10  11
ENDBRANCH   9  10
ENDBRANCH   2   9
BRANCH   1  26
HETATM   26  O2  UNL     1     -12.299  11.835 -27.047  1.00  0.00    -0.314 OA
BRANCH  26  27
HETATM   27  C6  UNL     1     -12.994  12.069 -28.248  1.00  0.00     0.259 C 
HETATM   28  O1  UNL     1     -12.277  12.431 -29.215  1.00  0.00    -0.265 OA
BRANCH  27  29
HETATM   29  C5  UNL     1     -14.458  11.901 -28.358  1.00  0.00     0.111 C 
BRANCH  29  30
HETATM   30  C4  UNL     1     -15.207  13.196 -28.177  1.00  0.00     0.010 C 
BRANCH  30  31
HETATM   31  C3  UNL     1     -16.102  13.541 -29.332  1.00  0.00     0.000 C 
BRANCH  31  32
HETATM   32  C2  UNL     1     -17.001  14.704 -29.073  1.00  0.00    -0.005 C 
HETATM   33  C1  UNL     1     -16.480  15.577 -27.949  1.00  0.00     0.005 C 
ENDBRANCH  31  32
ENDBRANCH  30  31
ENDBRANCH  29  30
ENDBRANCH  27  29
ENDBRANCH  26  27
ENDBRANCH   1  26
BRANCH   4  34
HETATM   34  O9  UNL     1     -11.141   9.862 -22.515  1.00  0.00    -0.380 OA
ATOM     35  H9  UNL     1     -10.578  10.136 -21.801  1.00  0.00     0.211 HD
ENDBRANCH   4  34
TORSDOF 15
ENDMDL
MODEL 5
REMARK VINA RESULT: -5.361955817      1.973      3.197
REMARK  15 active torsions:
REMARK  status: ('A' for Active; 'I' for Inactive)
REMARK    1  A    between atoms: C2_2  and  C3_3 
REMARK    2  A    between atoms: C3_3  and  C4_4 
REMARK    3  A    between atoms: C4_4  and  C5_5 
REMARK    4  A    between atoms: C5_5  and  C6_6 
REMARK    5  A    between atoms: C6_6  and  O2_8 
REMARK    6  A    between atoms: O2_8  and  C7_9 
REMARK    7  A    between atoms: C8_10  and  C9_11 
REMARK    8  A    between atoms: C9_11  and  O3_12 
REMARK    9  A    between atoms: O3_12  and  C10_13 
REMARK   10  A    between atoms: C11_15  and  C12_16 
REMARK   11  A    between atoms: C12_16  and  O5_17 
REMARK   12  A    between atoms: C13_19  and  O6_20 
REMARK   13  A    between atoms: C14_22  and  O7_23 
REMARK   14  A    between atoms: C15_25  and  O8_26 
REMARK   15  A    between atoms: C17_29  and  O9_31 
ROOT
HETATM    1  C7  UNL     1     -22.159   7.652 -30.734  1.00  0.00     0.151 C 
HETATM    2  C8  UNL     1     -22.282   6.856 -31.995  1.00  0.00     0.044 C 
HETATM    3  C16 UNL     1     -23.724   6.630 -32.401  1.00  0.00     0.058 C 
HETATM    4  C17 UNL     1     -24.304   5.485 -31.621  1.00  0.00     0.103 C 
HETATM    5  C18 UNL     1     -25.802   5.620 -31.466  1.00  0.00     0.058 C 
HETATM    6  S1  UNL     1     -23.462   5.330 -30.048  1.00  0.00    -0.125 SA
HETATM    7  C19 UNL     1     -22.847   6.966 -29.568  1.00  0.00     0.076 C 
HETATM    8  C20 UNL     1     -23.992   7.783 -29.017  1.00  0.00     0.024 C 
ENDROOT
BRANCH   2   9
HETATM    9  C9  UNL     1     -21.396   7.275 -33.104  1.00  0.00     0.178 C 
BRANCH   9  10
HETATM   10  O3  UNL     1     -21.784   6.984 -34.381  1.00  0.00    -0.358 OA
BRANCH  10  11
HETATM   11  C10 UNL     1     -21.099   5.908 -34.930  1.00  0.00     0.291 C 
HETATM   12  O4  UNL     1     -21.849   4.759 -34.700  1.00  0.00    -0.348 OA
HETATM   13  C11 UNL     1     -21.145   3.579 -34.859  1.00  0.00     0.179 C 
HETATM   14  C13 UNL     1     -20.197   3.657 -35.997  1.00  0.00     0.180 C 
HETATM   15  C14 UNL     1     -20.579   4.698 -37.046  1.00  0.00     0.183 C 
HETATM   16  C15 UNL     1     -20.759   6.062 -36.393  1.00  0.00     0.204 C 
BRANCH  13  17
HETATM   17  C12 UNL     1     -20.533   3.097 -33.568  1.00  0.00     0.198 C 
BRANCH  17  18
HETATM   18  O5  UNL     1     -21.256   3.430 -32.454  1.00  0.00    -0.398 OA
ATOM     19  H5  UNL     1     -20.723   3.588 -31.683  1.00  0.00     0.209 HD
ENDBRANCH  17  18
ENDBRANCH  13  17
BRANCH  14  20
HETATM   20  O6  UNL     1     -18.870   3.863 -35.607  1.00  0.00    -0.390 OA
ATOM     21  H6  UNL     1     -18.761   4.576 -34.990  1.00  0.00     0.210 HD
ENDBRANCH  14  20
BRANCH  15  22
HETATM   22  O7  UNL     1     -19.605   4.817 -38.021  1.00  0.00    -0.390 OA
ATOM     23  H7  UNL     1     -18.935   5.443 -37.771  1.00  0.00     0.210 HD
ENDBRANCH  15  22
BRANCH  16  24
HETATM   24  O8  UNL     1     -21.687   6.747 -37.133  1.00  0.00    -0.388 OA
ATOM     25  H8  UNL     1     -21.405   7.603 -37.435  1.00  0.00     0.210 HD
ENDBRANCH  16  24
ENDBRANCH  10  11
ENDBRANCH   9  10
ENDBRANCH   2   9
BRANCH   1  26
HETATM   26  O2  UNL     1     -22.707   8.953 -30.801  1.00  0.00    -0.314 OA
BRANCH  26  27
HETATM   27  C6  UNL     1     -21.882  10.091 -30.848  1.00  0.00     0.259 C 
HETATM   28  O1  UNL     1     -21.889  10.796 -29.808  1.00  0.00    -0.265 OA
BRANCH  27  29
HETATM   29  C5  UNL     1     -21.070  10.429 -32.035  1.00  0.00     0.111 C 
BRANCH  29  30
HETATM   30  C4  UNL     1     -21.203  11.874 -32.439  1.00  0.00     0.010 C 
BRANCH  30  31
HETATM   31  C3  UNL     1     -19.894  12.530 -32.773  1.00  0.00     0.000 C 
BRANCH  31  32
HETATM   32  C2  UNL     1     -19.285  13.278 -31.634  1.00  0.00    -0.005 C 
HETATM   33  C1  UNL     1     -20.340  13.868 -30.721  1.00  0.00     0.005 C 
ENDBRANCH  31  32
ENDBRANCH  30  31
ENDBRANCH  29  30
ENDBRANCH  27  29
ENDBRANCH  26  27
ENDBRANCH   1  26
BRANCH   4  34
HETATM   34  O9  UNL     1     -24.039   4.303 -32.346  1.00  0.00    -0.380 OA
ATOM     35  H9  UNL     1     -23.367   3.825 -31.874  1.00  0.00     0.211 HD
ENDBRANCH   4  34
TORSDOF 15
ENDMDL
