MODEL 1
REMARK VINA RESULT: -6.550444427      0.000      0.000
REMARK  14 active torsions:
REMARK  status: ('A' for Active; 'I' for Inactive)
REMARK    1  A    between atoms: C2_2  and  C3_3 
REMARK    2  A    between atoms: C3_3  and  C4_4 
REMARK    3  A    between atoms: C4_4  and  C5_5 
REMARK    4  A    between atoms: C5_5  and  C6_6 
REMARK    5  A    between atoms: C6_6  and  O1_7 
REMARK    6  A    between atoms: C6_6  and  C7_9 
REMARK    7  A    between atoms: C8_11  and  O2_12 
REMARK    8  A    between atoms: C10_14  and  O3_15 
REMARK    9  A    between atoms: C13_19  and  O4_20 
REMARK   10  A    between atoms: O4_20  and  C14_21 
REMARK   11  A    between atoms: C16_24  and  C17_25 
REMARK   12  A    between atoms: C17_25  and  O6_26 
REMARK   13  A    between atoms: C18_28  and  O7_29 
REMARK   14  A    between atoms: C19_31  and  O8_32 
ROOT
HETATM    1  C7  UNL     1     -17.618  14.746 -30.228  1.00  0.00     0.111 C 
HETATM    2  S1  UNL     1     -18.919  15.451 -29.139  1.00  0.00    -0.124 SA
HETATM    3  C8  UNL     1     -17.810  16.091 -27.863  1.00  0.00     0.219 C 
HETATM    4  C10 UNL     1     -16.440  15.740 -28.338  1.00  0.00     0.120 C 
HETATM    5  C11 UNL     1     -15.619  15.383 -27.115  1.00  0.00     0.049 C 
HETATM    6  C12 UNL     1     -14.582  14.377 -27.560  1.00  0.00     0.064 C 
HETATM    7  C13 UNL     1     -15.273  13.092 -28.018  1.00  0.00     0.261 C 
HETATM    8  O9  UNL     1     -16.463  13.352 -28.645  1.00  0.00    -0.352 OA
HETATM    9  C20 UNL     1     -16.482  14.600 -29.279  1.00  0.00     0.178 C 
ENDROOT
BRANCH   7  10
HETATM   10  O4  UNL     1     -14.356  12.396 -28.776  1.00  0.00    -0.351 OA
BRANCH  10  11
HETATM   11  C14 UNL     1     -13.738  11.394 -28.027  1.00  0.00     0.179 C 
HETATM   12  C15 UNL     1     -14.725  10.743 -27.111  1.00  0.00     0.203 C 
HETATM   13  O5  UNL     1     -14.185  10.165 -25.994  1.00  0.00    -0.378 OA
HETATM   14  C16 UNL     1     -12.813   9.907 -26.148  1.00  0.00     0.176 C 
HETATM   15  C18 UNL     1     -12.148  11.271 -26.084  1.00  0.00     0.180 C 
HETATM   16  C19 UNL     1     -12.570  12.019 -27.320  1.00  0.00     0.180 C 
BRANCH  14  17
HETATM   17  C17 UNL     1     -12.334   9.061 -24.991  1.00  0.00     0.198 C 
BRANCH  17  18
HETATM   18  O6  UNL     1     -13.145   9.234 -23.885  1.00  0.00    -0.398 OA
ATOM     19  H6  UNL     1     -12.756   9.847 -23.273  1.00  0.00     0.209 HD
ENDBRANCH  17  18
ENDBRANCH  14  17
BRANCH  15  20
HETATM   20  O7  UNL     1     -12.647  11.935 -24.963  1.00  0.00    -0.390 OA
ATOM     21  H7  UNL     1     -12.631  12.866 -25.147  1.00  0.00     0.210 HD
ENDBRANCH  15  20
BRANCH  16  22
HETATM   22  O8  UNL     1     -11.477  11.949 -28.217  1.00  0.00    -0.390 OA
ATOM     23  H8  UNL     1     -10.996  11.161 -27.991  1.00  0.00     0.210 HD
ENDBRANCH  16  22
ENDBRANCH  10  11
ENDBRANCH   7  10
BRANCH   4  24
HETATM   24  O3  UNL     1     -15.810  16.842 -28.930  1.00  0.00    -0.384 OA
ATOM     25  H3  UNL     1     -15.820  17.596 -28.352  1.00  0.00     0.210 HD
ENDBRANCH   4  24
BRANCH   1  26
HETATM   26  C6  UNL     1     -18.153  13.423 -30.748  1.00  0.00     0.134 C 
BRANCH  26  27
HETATM   27  C5  UNL     1     -18.937  13.691 -31.982  1.00  0.00     0.033 C 
BRANCH  27  28
HETATM   28  C4  UNL     1     -20.330  13.190 -32.017  1.00  0.00     0.002 C 
BRANCH  28  29
HETATM   29  C3  UNL     1     -20.571  11.888 -32.684  1.00  0.00    -0.000 C 
BRANCH  29  30
HETATM   30  C2  UNL     1     -20.988  10.770 -31.763  1.00  0.00    -0.005 C 
HETATM   31  C1  UNL     1     -21.751   9.689 -32.540  1.00  0.00     0.005 C 
ENDBRANCH  29  30
ENDBRANCH  28  29
ENDBRANCH  27  28
ENDBRANCH  26  27
BRANCH  26  32
HETATM   32  O1  UNL     1     -18.968  12.900 -29.759  1.00  0.00    -0.394 OA
ATOM     33  H1  UNL     1     -19.104  13.538 -29.068  1.00  0.00     0.210 HD
ENDBRANCH  26  32
ENDBRANCH   1  26
BRANCH   3  34
HETATM   34  O2  UNL     1     -17.938  17.481 -27.863  1.00  0.00    -0.377 OA
HETATM   35  C9  UNL     1     -19.194  17.880 -28.345  1.00  0.00     0.203 C 
ENDBRANCH   3  34
TORSDOF 14
ENDMDL
MODEL 2
REMARK VINA RESULT: -5.790923672      3.317      6.866
REMARK  14 active torsions:
REMARK  status: ('A' for Active; 'I' for Inactive)
REMARK    1  A    between atoms: C2_2  and  C3_3 
REMARK    2  A    between atoms: C3_3  and  C4_4 
REMARK    3  A    between atoms: C4_4  and  C5_5 
REMARK    4  A    between atoms: C5_5  and  C6_6 
REMARK    5  A    between atoms: C6_6  and  O1_7 
REMARK    6  A    between atoms: C6_6  and  C7_9 
REMARK    7  A    between atoms: C8_11  and  O2_12 
REMARK    8  A    between atoms: C10_14  and  O3_15 
REMARK    9  A    between atoms: C13_19  and  O4_20 
REMARK   10  A    between atoms: O4_20  and  C14_21 
REMARK   11  A    between atoms: C16_24  and  C17_25 
REMARK   12  A    between atoms: C17_25  and  O6_26 
REMARK   13  A    between atoms: C18_28  and  O7_29 
REMARK   14  A    between atoms: C19_31  and  O8_32 
ROOT
HETATM    1  C7  UNL     1     -13.441  11.263 -27.420  1.00  0.00     0.111 C 
HETATM    2  S1  UNL     1     -11.930  12.187 -27.907  1.00  0.00    -0.124 SA
HETATM    3  C8  UNL     1     -10.786  11.333 -26.797  1.00  0.00     0.219 C 
HETATM    4  C10 UNL     1     -11.628  10.331 -26.080  1.00  0.00     0.120 C 
HETATM    5  C11 UNL     1     -11.110  10.245 -24.658  1.00  0.00     0.049 C 
HETATM    6  C12 UNL     1     -12.287   9.879 -23.783  1.00  0.00     0.064 C 
HETATM    7  C13 UNL     1     -13.320  11.007 -23.809  1.00  0.00     0.261 C 
HETATM    8  O9  UNL     1     -13.387  11.604 -25.040  1.00  0.00    -0.352 OA
HETATM    9  C20 UNL     1     -13.051  10.736 -26.085  1.00  0.00     0.178 C 
ENDROOT
BRANCH   7  10
HETATM   10  O4  UNL     1     -14.505  10.469 -23.357  1.00  0.00    -0.351 OA
BRANCH  10  11
HETATM   11  C14 UNL     1     -14.387   9.096 -23.137  1.00  0.00     0.179 C 
HETATM   12  C15 UNL     1     -14.991   8.332 -24.272  1.00  0.00     0.203 C 
HETATM   13  O5  UNL     1     -15.421   7.071 -23.958  1.00  0.00    -0.378 OA
HETATM   14  C16 UNL     1     -14.819   6.589 -22.784  1.00  0.00     0.176 C 
HETATM   15  C18 UNL     1     -15.469   7.375 -21.659  1.00  0.00     0.180 C 
HETATM   16  C19 UNL     1     -15.010   8.801 -21.803  1.00  0.00     0.180 C 
BRANCH  14  17
HETATM   17  C17 UNL     1     -15.146   5.122 -22.625  1.00  0.00     0.198 C 
BRANCH  17  18
HETATM   18  O6  UNL     1     -16.284   4.792 -23.336  1.00  0.00    -0.398 OA
ATOM     19  H6  UNL     1     -16.169   3.969 -23.797  1.00  0.00     0.209 HD
ENDBRANCH  17  18
ENDBRANCH  14  17
BRANCH  15  20
HETATM   20  O7  UNL     1     -16.851   7.324 -21.848  1.00  0.00    -0.390 OA
ATOM     21  H7  UNL     1     -17.262   7.670 -21.066  1.00  0.00     0.210 HD
ENDBRANCH  15  20
BRANCH  16  22
HETATM   22  O8  UNL     1     -13.994   8.990 -20.838  1.00  0.00    -0.390 OA
ATOM     23  H8  UNL     1     -14.349   8.682 -20.012  1.00  0.00     0.210 HD
ENDBRANCH  16  22
ENDBRANCH  10  11
ENDBRANCH   7  10
BRANCH   4  24
HETATM   24  O3  UNL     1     -11.480   9.054 -26.635  1.00  0.00    -0.384 OA
ATOM     25  H3  UNL     1     -11.382   9.097 -27.579  1.00  0.00     0.210 HD
ENDBRANCH   4  24
BRANCH   1  26
HETATM   26  C6  UNL     1     -14.574  12.273 -27.370  1.00  0.00     0.134 C 
BRANCH  26  27
HETATM   27  C5  UNL     1     -15.225  12.308 -28.706  1.00  0.00     0.033 C 
BRANCH  27  28
HETATM   28  C4  UNL     1     -15.614  13.638 -29.230  1.00  0.00     0.002 C 
BRANCH  28  29
HETATM   29  C3  UNL     1     -17.026  13.825 -29.641  1.00  0.00    -0.000 C 
BRANCH  29  30
HETATM   30  C2  UNL     1     -17.687  15.066 -29.099  1.00  0.00    -0.005 C 
HETATM   31  C1  UNL     1     -16.777  15.756 -28.074  1.00  0.00     0.005 C 
ENDBRANCH  29  30
ENDBRANCH  28  29
ENDBRANCH  27  28
ENDBRANCH  26  27
BRANCH  26  32
HETATM   32  O1  UNL     1     -14.008  13.500 -27.072  1.00  0.00    -0.394 OA
ATOM     33  H1  UNL     1     -13.078  13.494 -27.264  1.00  0.00     0.210 HD
ENDBRANCH  26  32
ENDBRANCH   1  26
BRANCH   3  34
HETATM   34  O2  UNL     1      -9.867  10.651 -27.597  1.00  0.00    -0.377 OA
HETATM   35  C9  UNL     1      -8.547  10.987 -27.261  1.00  0.00     0.203 C 
ENDBRANCH   3  34
TORSDOF 14
ENDMDL
MODEL 3
REMARK VINA RESULT: -5.693503328      6.262     10.269
REMARK  14 active torsions:
REMARK  status: ('A' for Active; 'I' for Inactive)
REMARK    1  A    between atoms: C2_2  and  C3_3 
REMARK    2  A    between atoms: C3_3  and  C4_4 
REMARK    3  A    between atoms: C4_4  and  C5_5 
REMARK    4  A    between atoms: C5_5  and  C6_6 
REMARK    5  A    between atoms: C6_6  and  O1_7 
REMARK    6  A    between atoms: C6_6  and  C7_9 
REMARK    7  A    between atoms: C8_11  and  O2_12 
REMARK    8  A    between atoms: C10_14  and  O3_15 
REMARK    9  A    between atoms: C13_19  and  O4_20 
REMARK   10  A    between atoms: O4_20  and  C14_21 
REMARK   11  A    between atoms: C16_24  and  C17_25 
REMARK   12  A    between atoms: C17_25  and  O6_26 
REMARK   13  A    between atoms: C18_28  and  O7_29 
REMARK   14  A    between atoms: C19_31  and  O8_32 
ROOT
HETATM    1  C7  UNL     1     -22.928   6.278 -32.359  1.00  0.00     0.111 C 
HETATM    2  S1  UNL     1     -22.385   4.691 -31.610  1.00  0.00    -0.124 SA
HETATM    3  C8  UNL     1     -23.230   4.898 -30.026  1.00  0.00     0.219 C 
HETATM    4  C10 UNL     1     -23.930   6.211 -30.136  1.00  0.00     0.120 C 
HETATM    5  C11 UNL     1     -23.867   6.869 -28.771  1.00  0.00     0.049 C 
HETATM    6  C12 UNL     1     -23.864   8.363 -29.004  1.00  0.00     0.064 C 
HETATM    7  C13 UNL     1     -22.590   8.767 -29.749  1.00  0.00     0.261 C 
HETATM    8  O9  UNL     1     -22.206   7.812 -30.651  1.00  0.00    -0.352 OA
HETATM    9  C20 UNL     1     -23.284   7.071 -31.151  1.00  0.00     0.178 C 
ENDROOT
BRANCH   7  10
HETATM   10  O4  UNL     1     -22.823  10.015 -30.285  1.00  0.00    -0.351 OA
BRANCH  10  11
HETATM   11  C14 UNL     1     -21.633  10.723 -30.453  1.00  0.00     0.179 C 
HETATM   12  C15 UNL     1     -21.700  12.035 -29.739  1.00  0.00     0.203 C 
HETATM   13  O5  UNL     1     -20.883  13.011 -30.242  1.00  0.00    -0.378 OA
HETATM   14  C16 UNL     1     -19.842  12.476 -31.017  1.00  0.00     0.176 C 
HETATM   15  C18 UNL     1     -20.509  12.007 -32.299  1.00  0.00     0.180 C 
HETATM   16  C19 UNL     1     -21.391  10.845 -31.930  1.00  0.00     0.180 C 
BRANCH  14  17
HETATM   17  C17 UNL     1     -18.849  13.569 -31.339  1.00  0.00     0.198 C 
BRANCH  17  18
HETATM   18  O6  UNL     1     -19.457  14.810 -31.309  1.00  0.00    -0.398 OA
ATOM     19  H6  UNL     1     -19.095  15.347 -30.614  1.00  0.00     0.209 HD
ENDBRANCH  17  18
ENDBRANCH  14  17
BRANCH  15  20
HETATM   20  O7  UNL     1     -21.309  13.051 -32.766  1.00  0.00    -0.390 OA
ATOM     21  H7  UNL     1     -21.518  12.870 -33.675  1.00  0.00     0.210 HD
ENDBRANCH  15  20
BRANCH  16  22
HETATM   22  O8  UNL     1     -20.690   9.679 -32.317  1.00  0.00    -0.390 OA
ATOM     23  H8  UNL     1     -19.832   9.966 -32.608  1.00  0.00     0.210 HD
ENDBRANCH  16  22
ENDBRANCH  10  11
ENDBRANCH   7  10
BRANCH   4  24
HETATM   24  O3  UNL     1     -25.289   6.039 -30.431  1.00  0.00    -0.384 OA
ATOM     25  H3  UNL     1     -25.728   6.876 -30.528  1.00  0.00     0.210 HD
ENDBRANCH   4  24
BRANCH   1  26
HETATM   26  C6  UNL     1     -21.738   6.832 -33.122  1.00  0.00     0.134 C 
BRANCH  26  27
HETATM   27  C5  UNL     1     -21.700   6.181 -34.459  1.00  0.00     0.033 C 
BRANCH  27  28
HETATM   28  C4  UNL     1     -20.375   5.746 -34.957  1.00  0.00     0.002 C 
BRANCH  28  29
HETATM   29  C3  UNL     1     -20.129   5.836 -36.416  1.00  0.00    -0.000 C 
BRANCH  29  30
HETATM   30  C2  UNL     1     -21.213   6.531 -37.200  1.00  0.00    -0.005 C 
HETATM   31  C1  UNL     1     -20.629   7.696 -38.009  1.00  0.00     0.005 C 
ENDBRANCH  29  30
ENDBRANCH  28  29
ENDBRANCH  27  28
ENDBRANCH  26  27
BRANCH  26  32
HETATM   32  O1  UNL     1     -20.606   6.512 -32.393  1.00  0.00    -0.394 OA
ATOM     33  H1  UNL     1     -20.795   6.523 -31.462  1.00  0.00     0.210 HD
ENDBRANCH  26  32
ENDBRANCH   1  26
BRANCH   3  34
HETATM   34  O2  UNL     1     -24.191   3.889 -29.935  1.00  0.00    -0.377 OA
HETATM   35  C9  UNL     1     -23.958   3.057 -28.829  1.00  0.00     0.203 C 
ENDBRANCH   3  34
TORSDOF 14
ENDMDL
MODEL 4
REMARK VINA RESULT: -5.649807451      7.955     12.158
REMARK  14 active torsions:
REMARK  status: ('A' for Active; 'I' for Inactive)
REMARK    1  A    between atoms: C2_2  and  C3_3 
REMARK    2  A    between atoms: C3_3  and  C4_4 
REMARK    3  A    between atoms: C4_4  and  C5_5 
REMARK    4  A    between atoms: C5_5  and  C6_6 
REMARK    5  A    between atoms: C6_6  and  O1_7 
REMARK    6  A    between atoms: C6_6  and  C7_9 
REMARK    7  A    between atoms: C8_11  and  O2_12 
REMARK    8  A    between atoms: C10_14  and  O3_15 
REMARK    9  A    between atoms: C13_19  and  O4_20 
REMARK   10  A    between atoms: O4_20  and  C14_21 
REMARK   11  A    between atoms: C16_24  and  C17_25 
REMARK   12  A    between atoms: C17_25  and  O6_26 
REMARK   13  A    between atoms: C18_28  and  O7_29 
REMARK   14  A    between atoms: C19_31  and  O8_32 
ROOT
HETATM    1  C7  UNL     1     -21.467   6.357 -31.182  1.00  0.00     0.111 C 
HETATM    2  S1  UNL     1     -22.178   5.684 -29.628  1.00  0.00    -0.124 SA
HETATM    3  C8  UNL     1     -21.034   4.295 -29.449  1.00  0.00     0.219 C 
HETATM    4  C10 UNL     1     -20.112   4.409 -30.617  1.00  0.00     0.120 C 
HETATM    5  C11 UNL     1     -19.789   3.000 -31.072  1.00  0.00     0.049 C 
HETATM    6  C12 UNL     1     -19.528   3.068 -32.560  1.00  0.00     0.064 C 
HETATM    7  C13 UNL     1     -20.806   3.487 -33.290  1.00  0.00     0.261 C 
HETATM    8  O9  UNL     1     -21.535   4.386 -32.559  1.00  0.00    -0.352 OA
HETATM    9  C20 UNL     1     -20.742   5.173 -31.716  1.00  0.00     0.178 C 
ENDROOT
BRANCH   7  10
HETATM   10  O4  UNL     1     -20.423   3.925 -34.539  1.00  0.00    -0.351 OA
BRANCH  10  11
HETATM   11  C14 UNL     1     -21.491   4.512 -35.218  1.00  0.00     0.179 C 
HETATM   12  C15 UNL     1     -22.070   3.555 -36.210  1.00  0.00     0.203 C 
HETATM   13  O5  UNL     1     -22.715   4.136 -37.268  1.00  0.00    -0.378 OA
HETATM   14  C16 UNL     1     -23.091   5.461 -36.990  1.00  0.00     0.176 C 
HETATM   15  C18 UNL     1     -21.792   6.248 -37.011  1.00  0.00     0.180 C 
HETATM   16  C19 UNL     1     -20.986   5.789 -35.826  1.00  0.00     0.180 C 
BRANCH  14  17
HETATM   17  C17 UNL     1     -23.999   5.961 -38.090  1.00  0.00     0.198 C 
BRANCH  17  18
HETATM   18  O6  UNL     1     -23.837   7.319 -38.282  1.00  0.00    -0.398 OA
ATOM     19  H6  UNL     1     -24.651   7.783 -38.122  1.00  0.00     0.209 HD
ENDBRANCH  17  18
ENDBRANCH  14  17
BRANCH  15  20
HETATM   20  O7  UNL     1     -21.109   5.910 -38.180  1.00  0.00    -0.390 OA
ATOM     21  H7  UNL     1     -21.298   6.578 -38.828  1.00  0.00     0.210 HD
ENDBRANCH  15  20
BRANCH  16  22
HETATM   22  O8  UNL     1     -21.134   6.789 -34.836  1.00  0.00    -0.390 OA
ATOM     23  H8  UNL     1     -22.045   6.765 -34.565  1.00  0.00     0.210 HD
ENDBRANCH  16  22
ENDBRANCH  10  11
ENDBRANCH   7  10
BRANCH   4  24
HETATM   24  O3  UNL     1     -18.894   4.995 -30.247  1.00  0.00    -0.384 OA
ATOM     25  H3  UNL     1     -18.288   4.345 -29.912  1.00  0.00     0.210 HD
ENDBRANCH   4  24
BRANCH   1  26
HETATM   26  C6  UNL     1     -22.636   6.796 -32.045  1.00  0.00     0.134 C 
BRANCH  26  27
HETATM   27  C5  UNL     1     -22.754   8.275 -31.952  1.00  0.00     0.033 C 
BRANCH  27  28
HETATM   28  C4  UNL     1     -21.507   9.060 -32.105  1.00  0.00     0.002 C 
BRANCH  28  29
HETATM   29  C3  UNL     1     -21.640  10.492 -32.464  1.00  0.00    -0.000 C 
BRANCH  29  30
HETATM   30  C2  UNL     1     -20.639  11.407 -31.806  1.00  0.00    -0.005 C 
HETATM   31  C1  UNL     1     -20.065  12.399 -32.826  1.00  0.00     0.005 C 
ENDBRANCH  29  30
ENDBRANCH  28  29
ENDBRANCH  27  28
ENDBRANCH  26  27
BRANCH  26  32
HETATM   32  O1  UNL     1     -23.768   6.185 -31.532  1.00  0.00    -0.394 OA
ATOM     33  H1  UNL     1     -23.861   5.308 -31.884  1.00  0.00     0.210 HD
ENDBRANCH  26  32
ENDBRANCH   1  26
BRANCH   3  34
HETATM   34  O2  UNL     1     -20.301   4.512 -28.281  1.00  0.00    -0.377 OA
HETATM   35  C9  UNL     1     -21.143   4.718 -27.178  1.00  0.00     0.203 C 
ENDBRANCH   3  34
TORSDOF 14
ENDMDL
MODEL 5
REMARK VINA RESULT: -5.597921986      7.489     11.107
REMARK  14 active torsions:
REMARK  status: ('A' for Active; 'I' for Inactive)
REMARK    1  A    between atoms: C2_2  and  C3_3 
REMARK    2  A    between atoms: C3_3  and  C4_4 
REMARK    3  A    between atoms: C4_4  and  C5_5 
REMARK    4  A    between atoms: C5_5  and  C6_6 
REMARK    5  A    between atoms: C6_6  and  O1_7 
REMARK    6  A    between atoms: C6_6  and  C7_9 
REMARK    7  A    between atoms: C8_11  and  O2_12 
REMARK    8  A    between atoms: C10_14  and  O3_15 
REMARK    9  A    between atoms: C13_19  and  O4_20 
REMARK   10  A    between atoms: O4_20  and  C14_21 
REMARK   11  A    between atoms: C16_24  and  C17_25 
REMARK   12  A    between atoms: C17_25  and  O6_26 
REMARK   13  A    between atoms: C18_28  and  O7_29 
REMARK   14  A    between atoms: C19_31  and  O8_32 
ROOT
HETATM    1  C7  UNL     1     -22.170   7.767 -30.981  1.00  0.00     0.111 C 
HETATM    2  S1  UNL     1     -23.926   7.729 -30.441  1.00  0.00    -0.124 SA
HETATM    3  C8  UNL     1     -23.839   6.169 -29.530  1.00  0.00     0.219 C 
HETATM    4  C10 UNL     1     -22.421   5.727 -29.667  1.00  0.00     0.120 C 
HETATM    5  C11 UNL     1     -22.432   4.216 -29.789  1.00  0.00     0.049 C 
HETATM    6  C12 UNL     1     -21.233   3.833 -30.626  1.00  0.00     0.064 C 
HETATM    7  C13 UNL     1     -21.392   4.392 -32.041  1.00  0.00     0.261 C 
HETATM    8  O9  UNL     1     -22.014   5.611 -32.038  1.00  0.00    -0.352 OA
HETATM    9  C20 UNL     1     -21.790   6.333 -30.860  1.00  0.00     0.178 C 
ENDROOT
BRANCH   7  10
HETATM   10  O4  UNL     1     -20.139   4.379 -32.616  1.00  0.00    -0.351 OA
BRANCH  10  11
HETATM   11  C14 UNL     1     -20.215   4.147 -33.989  1.00  0.00     0.179 C 
HETATM   12  C15 UNL     1     -19.343   2.994 -34.374  1.00  0.00     0.203 C 
HETATM   13  O5  UNL     1     -18.910   3.003 -35.672  1.00  0.00    -0.378 OA
HETATM   14  C16 UNL     1     -19.710   3.819 -36.487  1.00  0.00     0.176 C 
HETATM   15  C18 UNL     1     -19.358   5.241 -36.084  1.00  0.00     0.180 C 
HETATM   16  C19 UNL     1     -19.864   5.434 -34.680  1.00  0.00     0.180 C 
BRANCH  14  17
HETATM   17  C17 UNL     1     -19.333   3.600 -37.934  1.00  0.00     0.198 C 
BRANCH  17  18
HETATM   18  O6  UNL     1     -17.998   3.262 -38.048  1.00  0.00    -0.398 OA
ATOM     19  H6  UNL     1     -17.634   3.592 -38.862  1.00  0.00     0.209 HD
ENDBRANCH  17  18
ENDBRANCH  14  17
BRANCH  15  20
HETATM   20  O7  UNL     1     -17.966   5.348 -36.081  1.00  0.00    -0.390 OA
ATOM     21  H7  UNL     1     -17.688   5.472 -35.182  1.00  0.00     0.210 HD
ENDBRANCH  15  20
BRANCH  16  22
HETATM   22  O8  UNL     1     -21.068   6.168 -34.791  1.00  0.00    -0.390 OA
ATOM     23  H8  UNL     1     -20.902   7.016 -34.395  1.00  0.00     0.210 HD
ENDBRANCH  16  22
ENDBRANCH  10  11
ENDBRANCH   7  10
BRANCH   4  24
HETATM   24  O3  UNL     1     -21.682   6.026 -28.516  1.00  0.00    -0.384 OA
ATOM     25  H3  UNL     1     -21.121   6.781 -28.653  1.00  0.00     0.210 HD
ENDBRANCH   4  24
BRANCH   1  26
HETATM   26  C6  UNL     1     -22.163   8.280 -32.410  1.00  0.00     0.134 C 
BRANCH  26  27
HETATM   27  C5  UNL     1     -22.212   9.766 -32.370  1.00  0.00     0.033 C 
BRANCH  27  28
HETATM   28  C4  UNL     1     -20.974  10.469 -31.963  1.00  0.00     0.002 C 
BRANCH  28  29
HETATM   29  C3  UNL     1     -20.591  11.679 -32.729  1.00  0.00    -0.000 C 
BRANCH  29  30
HETATM   30  C2  UNL     1     -19.785  12.691 -31.957  1.00  0.00    -0.005 C 
HETATM   31  C1  UNL     1     -19.749  12.328 -30.466  1.00  0.00     0.005 C 
ENDBRANCH  29  30
ENDBRANCH  28  29
ENDBRANCH  27  28
ENDBRANCH  26  27
BRANCH  26  32
HETATM   32  O1  UNL     1     -23.293   7.773 -33.027  1.00  0.00    -0.394 OA
ATOM     33  H1  UNL     1     -23.159   6.865 -33.273  1.00  0.00     0.210 HD
ENDBRANCH  26  32
ENDBRANCH   1  26
BRANCH   3  34
HETATM   34  O2  UNL     1     -24.085   6.461 -28.187  1.00  0.00    -0.377 OA
HETATM   35  C9  UNL     1     -25.156   5.705 -27.687  1.00  0.00     0.203 C 
ENDBRANCH   3  34
TORSDOF 14
ENDMDL
