MODEL 1
REMARK VINA RESULT: -7.067595514      0.000      0.000
REMARK  5 active torsions:
REMARK  status: ('A' for Active; 'I' for Inactive)
REMARK       I    between atoms: C2_2  and  N1_4 
REMARK    1  A    between atoms: N1_4  and  C3_6 
REMARK    2  A    between atoms: C3_6  and  C4_7 
REMARK    3  A    between atoms: C4_7  and  C5_8 
REMARK    4  A    between atoms: C7_14  and  O3_15 
REMARK    5  A    between atoms: O3_15  and  C8_16 
ROOT
HETATM    1  C5  UNL     1      17.176   2.352  14.096  1.00  0.00     0.141 C 
HETATM    2  O2  UNL     1      18.415   2.438  13.420  1.00  0.00    -0.321 OA
HETATM    3  C6  UNL     1      18.776   3.638  12.828  1.00  0.00     0.212 C 
HETATM    4  S1  UNL     1      20.064   3.663  11.836  1.00  0.00    -0.033 SA
HETATM    5  N2  UNL     1      18.035   4.815  13.087  1.00  0.00    -0.329 N 
ATOM      6  H2  UNL     1      18.487   5.728  13.027  1.00  0.00     0.165 HD
HETATM    7  C7  UNL     1      16.639   4.721  13.437  1.00  0.00     0.144 C 
HETATM    8  C10 UNL     1      16.335   5.366  14.767  1.00  0.00     0.062 C 
HETATM    9  C11 UNL     1      14.971   4.814  15.122  1.00  0.00     0.006 C 
HETATM   10  C12 UNL     1      15.064   3.394  14.674  1.00  0.00     0.012 C 
HETATM   11  C13 UNL     1      16.161   3.320  13.635  1.00  0.00     0.071 C 
ENDROOT
BRANCH   1  12
HETATM   12  C4  UNL     1      16.754   0.907  14.026  1.00  0.00     0.053 C 
BRANCH  12  13
HETATM   13  C3  UNL     1      17.005   0.177  15.320  1.00  0.00     0.125 C 
BRANCH  13  14
HETATM   14  N1  UNL     1      16.602   1.009  16.452  1.00  0.00    -0.361 N 
HETATM   15  C2  UNL     1      15.361   0.842  17.067  1.00  0.00     0.213 C 
HETATM   16  C1  UNL     1      14.951   1.685  18.215  1.00  0.00     0.117 C 
HETATM   17  O1  UNL     1      14.554  -0.031  16.663  1.00  0.00    -0.274 OA
ATOM     18  H1  UNL     1      17.239   1.725  16.798  1.00  0.00     0.162 HD
ENDBRANCH  13  14
ENDBRANCH  12  13
ENDBRANCH   1  12
BRANCH   7  19
HETATM   19  O3  UNL     1      15.871   5.346  12.468  1.00  0.00    -0.340 OA
BRANCH  19  20
HETATM   20  C8  UNL     1      16.552   6.142  11.587  1.00  0.00     0.216 C 
HETATM   21  C9  UNL     1      15.785   7.383  11.196  1.00  0.00     0.057 C 
HETATM   22 CL1  UNL     1      16.810   5.203  10.086  1.00  0.00    -0.096 Cl
ENDBRANCH  19  20
ENDBRANCH   7  19
TORSDOF 5
ENDMDL
MODEL 2
REMARK VINA RESULT: -6.922686535      3.024      5.617
REMARK  5 active torsions:
REMARK  status: ('A' for Active; 'I' for Inactive)
REMARK       I    between atoms: C2_2  and  N1_4 
REMARK    1  A    between atoms: N1_4  and  C3_6 
REMARK    2  A    between atoms: C3_6  and  C4_7 
REMARK    3  A    between atoms: C4_7  and  C5_8 
REMARK    4  A    between atoms: C7_14  and  O3_15 
REMARK    5  A    between atoms: O3_15  and  C8_16 
ROOT
HETATM    1  C5  UNL     1      17.684   1.837  12.743  1.00  0.00     0.141 C 
HETATM    2  O2  UNL     1      17.643   3.207  12.393  1.00  0.00    -0.321 OA
HETATM    3  C6  UNL     1      17.029   4.103  13.254  1.00  0.00     0.212 C 
HETATM    4  S1  UNL     1      16.750   5.619  12.736  1.00  0.00    -0.033 SA
HETATM    5  N2  UNL     1      16.656   3.700  14.559  1.00  0.00    -0.329 N 
ATOM      6  H2  UNL     1      16.606   4.387  15.311  1.00  0.00     0.165 HD
HETATM    7  C7  UNL     1      16.347   2.316  14.820  1.00  0.00     0.144 C 
HETATM    8  C10 UNL     1      17.214   1.729  15.906  1.00  0.00     0.062 C 
HETATM    9  C11 UNL     1      17.026   0.237  15.739  1.00  0.00     0.006 C 
HETATM   10  C12 UNL     1      16.996   0.073  14.257  1.00  0.00     0.012 C 
HETATM   11  C13 UNL     1      16.612   1.410  13.663  1.00  0.00     0.071 C 
ENDROOT
BRANCH   1  12
HETATM   12  C4  UNL     1      17.754   1.071  11.448  1.00  0.00     0.053 C 
BRANCH  12  13
HETATM   13  C3  UNL     1      19.140   0.550  11.167  1.00  0.00     0.125 C 
BRANCH  13  14
HETATM   14  N1  UNL     1      20.128   1.599  11.410  1.00  0.00    -0.361 N 
HETATM   15  C2  UNL     1      20.584   2.418  10.376  1.00  0.00     0.213 C 
HETATM   16  C1  UNL     1      21.586   3.481  10.622  1.00  0.00     0.117 C 
HETATM   17  O1  UNL     1      20.155   2.273   9.205  1.00  0.00    -0.274 OA
ATOM     18  H1  UNL     1      20.491   1.736  12.352  1.00  0.00     0.162 HD
ENDBRANCH  13  14
ENDBRANCH  12  13
ENDBRANCH   1  12
BRANCH   7  19
HETATM   19  O3  UNL     1      15.024   2.199  15.214  1.00  0.00    -0.340 OA
BRANCH  19  20
HETATM   20  C8  UNL     1      14.800   2.202  16.564  1.00  0.00     0.216 C 
HETATM   21  C9  UNL     1      13.800   1.158  17.001  1.00  0.00     0.057 C 
HETATM   22 CL1  UNL     1      14.106   3.792  17.002  1.00  0.00    -0.096 Cl
ENDBRANCH  19  20
ENDBRANCH   7  19
TORSDOF 5
ENDMDL
MODEL 3
REMARK VINA RESULT: -6.879636842      2.454      3.538
REMARK  5 active torsions:
REMARK  status: ('A' for Active; 'I' for Inactive)
REMARK       I    between atoms: C2_2  and  N1_4 
REMARK    1  A    between atoms: N1_4  and  C3_6 
REMARK    2  A    between atoms: C3_6  and  C4_7 
REMARK    3  A    between atoms: C4_7  and  C5_8 
REMARK    4  A    between atoms: C7_14  and  O3_15 
REMARK    5  A    between atoms: O3_15  and  C8_16 
ROOT
HETATM    1  C5  UNL     1      16.857   1.459  13.869  1.00  0.00     0.141 C 
HETATM    2  O2  UNL     1      16.840   2.837  14.187  1.00  0.00    -0.321 OA
HETATM    3  C6  UNL     1      16.935   3.765  13.162  1.00  0.00     0.212 C 
HETATM    4  S1  UNL     1      17.180   5.326  13.542  1.00  0.00    -0.033 SA
HETATM    5  N2  UNL     1      16.819   3.354  11.812  1.00  0.00    -0.329 N 
ATOM      6  H2  UNL     1      16.473   4.005  11.107  1.00  0.00     0.165 HD
HETATM    7  C7  UNL     1      17.192   2.013  11.437  1.00  0.00     0.144 C 
HETATM    8  C10 UNL     1      16.059   1.266  10.776  1.00  0.00     0.062 C 
HETATM    9  C11 UNL     1      16.505  -0.179  10.841  1.00  0.00     0.006 C 
HETATM   10  C12 UNL     1      17.137  -0.268  12.189  1.00  0.00     0.012 C 
HETATM   11  C13 UNL     1      17.531   1.135  12.597  1.00  0.00     0.071 C 
ENDROOT
BRANCH   1  12
HETATM   12  C4  UNL     1      17.409   0.751  15.079  1.00  0.00     0.053 C 
BRANCH  12  13
HETATM   13  C3  UNL     1      17.125   1.499  16.355  1.00  0.00     0.125 C 
BRANCH  13  14
HETATM   14  N1  UNL     1      15.689   1.729  16.493  1.00  0.00    -0.361 N 
HETATM   15  C2  UNL     1      14.829   0.710  16.903  1.00  0.00     0.213 C 
HETATM   16  C1  UNL     1      13.372   0.943  17.043  1.00  0.00     0.117 C 
HETATM   17  O1  UNL     1      15.268  -0.436  17.166  1.00  0.00    -0.274 OA
ATOM     18  H1  UNL     1      15.308   2.651  16.285  1.00  0.00     0.162 HD
ENDBRANCH  13  14
ENDBRANCH  12  13
ENDBRANCH   1  12
BRANCH   7  19
HETATM   19  O3  UNL     1      18.257   2.053  10.551  1.00  0.00    -0.340 OA
BRANCH  19  20
HETATM   20  C8  UNL     1      19.111   3.113  10.693  1.00  0.00     0.216 C 
HETATM   21  C9  UNL     1      19.470   3.763   9.378  1.00  0.00     0.057 C 
HETATM   22 CL1  UNL     1      20.637   2.499  11.395  1.00  0.00    -0.096 Cl
ENDBRANCH  19  20
ENDBRANCH   7  19
TORSDOF 5
ENDMDL
MODEL 4
REMARK VINA RESULT: -6.613794659      3.182      5.242
REMARK  5 active torsions:
REMARK  status: ('A' for Active; 'I' for Inactive)
REMARK       I    between atoms: C2_2  and  N1_4 
REMARK    1  A    between atoms: N1_4  and  C3_6 
REMARK    2  A    between atoms: C3_6  and  C4_7 
REMARK    3  A    between atoms: C4_7  and  C5_8 
REMARK    4  A    between atoms: C7_14  and  O3_15 
REMARK    5  A    between atoms: O3_15  and  C8_16 
ROOT
HETATM    1  C5  UNL     1      17.956   2.411  12.835  1.00  0.00     0.141 C 
HETATM    2  O2  UNL     1      18.191   3.787  13.065  1.00  0.00    -0.321 OA
HETATM    3  C6  UNL     1      17.690   4.371  14.218  1.00  0.00     0.212 C 
HETATM    4  S1  UNL     1      17.729   5.991  14.354  1.00  0.00    -0.033 SA
HETATM    5  N2  UNL     1      17.156   3.567  15.253  1.00  0.00    -0.329 N 
ATOM      6  H2  UNL     1      17.177   3.896  16.219  1.00  0.00     0.165 HD
HETATM    7  C7  UNL     1      16.581   2.282  14.939  1.00  0.00     0.144 C 
HETATM    8  C10 UNL     1      17.247   1.156  15.692  1.00  0.00     0.062 C 
HETATM    9  C11 UNL     1      16.802  -0.080  14.941  1.00  0.00     0.006 C 
HETATM   10  C12 UNL     1      16.850   0.364  13.518  1.00  0.00     0.012 C 
HETATM   11  C13 UNL     1      16.760   1.874  13.513  1.00  0.00     0.071 C 
ENDROOT
BRANCH   1  12
HETATM   12  C4  UNL     1      17.978   2.221  11.341  1.00  0.00     0.053 C 
BRANCH  12  13
HETATM   13  C3  UNL     1      19.203   1.475  10.879  1.00  0.00     0.125 C 
BRANCH  13  14
HETATM   14  N1  UNL     1      19.174   0.104  11.384  1.00  0.00    -0.361 N 
HETATM   15  C2  UNL     1      18.373  -0.871  10.789  1.00  0.00     0.213 C 
HETATM   16  C1  UNL     1      18.344  -2.261  11.301  1.00  0.00     0.117 C 
HETATM   17  O1  UNL     1      17.651  -0.595   9.799  1.00  0.00    -0.274 OA
ATOM     18  H1  UNL     1      19.751  -0.145  12.187  1.00  0.00     0.162 HD
ENDBRANCH  13  14
ENDBRANCH  12  13
ENDBRANCH   1  12
BRANCH   7  19
HETATM   19  O3  UNL     1      15.234   2.280  15.262  1.00  0.00    -0.340 OA
BRANCH  19  20
HETATM   20  C8  UNL     1      14.940   2.242  16.598  1.00  0.00     0.216 C 
HETATM   21  C9  UNL     1      13.969   1.142  16.959  1.00  0.00     0.057 C 
HETATM   22 CL1  UNL     1      14.150   3.787  17.031  1.00  0.00    -0.096 Cl
ENDBRANCH  19  20
ENDBRANCH   7  19
TORSDOF 5
ENDMDL
MODEL 5
REMARK VINA RESULT: -6.599460579      1.433      1.721
REMARK  5 active torsions:
REMARK  status: ('A' for Active; 'I' for Inactive)
REMARK       I    between atoms: C2_2  and  N1_4 
REMARK    1  A    between atoms: N1_4  and  C3_6 
REMARK    2  A    between atoms: C3_6  and  C4_7 
REMARK    3  A    between atoms: C4_7  and  C5_8 
REMARK    4  A    between atoms: C7_14  and  O3_15 
REMARK    5  A    between atoms: O3_15  and  C8_16 
ROOT
HETATM    1  C5  UNL     1      17.635   2.630  13.579  1.00  0.00     0.141 C 
HETATM    2  O2  UNL     1      18.409   1.969  12.596  1.00  0.00    -0.321 OA
HETATM    3  C6  UNL     1      19.189   2.723  11.735  1.00  0.00     0.212 C 
HETATM    4  S1  UNL     1      19.864   1.992  10.449  1.00  0.00    -0.033 SA
HETATM    5  N2  UNL     1      19.393   4.103  11.977  1.00  0.00    -0.329 N 
ATOM      6  H2  UNL     1      20.242   4.561  11.646  1.00  0.00     0.165 HD
HETATM    7  C7  UNL     1      18.395   4.859  12.693  1.00  0.00     0.144 C 
HETATM    8  C10 UNL     1      18.955   5.525  13.926  1.00  0.00     0.062 C 
HETATM    9  C11 UNL     1      17.719   5.897  14.716  1.00  0.00     0.006 C 
HETATM   10  C12 UNL     1      16.827   4.719  14.507  1.00  0.00     0.012 C 
HETATM   11  C13 UNL     1      17.287   4.024  13.245  1.00  0.00     0.071 C 
ENDROOT
BRANCH   1  12
HETATM   12  C4  UNL     1      16.461   1.733  13.869  1.00  0.00     0.053 C 
BRANCH  12  13
HETATM   13  C3  UNL     1      16.746   0.763  14.987  1.00  0.00     0.125 C 
BRANCH  13  14
HETATM   14  N1  UNL     1      16.441   1.380  16.276  1.00  0.00    -0.361 N 
HETATM   15  C2  UNL     1      15.304   1.020  17.000  1.00  0.00     0.213 C 
HETATM   16  C1  UNL     1      14.994   1.646  18.307  1.00  0.00     0.117 C 
HETATM   17  O1  UNL     1      14.509   0.153  16.561  1.00  0.00    -0.274 OA
ATOM     18  H1  UNL     1      17.071   2.087  16.653  1.00  0.00     0.162 HD
ENDBRANCH  13  14
ENDBRANCH  12  13
ENDBRANCH   1  12
BRANCH   7  19
HETATM   19  O3  UNL     1      17.875   5.845  11.869  1.00  0.00    -0.340 OA
BRANCH  19  20
HETATM   20  C8  UNL     1      16.768   5.495  11.146  1.00  0.00     0.216 C 
HETATM   21  C9  UNL     1      17.016   5.479   9.656  1.00  0.00     0.057 C 
HETATM   22 CL1  UNL     1      15.505   6.728  11.442  1.00  0.00    -0.096 Cl
ENDBRANCH  19  20
ENDBRANCH   7  19
TORSDOF 5
ENDMDL
