MODEL 1
REMARK VINA RESULT: -7.055539732      0.000      0.000
REMARK  3 active torsions:
REMARK  status: ('A' for Active; 'I' for Inactive)
REMARK    1  A    between atoms: C3_5  and  C4_6 
REMARK    2  A    between atoms: C4_6  and  C5_8 
REMARK    3  A    between atoms: C5_8  and  C6_9 
ROOT
HETATM    1  C4  UNL     1       4.649  -3.751  16.364  1.00  0.00     0.109 C 
HETATM    2  S1  UNL     1       4.262  -1.977  16.548  1.00  0.00    -0.086 SA
ENDROOT
BRANCH   1   3
HETATM    3  C3  UNL     1       3.518  -4.339  15.508  1.00  0.00     0.031 A 
HETATM    4  N1  UNL     1       2.847  -3.629  14.659  1.00  0.00    -0.356 N 
HETATM    5  C2  UNL     1       1.883  -4.191  13.949  1.00  0.00     0.047 A 
ATOM      6  H1  UNL     1       3.061  -2.639  14.537  1.00  0.00     0.166 HD
HETATM    7  C1  UNL     1       0.989  -3.550  12.915  1.00  0.00     0.076 C 
HETATM    8  S2  UNL     1       1.916  -5.810  14.502  1.00  0.00    -0.087 SA
HETATM    9  C12 UNL     1       3.190  -5.663  15.633  1.00  0.00     0.077 A 
ENDBRANCH   1   3
BRANCH   1  10
HETATM   10  C5  UNL     1       5.953  -4.015  15.683  1.00  0.00     0.027 C 
BRANCH  10  11
HETATM   11  C6  UNL     1       6.992  -4.725  16.480  1.00  0.00    -0.013 C 
HETATM   12  C7  UNL     1       8.336  -4.443  15.798  1.00  0.00     0.005 C 
HETATM   13  C8  UNL     1       9.299  -5.438  16.414  1.00  0.00     0.000 C 
HETATM   14  C9  UNL     1       9.530  -4.947  17.824  1.00  0.00     0.000 C 
HETATM   15  C10 UNL     1       8.308  -4.797  18.631  1.00  0.00     0.000 C 
HETATM   16  C11 UNL     1       7.029  -4.471  17.926  1.00  0.00     0.005 C 
ENDBRANCH  10  11
ENDBRANCH   1  10
TORSDOF 3
ENDMDL
MODEL 2
REMARK VINA RESULT: -7.019365917      2.403      6.438
REMARK  3 active torsions:
REMARK  status: ('A' for Active; 'I' for Inactive)
REMARK    1  A    between atoms: C3_5  and  C4_6 
REMARK    2  A    between atoms: C4_6  and  C5_8 
REMARK    3  A    between atoms: C5_8  and  C6_9 
ROOT
HETATM    1  C4  UNL     1       3.832  -4.617  16.166  1.00  0.00     0.109 C 
HETATM    2  S1  UNL     1       4.924  -5.869  15.410  1.00  0.00    -0.086 SA
ENDROOT
BRANCH   1   3
HETATM    3  C3  UNL     1       4.672  -3.935  17.256  1.00  0.00     0.031 A 
HETATM    4  N1  UNL     1       4.142  -3.235  18.207  1.00  0.00    -0.356 N 
HETATM    5  C2  UNL     1       4.918  -2.671  19.118  1.00  0.00     0.047 A 
ATOM      6  H1  UNL     1       3.130  -3.119  18.254  1.00  0.00     0.166 HD
HETATM    7  C1  UNL     1       4.509  -1.824  20.298  1.00  0.00     0.076 C 
HETATM    8  S2  UNL     1       6.482  -3.147  18.614  1.00  0.00    -0.087 SA
HETATM    9  C12 UNL     1       6.037  -4.059  17.238  1.00  0.00     0.077 A 
ENDBRANCH   1   3
BRANCH   1  10
HETATM   10  C5  UNL     1       3.355  -3.575  15.206  1.00  0.00     0.027 C 
BRANCH  10  11
HETATM   11  C6  UNL     1       2.000  -3.776  14.621  1.00  0.00    -0.013 C 
HETATM   12  C7  UNL     1       2.153  -3.633  13.101  1.00  0.00     0.005 C 
HETATM   13  C8  UNL     1       0.736  -3.500  12.581  1.00  0.00     0.000 C 
HETATM   14  C9  UNL     1       0.128  -4.874  12.727  1.00  0.00     0.000 C 
HETATM   15  C10 UNL     1       0.158  -5.418  14.095  1.00  0.00     0.000 C 
HETATM   16  C11 UNL     1       1.270  -4.991  15.001  1.00  0.00     0.005 C 
ENDBRANCH  10  11
ENDBRANCH   1  10
TORSDOF 3
ENDMDL
MODEL 3
REMARK VINA RESULT: -7.000129063      3.271      4.356
REMARK  3 active torsions:
REMARK  status: ('A' for Active; 'I' for Inactive)
REMARK    1  A    between atoms: C3_5  and  C4_6 
REMARK    2  A    between atoms: C4_6  and  C5_8 
REMARK    3  A    between atoms: C5_8  and  C6_9 
ROOT
HETATM    1  C4  UNL     1       5.375  -3.474  17.151  1.00  0.00     0.109 C 
HETATM    2  S1  UNL     1       7.151  -3.689  16.790  1.00  0.00    -0.086 SA
ENDROOT
BRANCH   1   3
HETATM    3  C3  UNL     1       4.628  -4.156  15.995  1.00  0.00     0.031 A 
HETATM    4  N1  UNL     1       4.328  -3.537  14.900  1.00  0.00    -0.356 N 
HETATM    5  C2  UNL     1       3.683  -4.178  13.938  1.00  0.00     0.047 A 
ATOM      6  H1  UNL     1       4.586  -2.558  14.777  1.00  0.00     0.166 HD
HETATM    7  C1  UNL     1       3.242  -3.647  12.595  1.00  0.00     0.076 C 
HETATM    8  S2  UNL     1       3.486  -5.740  14.606  1.00  0.00    -0.087 SA
HETATM    9  C12 UNL     1       4.257  -5.471  16.108  1.00  0.00     0.077 A 
ENDBRANCH   1   3
BRANCH   1  10
HETATM   10  C5  UNL     1       4.942  -4.101  18.437  1.00  0.00     0.027 C 
BRANCH  10  11
HETATM   11  C6  UNL     1       4.099  -3.266  19.338  1.00  0.00    -0.013 C 
HETATM   12  C7  UNL     1       3.876  -4.086  20.615  1.00  0.00     0.005 C 
HETATM   13  C8  UNL     1       2.758  -3.369  21.344  1.00  0.00     0.000 C 
HETATM   14  C9  UNL     1       3.377  -2.095  21.869  1.00  0.00     0.000 C 
HETATM   15  C10 UNL     1       3.993  -1.242  20.840  1.00  0.00     0.000 C 
HETATM   16  C11 UNL     1       4.555  -1.899  19.619  1.00  0.00     0.005 C 
ENDBRANCH  10  11
ENDBRANCH   1  10
TORSDOF 3
ENDMDL
MODEL 4
REMARK VINA RESULT: -6.986750823      1.341      1.502
REMARK  3 active torsions:
REMARK  status: ('A' for Active; 'I' for Inactive)
REMARK    1  A    between atoms: C3_5  and  C4_6 
REMARK    2  A    between atoms: C4_6  and  C5_8 
REMARK    3  A    between atoms: C5_8  and  C6_9 
ROOT
HETATM    1  C4  UNL     1       5.332  -3.929  16.925  1.00  0.00     0.109 C 
HETATM    2  S1  UNL     1       4.611  -2.309  17.360  1.00  0.00    -0.086 SA
ENDROOT
BRANCH   1   3
HETATM    3  C3  UNL     1       4.513  -4.443  15.732  1.00  0.00     0.031 A 
HETATM    4  N1  UNL     1       4.322  -3.738  14.664  1.00  0.00    -0.356 N 
HETATM    5  C2  UNL     1       3.606  -4.236  13.668  1.00  0.00     0.047 A 
ATOM      6  H1  UNL     1       4.721  -2.803  14.589  1.00  0.00     0.166 HD
HETATM    7  C1  UNL     1       3.267  -3.587  12.347  1.00  0.00     0.076 C 
HETATM    8  S2  UNL     1       3.175  -5.781  14.261  1.00  0.00    -0.087 SA
HETATM    9  C12 UNL     1       3.954  -5.693  15.781  1.00  0.00     0.077 A 
ENDBRANCH   1   3
BRANCH   1  10
HETATM   10  C5  UNL     1       6.771  -3.859  16.524  1.00  0.00     0.027 C 
BRANCH  10  11
HETATM   11  C6  UNL     1       7.775  -4.151  17.586  1.00  0.00    -0.013 C 
HETATM   12  C7  UNL     1       8.965  -4.823  16.890  1.00  0.00     0.005 C 
HETATM   13  C8  UNL     1       9.793  -5.406  18.017  1.00  0.00     0.000 C 
HETATM   14  C9  UNL     1      10.431  -4.218  18.697  1.00  0.00     0.000 C 
HETATM   15  C10 UNL     1       9.480  -3.205  19.185  1.00  0.00     0.000 C 
HETATM   16  C11 UNL     1       8.183  -3.042  18.456  1.00  0.00     0.005 C 
ENDBRANCH  10  11
ENDBRANCH   1  10
TORSDOF 3
ENDMDL
MODEL 5
REMARK VINA RESULT: -6.969925574      0.441      1.351
REMARK  3 active torsions:
REMARK  status: ('A' for Active; 'I' for Inactive)
REMARK    1  A    between atoms: C3_5  and  C4_6 
REMARK    2  A    between atoms: C4_6  and  C5_8 
REMARK    3  A    between atoms: C5_8  and  C6_9 
ROOT
HETATM    1  C4  UNL     1       4.810  -3.764  16.440  1.00  0.00     0.109 C 
HETATM    2  S1  UNL     1       4.389  -2.003  16.678  1.00  0.00    -0.086 SA
ENDROOT
BRANCH   1   3
HETATM    3  C3  UNL     1       3.686  -4.348  15.572  1.00  0.00     0.031 A 
HETATM    4  N1  UNL     1       2.960  -3.617  14.790  1.00  0.00    -0.356 N 
HETATM    5  C2  UNL     1       2.006  -4.178  14.065  1.00  0.00     0.047 A 
ATOM      6  H1  UNL     1       3.122  -2.612  14.731  1.00  0.00     0.166 HD
HETATM    7  C1  UNL     1       1.055  -3.514  13.099  1.00  0.00     0.076 C 
HETATM    8  S2  UNL     1       2.132  -5.826  14.504  1.00  0.00    -0.087 SA
HETATM    9  C12 UNL     1       3.426  -5.693  15.613  1.00  0.00     0.077 A 
ENDBRANCH   1   3
BRANCH   1  10
HETATM   10  C5  UNL     1       6.116  -3.981  15.745  1.00  0.00     0.027 C 
BRANCH  10  11
HETATM   11  C6  UNL     1       7.336  -3.980  16.600  1.00  0.00    -0.013 C 
HETATM   12  C7  UNL     1       6.916  -4.539  17.965  1.00  0.00     0.005 C 
HETATM   13  C8  UNL     1       8.068  -4.206  18.891  1.00  0.00     0.000 C 
HETATM   14  C9  UNL     1       9.189  -5.131  18.481  1.00  0.00     0.000 C 
HETATM   15  C10 UNL     1       9.580  -5.034  17.065  1.00  0.00     0.000 C 
HETATM   16  C11 UNL     1       8.538  -4.634  16.068  1.00  0.00     0.005 C 
ENDBRANCH  10  11
ENDBRANCH   1  10
TORSDOF 3
ENDMDL
