MODEL 1
REMARK VINA RESULT: -5.764919197      0.000      0.000
REMARK  7 active torsions:
REMARK  status: ('A' for Active; 'I' for Inactive)
REMARK    1  A    between atoms: C2_2  and  C3_4 
REMARK    2  A    between atoms: C3_4  and  S1_5 
REMARK    3  A    between atoms: S1_5  and  C4_6 
REMARK    4  A    between atoms: C4_6  and  N1_7 
REMARK    5  A    between atoms: C4_6  and  C7_16 
REMARK    6  A    between atoms: N1_7  and  N2_9 
REMARK    7  A    between atoms: C5_11  and  C6_12 
ROOT
HETATM    1  C4  UNL     1      15.790  -1.543  49.423  1.00  0.00     0.217 C 
ENDROOT
BRANCH   1   2
HETATM    2  S1  UNL     1      16.673  -0.079  50.093  1.00  0.00    -0.130 SA
BRANCH   2   3
HETATM    3  C3  UNL     1      16.641   1.171  48.776  1.00  0.00     0.126 C 
BRANCH   3   4
HETATM    4  C2  UNL     1      15.875   2.359  49.121  1.00  0.00     0.011 C 
HETATM    5  C1  UNL     1      14.916   2.299  50.024  1.00  0.00     0.033 C 
HETATM    6 CL1  UNL     1      16.214   3.884  48.342  1.00  0.00    -0.089 Cl
ENDBRANCH   3   4
ENDBRANCH   2   3
ENDBRANCH   1   2
BRANCH   1   7
HETATM    7  N1  UNL     1      16.327  -2.761  49.953  1.00  0.00    -0.316 N 
ATOM      8  H1  UNL     1      16.549  -3.515  49.303  1.00  0.00     0.182 HD
BRANCH   7   9
HETATM    9  N2  UNL     1      16.563  -2.967  51.314  1.00  0.00    -0.314 N 
HETATM   10  C5  UNL     1      17.474  -3.735  51.780  1.00  0.00     0.138 C 
ATOM     11  H2  UNL     1      15.969  -2.474  51.981  1.00  0.00     0.185 HD
BRANCH  10  12
HETATM   12  C6  UNL     1      17.647  -3.889  53.236  1.00  0.00     0.222 C 
HETATM   13 CL2  UNL     1      19.073  -4.831  53.638  1.00  0.00    -0.078 Cl
HETATM   14 CL3  UNL     1      16.198  -4.586  53.989  1.00  0.00    -0.078 Cl
HETATM   15 CL4  UNL     1      17.853  -2.242  53.913  1.00  0.00    -0.078 Cl
ENDBRANCH  10  12
ENDBRANCH   7   9
ENDBRANCH   1   7
BRANCH   1  16
HETATM   16  C7  UNL     1      14.347  -1.373  49.664  1.00  0.00     0.086 A 
HETATM   17  C8  UNL     1      13.446  -0.840  48.781  1.00  0.00     0.038 A 
HETATM   18  C9  UNL     1      12.202  -0.862  49.394  1.00  0.00     0.027 A 
HETATM   19  C10 UNL     1      12.403  -1.407  50.623  1.00  0.00     0.142 A 
HETATM   20  O1  UNL     1      13.678  -1.701  50.757  1.00  0.00    -0.324 OA
ENDBRANCH   1  16
TORSDOF 7
ENDMDL
MODEL 2
REMARK VINA RESULT: -5.759767737      0.069      1.182
REMARK  7 active torsions:
REMARK  status: ('A' for Active; 'I' for Inactive)
REMARK    1  A    between atoms: C2_2  and  C3_4 
REMARK    2  A    between atoms: C3_4  and  S1_5 
REMARK    3  A    between atoms: S1_5  and  C4_6 
REMARK    4  A    between atoms: C4_6  and  N1_7 
REMARK    5  A    between atoms: C4_6  and  C7_16 
REMARK    6  A    between atoms: N1_7  and  N2_9 
REMARK    7  A    between atoms: C5_11  and  C6_12 
ROOT
HETATM    1  C4  UNL     1      15.789  -1.549  49.441  1.00  0.00     0.217 C 
ENDROOT
BRANCH   1   2
HETATM    2  S1  UNL     1      16.676  -0.081  50.098  1.00  0.00    -0.130 SA
BRANCH   2   3
HETATM    3  C3  UNL     1      16.635   1.163  48.776  1.00  0.00     0.126 C 
BRANCH   3   4
HETATM    4  C2  UNL     1      15.870   2.352  49.120  1.00  0.00     0.011 C 
HETATM    5  C1  UNL     1      14.910   2.293  50.022  1.00  0.00     0.033 C 
HETATM    6 CL1  UNL     1      16.211   3.876  48.342  1.00  0.00    -0.089 Cl
ENDBRANCH   3   4
ENDBRANCH   2   3
ENDBRANCH   1   2
BRANCH   1   7
HETATM    7  N1  UNL     1      16.306  -2.761  50.002  1.00  0.00    -0.316 N 
ATOM      8  H1  UNL     1      16.524  -3.532  49.370  1.00  0.00     0.182 HD
BRANCH   7   9
HETATM    9  N2  UNL     1      16.525  -2.943  51.369  1.00  0.00    -0.314 N 
HETATM   10  C5  UNL     1      17.452  -3.676  51.860  1.00  0.00     0.138 C 
ATOM     11  H2  UNL     1      15.905  -2.459  52.020  1.00  0.00     0.185 HD
BRANCH  10  12
HETATM   12  C6  UNL     1      17.605  -3.805  53.320  1.00  0.00     0.222 C 
HETATM   13 CL2  UNL     1      16.222  -4.589  54.065  1.00  0.00    -0.078 Cl
HETATM   14 CL3  UNL     1      17.921  -2.231  54.078  1.00  0.00    -0.078 Cl
HETATM   15 CL4  UNL     1      19.050  -4.828  53.604  1.00  0.00    -0.078 Cl
ENDBRANCH  10  12
ENDBRANCH   7   9
ENDBRANCH   1   7
BRANCH   1  16
HETATM   16  C7  UNL     1      14.344  -1.360  49.655  1.00  0.00     0.086 A 
HETATM   17  C8  UNL     1      13.465  -0.821  48.755  1.00  0.00     0.038 A 
HETATM   18  C9  UNL     1      12.210  -0.824  49.345  1.00  0.00     0.027 A 
HETATM   19  C10 UNL     1      12.383  -1.366  50.580  1.00  0.00     0.142 A 
HETATM   20  O1  UNL     1      13.653  -1.674  50.738  1.00  0.00    -0.324 OA
ENDBRANCH   1  16
TORSDOF 7
ENDMDL
MODEL 3
REMARK VINA RESULT: -5.731010496      3.813      5.542
REMARK  7 active torsions:
REMARK  status: ('A' for Active; 'I' for Inactive)
REMARK    1  A    between atoms: C2_2  and  C3_4 
REMARK    2  A    between atoms: C3_4  and  S1_5 
REMARK    3  A    between atoms: S1_5  and  C4_6 
REMARK    4  A    between atoms: C4_6  and  N1_7 
REMARK    5  A    between atoms: C4_6  and  C7_16 
REMARK    6  A    between atoms: N1_7  and  N2_9 
REMARK    7  A    between atoms: C5_11  and  C6_12 
ROOT
HETATM    1  C4  UNL     1      12.432  -0.939  52.838  1.00  0.00     0.217 C 
ENDROOT
BRANCH   1   2
HETATM    2  S1  UNL     1      10.830  -1.822  52.998  1.00  0.00    -0.130 SA
BRANCH   2   3
HETATM    3  C3  UNL     1      10.655  -2.227  54.760  1.00  0.00     0.126 C 
BRANCH   3   4
HETATM    4  C2  UNL     1       9.682  -1.397  55.453  1.00  0.00     0.011 C 
HETATM    5  C1  UNL     1       9.683  -0.089  55.295  1.00  0.00     0.033 C 
HETATM    6 CL1  UNL     1       8.496  -2.123  56.508  1.00  0.00    -0.089 Cl
ENDBRANCH   3   4
ENDBRANCH   2   3
ENDBRANCH   1   2
BRANCH   1   7
HETATM    7  N1  UNL     1      13.489  -1.662  53.479  1.00  0.00    -0.316 N 
ATOM      8  H1  UNL     1      13.270  -2.193  54.322  1.00  0.00     0.182 HD
BRANCH   7   9
HETATM    9  N2  UNL     1      14.804  -1.676  53.009  1.00  0.00    -0.314 N 
HETATM   10  C5  UNL     1      15.447  -2.737  52.695  1.00  0.00     0.138 C 
ATOM     11  H2  UNL     1      15.285  -0.782  52.911  1.00  0.00     0.185 HD
BRANCH  10  12
HETATM   12  C6  UNL     1      16.834  -2.651  52.206  1.00  0.00     0.222 C 
HETATM   13 CL2  UNL     1      17.275  -4.034  51.217  1.00  0.00    -0.078 Cl
HETATM   14 CL3  UNL     1      17.980  -2.444  53.546  1.00  0.00    -0.078 Cl
HETATM   15 CL4  UNL     1      16.938  -1.178  51.189  1.00  0.00    -0.078 Cl
ENDBRANCH  10  12
ENDBRANCH   7   9
ENDBRANCH   1   7
BRANCH   1  16
HETATM   16  C7  UNL     1      12.677  -0.663  51.412  1.00  0.00     0.086 A 
HETATM   17  C8  UNL     1      11.988  -1.207  50.361  1.00  0.00     0.038 A 
HETATM   18  C9  UNL     1      12.529  -0.688  49.195  1.00  0.00     0.027 A 
HETATM   19  C10 UNL     1      13.524   0.150  49.590  1.00  0.00     0.142 A 
HETATM   20  O1  UNL     1      13.590   0.147  50.904  1.00  0.00    -0.324 OA
ENDBRANCH   1  16
TORSDOF 7
ENDMDL
MODEL 4
REMARK VINA RESULT: -5.730580528      3.813      5.610
REMARK  7 active torsions:
REMARK  status: ('A' for Active; 'I' for Inactive)
REMARK    1  A    between atoms: C2_2  and  C3_4 
REMARK    2  A    between atoms: C3_4  and  S1_5 
REMARK    3  A    between atoms: S1_5  and  C4_6 
REMARK    4  A    between atoms: C4_6  and  N1_7 
REMARK    5  A    between atoms: C4_6  and  C7_16 
REMARK    6  A    between atoms: N1_7  and  N2_9 
REMARK    7  A    between atoms: C5_11  and  C6_12 
ROOT
HETATM    1  C4  UNL     1      12.415  -0.907  52.853  1.00  0.00     0.217 C 
ENDROOT
BRANCH   1   2
HETATM    2  S1  UNL     1      10.843  -1.843  53.013  1.00  0.00    -0.130 SA
BRANCH   2   3
HETATM    3  C3  UNL     1      10.682  -2.256  54.774  1.00  0.00     0.126 C 
BRANCH   3   4
HETATM    4  C2  UNL     1       9.700  -1.442  55.474  1.00  0.00     0.011 C 
HETATM    5  C1  UNL     1       9.679  -0.134  55.316  1.00  0.00     0.033 C 
HETATM    6 CL1  UNL     1       8.535  -2.187  56.539  1.00  0.00    -0.089 Cl
ENDBRANCH   3   4
ENDBRANCH   2   3
ENDBRANCH   1   2
BRANCH   1   7
HETATM    7  N1  UNL     1      13.489  -1.580  53.521  1.00  0.00    -0.316 N 
ATOM      8  H1  UNL     1      13.285  -2.074  54.390  1.00  0.00     0.182 HD
BRANCH   7   9
HETATM    9  N2  UNL     1      14.801  -1.594  53.044  1.00  0.00    -0.314 N 
HETATM   10  C5  UNL     1      15.456  -2.657  52.762  1.00  0.00     0.138 C 
ATOM     11  H2  UNL     1      15.270  -0.697  52.910  1.00  0.00     0.185 HD
BRANCH  10  12
HETATM   12  C6  UNL     1      16.839  -2.570  52.262  1.00  0.00     0.222 C 
HETATM   13 CL2  UNL     1      18.010  -2.468  53.566  1.00  0.00    -0.078 Cl
HETATM   14 CL3  UNL     1      17.034  -1.216  51.132  1.00  0.00    -0.078 Cl
HETATM   15 CL4  UNL     1      17.155  -4.076  51.341  1.00  0.00    -0.078 Cl
ENDBRANCH  10  12
ENDBRANCH   7   9
ENDBRANCH   1   7
BRANCH   1  16
HETATM   16  C7  UNL     1      12.667  -0.651  51.425  1.00  0.00     0.086 A 
HETATM   17  C8  UNL     1      11.981  -1.207  50.379  1.00  0.00     0.038 A 
HETATM   18  C9  UNL     1      12.530  -0.705  49.208  1.00  0.00     0.027 A 
HETATM   19  C10 UNL     1      13.527   0.135  49.596  1.00  0.00     0.142 A 
HETATM   20  O1  UNL     1      13.587   0.149  50.910  1.00  0.00    -0.324 OA
ENDBRANCH   1  16
TORSDOF 7
ENDMDL
MODEL 5
REMARK VINA RESULT: -5.672427824      3.190      5.701
REMARK  7 active torsions:
REMARK  status: ('A' for Active; 'I' for Inactive)
REMARK    1  A    between atoms: C2_2  and  C3_4 
REMARK    2  A    between atoms: C3_4  and  S1_5 
REMARK    3  A    between atoms: S1_5  and  C4_6 
REMARK    4  A    between atoms: C4_6  and  N1_7 
REMARK    5  A    between atoms: C4_6  and  C7_16 
REMARK    6  A    between atoms: N1_7  and  N2_9 
REMARK    7  A    between atoms: C5_11  and  C6_12 
ROOT
HETATM    1  C4  UNL     1      14.858  -1.112  49.904  1.00  0.00     0.217 C 
ENDROOT
BRANCH   1   2
HETATM    2  S1  UNL     1      15.735  -1.750  51.385  1.00  0.00    -0.130 SA
BRANCH   2   3
HETATM    3  C3  UNL     1      15.829  -3.552  51.173  1.00  0.00     0.126 C 
BRANCH   3   4
HETATM    4  C2  UNL     1      17.188  -4.048  51.019  1.00  0.00     0.011 C 
HETATM    5  C1  UNL     1      17.728  -4.164  49.822  1.00  0.00     0.033 C 
HETATM    6 CL1  UNL     1      18.126  -4.500  52.420  1.00  0.00    -0.089 Cl
ENDBRANCH   3   4
ENDBRANCH   2   3
ENDBRANCH   1   2
BRANCH   1   7
HETATM    7  N1  UNL     1      13.451  -1.372  49.981  1.00  0.00    -0.316 N 
ATOM      8  H1  UNL     1      12.895  -1.284  49.130  1.00  0.00     0.182 HD
BRANCH   7   9
HETATM    9  N2  UNL     1      12.802  -1.741  51.161  1.00  0.00    -0.314 N 
HETATM   10  C5  UNL     1      11.884  -1.051  51.726  1.00  0.00     0.138 C 
ATOM     11  H2  UNL     1      13.078  -2.619  51.603  1.00  0.00     0.185 HD
BRANCH  10  12
HETATM   12  C6  UNL     1      11.256  -1.524  52.972  1.00  0.00     0.222 C 
HETATM   13 CL2  UNL     1       9.503  -1.459  52.897  1.00  0.00    -0.078 Cl
HETATM   14 CL3  UNL     1      11.861  -0.630  54.381  1.00  0.00    -0.078 Cl
HETATM   15 CL4  UNL     1      11.745  -3.237  53.184  1.00  0.00    -0.078 Cl
ENDBRANCH  10  12
ENDBRANCH   7   9
ENDBRANCH   1   7
BRANCH   1  16
HETATM   16  C7  UNL     1      15.192   0.314  49.737  1.00  0.00     0.086 A 
HETATM   17  C8  UNL     1      14.353   1.367  49.983  1.00  0.00     0.038 A 
HETATM   18  C9  UNL     1      15.053   2.530  49.702  1.00  0.00     0.027 A 
HETATM   19  C10 UNL     1      16.288   2.132  49.297  1.00  0.00     0.142 A 
HETATM   20  O1  UNL     1      16.344   0.817  49.327  1.00  0.00    -0.324 OA
ENDBRANCH   1  16
TORSDOF 7
ENDMDL
