MODEL 1
REMARK VINA RESULT: -8.939293866      0.000      0.000
REMARK  7 active torsions:
REMARK  status: ('A' for Active; 'I' for Inactive)
REMARK    1  A    between atoms: C6_7  and  O1_8 
REMARK    2  A    between atoms: O1_8  and  C7_9 
REMARK    3  A    between atoms: C8_10  and  C9_11 
REMARK    4  A    between atoms: C12_16  and  N1_17 
REMARK    5  A    between atoms: N1_17  and  S1_19 
REMARK    6  A    between atoms: S1_19  and  C13_22 
REMARK    7  A    between atoms: C15_27  and  C16_28 
ROOT
HETATM    1  C7  UNL     1      13.812  -1.531  52.169  1.00  0.00     0.132 A 
HETATM    2  C8  UNL     1      12.985  -0.801  51.302  1.00  0.00     0.063 A 
HETATM    3  C10 UNL     1      11.616  -0.843  51.501  1.00  0.00     0.022 A 
HETATM    4  C11 UNL     1      11.045  -1.572  52.520  1.00  0.00     0.034 A 
HETATM    5  C12 UNL     1      11.831  -2.294  53.384  1.00  0.00     0.084 A 
HETATM    6  C17 UNL     1      13.197  -2.241  53.168  1.00  0.00     0.178 A 
HETATM    7  F2  UNL     1      13.926  -2.988  54.054  1.00  0.00    -0.201 F 
ENDROOT
BRANCH   5   8
HETATM    8  N1  UNL     1      11.253  -3.039  54.439  1.00  0.00    -0.276 N 
ATOM      9  H1  UNL     1      10.982  -3.998  54.222  1.00  0.00     0.179 HD
BRANCH   8  10
HETATM   10  S1  UNL     1      10.964  -2.513  56.023  1.00  0.00     0.280 S 
HETATM   11  O3  UNL     1       9.922  -1.452  56.060  1.00  0.00    -0.199 OA
HETATM   12  O4  UNL     1      10.350  -3.653  56.863  1.00  0.00    -0.199 OA
BRANCH  10  13
HETATM   13  C13 UNL     1      12.452  -1.951  56.835  1.00  0.00     0.173 A 
HETATM   14  N2  UNL     1      13.144  -2.792  57.568  1.00  0.00    -0.348 N 
HETATM   15  C14 UNL     1      14.243  -2.407  58.168  1.00  0.00     0.140 A 
ATOM     16  H2  UNL     1      12.822  -3.754  57.672  1.00  0.00     0.166 HD
HETATM   17  S2  UNL     1      14.363  -0.777  57.710  1.00  0.00    -0.075 SA
HETATM   18  C15 UNL     1      12.930  -0.677  56.729  1.00  0.00     0.122 A 
BRANCH  18  19
HETATM   19  C16 UNL     1      12.463   0.499  55.989  1.00  0.00     0.219 C 
HETATM   20  O5  UNL     1      12.228   0.519  54.787  1.00  0.00    -0.643 OA
HETATM   21  O6  UNL     1      12.268   1.697  56.706  1.00  0.00    -0.643 OA
ENDBRANCH  18  19
ENDBRANCH  10  13
ENDBRANCH   8  10
ENDBRANCH   5   8
BRANCH   1  22
HETATM   22  O1  UNL     1      15.146  -1.480  51.943  1.00  0.00    -0.300 OA
BRANCH  22  23
HETATM   23  C6  UNL     1      16.080  -2.414  51.686  1.00  0.00     0.153 A 
HETATM   24  C5  UNL     1      16.363  -2.662  50.333  1.00  0.00     0.153 A 
HETATM   25  C4  UNL     1      17.303  -3.588  49.926  1.00  0.00     0.046 A 
HETATM   26  F1  UNL     1      15.688  -2.009  49.344  1.00  0.00    -0.203 F 
HETATM   27  C3  UNL     1      18.004  -4.315  50.865  1.00  0.00     0.013 A 
HETATM   28  C2  UNL     1      17.752  -4.099  52.199  1.00  0.00    -0.020 A 
HETATM   29  C1  UNL     1      18.520  -4.893  53.193  1.00  0.00     0.051 C 
HETATM   30  C18 UNL     1      16.803  -3.160  52.571  1.00  0.00     0.159 A 
HETATM   31  F3  UNL     1      16.630  -2.989  53.886  1.00  0.00    -0.203 F 
ENDBRANCH  22  23
ENDBRANCH   1  22
BRANCH   2  32
HETATM   32  C9  UNL     1      13.503   0.060  50.248  1.00  0.00     0.255 C 
HETATM   33  O2  UNL     1      14.207   1.079  50.432  1.00  0.00    -0.274 OA
HETATM   34 CL1  UNL     1      13.127  -0.342  48.589  1.00  0.00    -0.038 Cl
ENDBRANCH   2  32
TORSDOF 7
ENDMDL
MODEL 2
REMARK VINA RESULT: -8.836373781      2.203      3.666
REMARK  7 active torsions:
REMARK  status: ('A' for Active; 'I' for Inactive)
REMARK    1  A    between atoms: C6_7  and  O1_8 
REMARK    2  A    between atoms: O1_8  and  C7_9 
REMARK    3  A    between atoms: C8_10  and  C9_11 
REMARK    4  A    between atoms: C12_16  and  N1_17 
REMARK    5  A    between atoms: N1_17  and  S1_19 
REMARK    6  A    between atoms: S1_19  and  C13_22 
REMARK    7  A    between atoms: C15_27  and  C16_28 
ROOT
HETATM    1  C7  UNL     1      14.471  -3.094  51.940  1.00  0.00     0.132 A 
HETATM    2  C8  UNL     1      15.356  -3.900  52.671  1.00  0.00     0.063 A 
HETATM    3  C10 UNL     1      14.935  -4.415  53.884  1.00  0.00     0.022 A 
HETATM    4  C11 UNL     1      13.680  -4.165  54.391  1.00  0.00     0.034 A 
HETATM    5  C12 UNL     1      12.792  -3.382  53.695  1.00  0.00     0.084 A 
HETATM    6  C17 UNL     1      13.231  -2.874  52.485  1.00  0.00     0.178 A 
HETATM    7  F2  UNL     1      12.308  -2.094  51.845  1.00  0.00    -0.201 F 
ENDROOT
BRANCH   5   8
HETATM    8  N1  UNL     1      11.497  -3.126  54.204  1.00  0.00    -0.276 N 
ATOM      9  H1  UNL     1      10.742  -3.078  53.521  1.00  0.00     0.179 HD
BRANCH   8  10
HETATM   10  S1  UNL     1      11.065  -2.891  55.826  1.00  0.00     0.280 S 
HETATM   11  O3  UNL     1       9.776  -2.157  55.942  1.00  0.00    -0.199 OA
HETATM   12  O4  UNL     1      10.772  -4.246  56.504  1.00  0.00    -0.199 OA
BRANCH  10  13
HETATM   13  C13 UNL     1      12.341  -2.057  56.756  1.00  0.00     0.173 A 
HETATM   14  N2  UNL     1      12.936  -2.687  57.742  1.00  0.00    -0.348 N 
HETATM   15  C14 UNL     1      13.881  -2.100  58.435  1.00  0.00     0.140 A 
ATOM     16  H2  UNL     1      12.660  -3.641  57.971  1.00  0.00     0.166 HD
HETATM   17  S2  UNL     1      13.983  -0.573  57.701  1.00  0.00    -0.075 SA
HETATM   18  C15 UNL     1      12.751  -0.783  56.491  1.00  0.00     0.122 A 
BRANCH  18  19
HETATM   19  C16 UNL     1      12.357   0.195  55.472  1.00  0.00     0.219 C 
HETATM   20  O5  UNL     1      12.329  -0.026  54.268  1.00  0.00    -0.643 OA
HETATM   21  O6  UNL     1      11.983   1.484  55.904  1.00  0.00    -0.643 OA
ENDBRANCH  18  19
ENDBRANCH  10  13
ENDBRANCH   8  10
ENDBRANCH   5   8
BRANCH   1  22
HETATM   22  O1  UNL     1      14.914  -2.595  50.761  1.00  0.00    -0.300 OA
BRANCH  22  23
HETATM   23  C6  UNL     1      15.366  -1.387  50.377  1.00  0.00     0.153 A 
HETATM   24  C5  UNL     1      16.678  -1.337  49.881  1.00  0.00     0.153 A 
HETATM   25  C4  UNL     1      17.266  -0.166  49.446  1.00  0.00     0.046 A 
HETATM   26  F1  UNL     1      17.455  -2.458  49.837  1.00  0.00    -0.203 F 
HETATM   27  C3  UNL     1      16.559   1.017  49.490  1.00  0.00     0.013 A 
HETATM   28  C2  UNL     1      15.271   1.006  49.970  1.00  0.00    -0.020 A 
HETATM   29  C1  UNL     1      14.528   2.291  50.008  1.00  0.00     0.051 C 
HETATM   30  C18 UNL     1      14.712  -0.189  50.397  1.00  0.00     0.159 A 
HETATM   31  F3  UNL     1      13.448  -0.125  50.829  1.00  0.00    -0.203 F 
ENDBRANCH  22  23
ENDBRANCH   1  22
BRANCH   2  32
HETATM   32  C9  UNL     1      16.672  -4.283  52.177  1.00  0.00     0.255 C 
HETATM   33  O2  UNL     1      16.888  -5.152  51.302  1.00  0.00    -0.274 OA
HETATM   34 CL1  UNL     1      18.073  -3.478  52.843  1.00  0.00    -0.038 Cl
ENDBRANCH   2  32
TORSDOF 7
ENDMDL
MODEL 3
REMARK VINA RESULT: -8.831702774      2.159      3.437
REMARK  7 active torsions:
REMARK  status: ('A' for Active; 'I' for Inactive)
REMARK    1  A    between atoms: C6_7  and  O1_8 
REMARK    2  A    between atoms: O1_8  and  C7_9 
REMARK    3  A    between atoms: C8_10  and  C9_11 
REMARK    4  A    between atoms: C12_16  and  N1_17 
REMARK    5  A    between atoms: N1_17  and  S1_19 
REMARK    6  A    between atoms: S1_19  and  C13_22 
REMARK    7  A    between atoms: C15_27  and  C16_28 
ROOT
HETATM    1  C7  UNL     1      13.875  -1.341  52.418  1.00  0.00     0.132 A 
HETATM    2  C8  UNL     1      13.123  -0.737  51.400  1.00  0.00     0.063 A 
HETATM    3  C10 UNL     1      11.744  -0.837  51.446  1.00  0.00     0.022 A 
HETATM    4  C11 UNL     1      11.091  -1.505  52.456  1.00  0.00     0.034 A 
HETATM    5  C12 UNL     1      11.801  -2.104  53.467  1.00  0.00     0.084 A 
HETATM    6  C17 UNL     1      13.180  -1.995  53.403  1.00  0.00     0.178 A 
HETATM    7  F2  UNL     1      13.833  -2.620  54.430  1.00  0.00    -0.201 F 
ENDROOT
BRANCH   5   8
HETATM    8  N1  UNL     1      11.139  -2.786  54.515  1.00  0.00    -0.276 N 
ATOM      9  H1  UNL     1      10.936  -3.773  54.357  1.00  0.00     0.179 HD
BRANCH   8  10
HETATM   10  S1  UNL     1      10.645  -2.142  56.002  1.00  0.00     0.280 S 
HETATM   11  O3  UNL     1      11.688  -2.328  57.046  1.00  0.00    -0.199 OA
HETATM   12  O4  UNL     1      10.504  -0.608  55.901  1.00  0.00    -0.199 OA
BRANCH  10  13
HETATM   13  C13 UNL     1       9.086  -2.818  56.552  1.00  0.00     0.173 A 
HETATM   14  N2  UNL     1       8.013  -2.061  56.535  1.00  0.00    -0.348 N 
HETATM   15  C14 UNL     1       6.856  -2.536  56.926  1.00  0.00     0.140 A 
ATOM     16  H2  UNL     1       8.081  -1.096  56.214  1.00  0.00     0.166 HD
HETATM   17  S2  UNL     1       7.237  -4.134  57.352  1.00  0.00    -0.075 SA
HETATM   18  C15 UNL     1       8.937  -4.102  56.987  1.00  0.00     0.122 A 
BRANCH  18  19
HETATM   19  C16 UNL     1       9.875  -5.223  57.111  1.00  0.00     0.219 C 
HETATM   20  O5  UNL     1      10.741  -5.500  56.291  1.00  0.00    -0.643 OA
HETATM   21  O6  UNL     1       9.776  -6.045  58.251  1.00  0.00    -0.643 OA
ENDBRANCH  18  19
ENDBRANCH  10  13
ENDBRANCH   8  10
ENDBRANCH   5   8
BRANCH   1  22
HETATM   22  O1  UNL     1      15.223  -1.235  52.340  1.00  0.00    -0.300 OA
BRANCH  22  23
HETATM   23  C6  UNL     1      16.234  -2.100  52.543  1.00  0.00     0.153 A 
HETATM   24  C5  UNL     1      16.518  -2.989  51.494  1.00  0.00     0.153 A 
HETATM   25  C4  UNL     1      17.532  -3.923  51.564  1.00  0.00     0.046 A 
HETATM   26  F1  UNL     1      15.771  -2.989  50.353  1.00  0.00    -0.203 F 
HETATM   27  C3  UNL     1      18.311  -4.010  52.698  1.00  0.00     0.013 A 
HETATM   28  C2  UNL     1      18.061  -3.156  53.746  1.00  0.00    -0.020 A 
HETATM   29  C1  UNL     1      18.913  -3.267  54.957  1.00  0.00     0.051 C 
HETATM   30  C18 UNL     1      17.036  -2.229  53.640  1.00  0.00     0.159 A 
HETATM   31  F3  UNL     1      16.868  -1.417  54.689  1.00  0.00    -0.203 F 
ENDBRANCH  22  23
ENDBRANCH   1  22
BRANCH   2  32
HETATM   32  C9  UNL     1      13.722   0.058  50.335  1.00  0.00     0.255 C 
HETATM   33  O2  UNL     1      14.262   1.177  50.490  1.00  0.00    -0.274 OA
HETATM   34 CL1  UNL     1      13.698  -0.583  48.710  1.00  0.00    -0.038 Cl
ENDBRANCH   2  32
TORSDOF 7
ENDMDL
MODEL 4
REMARK VINA RESULT: -8.791115111      2.579      4.102
REMARK  7 active torsions:
REMARK  status: ('A' for Active; 'I' for Inactive)
REMARK    1  A    between atoms: C6_7  and  O1_8 
REMARK    2  A    between atoms: O1_8  and  C7_9 
REMARK    3  A    between atoms: C8_10  and  C9_11 
REMARK    4  A    between atoms: C12_16  and  N1_17 
REMARK    5  A    between atoms: N1_17  and  S1_19 
REMARK    6  A    between atoms: S1_19  and  C13_22 
REMARK    7  A    between atoms: C15_27  and  C16_28 
ROOT
HETATM    1  C7  UNL     1      13.491  -1.068  53.096  1.00  0.00     0.132 A 
HETATM    2  C8  UNL     1      12.567  -0.986  52.044  1.00  0.00     0.063 A 
HETATM    3  C10 UNL     1      11.221  -1.124  52.332  1.00  0.00     0.022 A 
HETATM    4  C11 UNL     1      10.764  -1.335  53.614  1.00  0.00     0.034 A 
HETATM    5  C12 UNL     1      11.645  -1.417  54.663  1.00  0.00     0.084 A 
HETATM    6  C17 UNL     1      12.988  -1.278  54.355  1.00  0.00     0.178 A 
HETATM    7  F2  UNL     1      13.817  -1.380  55.438  1.00  0.00    -0.201 F 
ENDROOT
BRANCH   5   8
HETATM    8  N1  UNL     1      11.184  -1.625  55.984  1.00  0.00    -0.276 N 
ATOM      9  H1  UNL     1      11.123  -0.799  56.579  1.00  0.00     0.179 HD
BRANCH   8  10
HETATM   10  S1  UNL     1      10.724  -3.098  56.686  1.00  0.00     0.280 S 
HETATM   11  O3  UNL     1      11.223  -4.254  55.894  1.00  0.00    -0.199 OA
HETATM   12  O4  UNL     1      11.408  -3.275  58.057  1.00  0.00    -0.199 OA
BRANCH  10  13
HETATM   13  C13 UNL     1       8.957  -3.218  56.915  1.00  0.00     0.173 A 
HETATM   14  N2  UNL     1       8.197  -2.188  56.619  1.00  0.00    -0.348 N 
HETATM   15  C14 UNL     1       6.897  -2.254  56.771  1.00  0.00     0.140 A 
ATOM     16  H2  UNL     1       8.622  -1.331  56.268  1.00  0.00     0.166 HD
HETATM   17  S2  UNL     1       6.672  -3.830  57.360  1.00  0.00    -0.075 SA
HETATM   18  C15 UNL     1       8.335  -4.340  57.378  1.00  0.00     0.122 A 
BRANCH  18  19
HETATM   19  C16 UNL     1       8.835  -5.662  57.768  1.00  0.00     0.219 C 
HETATM   20  O5  UNL     1       9.246  -5.950  58.884  1.00  0.00    -0.643 OA
HETATM   21  O6  UNL     1       8.845  -6.679  56.791  1.00  0.00    -0.643 OA
ENDBRANCH  18  19
ENDBRANCH  10  13
ENDBRANCH   8  10
ENDBRANCH   5   8
BRANCH   1  22
HETATM   22  O1  UNL     1      14.802  -0.940  52.782  1.00  0.00    -0.300 OA
BRANCH  22  23
HETATM   23  C6  UNL     1      15.840  -1.797  52.763  1.00  0.00     0.153 A 
HETATM   24  C5  UNL     1      16.768  -1.681  53.811  1.00  0.00     0.153 A 
HETATM   25  C4  UNL     1      17.875  -2.499  53.919  1.00  0.00     0.046 A 
HETATM   26  F1  UNL     1      16.631  -0.716  54.765  1.00  0.00    -0.203 F 
HETATM   27  C3  UNL     1      18.103  -3.477  52.974  1.00  0.00     0.013 A 
HETATM   28  C2  UNL     1      17.215  -3.619  51.934  1.00  0.00    -0.020 A 
HETATM   29  C1  UNL     1      17.480  -4.679  50.928  1.00  0.00     0.051 C 
HETATM   30  C18 UNL     1      16.114  -2.781  51.858  1.00  0.00     0.159 A 
HETATM   31  F3  UNL     1      15.283  -2.995  50.832  1.00  0.00    -0.203 F 
ENDBRANCH  22  23
ENDBRANCH   1  22
BRANCH   2  32
HETATM   32  C9  UNL     1      12.952  -0.687  50.671  1.00  0.00     0.255 C 
HETATM   33  O2  UNL     1      12.714  -1.416  49.682  1.00  0.00    -0.274 OA
HETATM   34 CL1  UNL     1      13.810   0.803  50.358  1.00  0.00    -0.038 Cl
ENDBRANCH   2  32
TORSDOF 7
ENDMDL
MODEL 5
REMARK VINA RESULT: -8.771418558      2.092      3.058
REMARK  7 active torsions:
REMARK  status: ('A' for Active; 'I' for Inactive)
REMARK    1  A    between atoms: C6_7  and  O1_8 
REMARK    2  A    between atoms: O1_8  and  C7_9 
REMARK    3  A    between atoms: C8_10  and  C9_11 
REMARK    4  A    between atoms: C12_16  and  N1_17 
REMARK    5  A    between atoms: N1_17  and  S1_19 
REMARK    6  A    between atoms: S1_19  and  C13_22 
REMARK    7  A    between atoms: C15_27  and  C16_28 
ROOT
HETATM    1  C7  UNL     1      14.354  -1.145  52.165  1.00  0.00     0.132 A 
HETATM    2  C8  UNL     1      13.817  -0.552  51.013  1.00  0.00     0.063 A 
HETATM    3  C10 UNL     1      12.443  -0.546  50.850  1.00  0.00     0.022 A 
HETATM    4  C11 UNL     1      11.592  -1.099  51.780  1.00  0.00     0.034 A 
HETATM    5  C12 UNL     1      12.091  -1.685  52.918  1.00  0.00     0.084 A 
HETATM    6  C17 UNL     1      13.467  -1.682  53.062  1.00  0.00     0.178 A 
HETATM    7  F2  UNL     1      13.904  -2.288  54.209  1.00  0.00    -0.201 F 
ENDROOT
BRANCH   5   8
HETATM    8  N1  UNL     1      11.224  -2.249  53.883  1.00  0.00    -0.276 N 
ATOM      9  H1  UNL     1      10.906  -3.201  53.707  1.00  0.00     0.179 HD
BRANCH   8  10
HETATM   10  S1  UNL     1      10.655  -1.513  55.300  1.00  0.00     0.280 S 
HETATM   11  O3  UNL     1      11.741  -0.778  56.002  1.00  0.00    -0.199 OA
HETATM   12  O4  UNL     1       9.634  -0.408  54.956  1.00  0.00    -0.199 OA
BRANCH  10  13
HETATM   13  C13 UNL     1       9.877  -2.678  56.406  1.00  0.00     0.173 A 
HETATM   14  N2  UNL     1       8.611  -2.523  56.721  1.00  0.00    -0.348 N 
HETATM   15  C14 UNL     1       8.015  -3.369  57.524  1.00  0.00     0.140 A 
ATOM     16  H2  UNL     1       8.088  -1.737  56.335  1.00  0.00     0.166 HD
HETATM   17  S2  UNL     1       9.255  -4.468  57.890  1.00  0.00    -0.075 SA
HETATM   18  C15 UNL     1      10.528  -3.748  56.947  1.00  0.00     0.122 A 
BRANCH  18  19
HETATM   19  C16 UNL     1      11.897  -4.254  56.803  1.00  0.00     0.219 C 
HETATM   20  O5  UNL     1      12.708  -4.338  57.717  1.00  0.00    -0.643 OA
HETATM   21  O6  UNL     1      12.315  -4.674  55.525  1.00  0.00    -0.643 OA
ENDBRANCH  18  19
ENDBRANCH  10  13
ENDBRANCH   8  10
ENDBRANCH   5   8
BRANCH   1  22
HETATM   22  O1  UNL     1      15.703  -1.145  52.292  1.00  0.00    -0.300 OA
BRANCH  22  23
HETATM   23  C6  UNL     1      16.601  -2.083  52.645  1.00  0.00     0.153 A 
HETATM   24  C5  UNL     1      16.850  -3.097  51.707  1.00  0.00     0.153 A 
HETATM   25  C4  UNL     1      17.752  -4.118  51.936  1.00  0.00     0.046 A 
HETATM   26  F1  UNL     1      16.177  -3.138  50.522  1.00  0.00    -0.203 F 
HETATM   27  C3  UNL     1      18.447  -4.168  53.126  1.00  0.00     0.013 A 
HETATM   28  C2  UNL     1      18.228  -3.191  54.068  1.00  0.00    -0.020 A 
HETATM   29  C1  UNL     1      18.989  -3.264  55.341  1.00  0.00     0.051 C 
HETATM   30  C18 UNL     1      17.317  -2.180  53.803  1.00  0.00     0.159 A 
HETATM   31  F3  UNL     1      17.175  -1.254  54.757  1.00  0.00    -0.203 F 
ENDBRANCH  22  23
ENDBRANCH   1  22
BRANCH   2  32
HETATM   32  C9  UNL     1      14.633   0.128  50.015  1.00  0.00     0.255 C 
HETATM   33  O2  UNL     1      15.354  -0.443  49.166  1.00  0.00    -0.274 OA
HETATM   34 CL1  UNL     1      14.619   1.875  49.984  1.00  0.00    -0.038 Cl
ENDBRANCH   2  32
TORSDOF 7
ENDMDL
