MODEL 1
REMARK VINA RESULT: -6.713674882      0.000      0.000
REMARK  10 active torsions:
REMARK  status: ('A' for Active; 'I' for Inactive)
REMARK    1  A    between atoms: O1_2  and  C2_3 
REMARK    2  A    between atoms: C2_3  and  C3_5 
REMARK    3  A    between atoms: C5_7  and  O3_8 
REMARK    4  A    between atoms: O3_8  and  C6_9 
REMARK       I    between atoms: C6_9  and  N1_11 
REMARK    5  A    between atoms: N1_11  and  C7_13 
REMARK       I    between atoms: N2_24  and  C18_25 
REMARK    6  A    between atoms: C18_25  and  C19_27 
REMARK    7  A    between atoms: C21_29  and  S1_30 
REMARK    8  A    between atoms: C23_32  and  N3_33 
REMARK       I    between atoms: N3_33  and  C24_35 
REMARK    9  A    between atoms: N4_38  and  O7_39 
REMARK   10  A    between atoms: C26_41  and  O8_42 
ROOT
HETATM    1  C3  UNL     1       1.856  -4.072 -17.746  1.00  0.00     0.189 C 
HETATM    2  C4  UNL     1       2.931  -3.734 -18.757  1.00  0.00     0.070 C 
HETATM    3  C5  UNL     1       3.966  -4.778 -18.502  1.00  0.00     0.154 C 
HETATM    4  C17 UNL     1       3.181  -5.989 -18.078  1.00  0.00     0.159 C 
HETATM    5  N2  UNL     1       1.799  -5.527 -17.958  1.00  0.00    -0.335 N 
HETATM    6  C18 UNL     1       0.607  -6.267 -18.033  1.00  0.00     0.232 C 
HETATM    7  O5  UNL     1      -0.499  -5.694 -17.916  1.00  0.00    -0.272 OA
ENDROOT
BRANCH   1   8
HETATM    8  C2  UNL     1       2.365  -3.838 -16.385  1.00  0.00     0.281 C 
HETATM    9  O2  UNL     1       2.935  -2.721 -16.146  1.00  0.00    -0.263 OA
BRANCH   8  10
HETATM   10  O1  UNL     1       2.282  -4.721 -15.336  1.00  0.00    -0.325 OA
HETATM   11  C1  UNL     1       1.180  -4.794 -14.441  1.00  0.00     0.213 C 
ENDBRANCH   8  10
ENDBRANCH   1   8
BRANCH   6  12
HETATM   12  C19 UNL     1       0.602  -7.742 -18.253  1.00  0.00     0.156 C 
HETATM   13  C20 UNL     1       0.901  -8.537 -17.033  1.00  0.00     0.041 C 
HETATM   14  C21 UNL     1      -0.175  -9.410 -16.512  1.00  0.00     0.093 C 
HETATM   15  C23 UNL     1      -1.530  -9.244 -17.110  1.00  0.00     0.230 C 
HETATM   16  N4  UNL     1      -1.542  -8.840 -18.492  1.00  0.00    -0.217 N 
HETATM   17  C26 UNL     1      -0.597  -8.171 -19.011  1.00  0.00     0.155 C 
BRANCH  14  18
HETATM   18  S1  UNL     1       0.328 -11.155 -16.753  1.00  0.00    -0.165 SA
HETATM   19  C22 UNL     1       1.183 -11.375 -18.321  1.00  0.00     0.090 C 
ENDBRANCH  14  18
BRANCH  15  20
HETATM   20  N3  UNL     1      -2.276  -8.242 -16.372  1.00  0.00    -0.337 N 
HETATM   21  C24 UNL     1      -3.691  -8.292 -16.270  1.00  0.00     0.215 C 
HETATM   22  C25 UNL     1      -4.464  -7.276 -15.520  1.00  0.00     0.117 C 
HETATM   23  O6  UNL     1      -4.293  -9.229 -16.838  1.00  0.00    -0.274 OA
ATOM     24  H3  UNL     1      -1.771  -7.483 -15.915  1.00  0.00     0.164 HD
ENDBRANCH  15  20
BRANCH  16  25
HETATM   25  O7  UNL     1      -2.623  -9.202 -19.256  1.00  0.00    -0.284 OA
ATOM     26  H7  UNL     1      -2.496  -9.877 -19.912  1.00  0.00     0.245 HD
ENDBRANCH  16  25
BRANCH  17  27
HETATM   27  O8  UNL     1      -0.689  -7.830 -20.329  1.00  0.00    -0.342 OA
HETATM   28  C27 UNL     1       0.072  -8.285 -21.389  1.00  0.00     0.211 C 
ENDBRANCH  17  27
ENDBRANCH   6  12
BRANCH   3  29
HETATM   29  O3  UNL     1       4.764  -5.048 -19.637  1.00  0.00    -0.297 OA
BRANCH  29  30
HETATM   30  C6  UNL     1       5.186  -3.980 -20.417  1.00  0.00     0.361 C 
HETATM   31  O4  UNL     1       4.913  -4.026 -21.641  1.00  0.00    -0.238 OA
HETATM   32  N1  UNL     1       5.901  -2.880 -19.838  1.00  0.00    -0.328 N 
ATOM     33  H1  UNL     1       6.084  -2.908 -18.835  1.00  0.00     0.165 HD
BRANCH  32  34
HETATM   34  C7  UNL     1       6.375  -1.745 -20.569  1.00  0.00     0.036 C 
HETATM   35  C8  UNL     1       6.967  -0.737 -19.594  1.00  0.00     0.035 C 
HETATM   36  C9  UNL     1       7.466   0.459 -20.329  1.00  0.00    -0.012 C 
HETATM   37  C10 UNL     1       6.365   1.136 -21.109  1.00  0.00     0.009 C 
HETATM   38  C14 UNL     1       8.550   0.032 -21.280  1.00  0.00     0.009 C 
HETATM   39  C11 UNL     1       5.794   0.138 -22.082  1.00  0.00    -0.012 C 
HETATM   40  C12 UNL     1       6.835  -0.334 -23.062  1.00  0.00     0.009 C 
HETATM   41  C16 UNL     1       5.274  -1.074 -21.334  1.00  0.00     0.035 C 
HETATM   42  C13 UNL     1       7.971  -0.953 -22.278  1.00  0.00    -0.012 C 
HETATM   43  C15 UNL     1       7.493  -2.146 -21.508  1.00  0.00     0.035 C 
ENDBRANCH  32  34
ENDBRANCH  29  30
ENDBRANCH   3  29
TORSDOF 10
ENDMDL
MODEL 2
REMARK VINA RESULT: -6.482704687      3.496      5.945
REMARK  10 active torsions:
REMARK  status: ('A' for Active; 'I' for Inactive)
REMARK    1  A    between atoms: O1_2  and  C2_3 
REMARK    2  A    between atoms: C2_3  and  C3_5 
REMARK    3  A    between atoms: C5_7  and  O3_8 
REMARK    4  A    between atoms: O3_8  and  C6_9 
REMARK       I    between atoms: C6_9  and  N1_11 
REMARK    5  A    between atoms: N1_11  and  C7_13 
REMARK       I    between atoms: N2_24  and  C18_25 
REMARK    6  A    between atoms: C18_25  and  C19_27 
REMARK    7  A    between atoms: C21_29  and  S1_30 
REMARK    8  A    between atoms: C23_32  and  N3_33 
REMARK       I    between atoms: N3_33  and  C24_35 
REMARK    9  A    between atoms: N4_38  and  O7_39 
REMARK   10  A    between atoms: C26_41  and  O8_42 
ROOT
HETATM    1  C3  UNL     1       1.852  -4.218 -19.635  1.00  0.00     0.189 C 
HETATM    2  C4  UNL     1       1.834  -4.020 -21.136  1.00  0.00     0.070 C 
HETATM    3  C5  UNL     1       2.781  -5.066 -21.621  1.00  0.00     0.154 C 
HETATM    4  C17 UNL     1       2.615  -6.201 -20.648  1.00  0.00     0.159 C 
HETATM    5  N2  UNL     1       1.733  -5.684 -19.603  1.00  0.00    -0.335 N 
HETATM    6  C18 UNL     1       0.901  -6.389 -18.716  1.00  0.00     0.232 C 
HETATM    7  O5  UNL     1       0.200  -5.770 -17.884  1.00  0.00    -0.272 OA
ENDROOT
BRANCH   1   8
HETATM    8  C2  UNL     1       3.178  -3.864 -19.105  1.00  0.00     0.281 C 
HETATM    9  O2  UNL     1       3.564  -4.438 -18.032  1.00  0.00    -0.263 OA
BRANCH   8  10
HETATM   10  O1  UNL     1       4.049  -2.962 -19.664  1.00  0.00    -0.325 OA
HETATM   11  C1  UNL     1       4.967  -2.172 -18.917  1.00  0.00     0.213 C 
ENDBRANCH   8  10
ENDBRANCH   1   8
BRANCH   6  12
HETATM   12  C19 UNL     1       0.812  -7.877 -18.725  1.00  0.00     0.156 C 
HETATM   13  C20 UNL     1       1.156  -8.511 -17.424  1.00  0.00     0.041 C 
HETATM   14  C21 UNL     1       0.077  -9.242 -16.722  1.00  0.00     0.093 C 
HETATM   15  C23 UNL     1      -1.306  -9.086 -17.255  1.00  0.00     0.230 C 
HETATM   16  N4  UNL     1      -1.390  -8.878 -18.677  1.00  0.00    -0.217 N 
HETATM   17  C26 UNL     1      -0.453  -8.340 -19.342  1.00  0.00     0.155 C 
BRANCH  14  18
HETATM   18  S1  UNL     1       0.482 -11.030 -16.742  1.00  0.00    -0.165 SA
HETATM   19  C22 UNL     1       1.164 -11.524 -18.333  1.00  0.00     0.090 C 
ENDBRANCH  14  18
BRANCH  15  20
HETATM   20  N3  UNL     1      -1.953  -7.953 -16.624  1.00  0.00    -0.337 N 
HETATM   21  C24 UNL     1      -3.353  -7.929 -16.392  1.00  0.00     0.215 C 
HETATM   22  C25 UNL     1      -4.028  -6.778 -15.748  1.00  0.00     0.117 C 
HETATM   23  O6  UNL     1      -4.030  -8.918 -16.748  1.00  0.00    -0.274 OA
ATOM     24  H3  UNL     1      -1.389  -7.152 -16.339  1.00  0.00     0.164 HD
ENDBRANCH  15  20
BRANCH  16  25
HETATM   25  O7  UNL     1      -2.536  -9.282 -19.317  1.00  0.00    -0.284 OA
ATOM     26  H7  UNL     1      -2.579  -9.174 -20.259  1.00  0.00     0.245 HD
ENDBRANCH  16  25
BRANCH  17  27
HETATM   27  O8  UNL     1      -0.616  -8.180 -20.686  1.00  0.00    -0.342 OA
HETATM   28  C27 UNL     1       0.122  -8.737 -21.714  1.00  0.00     0.211 C 
ENDBRANCH  17  27
ENDBRANCH   6  12
BRANCH   3  29
HETATM   29  O3  UNL     1       2.515  -5.475 -22.948  1.00  0.00    -0.297 OA
BRANCH  29  30
HETATM   30  C6  UNL     1       3.271  -6.507 -23.485  1.00  0.00     0.361 C 
HETATM   31  O4  UNL     1       4.518  -6.377 -23.450  1.00  0.00    -0.238 OA
HETATM   32  N1  UNL     1       2.642  -7.666 -24.050  1.00  0.00    -0.328 N 
ATOM     33  H1  UNL     1       1.623  -7.705 -24.040  1.00  0.00     0.165 HD
BRANCH  32  34
HETATM   34  C7  UNL     1       3.344  -8.770 -24.628  1.00  0.00     0.036 C 
HETATM   35  C8  UNL     1       2.337  -9.751 -25.209  1.00  0.00     0.035 C 
HETATM   36  C9  UNL     1       3.043 -10.916 -25.815  1.00  0.00    -0.012 C 
HETATM   37  C10 UNL     1       3.892 -11.644 -24.802  1.00  0.00     0.009 C 
HETATM   38  C14 UNL     1       3.921 -10.428 -26.933  1.00  0.00     0.009 C 
HETATM   39  C11 UNL     1       4.897 -10.671 -24.243  1.00  0.00    -0.012 C 
HETATM   40  C12 UNL     1       5.808 -10.140 -25.317  1.00  0.00     0.009 C 
HETATM   41  C16 UNL     1       4.180  -9.492 -23.614  1.00  0.00     0.035 C 
HETATM   42  C13 UNL     1       4.951  -9.468 -26.368  1.00  0.00    -0.012 C 
HETATM   43  C15 UNL     1       4.210  -8.305 -25.781  1.00  0.00     0.035 C 
ENDBRANCH  32  34
ENDBRANCH  29  30
ENDBRANCH   3  29
TORSDOF 10
ENDMDL
MODEL 3
REMARK VINA RESULT: -6.391981439      6.790     13.510
REMARK  10 active torsions:
REMARK  status: ('A' for Active; 'I' for Inactive)
REMARK    1  A    between atoms: O1_2  and  C2_3 
REMARK    2  A    between atoms: C2_3  and  C3_5 
REMARK    3  A    between atoms: C5_7  and  O3_8 
REMARK    4  A    between atoms: O3_8  and  C6_9 
REMARK       I    between atoms: C6_9  and  N1_11 
REMARK    5  A    between atoms: N1_11  and  C7_13 
REMARK       I    between atoms: N2_24  and  C18_25 
REMARK    6  A    between atoms: C18_25  and  C19_27 
REMARK    7  A    between atoms: C21_29  and  S1_30 
REMARK    8  A    between atoms: C23_32  and  N3_33 
REMARK       I    between atoms: N3_33  and  C24_35 
REMARK    9  A    between atoms: N4_38  and  O7_39 
REMARK   10  A    between atoms: C26_41  and  O8_42 
ROOT
HETATM    1  C3  UNL     1      -2.132  -1.775 -14.648  1.00  0.00     0.189 C 
HETATM    2  C4  UNL     1      -3.612  -1.722 -14.333  1.00  0.00     0.070 C 
HETATM    3  C5  UNL     1      -3.657  -2.083 -12.886  1.00  0.00     0.154 C 
HETATM    4  C17 UNL     1      -2.380  -1.526 -12.320  1.00  0.00     0.159 C 
HETATM    5  N2  UNL     1      -1.628  -1.040 -13.478  1.00  0.00    -0.335 N 
HETATM    6  C18 UNL     1      -0.621  -0.062 -13.534  1.00  0.00     0.232 C 
HETATM    7  O5  UNL     1      -0.090   0.234 -14.628  1.00  0.00    -0.272 OA
ENDROOT
BRANCH   1   8
HETATM    8  C2  UNL     1      -1.654  -3.163 -14.546  1.00  0.00     0.281 C 
HETATM    9  O2  UNL     1      -2.364  -4.079 -15.080  1.00  0.00    -0.263 OA
BRANCH   8  10
HETATM   10  O1  UNL     1      -0.500  -3.568 -13.921  1.00  0.00    -0.325 OA
HETATM   11  C1  UNL     1       0.785  -3.550 -14.529  1.00  0.00     0.213 C 
ENDBRANCH   8  10
ENDBRANCH   1   8
BRANCH   6  12
HETATM   12  C19 UNL     1      -0.146   0.658 -12.318  1.00  0.00     0.156 C 
HETATM   13  C20 UNL     1       1.139   0.146 -11.775  1.00  0.00     0.041 C 
HETATM   14  C21 UNL     1       2.301   1.064 -11.803  1.00  0.00     0.093 C 
HETATM   15  C23 UNL     1       2.146   2.327 -12.578  1.00  0.00     0.230 C 
HETATM   16  N4  UNL     1       0.810   2.862 -12.612  1.00  0.00    -0.217 N 
HETATM   17  C26 UNL     1      -0.218   2.127 -12.497  1.00  0.00     0.155 C 
BRANCH  14  18
HETATM   18  S1  UNL     1       2.722   1.518 -10.078  1.00  0.00    -0.165 SA
HETATM   19  C22 UNL     1       1.375   1.118  -8.953  1.00  0.00     0.090 C 
ENDBRANCH  14  18
BRANCH  15  20
HETATM   20  N3  UNL     1       2.550   2.115 -13.955  1.00  0.00    -0.337 N 
HETATM   21  C24 UNL     1       3.247   3.110 -14.688  1.00  0.00     0.215 C 
HETATM   22  C25 UNL     1       3.666   2.906 -16.094  1.00  0.00     0.117 C 
HETATM   23  O6  UNL     1       3.512   4.190 -14.117  1.00  0.00    -0.274 OA
ATOM     24  H3  UNL     1       2.327   1.228 -14.407  1.00  0.00     0.164 HD
ENDBRANCH  15  20
BRANCH  16  25
HETATM   25  O7  UNL     1       0.665   4.217 -12.776  1.00  0.00    -0.284 OA
ATOM     26  H7  UNL     1      -0.079   4.637 -12.363  1.00  0.00     0.245 HD
ENDBRANCH  16  25
BRANCH  17  27
HETATM   27  O8  UNL     1      -1.448   2.716 -12.540  1.00  0.00    -0.342 OA
HETATM   28  C27 UNL     1      -2.520   2.531 -11.687  1.00  0.00     0.211 C 
ENDBRANCH  17  27
ENDBRANCH   6  12
BRANCH   3  29
HETATM   29  O3  UNL     1      -4.791  -1.560 -12.224  1.00  0.00    -0.297 OA
BRANCH  29  30
HETATM   30  C6  UNL     1      -6.010  -2.202 -12.394  1.00  0.00     0.361 C 
HETATM   31  O4  UNL     1      -7.043  -1.497 -12.296  1.00  0.00    -0.238 OA
HETATM   32  N1  UNL     1      -6.072  -3.608 -12.668  1.00  0.00    -0.328 N 
ATOM     33  H1  UNL     1      -5.190  -4.117 -12.739  1.00  0.00     0.165 HD
BRANCH  32  34
HETATM   34  C7  UNL     1      -7.282  -4.347 -12.851  1.00  0.00     0.036 C 
HETATM   35  C8  UNL     1      -6.948  -5.719 -13.419  1.00  0.00     0.035 C 
HETATM   36  C9  UNL     1      -8.194  -6.510 -13.624  1.00  0.00    -0.012 C 
HETATM   37  C10 UNL     1      -9.147  -5.819 -14.569  1.00  0.00     0.009 C 
HETATM   38  C14 UNL     1      -8.873  -6.704 -12.296  1.00  0.00     0.009 C 
HETATM   39  C11 UNL     1      -9.486  -4.469 -13.993  1.00  0.00    -0.012 C 
HETATM   40  C12 UNL     1     -10.167  -4.595 -12.657  1.00  0.00     0.009 C 
HETATM   41  C16 UNL     1      -8.220  -3.658 -13.797  1.00  0.00     0.035 C 
HETATM   42  C13 UNL     1      -9.240  -5.347 -11.727  1.00  0.00    -0.012 C 
HETATM   43  C15 UNL     1      -7.967  -4.585 -11.521  1.00  0.00     0.035 C 
ENDBRANCH  32  34
ENDBRANCH  29  30
ENDBRANCH   3  29
TORSDOF 10
ENDMDL
MODEL 4
REMARK VINA RESULT: -6.328169933      9.838     14.858
REMARK  10 active torsions:
REMARK  status: ('A' for Active; 'I' for Inactive)
REMARK    1  A    between atoms: O1_2  and  C2_3 
REMARK    2  A    between atoms: C2_3  and  C3_5 
REMARK    3  A    between atoms: C5_7  and  O3_8 
REMARK    4  A    between atoms: O3_8  and  C6_9 
REMARK       I    between atoms: C6_9  and  N1_11 
REMARK    5  A    between atoms: N1_11  and  C7_13 
REMARK       I    between atoms: N2_24  and  C18_25 
REMARK    6  A    between atoms: C18_25  and  C19_27 
REMARK    7  A    between atoms: C21_29  and  S1_30 
REMARK    8  A    between atoms: C23_32  and  N3_33 
REMARK       I    between atoms: N3_33  and  C24_35 
REMARK    9  A    between atoms: N4_38  and  O7_39 
REMARK   10  A    between atoms: C26_41  and  O8_42 
ROOT
HETATM    1  C3  UNL     1      -5.099   1.862 -10.109  1.00  0.00     0.189 C 
HETATM    2  C4  UNL     1      -5.489   0.482 -10.593  1.00  0.00     0.070 C 
HETATM    3  C5  UNL     1      -5.576   0.661 -12.071  1.00  0.00     0.154 C 
HETATM    4  C17 UNL     1      -4.529   1.694 -12.387  1.00  0.00     0.159 C 
HETATM    5  N2  UNL     1      -4.038   2.150 -11.086  1.00  0.00    -0.335 N 
HETATM    6  C18 UNL     1      -2.806   2.742 -10.763  1.00  0.00     0.232 C 
HETATM    7  O5  UNL     1      -2.553   3.063  -9.580  1.00  0.00    -0.272 OA
ENDROOT
BRANCH   1   8
HETATM    8  C2  UNL     1      -6.202   2.803 -10.355  1.00  0.00     0.281 C 
HETATM    9  O2  UNL     1      -5.913   3.950 -10.835  1.00  0.00    -0.263 OA
BRANCH   8  10
HETATM   10  O1  UNL     1      -7.532   2.559 -10.112  1.00  0.00    -0.325 OA
HETATM   11  C1  UNL     1      -8.116   2.543  -8.816  1.00  0.00     0.213 C 
ENDBRANCH   8  10
ENDBRANCH   1   8
BRANCH   6  12
HETATM   12  C19 UNL     1      -1.760   3.011 -11.791  1.00  0.00     0.156 C 
HETATM   13  C20 UNL     1      -1.244   4.405 -11.778  1.00  0.00     0.041 C 
HETATM   14  C21 UNL     1       0.181   4.596 -11.425  1.00  0.00     0.093 C 
HETATM   15  C23 UNL     1       0.911   3.412 -10.890  1.00  0.00     0.230 C 
HETATM   16  N4  UNL     1       0.463   2.141 -11.396  1.00  0.00    -0.217 N 
HETATM   17  C26 UNL     1      -0.725   1.951 -11.800  1.00  0.00     0.155 C 
BRANCH  14  18
HETATM   18  S1  UNL     1       1.076   5.171 -12.918  1.00  0.00    -0.165 SA
HETATM   19  C22 UNL     1       0.157   4.784 -14.416  1.00  0.00     0.090 C 
ENDBRANCH  14  18
BRANCH  15  20
HETATM   20  N3  UNL     1       0.779   3.362  -9.447  1.00  0.00    -0.337 N 
HETATM   21  C24 UNL     1       1.847   2.933  -8.616  1.00  0.00     0.215 C 
HETATM   22  C25 UNL     1       1.727   2.877  -7.141  1.00  0.00     0.117 C 
HETATM   23  O6  UNL     1       2.921   2.592  -9.160  1.00  0.00    -0.274 OA
ATOM     24  H3  UNL     1      -0.102   3.642  -9.018  1.00  0.00     0.164 HD
ENDBRANCH  15  20
BRANCH  16  25
HETATM   25  O7  UNL     1       1.369   1.110 -11.432  1.00  0.00    -0.284 OA
ATOM     26  H7  UNL     1       1.032   0.225 -11.499  1.00  0.00     0.245 HD
ENDBRANCH  16  25
BRANCH  17  27
HETATM   27  O8  UNL     1      -1.066   0.714 -12.263  1.00  0.00    -0.342 OA
HETATM   28  C27 UNL     1      -1.338   0.328 -13.562  1.00  0.00     0.211 C 
ENDBRANCH  17  27
ENDBRANCH   6  12
BRANCH   3  29
HETATM   29  O3  UNL     1      -5.353  -0.540 -12.784  1.00  0.00    -0.297 OA
BRANCH  29  30
HETATM   30  C6  UNL     1      -6.423  -1.403 -12.975  1.00  0.00     0.361 C 
HETATM   31  O4  UNL     1      -7.463  -0.917 -13.482  1.00  0.00    -0.238 OA
HETATM   32  N1  UNL     1      -6.331  -2.786 -12.606  1.00  0.00    -0.328 N 
ATOM     33  H1  UNL     1      -5.453  -3.112 -12.203  1.00  0.00     0.165 HD
BRANCH  32  34
HETATM   34  C7  UNL     1      -7.385  -3.740 -12.764  1.00  0.00     0.036 C 
HETATM   35  C8  UNL     1      -6.783  -5.098 -13.092  1.00  0.00     0.035 C 
HETATM   36  C9  UNL     1      -7.861  -6.112 -13.266  1.00  0.00    -0.012 C 
HETATM   37  C10 UNL     1      -8.814  -5.730 -14.372  1.00  0.00     0.009 C 
HETATM   38  C14 UNL     1      -8.627  -6.237 -11.978  1.00  0.00     0.009 C 
HETATM   39  C11 UNL     1      -9.419  -4.393 -14.033  1.00  0.00    -0.012 C 
HETATM   40  C12 UNL     1     -10.199  -4.451 -12.747  1.00  0.00     0.009 C 
HETATM   41  C16 UNL     1      -8.324  -3.357 -13.869  1.00  0.00     0.035 C 
HETATM   42  C13 UNL     1      -9.259  -4.898 -11.649  1.00  0.00    -0.012 C 
HETATM   43  C15 UNL     1      -8.149  -3.908 -11.467  1.00  0.00     0.035 C 
ENDBRANCH  32  34
ENDBRANCH  29  30
ENDBRANCH   3  29
TORSDOF 10
ENDMDL
MODEL 5
REMARK VINA RESULT: -6.289880001      5.012      7.258
REMARK  10 active torsions:
REMARK  status: ('A' for Active; 'I' for Inactive)
REMARK    1  A    between atoms: O1_2  and  C2_3 
REMARK    2  A    between atoms: C2_3  and  C3_5 
REMARK    3  A    between atoms: C5_7  and  O3_8 
REMARK    4  A    between atoms: O3_8  and  C6_9 
REMARK       I    between atoms: C6_9  and  N1_11 
REMARK    5  A    between atoms: N1_11  and  C7_13 
REMARK       I    between atoms: N2_24  and  C18_25 
REMARK    6  A    between atoms: C18_25  and  C19_27 
REMARK    7  A    between atoms: C21_29  and  S1_30 
REMARK    8  A    between atoms: C23_32  and  N3_33 
REMARK       I    between atoms: N3_33  and  C24_35 
REMARK    9  A    between atoms: N4_38  and  O7_39 
REMARK   10  A    between atoms: C26_41  and  O8_42 
ROOT
HETATM    1  C3  UNL     1       2.028  -5.261 -11.983  1.00  0.00     0.189 C 
HETATM    2  C4  UNL     1       1.250  -4.250 -11.167  1.00  0.00     0.070 C 
HETATM    3  C5  UNL     1       1.733  -2.946 -11.706  1.00  0.00     0.154 C 
HETATM    4  C17 UNL     1       2.015  -3.221 -13.158  1.00  0.00     0.159 C 
HETATM    5  N2  UNL     1       1.840  -4.665 -13.315  1.00  0.00    -0.335 N 
HETATM    6  C18 UNL     1       1.540  -5.400 -14.474  1.00  0.00     0.232 C 
HETATM    7  O5  UNL     1       1.418  -6.644 -14.416  1.00  0.00    -0.272 OA
ENDROOT
BRANCH   1   8
HETATM    8  C2  UNL     1       3.458  -5.171 -11.649  1.00  0.00     0.281 C 
HETATM    9  O2  UNL     1       3.778  -5.080 -10.417  1.00  0.00    -0.263 OA
BRANCH   8  10
HETATM   10  O1  UNL     1       4.493  -5.174 -12.552  1.00  0.00    -0.325 OA
HETATM   11  C1  UNL     1       5.035  -6.351 -13.139  1.00  0.00     0.213 C 
ENDBRANCH   8  10
ENDBRANCH   1   8
BRANCH   6  12
HETATM   12  C19 UNL     1       1.356  -4.748 -15.802  1.00  0.00     0.156 C 
HETATM   13  C20 UNL     1       2.005  -5.472 -16.926  1.00  0.00     0.041 C 
HETATM   14  C21 UNL     1       1.118  -6.038 -17.968  1.00  0.00     0.093 C 
HETATM   15  C23 UNL     1      -0.345  -6.037 -17.686  1.00  0.00     0.230 C 
HETATM   16  N4  UNL     1      -0.807  -4.947 -16.867  1.00  0.00    -0.217 N 
HETATM   17  C26 UNL     1      -0.058  -4.365 -16.025  1.00  0.00     0.155 C 
BRANCH  14  18
HETATM   18  S1  UNL     1       1.384  -5.105 -19.523  1.00  0.00    -0.165 SA
HETATM   19  C22 UNL     1      -0.163  -4.427 -20.147  1.00  0.00     0.090 C 
ENDBRANCH  14  18
BRANCH  15  20
HETATM   20  N3  UNL     1      -0.717  -7.263 -17.005  1.00  0.00    -0.337 N 
HETATM   21  C24 UNL     1      -1.364  -8.326 -17.686  1.00  0.00     0.215 C 
HETATM   22  C25 UNL     1      -1.749  -9.583 -17.002  1.00  0.00     0.117 C 
HETATM   23  O6  UNL     1      -1.613  -8.186 -18.903  1.00  0.00    -0.274 OA
ATOM     24  H3  UNL     1      -0.507  -7.363 -16.011  1.00  0.00     0.164 HD
ENDBRANCH  15  20
BRANCH  16  25
HETATM   25  O7  UNL     1      -2.109  -4.539 -17.019  1.00  0.00    -0.284 OA
ATOM     26  H7  UNL     1      -2.312  -3.628 -16.841  1.00  0.00     0.245 HD
ENDBRANCH  16  25
BRANCH  17  27
HETATM   27  O8  UNL     1      -0.577  -3.341 -15.290  1.00  0.00    -0.342 OA
HETATM   28  C27 UNL     1      -1.417  -3.409 -14.194  1.00  0.00     0.211 C 
ENDBRANCH  17  27
ENDBRANCH   6  12
BRANCH   3  29
HETATM   29  O3  UNL     1       0.790  -1.904 -11.548  1.00  0.00    -0.297 OA
BRANCH  29  30
HETATM   30  C6  UNL     1       1.031  -0.693 -12.183  1.00  0.00     0.361 C 
HETATM   31  O4  UNL     1       2.033  -0.040 -11.802  1.00  0.00    -0.238 OA
HETATM   32  N1  UNL     1       0.167  -0.221 -13.225  1.00  0.00    -0.328 N 
ATOM     33  H1  UNL     1      -0.627  -0.807 -13.485  1.00  0.00     0.165 HD
BRANCH  32  34
HETATM   34  C7  UNL     1       0.339   1.014 -13.925  1.00  0.00     0.036 C 
HETATM   35  C8  UNL     1      -0.769   1.160 -14.959  1.00  0.00     0.035 C 
HETATM   36  C9  UNL     1      -0.610   2.438 -15.708  1.00  0.00    -0.012 C 
HETATM   37  C10 UNL     1       0.720   2.510 -16.417  1.00  0.00     0.009 C 
HETATM   38  C14 UNL     1      -0.716   3.586 -14.743  1.00  0.00     0.009 C 
HETATM   39  C11 UNL     1       1.811   2.382 -15.387  1.00  0.00    -0.012 C 
HETATM   40  C12 UNL     1       1.758   3.504 -14.384  1.00  0.00     0.009 C 
HETATM   41  C16 UNL     1       1.659   1.075 -14.632  1.00  0.00     0.035 C 
HETATM   42  C13 UNL     1       0.399   3.474 -13.720  1.00  0.00    -0.012 C 
HETATM   43  C15 UNL     1       0.202   2.187 -12.977  1.00  0.00     0.035 C 
ENDBRANCH  32  34
ENDBRANCH  29  30
ENDBRANCH   3  29
TORSDOF 10
ENDMDL
