MODEL 1
REMARK VINA RESULT: -6.883731527      0.000      0.000
REMARK  11 active torsions:
REMARK  status: ('A' for Active; 'I' for Inactive)
REMARK    1  A    between atoms: C2_2  and  O1_4 
REMARK    2  A    between atoms: O1_4  and  C4_5 
REMARK       I    between atoms: C4_5  and  N1_7 
REMARK    3  A    between atoms: N1_7  and  C5_9 
REMARK    4  A    between atoms: C5_9  and  C6_10 
REMARK    5  A    between atoms: C5_9  and  C24_41 
REMARK       I    between atoms: C6_10  and  N2_12 
REMARK    6  A    between atoms: C10_16  and  C11_17 
REMARK       I    between atoms: C11_17  and  N3_19 
REMARK    7  A    between atoms: N4_22  and  C14_23 
REMARK    8  A    between atoms: C14_23  and  O5_24 
REMARK    9  A    between atoms: C14_23  and  C15_26 
REMARK   10  A    between atoms: C15_26  and  N5_27 
REMARK       I    between atoms: N5_27  and  C16_29 
REMARK   11  A    between atoms: C16_29  and  C17_31 
ROOT
HETATM    1  C11 UNL     1       1.902  -5.603 -16.343  1.00  0.00     0.242 C 
HETATM    2  O4  UNL     1       3.157  -5.692 -16.228  1.00  0.00    -0.271 OA
HETATM    3  N3  UNL     1       1.179  -4.760 -15.467  1.00  0.00    -0.347 N 
HETATM    4  C12 UNL     1      -0.235  -4.639 -15.568  1.00  0.00     0.145 C 
HETATM    5  C13 UNL     1      -0.772  -3.613 -14.568  1.00  0.00     0.144 C 
HETATM    6  N4  UNL     1       0.010  -2.426 -14.461  1.00  0.00    -0.360 N 
HETATM    7  C22 UNL     1       1.477  -2.549 -14.661  1.00  0.00     0.144 C 
HETATM    8  C23 UNL     1       1.915  -3.988 -14.461  1.00  0.00     0.145 C 
ENDROOT
BRANCH   1   9
HETATM    9  C10 UNL     1       1.139  -6.359 -17.383  1.00  0.00     0.179 C 
HETATM   10  N2  UNL     1       1.785  -6.143 -18.656  1.00  0.00    -0.337 N 
HETATM   11  C6  UNL     1       2.051  -4.876 -19.276  1.00  0.00     0.244 C 
HETATM   12  C7  UNL     1       2.146  -7.424 -19.269  1.00  0.00     0.127 C 
HETATM   13  O3  UNL     1       1.717  -3.843 -18.618  1.00  0.00    -0.271 OA
HETATM   14  C8  UNL     1       2.289  -8.324 -18.043  1.00  0.00     0.022 C 
HETATM   15  C9  UNL     1       1.198  -7.831 -17.148  1.00  0.00     0.037 C 
BRANCH  11  16
HETATM   16  C5  UNL     1       2.672  -4.707 -20.589  1.00  0.00     0.186 C 
BRANCH  16  17
HETATM   17  N1  UNL     1       3.421  -3.434 -20.628  1.00  0.00    -0.323 N 
HETATM   18  C4  UNL     1       4.778  -3.429 -21.046  1.00  0.00     0.361 C 
HETATM   19  O2  UNL     1       5.408  -4.456 -21.398  1.00  0.00    -0.238 OA
ATOM     20  H1  UNL     1       2.966  -2.563 -20.356  1.00  0.00     0.165 HD
BRANCH  18  21
HETATM   21  O1  UNL     1       5.448  -2.217 -21.070  1.00  0.00    -0.299 OA
BRANCH  21  22
HETATM   22  C2  UNL     1       5.223  -1.209 -22.007  1.00  0.00     0.125 C 
HETATM   23  C1  UNL     1       4.727   0.017 -21.249  1.00  0.00     0.040 C 
HETATM   24  C3  UNL     1       6.448  -0.784 -22.779  1.00  0.00     0.040 C 
ENDBRANCH  21  22
ENDBRANCH  18  21
ENDBRANCH  16  17
BRANCH  16  25
HETATM   25  C24 UNL     1       1.623  -4.668 -21.703  1.00  0.00    -0.022 C 
HETATM   26  C25 UNL     1       1.513  -6.054 -22.286  1.00  0.00     0.017 C 
HETATM   27  C26 UNL     1       2.166  -3.779 -22.811  1.00  0.00     0.017 C 
HETATM   28  C27 UNL     1       0.285  -4.202 -21.233  1.00  0.00     0.017 C 
ENDBRANCH  16  25
ENDBRANCH  11  16
ENDBRANCH   1   9
BRANCH   6  29
HETATM   29  C14 UNL     1      -0.447  -1.145 -14.154  1.00  0.00     0.142 C 
BRANCH  29  30
HETATM   30  O5  UNL     1      -0.347  -0.287 -15.150  1.00  0.00    -0.348 OA
ATOM     31  H5  UNL     1      -0.281   0.620 -14.874  1.00  0.00     0.219 HD
ENDBRANCH  29  30
BRANCH  29  32
HETATM   32  C15 UNL     1      -1.013  -0.562 -12.947  1.00  0.00     0.098 A 
HETATM   33  C20 UNL     1      -0.086  -0.414 -11.753  1.00  0.00     0.042 A 
HETATM   34  C21 UNL     1      -0.659   0.780 -12.418  1.00  0.00     0.042 A 
BRANCH  32  35
HETATM   35  N5  UNL     1      -2.355  -1.020 -12.557  1.00  0.00    -0.339 N 
HETATM   36  C16 UNL     1      -3.470  -0.903 -13.417  1.00  0.00     0.269 C 
HETATM   37  O6  UNL     1      -3.285  -0.385 -14.546  1.00  0.00    -0.266 OA
ATOM     38  H5  UNL     1      -2.485  -1.436 -11.635  1.00  0.00     0.164 HD
BRANCH  36  39
HETATM   39  C17 UNL     1      -4.823  -1.375 -13.005  1.00  0.00     0.107 A 
HETATM   40  C18 UNL     1      -4.972  -2.444 -12.150  1.00  0.00     0.086 A 
HETATM   41  S1  UNL     1      -6.670  -2.550 -12.018  1.00  0.00    -0.094 SA
HETATM   42  C19 UNL     1      -7.088  -1.246 -13.042  1.00  0.00     0.138 A 
HETATM   43  N6  UNL     1      -5.908  -0.805 -13.427  1.00  0.00    -0.355 N 
ATOM     44  H6  UNL     1      -5.847  -0.010 -14.063  1.00  0.00     0.166 HD
ENDBRANCH  36  39
ENDBRANCH  32  35
ENDBRANCH  29  32
ENDBRANCH   6  29
TORSDOF 11
ENDMDL
MODEL 2
REMARK VINA RESULT: -6.782986618      5.952      8.712
REMARK  11 active torsions:
REMARK  status: ('A' for Active; 'I' for Inactive)
REMARK    1  A    between atoms: C2_2  and  O1_4 
REMARK    2  A    between atoms: O1_4  and  C4_5 
REMARK       I    between atoms: C4_5  and  N1_7 
REMARK    3  A    between atoms: N1_7  and  C5_9 
REMARK    4  A    between atoms: C5_9  and  C6_10 
REMARK    5  A    between atoms: C5_9  and  C24_41 
REMARK       I    between atoms: C6_10  and  N2_12 
REMARK    6  A    between atoms: C10_16  and  C11_17 
REMARK       I    between atoms: C11_17  and  N3_19 
REMARK    7  A    between atoms: N4_22  and  C14_23 
REMARK    8  A    between atoms: C14_23  and  O5_24 
REMARK    9  A    between atoms: C14_23  and  C15_26 
REMARK   10  A    between atoms: C15_26  and  N5_27 
REMARK       I    between atoms: N5_27  and  C16_29 
REMARK   11  A    between atoms: C16_29  and  C17_31 
ROOT
HETATM    1  C11 UNL     1      -0.901  -0.672 -14.305  1.00  0.00     0.242 C 
HETATM    2  O4  UNL     1      -0.007  -1.449 -14.743  1.00  0.00    -0.271 OA
HETATM    3  N3  UNL     1      -2.248  -1.104 -14.273  1.00  0.00    -0.347 N 
HETATM    4  C12 UNL     1      -3.280  -0.253 -13.787  1.00  0.00     0.145 C 
HETATM    5  C13 UNL     1      -4.629  -0.974 -13.780  1.00  0.00     0.144 C 
HETATM    6  N4  UNL     1      -4.577  -2.320 -13.314  1.00  0.00    -0.360 N 
HETATM    7  C22 UNL     1      -3.340  -3.095 -13.587  1.00  0.00     0.144 C 
HETATM    8  C23 UNL     1      -2.565  -2.461 -14.727  1.00  0.00     0.145 C 
ENDROOT
BRANCH   1   9
HETATM    9  C10 UNL     1      -0.592   0.704 -13.808  1.00  0.00     0.179 C 
HETATM   10  N2  UNL     1       0.577   0.621 -12.963  1.00  0.00    -0.337 N 
HETATM   11  C6  UNL     1       0.736  -0.209 -11.804  1.00  0.00     0.244 C 
HETATM   12  C7  UNL     1       1.621   1.528 -13.448  1.00  0.00     0.127 C 
HETATM   13  O3  UNL     1      -0.236  -0.974 -11.517  1.00  0.00    -0.271 OA
HETATM   14  C8  UNL     1       1.279   1.631 -14.932  1.00  0.00     0.022 C 
HETATM   15  C9  UNL     1      -0.216   1.622 -14.922  1.00  0.00     0.037 C 
BRANCH  11  16
HETATM   16  C5  UNL     1       1.926  -0.229 -10.953  1.00  0.00     0.186 C 
BRANCH  16  17
HETATM   17  N1  UNL     1       2.186  -1.608 -10.489  1.00  0.00    -0.323 N 
HETATM   18  C4  UNL     1       2.951  -2.489 -11.297  1.00  0.00     0.361 C 
HETATM   19  O2  UNL     1       3.441  -2.175 -12.409  1.00  0.00    -0.238 OA
ATOM     20  H1  UNL     1       1.818  -1.925  -9.592  1.00  0.00     0.165 HD
BRANCH  18  21
HETATM   21  O1  UNL     1       3.174  -3.774 -10.829  1.00  0.00    -0.299 OA
BRANCH  21  22
HETATM   22  C2  UNL     1       2.745  -4.933 -11.474  1.00  0.00     0.125 C 
HETATM   23  C1  UNL     1       3.637  -6.075 -11.002  1.00  0.00     0.040 C 
HETATM   24  C3  UNL     1       1.321  -5.332 -11.166  1.00  0.00     0.040 C 
ENDBRANCH  21  22
ENDBRANCH  18  21
ENDBRANCH  16  17
BRANCH  16  25
HETATM   25  C24 UNL     1       1.744   0.655  -9.717  1.00  0.00    -0.022 C 
HETATM   26  C25 UNL     1       2.460   1.958  -9.967  1.00  0.00     0.017 C 
HETATM   27  C26 UNL     1       2.471  -0.018  -8.563  1.00  0.00     0.017 C 
HETATM   28  C27 UNL     1       0.312   0.914  -9.385  1.00  0.00     0.017 C 
ENDBRANCH  16  25
ENDBRANCH  11  16
ENDBRANCH   1   9
BRANCH   6  29
HETATM   29  C14 UNL     1      -5.586  -3.017 -12.648  1.00  0.00     0.142 C 
BRANCH  29  30
HETATM   30  O5  UNL     1      -5.311  -4.289 -12.441  1.00  0.00    -0.348 OA
ATOM     31  H5  UNL     1      -5.617  -4.620 -11.604  1.00  0.00     0.219 HD
ENDBRANCH  29  30
BRANCH  29  32
HETATM   32  C15 UNL     1      -6.888  -2.618 -12.135  1.00  0.00     0.098 A 
HETATM   33  C20 UNL     1      -8.107  -3.095 -12.904  1.00  0.00     0.042 A 
HETATM   34  C21 UNL     1      -7.865  -3.547 -11.513  1.00  0.00     0.042 A 
BRANCH  32  35
HETATM   35  N5  UNL     1      -7.023  -1.224 -11.685  1.00  0.00    -0.339 N 
HETATM   36  C16 UNL     1      -6.555  -0.791 -10.423  1.00  0.00     0.269 C 
HETATM   37  O6  UNL     1      -6.012  -1.642  -9.679  1.00  0.00    -0.266 OA
ATOM     38  H5  UNL     1      -7.468  -0.547 -12.304  1.00  0.00     0.164 HD
BRANCH  36  39
HETATM   39  C17 UNL     1      -6.700   0.627  -9.986  1.00  0.00     0.107 A 
HETATM   40  C18 UNL     1      -7.521   0.966  -8.933  1.00  0.00     0.086 A 
HETATM   41  S1  UNL     1      -7.316   2.659  -8.864  1.00  0.00    -0.094 SA
HETATM   42  C19 UNL     1      -6.213   2.836 -10.157  1.00  0.00     0.138 A 
HETATM   43  N6  UNL     1      -6.065   1.594 -10.570  1.00  0.00    -0.355 N 
ATOM     44  H6  UNL     1      -5.446   1.392 -11.355  1.00  0.00     0.166 HD
ENDBRANCH  36  39
ENDBRANCH  32  35
ENDBRANCH  29  32
ENDBRANCH   6  29
TORSDOF 11
ENDMDL
MODEL 3
REMARK VINA RESULT: -6.738508549      4.266      7.372
REMARK  11 active torsions:
REMARK  status: ('A' for Active; 'I' for Inactive)
REMARK    1  A    between atoms: C2_2  and  O1_4 
REMARK    2  A    between atoms: O1_4  and  C4_5 
REMARK       I    between atoms: C4_5  and  N1_7 
REMARK    3  A    between atoms: N1_7  and  C5_9 
REMARK    4  A    between atoms: C5_9  and  C6_10 
REMARK    5  A    between atoms: C5_9  and  C24_41 
REMARK       I    between atoms: C6_10  and  N2_12 
REMARK    6  A    between atoms: C10_16  and  C11_17 
REMARK       I    between atoms: C11_17  and  N3_19 
REMARK    7  A    between atoms: N4_22  and  C14_23 
REMARK    8  A    between atoms: C14_23  and  O5_24 
REMARK    9  A    between atoms: C14_23  and  C15_26 
REMARK   10  A    between atoms: C15_26  and  N5_27 
REMARK       I    between atoms: N5_27  and  C16_29 
REMARK   11  A    between atoms: C16_29  and  C17_31 
ROOT
HETATM    1  C11 UNL     1      -0.803  -0.553 -14.025  1.00  0.00     0.242 C 
HETATM    2  O4  UNL     1      -0.552  -0.749 -15.248  1.00  0.00    -0.271 OA
HETATM    3  N3  UNL     1      -2.133  -0.299 -13.618  1.00  0.00    -0.347 N 
HETATM    4  C12 UNL     1      -2.449  -0.073 -12.248  1.00  0.00     0.145 C 
HETATM    5  C13 UNL     1      -3.956   0.098 -12.053  1.00  0.00     0.144 C 
HETATM    6  N4  UNL     1      -4.756  -0.818 -12.798  1.00  0.00    -0.360 N 
HETATM    7  C22 UNL     1      -4.240  -1.269 -14.115  1.00  0.00     0.144 C 
HETATM    8  C23 UNL     1      -3.194  -0.297 -14.629  1.00  0.00     0.145 C 
ENDROOT
BRANCH   1   9
HETATM    9  C10 UNL     1       0.262  -0.583 -12.976  1.00  0.00     0.179 C 
HETATM   10  N2  UNL     1       1.108  -1.727 -13.231  1.00  0.00    -0.337 N 
HETATM   11  C6  UNL     1       0.687  -3.094 -13.335  1.00  0.00     0.244 C 
HETATM   12  C7  UNL     1       2.505  -1.307 -13.369  1.00  0.00     0.127 C 
HETATM   13  O3  UNL     1      -0.560  -3.313 -13.230  1.00  0.00    -0.271 OA
HETATM   14  C8  UNL     1       2.349   0.138 -13.839  1.00  0.00     0.022 C 
HETATM   15  C9  UNL     1       1.159   0.606 -13.066  1.00  0.00     0.037 C 
BRANCH  11  16
HETATM   16  C5  UNL     1       1.587  -4.227 -13.553  1.00  0.00     0.186 C 
BRANCH  16  17
HETATM   17  N1  UNL     1       0.904  -5.261 -14.359  1.00  0.00    -0.323 N 
HETATM   18  C4  UNL     1       0.920  -5.171 -15.776  1.00  0.00     0.361 C 
HETATM   19  O2  UNL     1       1.489  -4.253 -16.415  1.00  0.00    -0.238 OA
ATOM     20  H1  UNL     1       0.425  -6.034 -13.900  1.00  0.00     0.165 HD
BRANCH  18  21
HETATM   21  O1  UNL     1       0.269  -6.158 -16.498  1.00  0.00    -0.299 OA
BRANCH  21  22
HETATM   22  C2  UNL     1      -0.953  -5.985 -17.146  1.00  0.00     0.125 C 
HETATM   23  C1  UNL     1      -1.703  -7.310 -17.067  1.00  0.00     0.040 C 
HETATM   24  C3  UNL     1      -1.848  -4.936 -16.531  1.00  0.00     0.040 C 
ENDBRANCH  21  22
ENDBRANCH  18  21
ENDBRANCH  16  17
BRANCH  16  25
HETATM   25  C24 UNL     1       2.010  -4.868 -12.229  1.00  0.00    -0.022 C 
HETATM   26  C25 UNL     1       3.461  -4.535 -11.993  1.00  0.00     0.017 C 
HETATM   27  C26 UNL     1       1.940  -6.376 -12.409  1.00  0.00     0.017 C 
HETATM   28  C27 UNL     1       1.185  -4.417 -11.069  1.00  0.00     0.017 C 
ENDBRANCH  16  25
ENDBRANCH  11  16
ENDBRANCH   1   9
BRANCH   6  29
HETATM   29  C14 UNL     1      -6.006  -1.324 -12.439  1.00  0.00     0.142 C 
BRANCH  29  30
HETATM   30  O5  UNL     1      -7.021  -0.638 -12.924  1.00  0.00    -0.348 OA
ATOM     31  H5  UNL     1      -6.781  -0.023 -13.608  1.00  0.00     0.219 HD
ENDBRANCH  29  30
BRANCH  29  32
HETATM   32  C15 UNL     1      -6.415  -2.462 -11.629  1.00  0.00     0.098 A 
HETATM   33  C20 UNL     1      -5.674  -2.679 -10.321  1.00  0.00     0.042 A 
HETATM   34  C21 UNL     1      -7.121  -2.355 -10.328  1.00  0.00     0.042 A 
BRANCH  32  35
HETATM   35  N5  UNL     1      -6.668  -3.723 -12.342  1.00  0.00    -0.339 N 
HETATM   36  C16 UNL     1      -7.903  -3.997 -12.973  1.00  0.00     0.269 C 
HETATM   37  O6  UNL     1      -8.799  -3.120 -12.907  1.00  0.00    -0.266 OA
ATOM     38  H5  UNL     1      -5.928  -4.424 -12.383  1.00  0.00     0.164 HD
BRANCH  36  39
HETATM   39  C17 UNL     1      -8.141  -5.281 -13.692  1.00  0.00     0.107 A 
HETATM   40  C18 UNL     1      -9.369  -5.570 -14.243  1.00  0.00     0.086 A 
HETATM   41  S1  UNL     1      -9.092  -7.112 -14.922  1.00  0.00    -0.094 SA
HETATM   42  C19 UNL     1      -7.453  -7.297 -14.473  1.00  0.00     0.138 A 
HETATM   43  N6  UNL     1      -7.211  -6.174 -13.829  1.00  0.00    -0.355 N 
ATOM     44  H6  UNL     1      -6.285  -6.004 -13.437  1.00  0.00     0.166 HD
ENDBRANCH  36  39
ENDBRANCH  32  35
ENDBRANCH  29  32
ENDBRANCH   6  29
TORSDOF 11
ENDMDL
MODEL 4
REMARK VINA RESULT: -6.722235853      2.577      3.816
REMARK  11 active torsions:
REMARK  status: ('A' for Active; 'I' for Inactive)
REMARK    1  A    between atoms: C2_2  and  O1_4 
REMARK    2  A    between atoms: O1_4  and  C4_5 
REMARK       I    between atoms: C4_5  and  N1_7 
REMARK    3  A    between atoms: N1_7  and  C5_9 
REMARK    4  A    between atoms: C5_9  and  C6_10 
REMARK    5  A    between atoms: C5_9  and  C24_41 
REMARK       I    between atoms: C6_10  and  N2_12 
REMARK    6  A    between atoms: C10_16  and  C11_17 
REMARK       I    between atoms: C11_17  and  N3_19 
REMARK    7  A    between atoms: N4_22  and  C14_23 
REMARK    8  A    between atoms: C14_23  and  O5_24 
REMARK    9  A    between atoms: C14_23  and  C15_26 
REMARK   10  A    between atoms: C15_26  and  N5_27 
REMARK       I    between atoms: N5_27  and  C16_29 
REMARK   11  A    between atoms: C16_29  and  C17_31 
ROOT
HETATM    1  C11 UNL     1       2.425  -5.806 -14.803  1.00  0.00     0.242 C 
HETATM    2  O4  UNL     1       3.338  -5.770 -15.675  1.00  0.00    -0.271 OA
HETATM    3  N3  UNL     1       1.992  -4.604 -14.196  1.00  0.00    -0.347 N 
HETATM    4  C12 UNL     1       0.966  -4.609 -13.209  1.00  0.00     0.145 C 
HETATM    5  C13 UNL     1       0.622  -3.187 -12.766  1.00  0.00     0.144 C 
HETATM    6  N4  UNL     1       0.543  -2.239 -13.828  1.00  0.00    -0.360 N 
HETATM    7  C22 UNL     1       1.437  -2.441 -14.997  1.00  0.00     0.144 C 
HETATM    8  C23 UNL     1       2.600  -3.339 -14.619  1.00  0.00     0.145 C 
ENDROOT
BRANCH   1   9
HETATM    9  C10 UNL     1       1.771  -7.083 -14.382  1.00  0.00     0.179 C 
HETATM   10  N2  UNL     1       1.338  -7.776 -15.573  1.00  0.00    -0.337 N 
HETATM   11  C6  UNL     1       0.469  -7.263 -16.593  1.00  0.00     0.244 C 
HETATM   12  C7  UNL     1       1.911  -9.125 -15.614  1.00  0.00     0.127 C 
HETATM   13  O3  UNL     1       0.074  -6.065 -16.450  1.00  0.00    -0.271 OA
HETATM   14  C8  UNL     1       3.178  -8.949 -14.780  1.00  0.00     0.022 C 
HETATM   15  C9  UNL     1       2.736  -8.002 -13.711  1.00  0.00     0.037 C 
BRANCH  11  16
HETATM   16  C5  UNL     1       0.025  -8.019 -17.764  1.00  0.00     0.186 C 
BRANCH  16  17
HETATM   17  N1  UNL     1      -0.176  -7.101 -18.905  1.00  0.00    -0.323 N 
HETATM   18  C4  UNL     1       0.857  -6.935 -19.864  1.00  0.00     0.361 C 
HETATM   19  O2  UNL     1       1.962  -7.529 -19.815  1.00  0.00    -0.238 OA
ATOM     20  H1  UNL     1      -1.053  -6.590 -19.004  1.00  0.00     0.165 HD
BRANCH  18  21
HETATM   21  O1  UNL     1       0.633  -6.067 -20.919  1.00  0.00    -0.299 OA
BRANCH  21  22
HETATM   22  C2  UNL     1       0.806  -4.685 -20.854  1.00  0.00     0.125 C 
HETATM   23  C1  UNL     1       1.133  -4.199 -22.262  1.00  0.00     0.040 C 
HETATM   24  C3  UNL     1      -0.412  -3.920 -20.397  1.00  0.00     0.040 C 
ENDBRANCH  21  22
ENDBRANCH  18  21
ENDBRANCH  16  17
BRANCH  16  25
HETATM   25  C24 UNL     1      -1.303  -8.733 -17.497  1.00  0.00    -0.022 C 
HETATM   26  C25 UNL     1      -0.994 -10.072 -16.878  1.00  0.00     0.017 C 
HETATM   27  C26 UNL     1      -1.945  -9.022 -18.845  1.00  0.00     0.017 C 
HETATM   28  C27 UNL     1      -2.219  -7.957 -16.609  1.00  0.00     0.017 C 
ENDBRANCH  16  25
ENDBRANCH  11  16
ENDBRANCH   1   9
BRANCH   6  29
HETATM   29  C14 UNL     1      -0.269  -1.106 -13.884  1.00  0.00     0.142 C 
BRANCH  29  30
HETATM   30  O5  UNL     1      -0.404  -0.603 -15.094  1.00  0.00    -0.348 OA
ATOM     31  H5  UNL     1      -0.261   0.335 -15.141  1.00  0.00     0.219 HD
ENDBRANCH  29  30
BRANCH  29  32
HETATM   32  C15 UNL     1      -0.997  -0.363 -12.867  1.00  0.00     0.098 A 
HETATM   33  C20 UNL     1      -0.204   0.122 -11.666  1.00  0.00     0.042 A 
HETATM   34  C21 UNL     1      -0.826   1.088 -12.603  1.00  0.00     0.042 A 
BRANCH  32  35
HETATM   35  N5  UNL     1      -2.319  -0.884 -12.487  1.00  0.00    -0.339 N 
HETATM   36  C16 UNL     1      -3.429  -0.833 -13.361  1.00  0.00     0.269 C 
HETATM   37  O6  UNL     1      -3.257  -0.319 -14.493  1.00  0.00    -0.266 OA
ATOM     38  H5  UNL     1      -2.439  -1.297 -11.562  1.00  0.00     0.164 HD
BRANCH  36  39
HETATM   39  C17 UNL     1      -4.761  -1.368 -12.958  1.00  0.00     0.107 A 
HETATM   40  C18 UNL     1      -4.867  -2.410 -12.064  1.00  0.00     0.086 A 
HETATM   41  S1  UNL     1      -6.559  -2.611 -11.963  1.00  0.00    -0.094 SA
HETATM   42  C19 UNL     1      -7.028  -1.375 -13.047  1.00  0.00     0.138 A 
HETATM   43  N6  UNL     1      -5.867  -0.881 -13.425  1.00  0.00    -0.355 N 
ATOM     44  H6  UNL     1      -5.839  -0.108 -14.091  1.00  0.00     0.166 HD
ENDBRANCH  36  39
ENDBRANCH  32  35
ENDBRANCH  29  32
ENDBRANCH   6  29
TORSDOF 11
ENDMDL
MODEL 5
REMARK VINA RESULT: -6.717956313      0.995      1.132
REMARK  11 active torsions:
REMARK  status: ('A' for Active; 'I' for Inactive)
REMARK    1  A    between atoms: C2_2  and  O1_4 
REMARK    2  A    between atoms: O1_4  and  C4_5 
REMARK       I    between atoms: C4_5  and  N1_7 
REMARK    3  A    between atoms: N1_7  and  C5_9 
REMARK    4  A    between atoms: C5_9  and  C6_10 
REMARK    5  A    between atoms: C5_9  and  C24_41 
REMARK       I    between atoms: C6_10  and  N2_12 
REMARK    6  A    between atoms: C10_16  and  C11_17 
REMARK       I    between atoms: C11_17  and  N3_19 
REMARK    7  A    between atoms: N4_22  and  C14_23 
REMARK    8  A    between atoms: C14_23  and  O5_24 
REMARK    9  A    between atoms: C14_23  and  C15_26 
REMARK   10  A    between atoms: C15_26  and  N5_27 
REMARK       I    between atoms: N5_27  and  C16_29 
REMARK   11  A    between atoms: C16_29  and  C17_31 
ROOT
HETATM    1  C11 UNL     1       2.848  -5.099 -15.789  1.00  0.00     0.242 C 
HETATM    2  O4  UNL     1       4.060  -4.834 -16.026  1.00  0.00    -0.271 OA
HETATM    3  N3  UNL     1       2.112  -4.273 -14.908  1.00  0.00    -0.347 N 
HETATM    4  C12 UNL     1       0.745  -4.544 -14.619  1.00  0.00     0.145 C 
HETATM    5  C13 UNL     1       0.152  -3.470 -13.707  1.00  0.00     0.144 C 
HETATM    6  N4  UNL     1       0.529  -2.136 -14.043  1.00  0.00    -0.360 N 
HETATM    7  C22 UNL     1       1.877  -1.929 -14.630  1.00  0.00     0.144 C 
HETATM    8  C23 UNL     1       2.775  -3.110 -14.310  1.00  0.00     0.145 C 
ENDROOT
BRANCH   1   9
HETATM    9  C10 UNL     1       2.147  -6.263 -16.414  1.00  0.00     0.179 C 
HETATM   10  N2  UNL     1       2.408  -6.231 -17.835  1.00  0.00    -0.337 N 
HETATM   11  C6  UNL     1       2.136  -5.142 -18.729  1.00  0.00     0.244 C 
HETATM   12  C7  UNL     1       3.003  -7.497 -18.273  1.00  0.00     0.127 C 
HETATM   13  O3  UNL     1       1.652  -4.090 -18.210  1.00  0.00    -0.271 OA
HETATM   14  C8  UNL     1       3.672  -7.985 -16.990  1.00  0.00     0.022 C 
HETATM   15  C9  UNL     1       2.701  -7.562 -15.935  1.00  0.00     0.037 C 
BRANCH  11  16
HETATM   16  C5  UNL     1       2.379  -5.171 -20.171  1.00  0.00     0.186 C 
BRANCH  16  17
HETATM   17  N1  UNL     1       2.835  -3.841 -20.628  1.00  0.00    -0.323 N 
HETATM   18  C4  UNL     1       4.043  -3.728 -21.366  1.00  0.00     0.361 C 
HETATM   19  O2  UNL     1       4.774  -4.702 -21.671  1.00  0.00    -0.238 OA
ATOM     20  H1  UNL     1       2.285  -3.010 -20.415  1.00  0.00     0.165 HD
BRANCH  18  21
HETATM   21  O1  UNL     1       4.438  -2.465 -21.777  1.00  0.00    -0.299 OA
BRANCH  21  22
HETATM   22  C2  UNL     1       4.627  -1.380 -20.922  1.00  0.00     0.125 C 
HETATM   23  C1  UNL     1       5.776  -1.732 -19.985  1.00  0.00     0.040 C 
HETATM   24  C3  UNL     1       5.001  -0.092 -21.614  1.00  0.00     0.040 C 
ENDBRANCH  21  22
ENDBRANCH  18  21
ENDBRANCH  16  17
BRANCH  16  25
HETATM   25  C24 UNL     1       1.107  -5.522 -20.946  1.00  0.00    -0.022 C 
HETATM   26  C25 UNL     1       1.509  -6.300 -22.173  1.00  0.00     0.017 C 
HETATM   27  C26 UNL     1       0.501  -4.219 -21.445  1.00  0.00     0.017 C 
HETATM   28  C27 UNL     1       0.126  -6.308 -20.140  1.00  0.00     0.017 C 
ENDBRANCH  16  25
ENDBRANCH  11  16
ENDBRANCH   1   9
BRANCH   6  29
HETATM   29  C14 UNL     1      -0.225  -0.978 -13.851  1.00  0.00     0.142 C 
BRANCH  29  30
HETATM   30  O5  UNL     1      -0.314  -0.214 -14.921  1.00  0.00    -0.348 OA
ATOM     31  H5  UNL     1      -0.513  -0.688 -15.720  1.00  0.00     0.219 HD
ENDBRANCH  29  30
BRANCH  29  32
HETATM   32  C15 UNL     1      -0.934  -0.441 -12.699  1.00  0.00     0.098 A 
HETATM   33  C20 UNL     1      -0.130  -0.242 -11.426  1.00  0.00     0.042 A 
HETATM   34  C21 UNL     1      -0.717   0.917 -12.139  1.00  0.00     0.042 A 
BRANCH  32  35
HETATM   35  N5  UNL     1      -2.273  -0.988 -12.433  1.00  0.00    -0.339 N 
HETATM   36  C16 UNL     1      -3.393  -0.659 -13.230  1.00  0.00     0.269 C 
HETATM   37  O6  UNL     1      -3.215   0.128 -14.190  1.00  0.00    -0.266 OA
ATOM     38  H5  UNL     1      -2.398  -1.626 -11.647  1.00  0.00     0.164 HD
BRANCH  36  39
HETATM   39  C17 UNL     1      -4.743  -1.225 -12.945  1.00  0.00     0.107 A 
HETATM   40  C18 UNL     1      -4.891  -2.344 -12.155  1.00  0.00     0.086 A 
HETATM   41  S1  UNL     1      -6.586  -2.549 -12.159  1.00  0.00    -0.094 SA
HETATM   42  C19 UNL     1      -7.002  -1.219 -13.148  1.00  0.00     0.138 A 
HETATM   43  N6  UNL     1      -5.825  -0.695 -13.421  1.00  0.00    -0.355 N 
ATOM     44  H6  UNL     1      -5.764   0.135 -14.012  1.00  0.00     0.166 HD
ENDBRANCH  36  39
ENDBRANCH  32  35
ENDBRANCH  29  32
ENDBRANCH   6  29
TORSDOF 11
ENDMDL
