MODEL 1
REMARK VINA RESULT: -6.085018654      0.000      0.000
REMARK  4 active torsions:
REMARK  status: ('A' for Active; 'I' for Inactive)
REMARK    1  A    between atoms: C2_3  and  C3_4 
REMARK    2  A    between atoms: C3_4  and  O1_5 
REMARK    3  A    between atoms: C3_4  and  N2_7 
REMARK    4  A    between atoms: N2_7  and  C4_10 
ROOT
HETATM    1  N1  UNL     1     -10.949 -28.420   9.039  1.00  0.00    -0.197 NA
HETATM    2  C1  UNL     1     -10.568 -29.503   8.894  1.00  0.00     0.063 C 
HETATM    3  C2  UNL     1     -10.079 -30.870   8.672  1.00  0.00     0.184 C 
ENDROOT
BRANCH   3   4
HETATM    4  C3  UNL     1     -10.606 -31.828   9.705  1.00  0.00     0.332 C 
BRANCH   4   5
HETATM    5  O1  UNL     1      -9.874 -31.612  10.894  1.00  0.00    -0.369 OA
ATOM      6  H1  UNL     1     -10.301 -32.107  11.585  1.00  0.00     0.212 HD
ENDBRANCH   4   5
BRANCH   4   7
HETATM    7  N2  UNL     1     -10.411 -33.211   9.363  1.00  0.00    -0.043 N 
ATOM      8  H22 UNL     1      -9.911 -33.293   8.478  1.00  0.00     0.280 HD
ATOM      9  H21 UNL     1      -9.729 -33.641   9.988  1.00  0.00     0.280 HD
BRANCH   7  10
HETATM   10  C4  UNL     1     -11.633 -33.992   9.331  1.00  0.00     0.206 C 
HETATM   11  C5  UNL     1     -11.950 -34.559  10.700  1.00  0.00     0.034 C 
HETATM   12  C6  UNL     1     -11.317 -35.923  10.893  1.00  0.00     0.002 C 
HETATM   13  C7  UNL     1     -11.910 -36.941   9.940  1.00  0.00     0.001 C 
HETATM   14  C8  UNL     1     -12.137 -36.359   8.567  1.00  0.00     0.021 C 
HETATM   15  C9  UNL     1     -11.382 -35.080   8.310  1.00  0.00     0.123 C 
HETATM   16  C10 UNL     1     -11.727 -34.610   6.965  1.00  0.00     0.066 C 
HETATM   17  N3  UNL     1     -11.983 -34.222   5.884  1.00  0.00    -0.197 NA
ENDBRANCH   7  10
ENDBRANCH   4   7
ENDBRANCH   3   4
TORSDOF 4
ENDMDL
MODEL 2
REMARK VINA RESULT: -6.068006501      2.610      5.648
REMARK  4 active torsions:
REMARK  status: ('A' for Active; 'I' for Inactive)
REMARK    1  A    between atoms: C2_3  and  C3_4 
REMARK    2  A    between atoms: C3_4  and  O1_5 
REMARK    3  A    between atoms: C3_4  and  N2_7 
REMARK    4  A    between atoms: N2_7  and  C4_10 
ROOT
HETATM    1  N1  UNL     1     -10.450 -34.133   9.420  1.00  0.00    -0.197 NA
HETATM    2  C1  UNL     1     -10.630 -33.319  10.223  1.00  0.00     0.063 C 
HETATM    3  C2  UNL     1     -10.877 -32.315  11.266  1.00  0.00     0.184 C 
ENDROOT
BRANCH   3   4
HETATM    4  C3  UNL     1     -10.903 -30.920  10.702  1.00  0.00     0.332 C 
BRANCH   4   5
HETATM    5  O1  UNL     1     -12.134 -30.336  11.077  1.00  0.00    -0.369 OA
ATOM      6  H1  UNL     1     -11.937 -29.575  11.611  1.00  0.00     0.212 HD
ENDBRANCH   4   5
BRANCH   4   7
HETATM    7  N2  UNL     1     -10.863 -30.876   9.266  1.00  0.00    -0.043 N 
ATOM      8  H22 UNL     1     -10.610 -31.789   8.887  1.00  0.00     0.280 HD
ATOM      9  H21 UNL     1     -11.805 -30.786   8.885  1.00  0.00     0.280 HD
BRANCH   7  10
HETATM   10  C4  UNL     1      -9.997 -29.845   8.727  1.00  0.00     0.206 C 
HETATM   11  C5  UNL     1     -10.768 -28.907   7.821  1.00  0.00     0.034 C 
HETATM   12  C6  UNL     1     -10.754 -29.392   6.385  1.00  0.00     0.002 C 
HETATM   13  C7  UNL     1      -9.351 -29.366   5.812  1.00  0.00     0.001 C 
HETATM   14  C8  UNL     1      -8.326 -29.832   6.817  1.00  0.00     0.021 C 
HETATM   15  C9  UNL     1      -8.910 -30.589   7.983  1.00  0.00     0.123 C 
HETATM   16  C10 UNL     1      -7.814 -30.941   8.890  1.00  0.00     0.066 C 
HETATM   17  N3  UNL     1      -6.948 -31.242   9.627  1.00  0.00    -0.197 NA
ENDBRANCH   7  10
ENDBRANCH   4   7
ENDBRANCH   3   4
TORSDOF 4
ENDMDL
MODEL 3
REMARK VINA RESULT: -5.999526226      2.093      2.627
REMARK  4 active torsions:
REMARK  status: ('A' for Active; 'I' for Inactive)
REMARK    1  A    between atoms: C2_3  and  C3_4 
REMARK    2  A    between atoms: C3_4  and  O1_5 
REMARK    3  A    between atoms: C3_4  and  N2_7 
REMARK    4  A    between atoms: N2_7  and  C4_10 
ROOT
HETATM    1  N1  UNL     1      -7.661 -30.551   6.918  1.00  0.00    -0.197 NA
HETATM    2  C1  UNL     1      -8.635 -29.989   7.191  1.00  0.00     0.063 C 
HETATM    3  C2  UNL     1      -9.856 -29.241   7.518  1.00  0.00     0.184 C 
ENDROOT
BRANCH   3   4
HETATM    4  C3  UNL     1     -10.568 -29.827   8.708  1.00  0.00     0.332 C 
BRANCH   4   5
HETATM    5  O1  UNL     1     -10.553 -28.853   9.732  1.00  0.00    -0.369 OA
ATOM      6  H1  UNL     1      -9.662 -28.798  10.058  1.00  0.00     0.212 HD
ENDBRANCH   4   5
BRANCH   4   7
HETATM    7  N2  UNL     1      -9.919 -30.989   9.254  1.00  0.00    -0.043 N 
ATOM      8  H22 UNL     1      -9.247 -31.370   8.588  1.00  0.00     0.280 HD
ATOM      9  H21 UNL     1      -9.285 -30.722  10.007  1.00  0.00     0.280 HD
BRANCH   7  10
HETATM   10  C4  UNL     1     -10.833 -32.023   9.702  1.00  0.00     0.206 C 
HETATM   11  C5  UNL     1     -10.710 -32.245  11.196  1.00  0.00     0.034 C 
HETATM   12  C6  UNL     1      -9.670 -33.303  11.513  1.00  0.00     0.002 C 
HETATM   13  C7  UNL     1     -10.091 -34.659  10.984  1.00  0.00     0.001 C 
HETATM   14  C8  UNL     1     -10.729 -34.557   9.621  1.00  0.00     0.021 C 
HETATM   15  C9  UNL     1     -10.455 -33.256   8.911  1.00  0.00     0.123 C 
HETATM   16  C10 UNL     1     -11.164 -33.279   7.628  1.00  0.00     0.066 C 
HETATM   17  N3  UNL     1     -11.717 -33.283   6.590  1.00  0.00    -0.197 NA
ENDBRANCH   7  10
ENDBRANCH   4   7
ENDBRANCH   3   4
TORSDOF 4
ENDMDL
MODEL 4
REMARK VINA RESULT: -5.997150683      2.221      3.416
REMARK  4 active torsions:
REMARK  status: ('A' for Active; 'I' for Inactive)
REMARK    1  A    between atoms: C2_3  and  C3_4 
REMARK    2  A    between atoms: C3_4  and  O1_5 
REMARK    3  A    between atoms: C3_4  and  N2_7 
REMARK    4  A    between atoms: N2_7  and  C4_10 
ROOT
HETATM    1  N1  UNL     1     -10.934 -28.793   9.596  1.00  0.00    -0.197 NA
HETATM    2  C1  UNL     1     -10.342 -29.132   8.661  1.00  0.00     0.063 C 
HETATM    3  C2  UNL     1      -9.568 -29.527   7.478  1.00  0.00     0.184 C 
ENDROOT
BRANCH   3   4
HETATM    4  C3  UNL     1     -10.342 -30.466   6.592  1.00  0.00     0.332 C 
BRANCH   4   5
HETATM    5  O1  UNL     1     -11.190 -29.679   5.779  1.00  0.00    -0.369 OA
ATOM      6  H1  UNL     1     -12.072 -29.765   6.122  1.00  0.00     0.212 HD
ENDBRANCH   4   5
BRANCH   4   7
HETATM    7  N2  UNL     1     -11.205 -31.362   7.314  1.00  0.00    -0.043 N 
ATOM      8  H22 UNL     1     -11.469 -30.957   8.212  1.00  0.00     0.280 HD
ATOM      9  H21 UNL     1     -12.121 -31.412   6.869  1.00  0.00     0.280 HD
BRANCH   7  10
HETATM   10  C4  UNL     1     -10.656 -32.692   7.498  1.00  0.00     0.206 C 
HETATM   11  C5  UNL     1     -11.355 -33.696   6.602  1.00  0.00     0.034 C 
HETATM   12  C6  UNL     1     -12.556 -34.310   7.294  1.00  0.00     0.002 C 
HETATM   13  C7  UNL     1     -12.135 -35.136   8.493  1.00  0.00     0.001 C 
HETATM   14  C8  UNL     1     -11.026 -34.471   9.271  1.00  0.00     0.021 C 
HETATM   15  C9  UNL     1     -10.856 -33.004   8.965  1.00  0.00     0.123 C 
HETATM   16  C10 UNL     1      -9.728 -32.503   9.755  1.00  0.00     0.066 C 
HETATM   17  N3  UNL     1      -8.831 -32.079  10.387  1.00  0.00    -0.197 NA
ENDBRANCH   7  10
ENDBRANCH   4   7
ENDBRANCH   3   4
TORSDOF 4
ENDMDL
MODEL 5
REMARK VINA RESULT: -5.930807474      1.999      2.775
REMARK  4 active torsions:
REMARK  status: ('A' for Active; 'I' for Inactive)
REMARK    1  A    between atoms: C2_3  and  C3_4 
REMARK    2  A    between atoms: C3_4  and  O1_5 
REMARK    3  A    between atoms: C3_4  and  N2_7 
REMARK    4  A    between atoms: N2_7  and  C4_10 
ROOT
HETATM    1  N1  UNL     1     -11.416 -29.905  10.924  1.00  0.00    -0.197 NA
HETATM    2  C1  UNL     1     -11.417 -31.017  11.245  1.00  0.00     0.063 C 
HETATM    3  C2  UNL     1     -11.446 -32.419  11.681  1.00  0.00     0.184 C 
ENDROOT
BRANCH   3   4
HETATM    4  C3  UNL     1     -10.171 -33.139  11.335  1.00  0.00     0.332 C 
BRANCH   4   5
HETATM    5  O1  UNL     1      -9.165 -32.161  11.169  1.00  0.00    -0.369 OA
ATOM      6  H1  UNL     1      -8.497 -32.326  11.825  1.00  0.00     0.212 HD
ENDBRANCH   4   5
BRANCH   4   7
HETATM    7  N2  UNL     1     -10.234 -33.858  10.091  1.00  0.00    -0.043 N 
ATOM      8  H22 UNL     1      -9.357 -33.764   9.579  1.00  0.00     0.280 HD
ATOM      9  H21 UNL     1     -10.230 -34.864  10.259  1.00  0.00     0.280 HD
BRANCH   7  10
HETATM   10  C4  UNL     1     -11.356 -33.489   9.249  1.00  0.00     0.206 C 
HETATM   11  C5  UNL     1     -12.378 -34.607   9.186  1.00  0.00     0.034 C 
HETATM   12  C6  UNL     1     -12.086 -35.557   8.041  1.00  0.00     0.002 C 
HETATM   13  C7  UNL     1     -12.235 -34.863   6.702  1.00  0.00     0.001 C 
HETATM   14  C8  UNL     1     -11.677 -33.461   6.732  1.00  0.00     0.021 C 
HETATM   15  C9  UNL     1     -10.754 -33.192   7.893  1.00  0.00     0.123 C 
HETATM   16  C10 UNL     1     -10.324 -31.793   7.818  1.00  0.00     0.066 C 
HETATM   17  N3  UNL     1      -9.960 -30.676   7.770  1.00  0.00    -0.197 NA
ENDBRANCH   7  10
ENDBRANCH   4   7
ENDBRANCH   3   4
TORSDOF 4
ENDMDL
