MODEL 1
REMARK VINA RESULT: -5.819013566      0.000      0.000
REMARK  4 active torsions:
REMARK  status: ('A' for Active; 'I' for Inactive)
REMARK    1  A    between atoms: N1_2  and  N2_3 
REMARK    2  A    between atoms: N1_2  and  C3_9 
REMARK    3  A    between atoms: C3_9  and  O1_10 
REMARK    4  A    between atoms: C3_9  and  C4_12 
ROOT
HETATM    1  N2  UNL     1     -10.432 -34.192  12.559  1.00  0.00    -0.234 N 
ATOM      2  H2  UNL     1     -10.797 -33.770  13.413  1.00  0.00     0.209 HD
HETATM    3  N3  UNL     1     -10.010 -35.381  12.563  1.00  0.00    -0.222 N 
ATOM      4  H3  UNL     1      -9.652 -35.766  11.688  1.00  0.00     0.201 HD
HETATM    5  C2  UNL     1     -10.003 -36.201  13.691  1.00  0.00     0.199 C 
HETATM    6  N4  UNL     1     -10.008 -36.887  14.623  1.00  0.00    -0.170 NA
ENDROOT
BRANCH   1   7
HETATM    7  N1  UNL     1     -10.394 -33.472  11.383  1.00  0.00    -0.288 N 
HETATM    8  C1  UNL     1      -9.283 -32.589  11.122  1.00  0.00     0.175 C 
BRANCH   7   9
HETATM    9  C3  UNL     1     -11.442 -33.574  10.422  1.00  0.00     0.240 C 
BRANCH   9  10
HETATM   10  O1  UNL     1     -12.482 -34.297  11.054  1.00  0.00    -0.375 OA
ATOM     11  H1  UNL     1     -12.785 -34.932  10.416  1.00  0.00     0.212 HD
ENDBRANCH   9  10
BRANCH   9  12
HETATM   12  C4  UNL     1     -11.060 -34.264   9.118  1.00  0.00     0.036 C 
HETATM   13  C5  UNL     1     -11.016 -33.262   8.032  1.00  0.00     0.009 C 
HETATM   14  C6  UNL     1     -11.589 -33.608   6.713  1.00  0.00     0.001 C 
HETATM   15  C7  UNL     1     -12.688 -34.607   6.676  1.00  0.00     0.000 C 
HETATM   16  C8  UNL     1     -12.215 -35.818   7.492  1.00  0.00     0.001 C 
HETATM   17  C9  UNL     1     -12.105 -35.312   8.894  1.00  0.00     0.009 C 
ENDBRANCH   9  12
ENDBRANCH   7   9
ENDBRANCH   1   7
TORSDOF 4
ENDMDL
MODEL 2
REMARK VINA RESULT: -5.609656148      4.104      5.323
REMARK  4 active torsions:
REMARK  status: ('A' for Active; 'I' for Inactive)
REMARK    1  A    between atoms: N1_2  and  N2_3 
REMARK    2  A    between atoms: N1_2  and  C3_9 
REMARK    3  A    between atoms: C3_9  and  O1_10 
REMARK    4  A    between atoms: C3_9  and  C4_12 
ROOT
HETATM    1  N2  UNL     1     -10.816 -31.518   9.845  1.00  0.00    -0.234 N 
ATOM      2  H2  UNL     1     -11.757 -31.910   9.885  1.00  0.00     0.209 HD
HETATM    3  N3  UNL     1      -9.895 -31.988  10.568  1.00  0.00    -0.222 N 
ATOM      4  H3  UNL     1      -8.969 -31.567  10.499  1.00  0.00     0.201 HD
HETATM    5  C2  UNL     1     -10.069 -33.049  11.456  1.00  0.00     0.199 C 
HETATM    6  N4  UNL     1     -10.208 -33.938  12.183  1.00  0.00    -0.170 NA
ENDROOT
BRANCH   1   7
HETATM    7  N1  UNL     1     -10.531 -30.465   8.999  1.00  0.00    -0.288 N 
HETATM    8  C1  UNL     1     -10.894 -29.122   9.382  1.00  0.00     0.175 C 
BRANCH   7   9
HETATM    9  C3  UNL     1      -9.893 -30.682   7.742  1.00  0.00     0.240 C 
BRANCH   9  10
HETATM   10  O1  UNL     1      -9.500 -32.043   7.734  1.00  0.00    -0.375 OA
ATOM     11  H1  UNL     1     -10.267 -32.538   7.996  1.00  0.00     0.212 HD
ENDBRANCH   9  10
BRANCH   9  12
HETATM   12  C4  UNL     1      -8.682 -29.799   7.469  1.00  0.00     0.036 C 
HETATM   13  C5  UNL     1      -8.650 -29.447   6.034  1.00  0.00     0.009 C 
HETATM   14  C6  UNL     1      -7.356 -29.474   5.318  1.00  0.00     0.001 C 
HETATM   15  C7  UNL     1      -6.306 -30.398   5.818  1.00  0.00     0.000 C 
HETATM   16  C8  UNL     1      -6.183 -30.154   7.329  1.00  0.00     0.001 C 
HETATM   17  C9  UNL     1      -7.492 -30.602   7.893  1.00  0.00     0.009 C 
ENDBRANCH   9  12
ENDBRANCH   7   9
ENDBRANCH   1   7
TORSDOF 4
ENDMDL
MODEL 3
REMARK VINA RESULT: -5.580612326      3.747      5.456
REMARK  4 active torsions:
REMARK  status: ('A' for Active; 'I' for Inactive)
REMARK    1  A    between atoms: N1_2  and  N2_3 
REMARK    2  A    between atoms: N1_2  and  C3_9 
REMARK    3  A    between atoms: C3_9  and  O1_10 
REMARK    4  A    between atoms: C3_9  and  C4_12 
ROOT
HETATM    1  N2  UNL     1     -11.060 -32.634   8.723  1.00  0.00    -0.234 N 
ATOM      2  H2  UNL     1     -12.054 -32.443   8.842  1.00  0.00     0.209 HD
HETATM    3  N3  UNL     1     -10.654 -33.348   7.765  1.00  0.00    -0.222 N 
ATOM      4  H3  UNL     1      -9.651 -33.516   7.682  1.00  0.00     0.201 HD
HETATM    5  C2  UNL     1     -11.496 -33.921   6.812  1.00  0.00     0.199 C 
HETATM    6  N4  UNL     1     -12.191 -34.387   6.013  1.00  0.00    -0.170 NA
ENDROOT
BRANCH   1   7
HETATM    7  N1  UNL     1     -10.136 -32.115   9.608  1.00  0.00    -0.288 N 
HETATM    8  C1  UNL     1     -10.442 -32.073  11.017  1.00  0.00     0.175 C 
BRANCH   7   9
HETATM    9  C3  UNL     1      -8.885 -31.606   9.152  1.00  0.00     0.240 C 
BRANCH   9  10
HETATM   10  O1  UNL     1      -8.039 -31.577  10.288  1.00  0.00    -0.375 OA
ATOM     11  H1  UNL     1      -7.286 -31.053  10.040  1.00  0.00     0.212 HD
ENDBRANCH   9  10
BRANCH   9  12
HETATM   12  C4  UNL     1      -8.940 -30.221   8.521  1.00  0.00     0.036 C 
HETATM   13  C5  UNL     1     -10.306 -29.674   8.666  1.00  0.00     0.009 C 
HETATM   14  C6  UNL     1     -10.919 -28.965   7.523  1.00  0.00     0.001 C 
HETATM   15  C7  UNL     1     -10.476 -29.340   6.155  1.00  0.00     0.000 C 
HETATM   16  C8  UNL     1      -8.941 -29.310   6.162  1.00  0.00     0.001 C 
HETATM   17  C9  UNL     1      -8.544 -30.412   7.090  1.00  0.00     0.009 C 
ENDBRANCH   9  12
ENDBRANCH   7   9
ENDBRANCH   1   7
TORSDOF 4
ENDMDL
MODEL 4
REMARK VINA RESULT: -5.576392699      5.152      6.812
REMARK  4 active torsions:
REMARK  status: ('A' for Active; 'I' for Inactive)
REMARK    1  A    between atoms: N1_2  and  N2_3 
REMARK    2  A    between atoms: N1_2  and  C3_9 
REMARK    3  A    between atoms: C3_9  and  O1_10 
REMARK    4  A    between atoms: C3_9  and  C4_12 
ROOT
HETATM    1  N2  UNL     1     -10.577 -31.624   7.244  1.00  0.00    -0.234 N 
ATOM      2  H2  UNL     1     -10.772 -31.273   6.306  1.00  0.00     0.209 HD
HETATM    3  N3  UNL     1     -10.937 -32.785   7.580  1.00  0.00    -0.222 N 
ATOM      4  H3  UNL     1     -10.724 -33.099   8.527  1.00  0.00     0.201 HD
HETATM    5  C2  UNL     1     -11.608 -33.667   6.733  1.00  0.00     0.199 C 
HETATM    6  N4  UNL     1     -12.154 -34.405   6.028  1.00  0.00    -0.170 NA
ENDROOT
BRANCH   1   7
HETATM    7  N1  UNL     1      -9.916 -30.835   8.164  1.00  0.00    -0.288 N 
HETATM    8  C1  UNL     1     -10.224 -30.964   9.567  1.00  0.00     0.175 C 
BRANCH   7   9
HETATM    9  C3  UNL     1      -8.938 -29.883   7.751  1.00  0.00     0.240 C 
BRANCH   9  10
HETATM   10  O1  UNL     1      -9.651 -28.858   7.081  1.00  0.00    -0.375 OA
ATOM     11  H1  UNL     1      -9.661 -28.117   7.674  1.00  0.00     0.212 HD
ENDBRANCH   9  10
BRANCH   9  12
HETATM   12  C4  UNL     1      -7.849 -30.429   6.836  1.00  0.00     0.036 C 
HETATM   13  C5  UNL     1      -6.603 -30.601   7.614  1.00  0.00     0.009 C 
HETATM   14  C6  UNL     1      -5.316 -30.198   7.005  1.00  0.00     0.001 C 
HETATM   15  C7  UNL     1      -5.340 -29.120   5.984  1.00  0.00     0.000 C 
HETATM   16  C8  UNL     1      -6.426 -29.496   4.966  1.00  0.00     0.001 C 
HETATM   17  C9  UNL     1      -7.707 -29.426   5.733  1.00  0.00     0.009 C 
ENDBRANCH   9  12
ENDBRANCH   7   9
ENDBRANCH   1   7
TORSDOF 4
ENDMDL
MODEL 5
REMARK VINA RESULT: -5.558456701      2.432      4.167
REMARK  4 active torsions:
REMARK  status: ('A' for Active; 'I' for Inactive)
REMARK    1  A    between atoms: N1_2  and  N2_3 
REMARK    2  A    between atoms: N1_2  and  C3_9 
REMARK    3  A    between atoms: C3_9  and  O1_10 
REMARK    4  A    between atoms: C3_9  and  C4_12 
ROOT
HETATM    1  N2  UNL     1     -10.936 -31.012  10.292  1.00  0.00    -0.234 N 
ATOM      2  H2  UNL     1     -11.603 -30.530  10.894  1.00  0.00     0.209 HD
HETATM    3  N3  UNL     1     -10.425 -30.422   9.300  1.00  0.00    -0.222 N 
ATOM      4  H3  UNL     1      -9.763 -30.939   8.722  1.00  0.00     0.201 HD
HETATM    5  C2  UNL     1     -10.712 -29.103   8.948  1.00  0.00     0.199 C 
HETATM    6  N4  UNL     1     -10.939 -28.005   8.662  1.00  0.00    -0.170 NA
ENDROOT
BRANCH   1   7
HETATM    7  N1  UNL     1     -10.578 -32.320  10.548  1.00  0.00    -0.288 N 
HETATM    8  C1  UNL     1      -9.274 -32.610  11.093  1.00  0.00     0.175 C 
BRANCH   7   9
HETATM    9  C3  UNL     1     -11.472 -33.396  10.273  1.00  0.00     0.240 C 
BRANCH   9  10
HETATM   10  O1  UNL     1     -11.506 -34.186  11.448  1.00  0.00    -0.375 OA
ATOM     11  H1  UNL     1     -12.392 -34.521  11.512  1.00  0.00     0.212 HD
ENDBRANCH   9  10
BRANCH   9  12
HETATM   12  C4  UNL     1     -11.090 -34.267   9.083  1.00  0.00     0.036 C 
HETATM   13  C5  UNL     1     -10.965 -33.418   7.879  1.00  0.00     0.009 C 
HETATM   14  C6  UNL     1     -11.519 -33.906   6.597  1.00  0.00     0.001 C 
HETATM   15  C7  UNL     1     -12.665 -34.848   6.651  1.00  0.00     0.000 C 
HETATM   16  C8  UNL     1     -12.277 -35.964   7.632  1.00  0.00     0.001 C 
HETATM   17  C9  UNL     1     -12.181 -35.285   8.960  1.00  0.00     0.009 C 
ENDBRANCH   9  12
ENDBRANCH   7   9
ENDBRANCH   1   7
TORSDOF 4
ENDMDL
