MODEL 1
REMARK VINA RESULT: -7.135803360      0.000      0.000
REMARK  8 active torsions:
REMARK  status: ('A' for Active; 'I' for Inactive)
REMARK    1  A    between atoms: C2_2  and  C3_3 
REMARK    2  A    between atoms: C3_3  and  N1_4 
REMARK    3  A    between atoms: N1_4  and  C4_7 
REMARK    4  A    between atoms: C4_7  and  C5_8 
REMARK    5  A    between atoms: C7_12  and  N3_13 
REMARK    6  A    between atoms: N3_13  and  C8_15 
REMARK    7  A    between atoms: C8_15  and  C9_16 
REMARK    8  A    between atoms: C9_16  and  N4_17 
ROOT
HETATM    1  C5  UNL     1     -30.315  20.418  35.191  1.00  0.00     0.097 C 
HETATM    2  C6  UNL     1     -31.175  21.385  34.413  1.00  0.00     0.152 C 
HETATM    3  N2  UNL     1     -32.317  21.752  35.202  1.00  0.00    -0.225 N 
ATOM      4  H2  UNL     1     -32.699  22.683  35.039  1.00  0.00     0.177 HD
HETATM    5  C7  UNL     1     -32.911  21.041  36.090  1.00  0.00     0.675 C 
HETATM    6  N5  UNL     1     -32.366  19.728  36.342  1.00  0.00    -0.181 N 
ATOM      7  H5  UNL     1     -32.790  19.111  37.034  1.00  0.00     0.185 HD
HETATM    8  C10 UNL     1     -31.224  19.316  35.603  1.00  0.00     0.098 C 
HETATM    9  N6  UNL     1     -31.006  18.085  35.323  1.00  0.00    -0.388 N 
ATOM     10  H61 UNL     1     -31.629  17.330  35.606  1.00  0.00     0.157 HD
ATOM     11  H62 UNL     1     -30.186  17.790  34.793  1.00  0.00     0.157 HD
ENDROOT
BRANCH   5  12
HETATM   12  N3  UNL     1     -34.040  21.505  36.815  1.00  0.00    -0.225 N 
ATOM     13  H3  UNL     1     -34.662  22.196  36.395  1.00  0.00     0.177 HD
BRANCH  12  14
HETATM   14  C8  UNL     1     -34.315  21.010  38.134  1.00  0.00     0.165 C 
BRANCH  14  15
HETATM   15  C9  UNL     1     -35.664  20.335  38.217  1.00  0.00     0.249 C 
BRANCH  15  16
HETATM   16  N4  UNL     1     -35.684  19.063  37.551  1.00  0.00    -0.078 N 
ATOM     17  H43 UNL     1     -35.393  18.314  38.180  1.00  0.00     0.274 HD
ATOM     18  H42 UNL     1     -36.640  18.759  37.366  1.00  0.00     0.274 HD
ATOM     19  H41 UNL     1     -35.127  19.061  36.696  1.00  0.00     0.274 HD
ENDBRANCH  15  16
ENDBRANCH  14  15
ENDBRANCH  12  14
ENDBRANCH   5  12
BRANCH   1  20
HETATM   20  C4  UNL     1     -29.144  19.883  34.419  1.00  0.00     0.246 C 
BRANCH  20  21
HETATM   21  N1  UNL     1     -27.960  20.018  35.217  1.00  0.00    -0.074 N 
ATOM     22  H12 UNL     1     -28.143  20.561  36.061  1.00  0.00     0.277 HD
ATOM     23  H11 UNL     1     -27.282  20.637  34.772  1.00  0.00     0.277 HD
BRANCH  21  24
HETATM   24  C3  UNL     1     -27.369  18.727  35.537  1.00  0.00     0.232 C 
BRANCH  24  25
HETATM   25  C2  UNL     1     -27.752  18.402  36.962  1.00  0.00     0.023 C 
HETATM   26  C1  UNL     1     -27.461  19.590  37.878  1.00  0.00     0.007 C 
ENDBRANCH  24  25
ENDBRANCH  21  24
ENDBRANCH  20  21
ENDBRANCH   1  20
TORSDOF 8
ENDMDL
MODEL 2
REMARK VINA RESULT: -7.066513807      0.853      1.073
REMARK  8 active torsions:
REMARK  status: ('A' for Active; 'I' for Inactive)
REMARK    1  A    between atoms: C2_2  and  C3_3 
REMARK    2  A    between atoms: C3_3  and  N1_4 
REMARK    3  A    between atoms: N1_4  and  C4_7 
REMARK    4  A    between atoms: C4_7  and  C5_8 
REMARK    5  A    between atoms: C7_12  and  N3_13 
REMARK    6  A    between atoms: N3_13  and  C8_15 
REMARK    7  A    between atoms: C8_15  and  C9_16 
REMARK    8  A    between atoms: C9_16  and  N4_17 
ROOT
HETATM    1  C5  UNL     1     -30.383  20.443  35.208  1.00  0.00     0.097 C 
HETATM    2  C6  UNL     1     -31.226  21.458  34.472  1.00  0.00     0.152 C 
HETATM    3  N2  UNL     1     -32.373  21.793  35.268  1.00  0.00    -0.225 N 
ATOM      4  H2  UNL     1     -32.745  22.736  35.149  1.00  0.00     0.177 HD
HETATM    5  C7  UNL     1     -32.984  21.043  36.110  1.00  0.00     0.675 C 
HETATM    6  N5  UNL     1     -32.453  19.714  36.299  1.00  0.00    -0.181 N 
ATOM      7  H5  UNL     1     -32.890  19.065  36.953  1.00  0.00     0.185 HD
HETATM    8  C10 UNL     1     -31.306  19.330  35.551  1.00  0.00     0.098 C 
HETATM    9  N6  UNL     1     -31.096  18.113  35.210  1.00  0.00    -0.388 N 
ATOM     10  H61 UNL     1     -31.730  17.350  35.446  1.00  0.00     0.157 HD
ATOM     11  H62 UNL     1     -30.273  17.838  34.674  1.00  0.00     0.157 HD
ENDROOT
BRANCH   5  12
HETATM   12  N3  UNL     1     -34.116  21.479  36.847  1.00  0.00    -0.225 N 
ATOM     13  H3  UNL     1     -34.518  22.397  36.659  1.00  0.00     0.177 HD
BRANCH  12  14
HETATM   14  C8  UNL     1     -34.701  20.640  37.853  1.00  0.00     0.165 C 
BRANCH  14  15
HETATM   15  C9  UNL     1     -34.409  21.139  39.249  1.00  0.00     0.249 C 
BRANCH  15  16
HETATM   16  N4  UNL     1     -35.243  22.247  39.622  1.00  0.00    -0.078 N 
ATOM     17  H43 UNL     1     -34.690  23.006  40.020  1.00  0.00     0.274 HD
ATOM     18  H42 UNL     1     -35.609  22.725  38.799  1.00  0.00     0.274 HD
ATOM     19  H41 UNL     1     -35.996  21.972  40.253  1.00  0.00     0.274 HD
ENDBRANCH  15  16
ENDBRANCH  14  15
ENDBRANCH  12  14
ENDBRANCH   5  12
BRANCH   1  20
HETATM   20  C4  UNL     1     -29.208  19.938  34.421  1.00  0.00     0.246 C 
BRANCH  20  21
HETATM   21  N1  UNL     1     -28.017  20.113  35.201  1.00  0.00    -0.074 N 
ATOM     22  H12 UNL     1     -28.201  20.668  36.037  1.00  0.00     0.277 HD
ATOM     23  H11 UNL     1     -27.358  20.738  34.735  1.00  0.00     0.277 HD
BRANCH  21  24
HETATM   24  C3  UNL     1     -27.394  18.841  35.535  1.00  0.00     0.232 C 
BRANCH  24  25
HETATM   25  C2  UNL     1     -27.846  18.477  36.931  1.00  0.00     0.023 C 
HETATM   26  C1  UNL     1     -27.461  19.575  37.921  1.00  0.00     0.007 C 
ENDBRANCH  24  25
ENDBRANCH  21  24
ENDBRANCH  20  21
ENDBRANCH   1  20
TORSDOF 8
ENDMDL
MODEL 3
REMARK VINA RESULT: -7.027280410      1.035      1.772
REMARK  8 active torsions:
REMARK  status: ('A' for Active; 'I' for Inactive)
REMARK    1  A    between atoms: C2_2  and  C3_3 
REMARK    2  A    between atoms: C3_3  and  N1_4 
REMARK    3  A    between atoms: N1_4  and  C4_7 
REMARK    4  A    between atoms: C4_7  and  C5_8 
REMARK    5  A    between atoms: C7_12  and  N3_13 
REMARK    6  A    between atoms: N3_13  and  C8_15 
REMARK    7  A    between atoms: C8_15  and  C9_16 
REMARK    8  A    between atoms: C9_16  and  N4_17 
ROOT
HETATM    1  C5  UNL     1     -30.627  19.562  34.475  1.00  0.00     0.097 C 
HETATM    2  C6  UNL     1     -30.812  19.228  35.937  1.00  0.00     0.152 C 
HETATM    3  N2  UNL     1     -32.065  19.762  36.393  1.00  0.00    -0.225 N 
ATOM      4  H2  UNL     1     -32.525  19.251  37.147  1.00  0.00     0.177 HD
HETATM    5  C7  UNL     1     -32.670  20.807  35.962  1.00  0.00     0.675 C 
HETATM    6  N5  UNL     1     -32.036  21.525  34.883  1.00  0.00    -0.181 N 
ATOM      7  H5  UNL     1     -32.463  22.366  34.493  1.00  0.00     0.185 HD
HETATM    8  C10 UNL     1     -30.802  21.035  34.376  1.00  0.00     0.098 C 
HETATM    9  N6  UNL     1     -29.919  21.814  33.872  1.00  0.00    -0.388 N 
ATOM     10  H61 UNL     1     -30.039  22.824  33.804  1.00  0.00     0.157 HD
ATOM     11  H62 UNL     1     -29.033  21.462  33.508  1.00  0.00     0.157 HD
ENDROOT
BRANCH   5  12
HETATM   12  N3  UNL     1     -33.912  21.247  36.490  1.00  0.00    -0.225 N 
ATOM     13  H3  UNL     1     -34.616  21.642  35.866  1.00  0.00     0.177 HD
BRANCH  12  14
HETATM   14  C8  UNL     1     -34.188  21.142  37.894  1.00  0.00     0.165 C 
BRANCH  14  15
HETATM   15  C9  UNL     1     -35.487  20.419  38.165  1.00  0.00     0.249 C 
BRANCH  15  16
HETATM   16  N4  UNL     1     -35.574  19.167  37.466  1.00  0.00    -0.078 N 
ATOM     17  H43 UNL     1     -34.699  18.950  36.989  1.00  0.00     0.274 HD
ATOM     18  H42 UNL     1     -35.603  18.383  38.119  1.00  0.00     0.274 HD
ATOM     19  H41 UNL     1     -36.362  19.135  36.820  1.00  0.00     0.274 HD
ENDBRANCH  15  16
ENDBRANCH  14  15
ENDBRANCH  12  14
ENDBRANCH   5  12
BRANCH   1  20
HETATM   20  C4  UNL     1     -29.297  19.144  33.916  1.00  0.00     0.246 C 
BRANCH  20  21
HETATM   21  N1  UNL     1     -28.479  18.651  34.986  1.00  0.00    -0.074 N 
ATOM     22  H12 UNL     1     -28.357  17.640  34.923  1.00  0.00     0.277 HD
ATOM     23  H11 UNL     1     -28.970  18.698  35.880  1.00  0.00     0.277 HD
BRANCH  21  24
HETATM   24  C3  UNL     1     -27.196  19.335  35.051  1.00  0.00     0.232 C 
BRANCH  24  25
HETATM   25  C2  UNL     1     -27.301  20.377  36.141  1.00  0.00     0.023 C 
HETATM   26  C1  UNL     1     -27.388  19.709  37.513  1.00  0.00     0.007 C 
ENDBRANCH  24  25
ENDBRANCH  21  24
ENDBRANCH  20  21
ENDBRANCH   1  20
TORSDOF 8
ENDMDL
MODEL 4
REMARK VINA RESULT: -6.991115031      1.374      2.078
REMARK  8 active torsions:
REMARK  status: ('A' for Active; 'I' for Inactive)
REMARK    1  A    between atoms: C2_2  and  C3_3 
REMARK    2  A    between atoms: C3_3  and  N1_4 
REMARK    3  A    between atoms: N1_4  and  C4_7 
REMARK    4  A    between atoms: C4_7  and  C5_8 
REMARK    5  A    between atoms: C7_12  and  N3_13 
REMARK    6  A    between atoms: N3_13  and  C8_15 
REMARK    7  A    between atoms: C8_15  and  C9_16 
REMARK    8  A    between atoms: C9_16  and  N4_17 
ROOT
HETATM    1  C5  UNL     1     -30.622  19.404  34.441  1.00  0.00     0.097 C 
HETATM    2  C6  UNL     1     -30.762  19.156  35.925  1.00  0.00     0.152 C 
HETATM    3  N2  UNL     1     -31.992  19.731  36.391  1.00  0.00    -0.225 N 
ATOM      4  H2  UNL     1     -32.433  19.270  37.187  1.00  0.00     0.177 HD
HETATM    5  C7  UNL     1     -32.599  20.760  35.921  1.00  0.00     0.675 C 
HETATM    6  N5  UNL     1     -31.992  21.407  34.783  1.00  0.00    -0.181 N 
ATOM      7  H5  UNL     1     -32.421  22.230  34.360  1.00  0.00     0.185 HD
HETATM    8  C10 UNL     1     -30.782  20.871  34.265  1.00  0.00     0.098 C 
HETATM    9  N6  UNL     1     -29.906  21.608  33.688  1.00  0.00    -0.388 N 
ATOM     10  H61 UNL     1     -30.016  22.614  33.567  1.00  0.00     0.157 HD
ATOM     11  H62 UNL     1     -29.038  21.223  33.316  1.00  0.00     0.157 HD
ENDROOT
BRANCH   5  12
HETATM   12  N3  UNL     1     -33.817  21.246  36.464  1.00  0.00    -0.225 N 
ATOM     13  H3  UNL     1     -34.502  21.690  35.851  1.00  0.00     0.177 HD
BRANCH  12  14
HETATM   14  C8  UNL     1     -34.094  21.121  37.866  1.00  0.00     0.165 C 
BRANCH  14  15
HETATM   15  C9  UNL     1     -35.426  20.456  38.123  1.00  0.00     0.249 C 
BRANCH  15  16
HETATM   16  N4  UNL     1     -35.537  19.178  37.476  1.00  0.00    -0.078 N 
ATOM     17  H43 UNL     1     -36.514  18.911  37.354  1.00  0.00     0.274 HD
ATOM     18  H42 UNL     1     -35.259  19.237  36.496  1.00  0.00     0.274 HD
ATOM     19  H41 UNL     1     -35.015  18.449  37.962  1.00  0.00     0.274 HD
ENDBRANCH  15  16
ENDBRANCH  14  15
ENDBRANCH  12  14
ENDBRANCH   5  12
BRANCH   1  20
HETATM   20  C4  UNL     1     -29.317  18.936  33.864  1.00  0.00     0.246 C 
BRANCH  20  21
HETATM   21  N1  UNL     1     -29.257  17.506  33.952  1.00  0.00    -0.074 N 
ATOM     22  H12 UNL     1     -29.529  17.069  33.071  1.00  0.00     0.277 HD
ATOM     23  H11 UNL     1     -29.998  17.140  34.549  1.00  0.00     0.277 HD
BRANCH  21  24
HETATM   24  C3  UNL     1     -27.948  17.042  34.389  1.00  0.00     0.232 C 
BRANCH  24  25
HETATM   25  C2  UNL     1     -28.129  16.424  35.757  1.00  0.00     0.023 C 
HETATM   26  C1  UNL     1     -27.366  17.225  36.811  1.00  0.00     0.007 C 
ENDBRANCH  24  25
ENDBRANCH  21  24
ENDBRANCH  20  21
ENDBRANCH   1  20
TORSDOF 8
ENDMDL
MODEL 5
REMARK VINA RESULT: -6.858056800      1.576      2.288
REMARK  8 active torsions:
REMARK  status: ('A' for Active; 'I' for Inactive)
REMARK    1  A    between atoms: C2_2  and  C3_3 
REMARK    2  A    between atoms: C3_3  and  N1_4 
REMARK    3  A    between atoms: N1_4  and  C4_7 
REMARK    4  A    between atoms: C4_7  and  C5_8 
REMARK    5  A    between atoms: C7_12  and  N3_13 
REMARK    6  A    between atoms: N3_13  and  C8_15 
REMARK    7  A    between atoms: C8_15  and  C9_16 
REMARK    8  A    between atoms: C9_16  and  N4_17 
ROOT
HETATM    1  C5  UNL     1     -30.762  19.516  34.420  1.00  0.00     0.097 C 
HETATM    2  C6  UNL     1     -30.866  19.217  35.897  1.00  0.00     0.152 C 
HETATM    3  N2  UNL     1     -32.077  19.788  36.415  1.00  0.00    -0.225 N 
ATOM      4  H2  UNL     1     -32.502  19.303  37.206  1.00  0.00     0.177 HD
HETATM    5  C7  UNL     1     -32.685  20.838  35.998  1.00  0.00     0.675 C 
HETATM    6  N5  UNL     1     -32.102  21.519  34.867  1.00  0.00    -0.181 N 
ATOM      7  H5  UNL     1     -32.533  22.360  34.485  1.00  0.00     0.185 HD
HETATM    8  C10 UNL     1     -30.911  20.990  34.298  1.00  0.00     0.098 C 
HETATM    9  N6  UNL     1     -30.044  21.739  33.725  1.00  0.00    -0.388 N 
ATOM     10  H61 UNL     1     -30.146  22.750  33.642  1.00  0.00     0.157 HD
ATOM     11  H62 UNL     1     -29.189  21.359  33.317  1.00  0.00     0.157 HD
ENDROOT
BRANCH   5  12
HETATM   12  N3  UNL     1     -33.884  21.317  36.589  1.00  0.00    -0.225 N 
ATOM     13  H3  UNL     1     -34.298  22.188  36.258  1.00  0.00     0.177 HD
BRANCH  12  14
HETATM   14  C8  UNL     1     -34.519  20.587  37.648  1.00  0.00     0.165 C 
BRANCH  14  15
HETATM   15  C9  UNL     1     -34.206  21.170  39.006  1.00  0.00     0.249 C 
BRANCH  15  16
HETATM   16  N4  UNL     1     -35.235  22.055  39.475  1.00  0.00    -0.078 N 
ATOM     17  H43 UNL     1     -36.099  21.547  39.664  1.00  0.00     0.274 HD
ATOM     18  H42 UNL     1     -35.032  22.390  40.417  1.00  0.00     0.274 HD
ATOM     19  H41 UNL     1     -35.400  22.833  38.837  1.00  0.00     0.274 HD
ENDBRANCH  15  16
ENDBRANCH  14  15
ENDBRANCH  12  14
ENDBRANCH   5  12
BRANCH   1  20
HETATM   20  C4  UNL     1     -29.477  19.057  33.792  1.00  0.00     0.246 C 
BRANCH  20  21
HETATM   21  N1  UNL     1     -28.713  18.341  34.772  1.00  0.00    -0.074 N 
ATOM     22  H12 UNL     1     -29.158  18.378  35.689  1.00  0.00     0.277 HD
ATOM     23  H11 UNL     1     -27.845  18.830  34.994  1.00  0.00     0.277 HD
BRANCH  21  24
HETATM   24  C3  UNL     1     -28.456  16.967  34.364  1.00  0.00     0.232 C 
BRANCH  24  25
HETATM   25  C2  UNL     1     -28.230  16.164  35.624  1.00  0.00     0.023 C 
HETATM   26  C1  UNL     1     -27.406  16.967  36.630  1.00  0.00     0.007 C 
ENDBRANCH  24  25
ENDBRANCH  21  24
ENDBRANCH  20  21
ENDBRANCH   1  20
TORSDOF 8
ENDMDL
