MODEL 1
REMARK VINA RESULT: -6.874833656      0.000      0.000
REMARK  6 active torsions:
REMARK  status: ('A' for Active; 'I' for Inactive)
REMARK    1  A    between atoms: O1_2  and  C2_3 
REMARK    2  A    between atoms: C5_6  and  C6_7 
REMARK    3  A    between atoms: C6_7  and  C7_8 
REMARK    4  A    between atoms: C7_8  and  N1_9 
REMARK    5  A    between atoms: N1_9  and  C8_11 
REMARK    6  A    between atoms: C11_16  and  N3_17 
ROOT
HETATM    1  N1  UNL     1     -28.774 -17.356   7.701  1.00  0.00    -0.376 N 
ATOM      2  H1  UNL     1     -29.217 -16.514   7.334  1.00  0.00     0.161 HD
ENDROOT
BRANCH   1   3
HETATM    3  C7  UNL     1     -27.536 -17.207   8.398  1.00  0.00     0.126 C 
BRANCH   3   4
HETATM    4  C6  UNL     1     -27.744 -16.778   9.838  1.00  0.00     0.058 C 
BRANCH   4   5
HETATM    5  C5  UNL     1     -26.813 -17.502  10.741  1.00  0.00    -0.057 A 
HETATM    6  C4  UNL     1     -26.312 -18.731  10.373  1.00  0.00     0.010 A 
HETATM    7  C3  UNL     1     -25.439 -19.450  11.179  1.00  0.00     0.037 A 
HETATM    8  C2  UNL     1     -25.044 -18.938  12.398  1.00  0.00     0.068 A 
HETATM    9  C13 UNL     1     -25.548 -17.708  12.761  1.00  0.00     0.037 A 
HETATM   10  C12 UNL     1     -26.417 -16.991  11.959  1.00  0.00     0.010 A 
BRANCH   8  11
HETATM   11  O1  UNL     1     -24.179 -19.589  13.260  1.00  0.00    -0.356 OA
HETATM   12  C1  UNL     1     -24.052 -19.307  14.621  1.00  0.00     0.210 C 
ENDBRANCH   8  11
ENDBRANCH   4   5
ENDBRANCH   3   4
ENDBRANCH   1   3
BRANCH   1  13
HETATM   13  C8  UNL     1     -29.371 -18.483   7.506  1.00  0.00     0.118 A 
HETATM   14  C9  UNL     1     -28.708 -19.659   7.784  1.00  0.00     0.066 A 
HETATM   15  C10 UNL     1     -29.343 -20.889   7.578  1.00  0.00     0.110 A 
HETATM   16  N2  UNL     1     -30.582 -20.861   7.112  1.00  0.00    -0.202 N 
HETATM   17  C11 UNL     1     -31.255 -19.735   6.831  1.00  0.00     0.677 A 
ATOM     18  H2  UNL     1     -31.055 -21.751   6.957  1.00  0.00     0.183 HD
HETATM   19  N4  UNL     1     -30.628 -18.555   7.036  1.00  0.00    -0.177 N 
ATOM     20  H4  UNL     1     -31.126 -17.690   6.826  1.00  0.00     0.185 HD
BRANCH  17  21
HETATM   21  N3  UNL     1     -32.468 -19.794   6.377  1.00  0.00    -0.234 N 
ATOM     22  H32 UNL     1     -32.871 -20.665   6.034  1.00  0.00     0.174 HD
ATOM     23  H31 UNL     1     -33.049 -18.957   6.355  1.00  0.00     0.174 HD
ENDBRANCH  17  21
ENDBRANCH   1  13
TORSDOF 6
ENDMDL
MODEL 2
REMARK VINA RESULT: -6.856451936      0.177      1.122
REMARK  6 active torsions:
REMARK  status: ('A' for Active; 'I' for Inactive)
REMARK    1  A    between atoms: O1_2  and  C2_3 
REMARK    2  A    between atoms: C5_6  and  C6_7 
REMARK    3  A    between atoms: C6_7  and  C7_8 
REMARK    4  A    between atoms: C7_8  and  N1_9 
REMARK    5  A    between atoms: N1_9  and  C8_11 
REMARK    6  A    between atoms: C11_16  and  N3_17 
ROOT
HETATM    1  N1  UNL     1     -28.650 -17.409   7.651  1.00  0.00    -0.376 N 
ATOM      2  H1  UNL     1     -29.009 -16.568   7.199  1.00  0.00     0.161 HD
ENDROOT
BRANCH   1   3
HETATM    3  C7  UNL     1     -27.469 -17.286   8.445  1.00  0.00     0.126 C 
BRANCH   3   4
HETATM    4  C6  UNL     1     -27.789 -16.978   9.895  1.00  0.00     0.058 C 
BRANCH   4   5
HETATM    5  C5  UNL     1     -26.798 -17.615  10.799  1.00  0.00    -0.057 A 
HETATM    6  C4  UNL     1     -26.394 -16.966  11.944  1.00  0.00     0.010 A 
HETATM    7  C3  UNL     1     -25.470 -17.516  12.824  1.00  0.00     0.037 A 
HETATM    8  C2  UNL     1     -24.923 -18.756  12.564  1.00  0.00     0.068 A 
HETATM    9  C13 UNL     1     -25.331 -19.400  11.417  1.00  0.00     0.037 A 
HETATM   10  C12 UNL     1     -26.251 -18.854  10.541  1.00  0.00     0.010 A 
BRANCH   8  11
HETATM   11  O1  UNL     1     -23.998 -19.374  13.387  1.00  0.00    -0.356 OA
HETATM   12  C1  UNL     1     -24.155 -19.561  14.761  1.00  0.00     0.210 C 
ENDBRANCH   8  11
ENDBRANCH   4   5
ENDBRANCH   3   4
ENDBRANCH   1   3
BRANCH   1  13
HETATM   13  C8  UNL     1     -29.295 -18.512   7.467  1.00  0.00     0.118 A 
HETATM   14  C9  UNL     1     -28.672 -19.713   7.734  1.00  0.00     0.066 A 
HETATM   15  C10 UNL     1     -29.359 -20.918   7.540  1.00  0.00     0.110 A 
HETATM   16  N2  UNL     1     -30.605 -20.840   7.098  1.00  0.00    -0.202 N 
HETATM   17  C11 UNL     1     -31.238 -19.689   6.830  1.00  0.00     0.677 A 
ATOM     18  H2  UNL     1     -31.116 -21.711   6.953  1.00  0.00     0.183 HD
HETATM   19  N4  UNL     1     -30.561 -18.535   7.022  1.00  0.00    -0.177 N 
ATOM     20  H4  UNL     1     -31.029 -17.650   6.822  1.00  0.00     0.185 HD
BRANCH  17  21
HETATM   21  N3  UNL     1     -32.461 -19.700   6.399  1.00  0.00    -0.234 N 
ATOM     22  H32 UNL     1     -33.243 -19.940   7.008  1.00  0.00     0.174 HD
ATOM     23  H31 UNL     1     -32.666 -19.463   5.429  1.00  0.00     0.174 HD
ENDBRANCH  17  21
ENDBRANCH   1  13
TORSDOF 6
ENDMDL
MODEL 3
REMARK VINA RESULT: -6.719374425      1.578      2.730
REMARK  6 active torsions:
REMARK  status: ('A' for Active; 'I' for Inactive)
REMARK    1  A    between atoms: O1_2  and  C2_3 
REMARK    2  A    between atoms: C5_6  and  C6_7 
REMARK    3  A    between atoms: C6_7  and  C7_8 
REMARK    4  A    between atoms: C7_8  and  N1_9 
REMARK    5  A    between atoms: N1_9  and  C8_11 
REMARK    6  A    between atoms: C11_16  and  N3_17 
ROOT
HETATM    1  N1  UNL     1     -28.040 -16.810  10.612  1.00  0.00    -0.376 N 
ATOM      2  H1  UNL     1     -28.260 -15.815  10.648  1.00  0.00     0.161 HD
ENDROOT
BRANCH   1   3
HETATM    3  C7  UNL     1     -27.574 -17.433  11.811  1.00  0.00     0.126 C 
BRANCH   3   4
HETATM    4  C6  UNL     1     -26.134 -17.068  12.115  1.00  0.00     0.058 C 
BRANCH   4   5
HETATM    5  C5  UNL     1     -25.450 -18.178  12.826  1.00  0.00    -0.057 A 
HETATM    6  C4  UNL     1     -25.692 -19.483  12.460  1.00  0.00     0.010 A 
HETATM    7  C3  UNL     1     -25.080 -20.559  13.091  1.00  0.00     0.037 A 
HETATM    8  C2  UNL     1     -24.193 -20.339  14.125  1.00  0.00     0.068 A 
HETATM    9  C13 UNL     1     -23.955 -19.032  14.487  1.00  0.00     0.037 A 
HETATM   10  C12 UNL     1     -24.564 -17.960  13.860  1.00  0.00     0.010 A 
BRANCH   8  11
HETATM   11  O1  UNL     1     -23.542 -21.353  14.806  1.00  0.00    -0.356 OA
HETATM   12  C1  UNL     1     -23.820 -22.713  14.665  1.00  0.00     0.210 C 
ENDBRANCH   8  11
ENDBRANCH   4   5
ENDBRANCH   3   4
ENDBRANCH   1   3
BRANCH   1  13
HETATM   13  C8  UNL     1     -28.202 -17.422   9.487  1.00  0.00     0.118 A 
HETATM   14  C9  UNL     1     -27.098 -17.762   8.735  1.00  0.00     0.066 A 
HETATM   15  C10 UNL     1     -27.258 -18.425   7.513  1.00  0.00     0.110 A 
HETATM   16  N2  UNL     1     -28.496 -18.700   7.131  1.00  0.00    -0.202 N 
HETATM   17  C11 UNL     1     -29.590 -18.384   7.839  1.00  0.00     0.677 A 
ATOM     18  H2  UNL     1     -28.625 -19.184   6.242  1.00  0.00     0.183 HD
HETATM   19  N4  UNL     1     -29.418 -17.743   9.016  1.00  0.00    -0.177 N 
ATOM     20  H4  UNL     1     -30.241 -17.494   9.566  1.00  0.00     0.185 HD
BRANCH  17  21
HETATM   21  N3  UNL     1     -30.768 -18.688   7.392  1.00  0.00    -0.234 N 
ATOM     22  H32 UNL     1     -31.018 -19.645   7.144  1.00  0.00     0.174 HD
ATOM     23  H31 UNL     1     -31.478 -17.965   7.281  1.00  0.00     0.174 HD
ENDBRANCH  17  21
ENDBRANCH   1  13
TORSDOF 6
ENDMDL
MODEL 4
REMARK VINA RESULT: -6.712952097      1.179      2.086
REMARK  6 active torsions:
REMARK  status: ('A' for Active; 'I' for Inactive)
REMARK    1  A    between atoms: O1_2  and  C2_3 
REMARK    2  A    between atoms: C5_6  and  C6_7 
REMARK    3  A    between atoms: C6_7  and  C7_8 
REMARK    4  A    between atoms: C7_8  and  N1_9 
REMARK    5  A    between atoms: N1_9  and  C8_11 
REMARK    6  A    between atoms: C11_16  and  N3_17 
ROOT
HETATM    1  N1  UNL     1     -28.296 -17.949   8.107  1.00  0.00    -0.376 N 
ATOM      2  H1  UNL     1     -28.696 -17.065   7.794  1.00  0.00     0.161 HD
ENDROOT
BRANCH   1   3
HETATM    3  C7  UNL     1     -27.083 -17.900   8.861  1.00  0.00     0.126 C 
BRANCH   3   4
HETATM    4  C6  UNL     1     -27.264 -17.172  10.178  1.00  0.00     0.058 C 
BRANCH   4   5
HETATM    5  C5  UNL     1     -26.367 -17.737  11.218  1.00  0.00    -0.057 A 
HETATM    6  C4  UNL     1     -26.040 -16.989  12.327  1.00  0.00     0.010 A 
HETATM    7  C3  UNL     1     -25.206 -17.468  13.329  1.00  0.00     0.037 A 
HETATM    8  C2  UNL     1     -24.671 -18.737  13.234  1.00  0.00     0.068 A 
HETATM    9  C13 UNL     1     -25.001 -19.481  12.123  1.00  0.00     0.037 A 
HETATM   10  C12 UNL     1     -25.832 -19.004  11.125  1.00  0.00     0.010 A 
BRANCH   8  11
HETATM   11  O1  UNL     1     -23.833 -19.290  14.186  1.00  0.00    -0.356 OA
HETATM   12  C1  UNL     1     -23.863 -20.624  14.594  1.00  0.00     0.210 C 
ENDBRANCH   8  11
ENDBRANCH   4   5
ENDBRANCH   3   4
ENDBRANCH   1   3
BRANCH   1  13
HETATM   13  C8  UNL     1     -28.920 -19.035   7.796  1.00  0.00     0.118 A 
HETATM   14  C9  UNL     1     -30.299 -19.053   7.812  1.00  0.00     0.066 A 
HETATM   15  C10 UNL     1     -30.990 -20.223   7.477  1.00  0.00     0.110 A 
HETATM   16  N2  UNL     1     -30.264 -21.283   7.153  1.00  0.00    -0.202 N 
HETATM   17  C11 UNL     1     -28.924 -21.298   7.127  1.00  0.00     0.677 A 
ATOM     18  H2  UNL     1     -30.756 -22.141   6.906  1.00  0.00     0.183 HD
HETATM   19  N4  UNL     1     -28.272 -20.160   7.454  1.00  0.00    -0.177 N 
ATOM     20  H4  UNL     1     -27.251 -20.156   7.440  1.00  0.00     0.185 HD
BRANCH  17  21
HETATM   21  N3  UNL     1     -28.288 -22.379   6.799  1.00  0.00    -0.234 N 
ATOM     22  H32 UNL     1     -28.489 -23.275   7.241  1.00  0.00     0.174 HD
ATOM     23  H31 UNL     1     -27.565 -22.352   6.080  1.00  0.00     0.174 HD
ENDBRANCH  17  21
ENDBRANCH   1  13
TORSDOF 6
ENDMDL
MODEL 5
REMARK VINA RESULT: -6.678510920      3.502      6.413
REMARK  6 active torsions:
REMARK  status: ('A' for Active; 'I' for Inactive)
REMARK    1  A    between atoms: O1_2  and  C2_3 
REMARK    2  A    between atoms: C5_6  and  C6_7 
REMARK    3  A    between atoms: C6_7  and  C7_8 
REMARK    4  A    between atoms: C7_8  and  N1_9 
REMARK    5  A    between atoms: N1_9  and  C8_11 
REMARK    6  A    between atoms: C11_16  and  N3_17 
ROOT
HETATM    1  N1  UNL     1     -27.744 -16.616  10.653  1.00  0.00    -0.376 N 
ATOM      2  H1  UNL     1     -28.565 -16.325  11.183  1.00  0.00     0.161 HD
ENDROOT
BRANCH   1   3
HETATM    3  C7  UNL     1     -27.665 -16.227   9.281  1.00  0.00     0.126 C 
BRANCH   3   4
HETATM    4  C6  UNL     1     -28.949 -16.525   8.532  1.00  0.00     0.058 C 
BRANCH   4   5
HETATM    5  C5  UNL     1     -29.128 -17.989   8.359  1.00  0.00    -0.057 A 
HETATM    6  C4  UNL     1     -30.132 -18.646   9.035  1.00  0.00     0.010 A 
HETATM    7  C3  UNL     1     -30.342 -20.013   8.909  1.00  0.00     0.037 A 
HETATM    8  C2  UNL     1     -29.531 -20.764   8.084  1.00  0.00     0.068 A 
HETATM    9  C13 UNL     1     -28.529 -20.102   7.410  1.00  0.00     0.037 A 
HETATM   10  C12 UNL     1     -28.318 -18.741   7.534  1.00  0.00     0.010 A 
BRANCH   8  11
HETATM   11  O1  UNL     1     -29.673 -22.129   7.902  1.00  0.00    -0.356 OA
HETATM   12  C1  UNL     1     -30.848 -22.844   8.135  1.00  0.00     0.210 C 
ENDBRANCH   8  11
ENDBRANCH   4   5
ENDBRANCH   3   4
ENDBRANCH   1   3
BRANCH   1  13
HETATM   13  C8  UNL     1     -26.847 -17.311  11.268  1.00  0.00     0.118 A 
HETATM   14  C9  UNL     1     -26.531 -18.571  10.806  1.00  0.00     0.066 A 
HETATM   15  C10 UNL     1     -25.560 -19.337  11.462  1.00  0.00     0.110 A 
HETATM   16  N2  UNL     1     -24.978 -18.798  12.522  1.00  0.00    -0.202 N 
HETATM   17  C11 UNL     1     -25.263 -17.576  12.997  1.00  0.00     0.677 A 
ATOM     18  H2  UNL     1     -24.269 -19.346  13.009  1.00  0.00     0.183 HD
HETATM   19  N4  UNL     1     -26.203 -16.850  12.352  1.00  0.00    -0.177 N 
ATOM     20  H4  UNL     1     -26.431 -15.919  12.702  1.00  0.00     0.185 HD
BRANCH  17  21
HETATM   21  N3  UNL     1     -24.647 -17.121  14.043  1.00  0.00    -0.234 N 
ATOM     22  H32 UNL     1     -24.511 -17.692  14.877  1.00  0.00     0.174 HD
ATOM     23  H31 UNL     1     -24.280 -16.170  14.050  1.00  0.00     0.174 HD
ENDBRANCH  17  21
ENDBRANCH   1  13
TORSDOF 6
ENDMDL
