MODEL 1
REMARK VINA RESULT: -7.183997903      0.000      0.000
REMARK  8 active torsions:
REMARK  status: ('A' for Active; 'I' for Inactive)
REMARK    1  A    between atoms: N1_1  and  C1_5 
REMARK    2  A    between atoms: C1_5  and  C2_6 
REMARK    3  A    between atoms: C1_5  and  C9_13 
REMARK    4  A    between atoms: C2_6  and  C3_7 
REMARK    5  A    between atoms: C9_13  and  N2_14 
REMARK    6  A    between atoms: C9_13  and  C10_18 
REMARK    7  A    between atoms: C10_18  and  N3_19 
REMARK    8  A    between atoms: C10_18  and  C11_23 
ROOT
HETATM    1  C9  UNL     1     -27.010 -18.659   9.298  1.00  0.00     0.244 C 
ENDROOT
BRANCH   1   2
HETATM    2  C1  UNL     1     -26.863 -17.398  10.053  1.00  0.00     0.220 C 
BRANCH   2   3
HETATM    3  N1  UNL     1     -27.698 -16.326   9.539  1.00  0.00    -0.073 N 
ATOM      4  H13 UNL     1     -28.183 -16.555   8.670  1.00  0.00     0.274 HD
ATOM      5  H12 UNL     1     -28.537 -16.148  10.092  1.00  0.00     0.274 HD
ATOM      6  H11 UNL     1     -27.068 -15.527   9.467  1.00  0.00     0.274 HD
ENDBRANCH   2   3
BRANCH   2   7
HETATM    7  C2  UNL     1     -27.343 -17.592  11.504  1.00  0.00     0.073 C 
BRANCH   7   8
HETATM    8  C3  UNL     1     -26.157 -17.918  12.347  1.00  0.00    -0.056 A 
HETATM    9  C4  UNL     1     -25.521 -17.033  13.161  1.00  0.00     0.007 A 
HETATM   10  C5  UNL     1     -24.430 -17.409  13.911  1.00  0.00     0.001 A 
HETATM   11  C6  UNL     1     -23.933 -18.695  13.871  1.00  0.00     0.000 A 
HETATM   12  C7  UNL     1     -24.555 -19.613  13.056  1.00  0.00     0.001 A 
HETATM   13  C8  UNL     1     -25.644 -19.220  12.315  1.00  0.00     0.007 A 
ENDBRANCH   7   8
ENDBRANCH   2   7
ENDBRANCH   1   2
BRANCH   1  14
HETATM   14  N2  UNL     1     -26.624 -18.385   7.900  1.00  0.00    -0.071 N 
ATOM     15  H23 UNL     1     -26.083 -19.141   7.481  1.00  0.00     0.274 HD
ATOM     16  H22 UNL     1     -27.415 -18.414   7.256  1.00  0.00     0.274 HD
ATOM     17  H21 UNL     1     -26.133 -17.491   7.889  1.00  0.00     0.274 HD
ENDBRANCH   1  14
BRANCH   1  18
HETATM   18  C10 UNL     1     -28.273 -19.396   9.336  1.00  0.00     0.223 C 
BRANCH  18  19
HETATM   19  N3  UNL     1     -27.977 -20.755   9.849  1.00  0.00    -0.072 N 
ATOM     20  H33 UNL     1     -28.405 -20.940  10.756  1.00  0.00     0.274 HD
ATOM     21  H32 UNL     1     -28.453 -21.490   9.326  1.00  0.00     0.274 HD
ATOM     22  H31 UNL     1     -26.963 -20.863   9.856  1.00  0.00     0.274 HD
ENDBRANCH  18  19
BRANCH  18  23
HETATM   23  C11 UNL     1     -29.040 -19.624   8.095  1.00  0.00     0.040 C 
HETATM   24  C12 UNL     1     -29.438 -21.090   8.109  1.00  0.00    -0.024 C 
HETATM   25  C13 UNL     1     -30.570 -21.240   7.430  1.00  0.00    -0.030 C 
HETATM   26  C14 UNL     1     -31.007 -19.910   6.920  1.00  0.00     0.027 C 
HETATM   27  C15 UNL     1     -30.409 -19.011   8.025  1.00  0.00     0.014 C 
ENDBRANCH  18  23
ENDBRANCH   1  18
TORSDOF 8
ENDMDL
MODEL 2
REMARK VINA RESULT: -7.136000803      1.108      1.629
REMARK  8 active torsions:
REMARK  status: ('A' for Active; 'I' for Inactive)
REMARK    1  A    between atoms: N1_1  and  C1_5 
REMARK    2  A    between atoms: C1_5  and  C2_6 
REMARK    3  A    between atoms: C1_5  and  C9_13 
REMARK    4  A    between atoms: C2_6  and  C3_7 
REMARK    5  A    between atoms: C9_13  and  N2_14 
REMARK    6  A    between atoms: C9_13  and  C10_18 
REMARK    7  A    between atoms: C10_18  and  N3_19 
REMARK    8  A    between atoms: C10_18  and  C11_23 
ROOT
HETATM    1  C9  UNL     1     -28.442 -18.716   9.275  1.00  0.00     0.244 C 
ENDROOT
BRANCH   1   2
HETATM    2  C1  UNL     1     -27.047 -18.447   9.681  1.00  0.00     0.220 C 
BRANCH   2   3
HETATM    3  N1  UNL     1     -26.224 -17.949   8.593  1.00  0.00    -0.073 N 
ATOM      4  H13 UNL     1     -25.550 -17.235   8.872  1.00  0.00     0.274 HD
ATOM      5  H12 UNL     1     -25.538 -18.621   8.246  1.00  0.00     0.274 HD
ATOM      6  H11 UNL     1     -26.896 -17.638   7.891  1.00  0.00     0.274 HD
ENDBRANCH   2   3
BRANCH   2   7
HETATM    7  C2  UNL     1     -27.012 -17.319  10.731  1.00  0.00     0.073 C 
BRANCH   7   8
HETATM    8  C3  UNL     1     -26.059 -17.715  11.808  1.00  0.00    -0.056 A 
HETATM    9  C4  UNL     1     -25.655 -16.900  12.819  1.00  0.00     0.007 A 
HETATM   10  C5  UNL     1     -24.771 -17.337  13.778  1.00  0.00     0.001 A 
HETATM   11  C6  UNL     1     -24.254 -18.617  13.757  1.00  0.00     0.000 A 
HETATM   12  C7  UNL     1     -24.644 -19.464  12.746  1.00  0.00     0.001 A 
HETATM   13  C8  UNL     1     -25.529 -19.010  11.796  1.00  0.00     0.007 A 
ENDBRANCH   7   8
ENDBRANCH   2   7
ENDBRANCH   1   2
BRANCH   1  14
HETATM   14  N2  UNL     1     -29.247 -17.537   9.650  1.00  0.00    -0.071 N 
ATOM     15  H23 UNL     1     -29.004 -17.164  10.567  1.00  0.00     0.274 HD
ATOM     16  H22 UNL     1     -29.015 -16.707   9.103  1.00  0.00     0.274 HD
ATOM     17  H21 UNL     1     -30.229 -17.802   9.576  1.00  0.00     0.274 HD
ENDBRANCH   1  14
BRANCH   1  18
HETATM   18  C10 UNL     1     -29.112 -19.942   9.712  1.00  0.00     0.223 C 
BRANCH  18  19
HETATM   19  N3  UNL     1     -28.060 -20.886  10.156  1.00  0.00    -0.072 N 
ATOM     20  H33 UNL     1     -28.425 -21.650  10.725  1.00  0.00     0.274 HD
ATOM     21  H32 UNL     1     -27.687 -21.454   9.395  1.00  0.00     0.274 HD
ATOM     22  H31 UNL     1     -27.343 -20.340  10.634  1.00  0.00     0.274 HD
ENDBRANCH  18  19
BRANCH  18  23
HETATM   23  C11 UNL     1     -29.935 -20.718   8.763  1.00  0.00     0.040 C 
HETATM   24  C12 UNL     1     -28.974 -21.264   7.719  1.00  0.00    -0.024 C 
HETATM   25  C13 UNL     1     -29.460 -22.400   7.232  1.00  0.00    -0.030 C 
HETATM   26  C14 UNL     1     -30.759 -22.694   7.900  1.00  0.00     0.027 C 
HETATM   27  C15 UNL     1     -30.498 -22.017   9.264  1.00  0.00     0.014 C 
ENDBRANCH  18  23
ENDBRANCH   1  18
TORSDOF 8
ENDMDL
MODEL 3
REMARK VINA RESULT: -7.124575590      1.366      6.197
REMARK  8 active torsions:
REMARK  status: ('A' for Active; 'I' for Inactive)
REMARK    1  A    between atoms: N1_1  and  C1_5 
REMARK    2  A    between atoms: C1_5  and  C2_6 
REMARK    3  A    between atoms: C1_5  and  C9_13 
REMARK    4  A    between atoms: C2_6  and  C3_7 
REMARK    5  A    between atoms: C9_13  and  N2_14 
REMARK    6  A    between atoms: C9_13  and  C10_18 
REMARK    7  A    between atoms: C10_18  and  N3_19 
REMARK    8  A    between atoms: C10_18  and  C11_23 
ROOT
HETATM    1  C9  UNL     1     -27.270 -17.795   9.462  1.00  0.00     0.244 C 
ENDROOT
BRANCH   1   2
HETATM    2  C1  UNL     1     -28.530 -18.049   8.731  1.00  0.00     0.220 C 
BRANCH   2   3
HETATM    3  N1  UNL     1     -28.956 -16.919   7.923  1.00  0.00    -0.073 N 
ATOM      4  H13 UNL     1     -29.602 -16.288   8.396  1.00  0.00     0.274 HD
ATOM      5  H12 UNL     1     -28.225 -16.227   7.754  1.00  0.00     0.274 HD
ATOM      6  H11 UNL     1     -29.332 -17.344   7.075  1.00  0.00     0.274 HD
ENDBRANCH   2   3
BRANCH   2   7
HETATM    7  C2  UNL     1     -28.330 -19.190   7.716  1.00  0.00     0.073 C 
BRANCH   7   8
HETATM    8  C3  UNL     1     -29.216 -20.323   8.107  1.00  0.00    -0.056 A 
HETATM    9  C4  UNL     1     -30.083 -20.299   9.156  1.00  0.00     0.007 A 
HETATM   10  C5  UNL     1     -30.870 -21.386   9.456  1.00  0.00     0.001 A 
HETATM   11  C6  UNL     1     -30.816 -22.547   8.712  1.00  0.00     0.000 A 
HETATM   12  C7  UNL     1     -29.948 -22.602   7.646  1.00  0.00     0.001 A 
HETATM   13  C8  UNL     1     -29.169 -21.505   7.359  1.00  0.00     0.007 A 
ENDBRANCH   7   8
ENDBRANCH   2   7
ENDBRANCH   1   2
BRANCH   1  14
HETATM   14  N2  UNL     1     -26.189 -18.483   8.729  1.00  0.00    -0.071 N 
ATOM     15  H23 UNL     1     -26.510 -18.924   7.867  1.00  0.00     0.274 HD
ATOM     16  H22 UNL     1     -25.521 -17.837   8.308  1.00  0.00     0.274 HD
ATOM     17  H21 UNL     1     -25.755 -19.142   9.375  1.00  0.00     0.274 HD
ENDBRANCH   1  14
BRANCH   1  18
HETATM   18  C10 UNL     1     -27.177 -18.090  10.891  1.00  0.00     0.223 C 
BRANCH  18  19
HETATM   19  N3  UNL     1     -27.880 -17.004  11.614  1.00  0.00    -0.072 N 
ATOM     20  H33 UNL     1     -28.194 -17.282  12.543  1.00  0.00     0.274 HD
ATOM     21  H32 UNL     1     -27.257 -16.250  11.904  1.00  0.00     0.274 HD
ATOM     22  H31 UNL     1     -28.642 -16.684  11.015  1.00  0.00     0.274 HD
ENDBRANCH  18  19
BRANCH  18  23
HETATM   23  C11 UNL     1     -25.857 -18.183  11.548  1.00  0.00     0.040 C 
HETATM   24  C12 UNL     1     -25.826 -17.075  12.588  1.00  0.00    -0.024 C 
HETATM   25  C13 UNL     1     -25.024 -17.437  13.583  1.00  0.00    -0.030 C 
HETATM   26  C14 UNL     1     -24.469 -18.788  13.290  1.00  0.00     0.027 C 
HETATM   27  C15 UNL     1     -25.635 -19.360  12.453  1.00  0.00     0.014 C 
ENDBRANCH  18  23
ENDBRANCH   1  18
TORSDOF 8
ENDMDL
MODEL 4
REMARK VINA RESULT: -7.112572469      1.093      2.031
REMARK  8 active torsions:
REMARK  status: ('A' for Active; 'I' for Inactive)
REMARK    1  A    between atoms: N1_1  and  C1_5 
REMARK    2  A    between atoms: C1_5  and  C2_6 
REMARK    3  A    between atoms: C1_5  and  C9_13 
REMARK    4  A    between atoms: C2_6  and  C3_7 
REMARK    5  A    between atoms: C9_13  and  N2_14 
REMARK    6  A    between atoms: C9_13  and  C10_18 
REMARK    7  A    between atoms: C10_18  and  N3_19 
REMARK    8  A    between atoms: C10_18  and  C11_23 
ROOT
HETATM    1  C9  UNL     1     -28.597 -18.729   9.306  1.00  0.00     0.244 C 
ENDROOT
BRANCH   1   2
HETATM    2  C1  UNL     1     -27.176 -18.656   9.705  1.00  0.00     0.220 C 
BRANCH   2   3
HETATM    3  N1  UNL     1     -26.287 -18.368   8.593  1.00  0.00    -0.073 N 
ATOM      4  H13 UNL     1     -26.269 -17.387   8.317  1.00  0.00     0.274 HD
ATOM      5  H12 UNL     1     -25.294 -18.439   8.822  1.00  0.00     0.274 HD
ATOM      6  H11 UNL     1     -26.591 -19.004   7.856  1.00  0.00     0.274 HD
ENDBRANCH   2   3
BRANCH   2   7
HETATM    7  C2  UNL     1     -26.961 -17.482  10.678  1.00  0.00     0.073 C 
BRANCH   7   8
HETATM    8  C3  UNL     1     -26.017 -17.926  11.744  1.00  0.00    -0.056 A 
HETATM    9  C4  UNL     1     -25.453 -19.162  11.809  1.00  0.00     0.007 A 
HETATM   10  C5  UNL     1     -24.589 -19.499  12.826  1.00  0.00     0.001 A 
HETATM   11  C6  UNL     1     -24.257 -18.602  13.821  1.00  0.00     0.000 A 
HETATM   12  C7  UNL     1     -24.813 -17.344  13.781  1.00  0.00     0.001 A 
HETATM   13  C8  UNL     1     -25.674 -17.024  12.758  1.00  0.00     0.007 A 
ENDBRANCH   7   8
ENDBRANCH   2   7
ENDBRANCH   1   2
BRANCH   1  14
HETATM   14  N2  UNL     1     -29.225 -17.446   9.674  1.00  0.00    -0.071 N 
ATOM     15  H23 UNL     1     -29.399 -16.842   8.870  1.00  0.00     0.274 HD
ATOM     16  H22 UNL     1     -30.195 -17.549   9.975  1.00  0.00     0.274 HD
ATOM     17  H21 UNL     1     -28.633 -17.008  10.379  1.00  0.00     0.274 HD
ENDBRANCH   1  14
BRANCH   1  18
HETATM   18  C10 UNL     1     -29.430 -19.845   9.753  1.00  0.00     0.223 C 
BRANCH  18  19
HETATM   19  N3  UNL     1     -28.559 -20.770  10.514  1.00  0.00    -0.072 N 
ATOM     20  H33 UNL     1     -27.822 -20.290  11.030  1.00  0.00     0.274 HD
ATOM     21  H32 UNL     1     -29.029 -21.191  11.316  1.00  0.00     0.274 HD
ATOM     22  H31 UNL     1     -28.200 -21.462   9.855  1.00  0.00     0.274 HD
ENDBRANCH  18  19
BRANCH  18  23
HETATM   23  C11 UNL     1     -30.117 -20.703   8.767  1.00  0.00     0.040 C 
HETATM   24  C12 UNL     1     -29.038 -21.208   7.824  1.00  0.00    -0.024 C 
HETATM   25  C13 UNL     1     -29.404 -22.389   7.337  1.00  0.00    -0.030 C 
HETATM   26  C14 UNL     1     -30.730 -22.756   7.906  1.00  0.00     0.027 C 
HETATM   27  C15 UNL     1     -30.630 -22.025   9.263  1.00  0.00     0.014 C 
ENDBRANCH  18  23
ENDBRANCH   1  18
TORSDOF 8
ENDMDL
MODEL 5
REMARK VINA RESULT: -7.097872426      1.319      6.309
REMARK  8 active torsions:
REMARK  status: ('A' for Active; 'I' for Inactive)
REMARK    1  A    between atoms: N1_1  and  C1_5 
REMARK    2  A    between atoms: C1_5  and  C2_6 
REMARK    3  A    between atoms: C1_5  and  C9_13 
REMARK    4  A    between atoms: C2_6  and  C3_7 
REMARK    5  A    between atoms: C9_13  and  N2_14 
REMARK    6  A    between atoms: C9_13  and  C10_18 
REMARK    7  A    between atoms: C10_18  and  N3_19 
REMARK    8  A    between atoms: C10_18  and  C11_23 
ROOT
HETATM    1  C9  UNL     1     -27.178 -17.894   9.730  1.00  0.00     0.244 C 
ENDROOT
BRANCH   1   2
HETATM    2  C1  UNL     1     -28.464 -18.117   9.037  1.00  0.00     0.220 C 
BRANCH   2   3
HETATM    3  N1  UNL     1     -28.987 -16.916   8.409  1.00  0.00    -0.073 N 
ATOM      4  H13 UNL     1     -29.016 -16.958   7.390  1.00  0.00     0.274 HD
ATOM      5  H12 UNL     1     -29.989 -16.777   8.544  1.00  0.00     0.274 HD
ATOM      6  H11 UNL     1     -28.406 -16.164   8.780  1.00  0.00     0.274 HD
ENDBRANCH   2   3
BRANCH   2   7
HETATM    7  C2  UNL     1     -28.269 -19.104   7.870  1.00  0.00     0.073 C 
BRANCH   7   8
HETATM    8  C3  UNL     1     -29.114 -20.306   8.131  1.00  0.00    -0.056 A 
HETATM    9  C4  UNL     1     -29.145 -21.413   7.341  1.00  0.00     0.007 A 
HETATM   10  C5  UNL     1     -29.952 -22.484   7.647  1.00  0.00     0.001 A 
HETATM   11  C6  UNL     1     -30.763 -22.485   8.764  1.00  0.00     0.000 A 
HETATM   12  C7  UNL     1     -30.752 -21.378   9.581  1.00  0.00     0.001 A 
HETATM   13  C8  UNL     1     -29.940 -20.317   9.260  1.00  0.00     0.007 A 
ENDBRANCH   7   8
ENDBRANCH   2   7
ENDBRANCH   1   2
BRANCH   1  14
HETATM   14  N2  UNL     1     -26.134 -18.599   8.962  1.00  0.00    -0.071 N 
ATOM     15  H23 UNL     1     -26.198 -19.614   9.042  1.00  0.00     0.274 HD
ATOM     16  H22 UNL     1     -26.272 -18.537   7.953  1.00  0.00     0.274 HD
ATOM     17  H21 UNL     1     -25.232 -18.232   9.265  1.00  0.00     0.274 HD
ENDBRANCH   1  14
BRANCH   1  18
HETATM   18  C10 UNL     1     -27.048 -18.199  11.155  1.00  0.00     0.223 C 
BRANCH  18  19
HETATM   19  N3  UNL     1     -27.773 -17.145  11.902  1.00  0.00    -0.072 N 
ATOM     20  H33 UNL     1     -27.563 -16.205  11.568  1.00  0.00     0.274 HD
ATOM     21  H32 UNL     1     -28.774 -17.135  11.706  1.00  0.00     0.274 HD
ATOM     22  H31 UNL     1     -27.561 -17.273  12.892  1.00  0.00     0.274 HD
ENDBRANCH  18  19
BRANCH  18  23
HETATM   23  C11 UNL     1     -25.713 -18.254  11.785  1.00  0.00     0.040 C 
HETATM   24  C12 UNL     1     -25.658 -17.086  12.757  1.00  0.00    -0.024 C 
HETATM   25  C13 UNL     1     -24.834 -17.388  13.754  1.00  0.00    -0.030 C 
HETATM   26  C14 UNL     1     -24.285 -18.755  13.529  1.00  0.00     0.027 C 
HETATM   27  C15 UNL     1     -25.469 -19.375  12.754  1.00  0.00     0.014 C 
ENDBRANCH  18  23
ENDBRANCH   1  18
TORSDOF 8
ENDMDL
