MODEL 1
REMARK VINA RESULT: -6.972436808      0.000      0.000
REMARK  7 active torsions:
REMARK  status: ('A' for Active; 'I' for Inactive)
REMARK    1  A    between atoms: C1_2  and  N1_3 
REMARK    2  A    between atoms: N1_3  and  C2_5 
REMARK    3  A    between atoms: C2_5  and  C3_6 
REMARK    4  A    between atoms: C3_6  and  N2_7 
REMARK    5  A    between atoms: N2_7  and  C4_10 
REMARK    6  A    between atoms: C4_10  and  O2_11 
REMARK    7  A    between atoms: C4_10  and  C5_13 
ROOT
HETATM    1  C4  UNL     1     -28.243 -19.109  10.408  1.00  0.00     0.353 C 
ENDROOT
BRANCH   1   2
HETATM    2  N2  UNL     1     -27.512 -19.366   9.144  1.00  0.00    -0.043 N 
ATOM      3  H22 UNL     1     -27.997 -20.055   8.569  1.00  0.00     0.280 HD
ATOM      4  H21 UNL     1     -26.647 -19.880   9.314  1.00  0.00     0.280 HD
BRANCH   2   5
HETATM    5  C3  UNL     1     -27.262 -18.147   8.407  1.00  0.00     0.255 C 
BRANCH   5   6
HETATM    6  C2  UNL     1     -28.254 -17.848   7.346  1.00  0.00     0.149 C 
BRANCH   6   7
HETATM    7  N1  UNL     1     -29.195 -16.860   7.784  1.00  0.00    -0.367 N 
ATOM      8  H1  UNL     1     -30.178 -17.009   7.560  1.00  0.00     0.161 HD
BRANCH   7   9
HETATM    9  C1  UNL     1     -28.856 -15.704   8.499  1.00  0.00     0.348 C 
HETATM   10  O1  UNL     1     -29.348 -14.594   8.200  1.00  0.00    -0.284 OA
ENDBRANCH   7   9
ENDBRANCH   6   7
ENDBRANCH   5   6
ENDBRANCH   2   5
ENDBRANCH   1   2
BRANCH   1  11
HETATM   11  O2  UNL     1     -29.439 -19.843  10.386  1.00  0.00    -0.366 OA
ATOM     12  H2  UNL     1     -30.161 -19.237  10.263  1.00  0.00     0.212 HD
ENDBRANCH   1  11
BRANCH   1  13
HETATM   13  C5  UNL     1     -27.345 -19.678  11.447  1.00  0.00     0.008 A 
HETATM   14  C6  UNL     1     -27.353 -21.062  11.672  1.00  0.00     0.012 A 
HETATM   15  C7  UNL     1     -26.542 -21.647  12.600  1.00  0.00     0.002 A 
HETATM   16  C8  UNL     1     -25.704 -20.858  13.326  1.00  0.00     0.012 A 
HETATM   17  C9  UNL     1     -25.630 -19.479  13.169  1.00  0.00    -0.025 A 
HETATM   18  C10 UNL     1     -24.771 -18.722  13.927  1.00  0.00     0.012 A 
HETATM   19  C14 UNL     1     -26.482 -18.929  12.205  1.00  0.00    -0.015 A 
HETATM   20  C11 UNL     1     -24.726 -17.371  13.751  1.00  0.00     0.001 A 
HETATM   21  C12 UNL     1     -25.552 -16.810  12.813  1.00  0.00     0.001 A 
HETATM   22  C13 UNL     1     -26.411 -17.563  12.055  1.00  0.00     0.013 A 
ENDBRANCH   1  13
TORSDOF 7
ENDMDL
MODEL 2
REMARK VINA RESULT: -6.889257561      1.421      2.716
REMARK  7 active torsions:
REMARK  status: ('A' for Active; 'I' for Inactive)
REMARK    1  A    between atoms: C1_2  and  N1_3 
REMARK    2  A    between atoms: N1_3  and  C2_5 
REMARK    3  A    between atoms: C2_5  and  C3_6 
REMARK    4  A    between atoms: C3_6  and  N2_7 
REMARK    5  A    between atoms: N2_7  and  C4_10 
REMARK    6  A    between atoms: C4_10  and  O2_11 
REMARK    7  A    between atoms: C4_10  and  C5_13 
ROOT
HETATM    1  C4  UNL     1     -26.868 -19.272  10.469  1.00  0.00     0.353 C 
ENDROOT
BRANCH   1   2
HETATM    2  N2  UNL     1     -28.199 -18.620  10.449  1.00  0.00    -0.043 N 
ATOM      3  H22 UNL     1     -28.121 -17.614  10.605  1.00  0.00     0.280 HD
ATOM      4  H21 UNL     1     -28.746 -18.868  11.274  1.00  0.00     0.280 HD
BRANCH   2   5
HETATM    5  C3  UNL     1     -28.925 -18.908   9.231  1.00  0.00     0.255 C 
BRANCH   5   6
HETATM    6  C2  UNL     1     -29.384 -17.713   8.484  1.00  0.00     0.149 C 
BRANCH   6   7
HETATM    7  N1  UNL     1     -28.340 -16.738   8.378  1.00  0.00    -0.367 N 
ATOM      8  H1  UNL     1     -27.447 -17.040   7.990  1.00  0.00     0.161 HD
BRANCH   7   9
HETATM    9  C1  UNL     1     -28.461 -15.399   8.771  1.00  0.00     0.348 C 
HETATM   10  O1  UNL     1     -29.332 -14.656   8.267  1.00  0.00    -0.284 OA
ENDBRANCH   7   9
ENDBRANCH   6   7
ENDBRANCH   5   6
ENDBRANCH   2   5
ENDBRANCH   1   2
BRANCH   1  11
HETATM   11  O2  UNL     1     -26.196 -18.945   9.282  1.00  0.00    -0.366 OA
ATOM     12  H2  UNL     1     -26.808 -19.018   8.559  1.00  0.00     0.212 HD
ENDBRANCH   1  11
BRANCH   1  13
HETATM   13  C5  UNL     1     -26.181 -18.616  11.611  1.00  0.00     0.008 A 
HETATM   14  C6  UNL     1     -26.283 -17.226  11.762  1.00  0.00     0.012 A 
HETATM   15  C7  UNL     1     -25.688 -16.566  12.797  1.00  0.00     0.002 A 
HETATM   16  C8  UNL     1     -24.974 -17.285  13.707  1.00  0.00     0.012 A 
HETATM   17  C9  UNL     1     -24.820 -18.664  13.634  1.00  0.00    -0.025 A 
HETATM   18  C10 UNL     1     -24.087 -19.347  14.573  1.00  0.00     0.012 A 
HETATM   19  C14 UNL     1     -25.450 -19.292  12.555  1.00  0.00    -0.015 A 
HETATM   20  C11 UNL     1     -23.952 -20.700  14.472  1.00  0.00     0.001 A 
HETATM   21  C12 UNL     1     -24.560 -21.337  13.421  1.00  0.00     0.001 A 
HETATM   22  C13 UNL     1     -25.292 -20.657  12.483  1.00  0.00     0.013 A 
ENDBRANCH   1  13
TORSDOF 7
ENDMDL
MODEL 3
REMARK VINA RESULT: -6.578839617      2.900      5.664
REMARK  7 active torsions:
REMARK  status: ('A' for Active; 'I' for Inactive)
REMARK    1  A    between atoms: C1_2  and  N1_3 
REMARK    2  A    between atoms: N1_3  and  C2_5 
REMARK    3  A    between atoms: C2_5  and  C3_6 
REMARK    4  A    between atoms: C3_6  and  N2_7 
REMARK    5  A    between atoms: N2_7  and  C4_10 
REMARK    6  A    between atoms: C4_10  and  O2_11 
REMARK    7  A    between atoms: C4_10  and  C5_13 
ROOT
HETATM    1  C4  UNL     1     -26.020 -18.686  11.037  1.00  0.00     0.353 C 
ENDROOT
BRANCH   1   2
HETATM    2  N2  UNL     1     -26.491 -19.118  12.375  1.00  0.00    -0.043 N 
ATOM      3  H22 UNL     1     -25.965 -19.925  12.711  1.00  0.00     0.280 HD
ATOM      4  H21 UNL     1     -27.418 -19.542  12.322  1.00  0.00     0.280 HD
BRANCH   2   5
HETATM    5  C3  UNL     1     -26.462 -18.035  13.334  1.00  0.00     0.255 C 
BRANCH   5   6
HETATM    6  C2  UNL     1     -25.274 -17.154  13.241  1.00  0.00     0.149 C 
BRANCH   6   7
HETATM    7  N1  UNL     1     -24.205 -17.641  14.062  1.00  0.00    -0.367 N 
ATOM      8  H1  UNL     1     -23.571 -16.955  14.471  1.00  0.00     0.161 HD
BRANCH   7   9
HETATM    9  C1  UNL     1     -23.972 -18.993  14.341  1.00  0.00     0.348 C 
HETATM   10  O1  UNL     1     -23.671 -19.797  13.432  1.00  0.00    -0.284 OA
ENDBRANCH   7   9
ENDBRANCH   6   7
ENDBRANCH   5   6
ENDBRANCH   2   5
ENDBRANCH   1   2
BRANCH   1  11
HETATM   11  O2  UNL     1     -25.020 -19.573  10.611  1.00  0.00    -0.366 OA
ATOM     12  H2  UNL     1     -24.813 -19.381   9.704  1.00  0.00     0.212 HD
ENDBRANCH   1  11
BRANCH   1  13
HETATM   13  C5  UNL     1     -27.219 -18.860  10.178  1.00  0.00     0.008 A 
HETATM   14  C6  UNL     1     -27.788 -20.135  10.049  1.00  0.00     0.012 A 
HETATM   15  C7  UNL     1     -28.897 -20.357   9.287  1.00  0.00     0.002 A 
HETATM   16  C8  UNL     1     -29.464 -19.305   8.634  1.00  0.00     0.012 A 
HETATM   17  C9  UNL     1     -28.967 -18.009   8.704  1.00  0.00    -0.025 A 
HETATM   18  C10 UNL     1     -29.569 -16.980   8.025  1.00  0.00     0.012 A 
HETATM   19  C14 UNL     1     -27.829 -17.836   9.498  1.00  0.00    -0.015 A 
HETATM   20  C11 UNL     1     -29.055 -15.720   8.112  1.00  0.00     0.001 A 
HETATM   21  C12 UNL     1     -27.939 -15.526   8.884  1.00  0.00     0.001 A 
HETATM   22  C13 UNL     1     -27.335 -16.553   9.563  1.00  0.00     0.013 A 
ENDBRANCH   1  13
TORSDOF 7
ENDMDL
MODEL 4
REMARK VINA RESULT: -6.575480671      1.437      1.711
REMARK  7 active torsions:
REMARK  status: ('A' for Active; 'I' for Inactive)
REMARK    1  A    between atoms: C1_2  and  N1_3 
REMARK    2  A    between atoms: N1_3  and  C2_5 
REMARK    3  A    between atoms: C2_5  and  C3_6 
REMARK    4  A    between atoms: C3_6  and  N2_7 
REMARK    5  A    between atoms: N2_7  and  C4_10 
REMARK    6  A    between atoms: C4_10  and  O2_11 
REMARK    7  A    between atoms: C4_10  and  C5_13 
ROOT
HETATM    1  C4  UNL     1     -28.162 -18.717  10.422  1.00  0.00     0.353 C 
ENDROOT
BRANCH   1   2
HETATM    2  N2  UNL     1     -27.575 -19.107   9.118  1.00  0.00    -0.043 N 
ATOM      3  H22 UNL     1     -28.095 -19.875   8.693  1.00  0.00     0.280 HD
ATOM      4  H21 UNL     1     -26.675 -19.572   9.240  1.00  0.00     0.280 HD
BRANCH   2   5
HETATM    5  C3  UNL     1     -27.467 -17.982   8.215  1.00  0.00     0.255 C 
BRANCH   5   6
HETATM    6  C2  UNL     1     -28.328 -18.067   7.011  1.00  0.00     0.149 C 
BRANCH   6   7
HETATM    7  N1  UNL     1     -29.716 -18.051   7.367  1.00  0.00    -0.367 N 
ATOM      8  H1  UNL     1     -30.112 -17.170   7.692  1.00  0.00     0.161 HD
BRANCH   7   9
HETATM    9  C1  UNL     1     -30.565 -19.163   7.298  1.00  0.00     0.348 C 
HETATM   10  O1  UNL     1     -30.233 -20.260   7.799  1.00  0.00    -0.284 OA
ENDBRANCH   7   9
ENDBRANCH   6   7
ENDBRANCH   5   6
ENDBRANCH   2   5
ENDBRANCH   1   2
BRANCH   1  11
HETATM   11  O2  UNL     1     -29.471 -19.217  10.488  1.00  0.00    -0.366 OA
ATOM     12  H2  UNL     1     -29.506 -20.032  10.001  1.00  0.00     0.212 HD
ENDBRANCH   1  11
BRANCH   1  13
HETATM   13  C5  UNL     1     -27.317 -19.440  11.409  1.00  0.00     0.008 A 
HETATM   14  C6  UNL     1     -27.433 -20.833  11.515  1.00  0.00     0.012 A 
HETATM   15  C7  UNL     1     -26.675 -21.556  12.389  1.00  0.00     0.002 A 
HETATM   16  C8  UNL     1     -25.784 -20.898  13.181  1.00  0.00     0.012 A 
HETATM   17  C9  UNL     1     -25.604 -19.521  13.143  1.00  0.00    -0.025 A 
HETATM   18  C10 UNL     1     -24.695 -18.900  13.963  1.00  0.00     0.012 A 
HETATM   19  C14 UNL     1     -26.404 -18.827  12.229  1.00  0.00    -0.015 A 
HETATM   20  C11 UNL     1     -24.545 -17.546  13.904  1.00  0.00     0.001 A 
HETATM   21  C12 UNL     1     -25.320 -16.845  13.016  1.00  0.00     0.001 A 
HETATM   22  C13 UNL     1     -26.228 -17.463  12.196  1.00  0.00     0.013 A 
ENDBRANCH   1  13
TORSDOF 7
ENDMDL
MODEL 5
REMARK VINA RESULT: -6.492144616      2.677      6.086
REMARK  7 active torsions:
REMARK  status: ('A' for Active; 'I' for Inactive)
REMARK    1  A    between atoms: C1_2  and  N1_3 
REMARK    2  A    between atoms: N1_3  and  C2_5 
REMARK    3  A    between atoms: C2_5  and  C3_6 
REMARK    4  A    between atoms: C3_6  and  N2_7 
REMARK    5  A    between atoms: N2_7  and  C4_10 
REMARK    6  A    between atoms: C4_10  and  O2_11 
REMARK    7  A    between atoms: C4_10  and  C5_13 
ROOT
HETATM    1  C4  UNL     1     -27.443 -18.206  11.782  1.00  0.00     0.353 C 
ENDROOT
BRANCH   1   2
HETATM    2  N2  UNL     1     -26.209 -18.997  11.556  1.00  0.00    -0.043 N 
ATOM      3  H22 UNL     1     -25.376 -18.460  11.798  1.00  0.00     0.280 HD
ATOM      4  H21 UNL     1     -26.031 -19.129  10.560  1.00  0.00     0.280 HD
BRANCH   2   5
HETATM    5  C3  UNL     1     -26.241 -20.262  12.257  1.00  0.00     0.255 C 
BRANCH   5   6
HETATM    6  C2  UNL     1     -25.010 -20.582  13.019  1.00  0.00     0.149 C 
BRANCH   6   7
HETATM    7  N1  UNL     1     -24.137 -19.449  13.086  1.00  0.00    -0.367 N 
ATOM      8  H1  UNL     1     -23.486 -19.305  12.314  1.00  0.00     0.161 HD
BRANCH   7   9
HETATM    9  C1  UNL     1     -24.116 -18.524  14.138  1.00  0.00     0.348 C 
HETATM   10  O1  UNL     1     -24.878 -17.533  14.141  1.00  0.00    -0.284 OA
ENDBRANCH   7   9
ENDBRANCH   6   7
ENDBRANCH   5   6
ENDBRANCH   2   5
ENDBRANCH   1   2
BRANCH   1  11
HETATM   11  O2  UNL     1     -27.125 -17.112  12.600  1.00  0.00    -0.366 OA
ATOM     12  H2  UNL     1     -27.782 -17.046  13.284  1.00  0.00     0.212 HD
ENDBRANCH   1  11
BRANCH   1  13
HETATM   13  C5  UNL     1     -27.787 -17.712  10.424  1.00  0.00     0.008 A 
HETATM   14  C6  UNL     1     -27.249 -16.494   9.984  1.00  0.00     0.012 A 
HETATM   15  C7  UNL     1     -27.515 -15.993   8.743  1.00  0.00     0.002 A 
HETATM   16  C8  UNL     1     -28.328 -16.701   7.913  1.00  0.00     0.012 A 
HETATM   17  C9  UNL     1     -28.906 -17.915   8.266  1.00  0.00    -0.025 A 
HETATM   18  C10 UNL     1     -29.723 -18.593   7.396  1.00  0.00     0.012 A 
HETATM   19  C14 UNL     1     -28.601 -18.384   9.548  1.00  0.00    -0.015 A 
HETATM   20  C11 UNL     1     -30.276 -19.781   7.774  1.00  0.00     0.001 A 
HETATM   21  C12 UNL     1     -29.993 -20.259   9.027  1.00  0.00     0.001 A 
HETATM   22  C13 UNL     1     -29.177 -19.584   9.897  1.00  0.00     0.013 A 
ENDBRANCH   1  13
TORSDOF 7
ENDMDL
