MODEL 1
REMARK VINA RESULT: -7.439047239      0.000      0.000
REMARK  3 active torsions:
REMARK  status: ('A' for Active; 'I' for Inactive)
REMARK    1  A    between atoms: N1_1  and  C1_4 
REMARK    2  A    between atoms: C2_7  and  C3_8 
REMARK    3  A    between atoms: C4_13  and  C5_14 
ROOT
HETATM    1  C3  UNL     1       9.384   1.153  26.844  1.00  0.00     0.136 A 
HETATM    2  N3  UNL     1      10.121   0.179  27.368  1.00  0.00    -0.290 N 
ATOM      3  H3  UNL     1      10.535   0.294  28.293  1.00  0.00     0.188 HD
HETATM    4  N4  UNL     1      10.308  -0.888  26.721  1.00  0.00    -0.295 N 
ATOM      5  H4  UNL     1      10.875  -1.632  27.128  1.00  0.00     0.187 HD
HETATM    6  C4  UNL     1       9.776  -1.053  25.521  1.00  0.00     0.090 A 
HETATM    7  S1  UNL     1       8.956   0.448  25.334  1.00  0.00    -0.050 SA
ENDROOT
BRANCH   1   8
HETATM    8  C2  UNL     1       9.034   2.467  27.404  1.00  0.00     0.157 A 
HETATM    9  N2  UNL     1       9.756   2.970  28.405  1.00  0.00    -0.321 N 
HETATM   10  C1  UNL     1       9.434   4.177  28.922  1.00  0.00     0.171 A 
ATOM     11  H2  UNL     1      10.546   2.446  28.780  1.00  0.00     0.169 HD
HETATM   12  C10 UNL     1       8.359   4.865  28.395  1.00  0.00     0.303 A 
HETATM   13  N7  UNL     1       7.666   4.318  27.390  1.00  0.00    -0.262 N 
HETATM   14  O2  UNL     1       8.001   5.988  28.821  1.00  0.00    -0.263 OA
HETATM   15  N6  UNL     1       8.003   3.118  26.894  1.00  0.00    -0.280 N 
ATOM     16  H7  UNL     1       6.870   4.821  26.995  1.00  0.00     0.190 HD
ATOM     17  H6  UNL     1       7.467   2.711  26.127  1.00  0.00     0.188 HD
BRANCH  10  18
HETATM   18  N1  UNL     1      10.092   4.699  29.878  1.00  0.00    -0.381 N 
ATOM     19  H12 UNL     1      11.100   4.814  29.780  1.00  0.00     0.157 HD
ATOM     20  H11 UNL     1       9.641   5.007  30.740  1.00  0.00     0.157 HD
ENDBRANCH  10  18
ENDBRANCH   1   8
BRANCH   6  21
HETATM   21  C5  UNL     1       9.840  -2.191  24.567  1.00  0.00     0.137 C 
HETATM   22  C6  UNL     1       8.613  -2.306  23.712  1.00  0.00     0.058 C 
HETATM   23  C7  UNL     1       8.569  -3.694  23.142  1.00  0.00     0.170 C 
HETATM   24  O1  UNL     1       7.920  -4.613  23.912  1.00  0.00    -0.389 OA
HETATM   25  C8  UNL     1       7.840  -4.325  25.247  1.00  0.00     0.186 C 
HETATM   26  C9  UNL     1       9.133  -4.059  25.928  1.00  0.00     0.140 C 
HETATM   27  N5  UNL     1      10.137  -3.442  25.152  1.00  0.00    -0.409 N 
ATOM     28  H5  UNL     1      11.047  -3.884  25.018  1.00  0.00     0.154 HD
ENDBRANCH   6  21
TORSDOF 3
ENDMDL
MODEL 2
REMARK VINA RESULT: -7.090884851      2.768      7.914
REMARK  3 active torsions:
REMARK  status: ('A' for Active; 'I' for Inactive)
REMARK    1  A    between atoms: N1_1  and  C1_4 
REMARK    2  A    between atoms: C2_7  and  C3_8 
REMARK    3  A    between atoms: C4_13  and  C5_14 
ROOT
HETATM    1  C3  UNL     1       8.867   1.112  23.996  1.00  0.00     0.136 A 
HETATM    2  N3  UNL     1       8.908   2.437  23.901  1.00  0.00    -0.290 N 
ATOM      3  H3  UNL     1       9.174   2.877  23.019  1.00  0.00     0.188 HD
HETATM    4  N4  UNL     1       8.617   3.150  24.900  1.00  0.00    -0.295 N 
ATOM      5  H4  UNL     1       8.651   4.166  24.821  1.00  0.00     0.187 HD
HETATM    6  C4  UNL     1       8.269   2.594  26.049  1.00  0.00     0.090 A 
HETATM    7  S1  UNL     1       8.377   0.928  25.635  1.00  0.00    -0.050 SA
ENDROOT
BRANCH   1   8
HETATM    8  C2  UNL     1       9.160   0.090  22.979  1.00  0.00     0.157 A 
HETATM    9  N2  UNL     1       8.404  -1.005  22.909  1.00  0.00    -0.321 N 
HETATM   10  C1  UNL     1       8.672  -1.945  21.975  1.00  0.00     0.171 A 
ATOM     11  H2  UNL     1       7.626  -1.133  23.556  1.00  0.00     0.169 HD
HETATM   12  C10 UNL     1       9.730  -1.746  21.111  1.00  0.00     0.303 A 
HETATM   13  N7  UNL     1      10.460  -0.630  21.221  1.00  0.00    -0.262 N 
HETATM   14  O2  UNL     1      10.040  -2.572  20.220  1.00  0.00    -0.263 OA
HETATM   15  N6  UNL     1      10.175   0.289  22.156  1.00  0.00    -0.280 N 
ATOM     16  H7  UNL     1      11.243  -0.476  20.586  1.00  0.00     0.190 HD
ATOM     17  H6  UNL     1      10.739   1.136  22.232  1.00  0.00     0.188 HD
BRANCH  10  18
HETATM   18  N1  UNL     1       7.980  -3.007  21.868  1.00  0.00    -0.381 N 
ATOM     19  H12 UNL     1       7.610  -3.443  22.712  1.00  0.00     0.157 HD
ATOM     20  H11 UNL     1       7.784  -3.437  20.964  1.00  0.00     0.157 HD
ENDBRANCH  10  18
ENDBRANCH   1   8
BRANCH   6  21
HETATM   21  C5  UNL     1       7.886   3.194  27.354  1.00  0.00     0.137 C 
HETATM   22  C6  UNL     1       8.008   4.689  27.368  1.00  0.00     0.058 C 
HETATM   23  C7  UNL     1       8.053   5.141  28.799  1.00  0.00     0.170 C 
HETATM   24  O1  UNL     1       9.301   5.197  29.345  1.00  0.00    -0.389 OA
HETATM   25  C8  UNL     1      10.248   4.406  28.756  1.00  0.00     0.186 C 
HETATM   26  C9  UNL     1       9.910   2.963  28.654  1.00  0.00     0.140 C 
HETATM   27  N5  UNL     1       8.546   2.648  28.476  1.00  0.00    -0.409 N 
ATOM     28  H5  UNL     1       8.054   2.045  29.136  1.00  0.00     0.154 HD
ENDBRANCH   6  21
TORSDOF 3
ENDMDL
MODEL 3
REMARK VINA RESULT: -7.062422285      1.662      2.537
REMARK  3 active torsions:
REMARK  status: ('A' for Active; 'I' for Inactive)
REMARK    1  A    between atoms: N1_1  and  C1_4 
REMARK    2  A    between atoms: C2_7  and  C3_8 
REMARK    3  A    between atoms: C4_13  and  C5_14 
ROOT
HETATM    1  C3  UNL     1       9.387   0.611  26.406  1.00  0.00     0.136 A 
HETATM    2  N3  UNL     1      10.157  -0.458  26.577  1.00  0.00    -0.290 N 
ATOM      3  H3  UNL     1      10.842  -0.478  27.333  1.00  0.00     0.188 HD
HETATM    4  N4  UNL     1      10.039  -1.449  25.806  1.00  0.00    -0.295 N 
ATOM      5  H4  UNL     1      10.633  -2.268  25.942  1.00  0.00     0.187 HD
HETATM    6  C4  UNL     1       9.154  -1.440  24.823  1.00  0.00     0.090 A 
HETATM    7  S1  UNL     1       8.456   0.117  25.046  1.00  0.00    -0.050 SA
ENDROOT
BRANCH   1   8
HETATM    8  C2  UNL     1       9.346   1.868  27.171  1.00  0.00     0.157 A 
HETATM    9  N2  UNL     1       8.243   2.616  27.150  1.00  0.00    -0.321 N 
HETATM   10  C1  UNL     1       8.204   3.771  27.851  1.00  0.00     0.171 A 
ATOM     11  H2  UNL     1       7.432   2.318  26.607  1.00  0.00     0.169 HD
HETATM   12  C10 UNL     1       9.315   4.149  28.577  1.00  0.00     0.303 A 
HETATM   13  N7  UNL     1      10.398   3.364  28.567  1.00  0.00    -0.262 N 
HETATM   14  O2  UNL     1       9.354   5.206  29.252  1.00  0.00    -0.263 OA
HETATM   15  N6  UNL     1      10.414   2.223  27.863  1.00  0.00    -0.280 N 
ATOM     16  H7  UNL     1      11.223   3.638  29.101  1.00  0.00     0.190 HD
ATOM     17  H6  UNL     1      11.246   1.632  27.862  1.00  0.00     0.188 HD
BRANCH  10  18
HETATM   18  N1  UNL     1       7.175   4.519  27.862  1.00  0.00    -0.381 N 
ATOM     19  H12 UNL     1       6.703   4.697  28.749  1.00  0.00     0.157 HD
ATOM     20  H11 UNL     1       6.808   4.948  27.013  1.00  0.00     0.157 HD
ENDBRANCH  10  18
ENDBRANCH   1   8
BRANCH   6  21
HETATM   21  C5  UNL     1       8.819  -2.458  23.793  1.00  0.00     0.137 C 
HETATM   22  C6  UNL     1       9.849  -3.543  23.687  1.00  0.00     0.058 C 
HETATM   23  C7  UNL     1       9.672  -4.229  22.363  1.00  0.00     0.170 C 
HETATM   24  O1  UNL     1      10.379  -3.682  21.334  1.00  0.00    -0.389 OA
HETATM   25  C8  UNL     1      10.732  -2.369  21.480  1.00  0.00     0.186 C 
HETATM   26  C9  UNL     1       9.617  -1.428  21.757  1.00  0.00     0.140 C 
HETATM   27  N5  UNL     1       8.537  -1.936  22.511  1.00  0.00    -0.409 N 
ATOM     28  H5  UNL     1       7.586  -1.926  22.143  1.00  0.00     0.154 HD
ENDBRANCH   6  21
TORSDOF 3
ENDMDL
MODEL 4
REMARK VINA RESULT: -7.050613881      3.913      7.698
REMARK  3 active torsions:
REMARK  status: ('A' for Active; 'I' for Inactive)
REMARK    1  A    between atoms: N1_1  and  C1_4 
REMARK    2  A    between atoms: C2_7  and  C3_8 
REMARK    3  A    between atoms: C4_13  and  C5_14 
ROOT
HETATM    1  C3  UNL     1       8.486   1.694  23.818  1.00  0.00     0.136 A 
HETATM    2  N3  UNL     1       8.716   0.840  24.809  1.00  0.00    -0.290 N 
ATOM      3  H3  UNL     1       9.023  -0.110  24.603  1.00  0.00     0.188 HD
HETATM    4  N4  UNL     1       8.554   1.206  26.006  1.00  0.00    -0.295 N 
ATOM      5  H4  UNL     1       8.731   0.545  26.763  1.00  0.00     0.187 HD
HETATM    6  C4  UNL     1       8.158   2.435  26.290  1.00  0.00     0.090 A 
HETATM    7  S1  UNL     1       8.014   3.090  24.705  1.00  0.00    -0.050 SA
ENDROOT
BRANCH   1   8
HETATM    8  C2  UNL     1       8.605   1.496  22.364  1.00  0.00     0.157 A 
HETATM    9  N2  UNL     1       9.466   0.596  21.891  1.00  0.00    -0.321 N 
HETATM   10  C1  UNL     1       9.577   0.414  20.556  1.00  0.00     0.171 A 
ATOM     11  H2  UNL     1      10.038   0.047  22.533  1.00  0.00     0.169 HD
HETATM   12  C10 UNL     1       8.789   1.169  19.711  1.00  0.00     0.303 A 
HETATM   13  N7  UNL     1       7.940   2.060  20.234  1.00  0.00    -0.262 N 
HETATM   14  O2  UNL     1       8.837   1.057  18.462  1.00  0.00    -0.263 OA
HETATM   15  N6  UNL     1       7.847   2.224  21.562  1.00  0.00    -0.280 N 
ATOM     16  H7  UNL     1       7.355   2.622  19.615  1.00  0.00     0.190 HD
ATOM     17  H6  UNL     1       7.196   2.907  21.951  1.00  0.00     0.188 HD
BRANCH  10  18
HETATM   18  N1  UNL     1      10.384  -0.433  20.055  1.00  0.00    -0.381 N 
ATOM     19  H12 UNL     1      10.547  -1.311  20.546  1.00  0.00     0.157 HD
ATOM     20  H11 UNL     1      10.873  -0.260  19.177  1.00  0.00     0.157 HD
ENDBRANCH  10  18
ENDBRANCH   1   8
BRANCH   6  21
HETATM   21  C5  UNL     1       7.897   3.108  27.589  1.00  0.00     0.137 C 
HETATM   22  C6  UNL     1       8.027   4.600  27.512  1.00  0.00     0.058 C 
HETATM   23  C7  UNL     1       8.204   5.126  28.907  1.00  0.00     0.170 C 
HETATM   24  O1  UNL     1       9.496   5.199  29.335  1.00  0.00    -0.389 OA
HETATM   25  C8  UNL     1      10.382   4.368  28.708  1.00  0.00     0.186 C 
HETATM   26  C9  UNL     1      10.029   2.925  28.714  1.00  0.00     0.140 C 
HETATM   27  N5  UNL     1       8.653   2.615  28.676  1.00  0.00    -0.409 N 
ATOM     28  H5  UNL     1       8.219   2.053  29.409  1.00  0.00     0.154 HD
ENDBRANCH   6  21
TORSDOF 3
ENDMDL
MODEL 5
REMARK VINA RESULT: -7.015488509      3.779      7.766
REMARK  3 active torsions:
REMARK  status: ('A' for Active; 'I' for Inactive)
REMARK    1  A    between atoms: N1_1  and  C1_4 
REMARK    2  A    between atoms: C2_7  and  C3_8 
REMARK    3  A    between atoms: C4_13  and  C5_14 
ROOT
HETATM    1  C3  UNL     1       8.860   1.226  23.924  1.00  0.00     0.136 A 
HETATM    2  N3  UNL     1       8.938   0.456  25.004  1.00  0.00    -0.290 N 
ATOM      3  H3  UNL     1       9.223  -0.520  24.915  1.00  0.00     0.188 HD
HETATM    4  N4  UNL     1       8.659   0.931  26.139  1.00  0.00    -0.295 N 
ATOM      5  H4  UNL     1       8.720   0.334  26.964  1.00  0.00     0.187 HD
HETATM    6  C4  UNL     1       8.290   2.194  26.270  1.00  0.00     0.090 A 
HETATM    7  S1  UNL     1       8.354   2.711  24.631  1.00  0.00    -0.050 SA
ENDROOT
BRANCH   1   8
HETATM    8  C2  UNL     1       9.132   0.896  22.516  1.00  0.00     0.157 A 
HETATM    9  N2  UNL     1       8.368   1.418  21.558  1.00  0.00    -0.321 N 
HETATM   10  C1  UNL     1       8.617   1.115  20.264  1.00  0.00     0.171 A 
ATOM     11  H2  UNL     1       7.599   2.044  21.799  1.00  0.00     0.169 HD
HETATM   12  C10 UNL     1       9.665   0.267  19.966  1.00  0.00     0.303 A 
HETATM   13  N7  UNL     1      10.403  -0.231  20.964  1.00  0.00    -0.262 N 
HETATM   14  O2  UNL     1       9.956  -0.060  18.791  1.00  0.00    -0.263 OA
HETATM   15  N6  UNL     1      10.137   0.083  22.240  1.00  0.00    -0.280 N 
ATOM     16  H7  UNL     1      11.178  -0.860  20.751  1.00  0.00     0.190 HD
ATOM     17  H6  UNL     1      10.706  -0.304  22.994  1.00  0.00     0.188 HD
BRANCH  10  18
HETATM   18  N1  UNL     1       7.916   1.588  19.313  1.00  0.00    -0.381 N 
ATOM     19  H12 UNL     1       7.355   2.423  19.480  1.00  0.00     0.157 HD
ATOM     20  H11 UNL     1       7.899   1.158  18.388  1.00  0.00     0.157 HD
ENDBRANCH  10  18
ENDBRANCH   1   8
BRANCH   6  21
HETATM   21  C5  UNL     1       7.914   2.988  27.470  1.00  0.00     0.137 C 
HETATM   22  C6  UNL     1       8.026   4.468  27.250  1.00  0.00     0.058 C 
HETATM   23  C7  UNL     1       8.081   5.136  28.593  1.00  0.00     0.170 C 
HETATM   24  O1  UNL     1       9.334   5.284  29.111  1.00  0.00    -0.389 OA
HETATM   25  C8  UNL     1      10.281   4.415  28.643  1.00  0.00     0.186 C 
HETATM   26  C9  UNL     1       9.952   2.972  28.770  1.00  0.00     0.140 C 
HETATM   27  N5  UNL     1       8.588   2.626  28.657  1.00  0.00    -0.409 N 
ATOM     28  H5  UNL     1       8.107   2.131  29.408  1.00  0.00     0.154 HD
ENDBRANCH   6  21
TORSDOF 3
ENDMDL
