MODEL 1
REMARK VINA RESULT: -6.373367136      0.000      0.000
REMARK  7 active torsions:
REMARK  status: ('A' for Active; 'I' for Inactive)
REMARK    1  A    between atoms: O1_2  and  C2_3 
REMARK    2  A    between atoms: C3_4  and  O2_5 
REMARK    3  A    between atoms: C6_9  and  O3_10 
REMARK    4  A    between atoms: C7_12  and  O4_13 
REMARK    5  A    between atoms: C10_17  and  O6_18 
REMARK    6  A    between atoms: C10_17  and  O7_20 
REMARK    7  A    between atoms: N1_22  and  O8_23 
ROOT
HETATM    1  C2  UNL     1       8.579   2.344  26.523  1.00  0.00     0.138 A 
HETATM    2  C3  UNL     1       8.167   1.987  25.219  1.00  0.00     0.118 A 
HETATM    3  C4  UNL     1       8.508   0.740  24.727  1.00  0.00     0.087 A 
HETATM    4  C5  UNL     1       9.241  -0.180  25.469  1.00  0.00     0.072 A 
HETATM    5  C6  UNL     1       9.643   0.158  26.726  1.00  0.00     0.117 A 
HETATM    6  C7  UNL     1       9.294   1.431  27.227  1.00  0.00     0.138 A 
HETATM    7  C9  UNL     1       9.533  -1.502  24.883  1.00  0.00     0.250 C 
HETATM    8  O5  UNL     1       9.621  -2.475  25.633  1.00  0.00    -0.284 OA
HETATM    9  C10 UNL     1       9.700  -1.561  23.409  1.00  0.00     0.342 C 
HETATM   10  N1  UNL     1       8.490  -0.953  22.836  1.00  0.00    -0.154 N 
HETATM   11  C11 UNL     1       8.135   0.315  23.375  1.00  0.00     0.286 C 
HETATM   12  O9  UNL     1       7.468   1.071  22.618  1.00  0.00    -0.265 OA
ENDROOT
BRANCH   9  13
HETATM   13  O6  UNL     1       9.870  -2.829  22.928  1.00  0.00    -0.341 OA
ATOM     14  H6  UNL     1       9.437  -2.981  22.096  1.00  0.00     0.215 HD
ENDBRANCH   9  13
BRANCH   9  15
HETATM   15  O7  UNL     1      10.775  -0.754  23.063  1.00  0.00    -0.341 OA
ATOM     16  H7  UNL     1      10.878  -0.787  22.119  1.00  0.00     0.215 HD
ENDBRANCH   9  15
BRANCH  10  17
HETATM   17  O8  UNL     1       7.780  -1.573  21.867  1.00  0.00    -0.280 OA
ATOM     18  H8  UNL     1       6.966  -1.210  21.540  1.00  0.00     0.245 HD
ENDBRANCH  10  17
BRANCH   5  19
HETATM   19  O3  UNL     1      10.367  -0.693  27.503  1.00  0.00    -0.357 OA
ATOM     20  H3  UNL     1      11.286  -0.542  27.692  1.00  0.00     0.217 HD
ENDBRANCH   5  19
BRANCH   2  21
HETATM   21  O2  UNL     1       7.456   2.865  24.489  1.00  0.00    -0.357 OA
ATOM     22  H2  UNL     1       6.541   2.687  24.309  1.00  0.00     0.217 HD
ENDBRANCH   2  21
BRANCH   6  23
HETATM   23  O4  UNL     1       9.713   1.741  28.499  1.00  0.00    -0.351 OA
HETATM   24  C8  UNL     1      10.850   2.477  28.829  1.00  0.00     0.210 C 
ENDBRANCH   6  23
BRANCH   1  25
HETATM   25  O1  UNL     1       8.255   3.567  27.029  1.00  0.00    -0.351 OA
HETATM   26  C1  UNL     1       7.136   3.888  27.797  1.00  0.00     0.210 C 
ENDBRANCH   1  25
TORSDOF 7
ENDMDL
MODEL 2
REMARK VINA RESULT: -6.277231467      1.427      2.273
REMARK  7 active torsions:
REMARK  status: ('A' for Active; 'I' for Inactive)
REMARK    1  A    between atoms: O1_2  and  C2_3 
REMARK    2  A    between atoms: C3_4  and  O2_5 
REMARK    3  A    between atoms: C6_9  and  O3_10 
REMARK    4  A    between atoms: C7_12  and  O4_13 
REMARK    5  A    between atoms: C10_17  and  O6_18 
REMARK    6  A    between atoms: C10_17  and  O7_20 
REMARK    7  A    between atoms: N1_22  and  O8_23 
ROOT
HETATM    1  C2  UNL     1       9.426   2.059  27.858  1.00  0.00     0.138 A 
HETATM    2  C3  UNL     1       8.694   2.591  26.771  1.00  0.00     0.118 A 
HETATM    3  C4  UNL     1       8.457   1.792  25.668  1.00  0.00     0.087 A 
HETATM    4  C5  UNL     1       8.910   0.479  25.586  1.00  0.00     0.072 A 
HETATM    5  C6  UNL     1       9.617  -0.040  26.629  1.00  0.00     0.117 A 
HETATM    6  C7  UNL     1       9.858   0.776  27.755  1.00  0.00     0.138 A 
HETATM    7  C9  UNL     1       8.585  -0.318  24.388  1.00  0.00     0.250 C 
HETATM    8  O5  UNL     1       8.430  -1.534  24.510  1.00  0.00    -0.284 OA
HETATM    9  C10 UNL     1       8.464   0.419  23.105  1.00  0.00     0.342 C 
HETATM   10  N1  UNL     1       7.488   1.494  23.341  1.00  0.00    -0.154 N 
HETATM   11  C11 UNL     1       7.728   2.287  24.498  1.00  0.00     0.286 C 
HETATM   12  O9  UNL     1       7.272   3.462  24.467  1.00  0.00    -0.265 OA
ENDROOT
BRANCH   9  13
HETATM   13  O6  UNL     1       8.065  -0.365  22.059  1.00  0.00    -0.341 OA
ATOM     14  H6  UNL     1       8.149   0.058  21.213  1.00  0.00     0.215 HD
ENDBRANCH   9  13
BRANCH   9  15
HETATM   15  O7  UNL     1       9.686   1.018  22.834  1.00  0.00    -0.341 OA
ATOM     16  H7  UNL     1      10.304   0.336  22.598  1.00  0.00     0.215 HD
ENDBRANCH   9  15
BRANCH  10  17
HETATM   17  O8  UNL     1       6.445   1.696  22.505  1.00  0.00    -0.280 OA
ATOM     18  H8  UNL     1       5.579   1.903  22.835  1.00  0.00     0.245 HD
ENDBRANCH  10  17
BRANCH   5  19
HETATM   19  O3  UNL     1      10.092  -1.315  26.612  1.00  0.00    -0.357 OA
ATOM     20  H3  UNL     1      10.423  -1.717  25.816  1.00  0.00     0.217 HD
ENDBRANCH   5  19
BRANCH   2  21
HETATM   21  O2  UNL     1       8.249   3.858  26.835  1.00  0.00    -0.357 OA
ATOM     22  H2  UNL     1       7.972   4.294  26.038  1.00  0.00     0.217 HD
ENDBRANCH   2  21
BRANCH   6  23
HETATM   23  O4  UNL     1      10.573   0.223  28.791  1.00  0.00    -0.351 OA
HETATM   24  C8  UNL     1      11.957   0.273  28.948  1.00  0.00     0.210 C 
ENDBRANCH   6  23
BRANCH   1  25
HETATM   25  O1  UNL     1       9.672   2.827  28.956  1.00  0.00    -0.351 OA
HETATM   26  C1  UNL     1      10.724   3.724  29.134  1.00  0.00     0.210 C 
ENDBRANCH   1  25
TORSDOF 7
ENDMDL
MODEL 3
REMARK VINA RESULT: -5.959837904      1.547      3.850
REMARK  7 active torsions:
REMARK  status: ('A' for Active; 'I' for Inactive)
REMARK    1  A    between atoms: O1_2  and  C2_3 
REMARK    2  A    between atoms: C3_4  and  O2_5 
REMARK    3  A    between atoms: C6_9  and  O3_10 
REMARK    4  A    between atoms: C7_12  and  O4_13 
REMARK    5  A    between atoms: C10_17  and  O6_18 
REMARK    6  A    between atoms: C10_17  and  O7_20 
REMARK    7  A    between atoms: N1_22  and  O8_23 
ROOT
HETATM    1  C2  UNL     1       9.384   1.034  27.174  1.00  0.00     0.138 A 
HETATM    2  C3  UNL     1       9.421   0.394  25.914  1.00  0.00     0.118 A 
HETATM    3  C4  UNL     1       8.920   1.059  24.810  1.00  0.00     0.087 A 
HETATM    4  C5  UNL     1       8.381   2.339  24.891  1.00  0.00     0.072 A 
HETATM    5  C6  UNL     1       8.340   2.961  26.102  1.00  0.00     0.117 A 
HETATM    6  C7  UNL     1       8.852   2.282  27.228  1.00  0.00     0.138 A 
HETATM    7  C9  UNL     1       7.899   2.992  23.659  1.00  0.00     0.250 C 
HETATM    8  O5  UNL     1       7.982   4.218  23.567  1.00  0.00    -0.284 OA
HETATM    9  C10 UNL     1       7.344   2.108  22.603  1.00  0.00     0.342 C 
HETATM   10  N1  UNL     1       8.377   1.098  22.331  1.00  0.00    -0.154 N 
HETATM   11  C11 UNL     1       8.905   0.445  23.480  1.00  0.00     0.286 C 
HETATM   12  O9  UNL     1       9.371  -0.712  23.293  1.00  0.00    -0.265 OA
ENDROOT
BRANCH   9  13
HETATM   13  O6  UNL     1       7.009   2.769  21.455  1.00  0.00    -0.341 OA
ATOM     14  H6  UNL     1       6.779   2.192  20.737  1.00  0.00     0.215 HD
ENDBRANCH   9  13
BRANCH   9  15
HETATM   15  O7  UNL     1       6.243   1.446  23.130  1.00  0.00    -0.341 OA
ATOM     16  H7  UNL     1       6.455   0.522  23.193  1.00  0.00     0.215 HD
ENDBRANCH   9  15
BRANCH  10  17
HETATM   17  O8  UNL     1       8.781   0.825  21.070  1.00  0.00    -0.280 OA
ATOM     18  H8  UNL     1       8.782  -0.062  20.731  1.00  0.00     0.245 HD
ENDBRANCH  10  17
BRANCH   5  19
HETATM   19  O3  UNL     1       7.822   4.211  26.251  1.00  0.00    -0.357 OA
ATOM     20  H3  UNL     1       8.370   4.961  26.453  1.00  0.00     0.217 HD
ENDBRANCH   5  19
BRANCH   2  21
HETATM   21  O2  UNL     1       9.940  -0.843  25.819  1.00  0.00    -0.357 OA
ATOM     22  H2  UNL     1      10.623  -1.013  25.181  1.00  0.00     0.217 HD
ENDBRANCH   2  21
BRANCH   6  23
HETATM   23  O4  UNL     1       8.798   2.937  28.435  1.00  0.00    -0.351 OA
HETATM   24  C8  UNL     1       9.753   3.826  28.927  1.00  0.00     0.210 C 
ENDBRANCH   6  23
BRANCH   1  25
HETATM   25  O1  UNL     1       9.872   0.399  28.276  1.00  0.00    -0.351 OA
HETATM   26  C1  UNL     1      11.191   0.394  28.727  1.00  0.00     0.210 C 
ENDBRANCH   1  25
TORSDOF 7
ENDMDL
MODEL 4
REMARK VINA RESULT: -5.943401673      1.851      5.881
REMARK  7 active torsions:
REMARK  status: ('A' for Active; 'I' for Inactive)
REMARK    1  A    between atoms: O1_2  and  C2_3 
REMARK    2  A    between atoms: C3_4  and  O2_5 
REMARK    3  A    between atoms: C6_9  and  O3_10 
REMARK    4  A    between atoms: C7_12  and  O4_13 
REMARK    5  A    between atoms: C10_17  and  O6_18 
REMARK    6  A    between atoms: C10_17  and  O7_20 
REMARK    7  A    between atoms: N1_22  and  O8_23 
ROOT
HETATM    1  C2  UNL     1       8.920  -0.039  23.978  1.00  0.00     0.138 A 
HETATM    2  C3  UNL     1       9.414  -0.287  25.280  1.00  0.00     0.118 A 
HETATM    3  C4  UNL     1       9.228   0.670  26.260  1.00  0.00     0.087 A 
HETATM    4  C5  UNL     1       8.570   1.871  26.015  1.00  0.00     0.072 A 
HETATM    5  C6  UNL     1       8.093   2.118  24.763  1.00  0.00     0.117 A 
HETATM    6  C7  UNL     1       8.283   1.140  23.763  1.00  0.00     0.138 A 
HETATM    7  C9  UNL     1       8.384   2.825  27.126  1.00  0.00     0.250 C 
HETATM    8  O5  UNL     1       7.379   3.538  27.131  1.00  0.00    -0.284 OA
HETATM    9  C10 UNL     1       9.437   2.851  28.172  1.00  0.00     0.342 C 
HETATM   10  N1  UNL     1       9.577   1.465  28.645  1.00  0.00    -0.154 N 
HETATM   11  C11 UNL     1       9.736   0.488  27.622  1.00  0.00     0.286 C 
HETATM   12  O9  UNL     1      10.346  -0.564  27.953  1.00  0.00    -0.265 OA
ENDROOT
BRANCH   9  13
HETATM   13  O6  UNL     1       9.150   3.684  29.216  1.00  0.00    -0.341 OA
ATOM     14  H6  UNL     1       8.507   3.331  29.820  1.00  0.00     0.215 HD
ENDBRANCH   9  13
BRANCH   9  15
HETATM   15  O7  UNL     1      10.635   3.209  27.570  1.00  0.00    -0.341 OA
ATOM     16  H7  UNL     1      11.240   3.478  28.252  1.00  0.00     0.215 HD
ENDBRANCH   9  15
BRANCH  10  17
HETATM   17  O8  UNL     1       9.555   1.164  29.962  1.00  0.00    -0.280 OA
ATOM     18  H8  UNL     1       9.699   0.278  30.271  1.00  0.00     0.245 HD
ENDBRANCH  10  17
BRANCH   5  19
HETATM   19  O3  UNL     1       7.444   3.274  24.456  1.00  0.00    -0.357 OA
ATOM     20  H3  UNL     1       6.982   3.387  23.633  1.00  0.00     0.217 HD
ENDBRANCH   5  19
BRANCH   2  21
HETATM   21  O2  UNL     1      10.052  -1.444  25.533  1.00  0.00    -0.357 OA
ATOM     22  H2  UNL     1       9.955  -2.170  24.928  1.00  0.00     0.217 HD
ENDBRANCH   2  21
BRANCH   6  23
HETATM   23  O4  UNL     1       7.788   1.418  22.511  1.00  0.00    -0.351 OA
HETATM   24  C8  UNL     1       6.524   1.072  22.036  1.00  0.00     0.210 C 
ENDBRANCH   6  23
BRANCH   1  25
HETATM   25  O1  UNL     1       9.091  -0.968  22.996  1.00  0.00    -0.351 OA
HETATM   26  C1  UNL     1      10.158  -1.059  22.104  1.00  0.00     0.210 C 
ENDBRANCH   1  25
TORSDOF 7
ENDMDL
MODEL 5
REMARK VINA RESULT: -5.855468053      1.877      5.575
REMARK  7 active torsions:
REMARK  status: ('A' for Active; 'I' for Inactive)
REMARK    1  A    between atoms: O1_2  and  C2_3 
REMARK    2  A    between atoms: C3_4  and  O2_5 
REMARK    3  A    between atoms: C6_9  and  O3_10 
REMARK    4  A    between atoms: C7_12  and  O4_13 
REMARK    5  A    between atoms: C10_17  and  O6_18 
REMARK    6  A    between atoms: C10_17  and  O7_20 
REMARK    7  A    between atoms: N1_22  and  O8_23 
ROOT
HETATM    1  C2  UNL     1       9.417  -1.927  24.826  1.00  0.00     0.138 A 
HETATM    2  C3  UNL     1       9.524  -0.780  25.647  1.00  0.00     0.118 A 
HETATM    3  C4  UNL     1       8.953   0.405  25.220  1.00  0.00     0.087 A 
HETATM    4  C5  UNL     1       8.275   0.513  24.010  1.00  0.00     0.072 A 
HETATM    5  C6  UNL     1       8.170  -0.587  23.213  1.00  0.00     0.117 A 
HETATM    6  C7  UNL     1       8.752  -1.796  23.651  1.00  0.00     0.138 A 
HETATM    7  C9  UNL     1       7.665   1.806  23.644  1.00  0.00     0.250 C 
HETATM    8  O5  UNL     1       6.636   1.804  22.968  1.00  0.00    -0.284 OA
HETATM    9  C10 UNL     1       8.349   3.031  24.128  1.00  0.00     0.342 C 
HETATM   10  N1  UNL     1       8.489   2.874  25.584  1.00  0.00    -0.154 N 
HETATM   11  C11 UNL     1       9.048   1.636  26.009  1.00  0.00     0.286 C 
HETATM   12  O9  UNL     1       9.639   1.650  27.122  1.00  0.00    -0.265 OA
ENDROOT
BRANCH   9  13
HETATM   13  O6  UNL     1       7.678   4.185  23.835  1.00  0.00    -0.341 OA
ATOM     14  H6  UNL     1       7.591   4.348  22.904  1.00  0.00     0.215 HD
ENDBRANCH   9  13
BRANCH   9  15
HETATM   15  O7  UNL     1       9.628   3.055  23.587  1.00  0.00    -0.341 OA
ATOM     16  H7  UNL     1      10.234   2.736  24.246  1.00  0.00     0.215 HD
ENDBRANCH   9  15
BRANCH  10  17
HETATM   17  O8  UNL     1       8.107   3.848  26.438  1.00  0.00    -0.280 OA
ATOM     18  H8  UNL     1       7.204   4.142  26.483  1.00  0.00     0.245 HD
ENDBRANCH  10  17
BRANCH   5  19
HETATM   19  O3  UNL     1       7.523  -0.549  22.016  1.00  0.00    -0.357 OA
ATOM     20  H3  UNL     1       7.071  -1.307  21.665  1.00  0.00     0.217 HD
ENDBRANCH   5  19
BRANCH   2  21
HETATM   21  O2  UNL     1      10.176  -0.868  26.820  1.00  0.00    -0.357 OA
ATOM     22  H2  UNL     1       9.681  -0.835  27.630  1.00  0.00     0.217 HD
ENDBRANCH   2  21
BRANCH   6  23
HETATM   23  O4  UNL     1       8.627  -2.888  22.825  1.00  0.00    -0.351 OA
HETATM   24  C8  UNL     1       9.563  -3.313  21.883  1.00  0.00     0.210 C 
ENDBRANCH   6  23
BRANCH   1  25
HETATM   25  O1  UNL     1       9.971  -3.105  25.227  1.00  0.00    -0.351 OA
HETATM   26  C1  UNL     1       9.350  -4.120  25.954  1.00  0.00     0.210 C 
ENDBRANCH   1  25
TORSDOF 7
ENDMDL
