MODEL 1
REMARK VINA RESULT: -5.600651948      0.000      0.000
REMARK  6 active torsions:
REMARK  status: ('A' for Active; 'I' for Inactive)
REMARK    1  A    between atoms: O1_2  and  C2_3 
REMARK    2  A    between atoms: C2_3  and  C3_4 
REMARK    3  A    between atoms: C3_4  and  C4_5 
REMARK    4  A    between atoms: C4_5  and  C5_6 
REMARK    5  A    between atoms: C11_16  and  C12_17 
REMARK    6  A    between atoms: C13_20  and  N3_21 
ROOT
HETATM    1  C5  UNL     1     -49.404  44.854  13.622  1.00  0.00     0.125 C 
HETATM    2  C6  UNL     1     -48.359  45.855  13.902  1.00  0.00     0.067 C 
HETATM    3  C7  UNL     1     -48.847  47.224  13.543  1.00  0.00    -0.054 C 
HETATM    4  C8  UNL     1     -48.030  48.008  12.880  1.00  0.00     0.059 C 
HETATM    5  C9  UNL     1     -48.385  49.359  12.471  1.00  0.00     0.135 C 
HETATM    6  N1  UNL     1     -47.595  50.108  11.833  1.00  0.00    -0.380 N 
ATOM      7  H11 UNL     1     -47.844  51.055  11.546  1.00  0.00     0.158 HD
ATOM      8  H12 UNL     1     -46.654  49.831  11.555  1.00  0.00     0.158 HD
HETATM    9  O2  UNL     1     -49.641  49.728  12.842  1.00  0.00    -0.335 OA
HETATM   10  C10 UNL     1     -50.635  48.880  13.359  1.00  0.00     0.200 C 
HETATM   11  C11 UNL     1     -50.256  47.598  13.953  1.00  0.00     0.073 C 
HETATM   12  C16 UNL     1     -51.028  46.515  13.139  1.00  0.00     0.191 C 
HETATM   13  O3  UNL     1     -50.616  45.286  13.310  1.00  0.00    -0.384 OA
ENDROOT
BRANCH  11  14
HETATM   14  C12 UNL     1     -50.513  47.360  15.366  1.00  0.00     0.083 A 
HETATM   15  N2  UNL     1     -51.481  46.494  15.781  1.00  0.00    -0.192 N 
HETATM   16  C13 UNL     1     -51.731  46.262  17.095  1.00  0.00     0.676 A 
ATOM     17  H2  UNL     1     -52.036  46.004  15.080  1.00  0.00     0.184 HD
HETATM   18  N4  UNL     1     -51.000  46.907  18.022  1.00  0.00    -0.199 N 
HETATM   19  C14 UNL     1     -50.020  47.782  17.671  1.00  0.00     0.150 A 
ATOM     20  H4  UNL     1     -51.185  46.735  19.011  1.00  0.00     0.183 HD
HETATM   21  C15 UNL     1     -49.777  48.008  16.336  1.00  0.00     0.156 A 
HETATM   22  F1  UNL     1     -48.813  48.868  15.992  1.00  0.00    -0.203 F 
BRANCH  16  23
HETATM   23  N3  UNL     1     -52.654  45.437  17.456  1.00  0.00    -0.234 N 
ATOM     24  H32 UNL     1     -53.229  45.638  18.273  1.00  0.00     0.174 HD
ATOM     25  H31 UNL     1     -52.820  44.577  16.933  1.00  0.00     0.174 HD
ENDBRANCH  16  23
ENDBRANCH  11  14
BRANCH   1  26
HETATM   26  C4  UNL     1     -48.950  43.898  12.497  1.00  0.00     0.034 C 
BRANCH  26  27
HETATM   27  C3  UNL     1     -47.638  44.330  11.889  1.00  0.00     0.029 C 
BRANCH  27  28
HETATM   28  C2  UNL     1     -47.818  44.240  10.391  1.00  0.00     0.167 C 
BRANCH  28  29
HETATM   29  O1  UNL     1     -47.811  45.480   9.777  1.00  0.00    -0.396 OA
HETATM   30  C1  UNL     1     -46.675  46.228  10.008  1.00  0.00     0.201 C 
ENDBRANCH  28  29
ENDBRANCH  27  28
ENDBRANCH  26  27
ENDBRANCH   1  26
TORSDOF 6
ENDMDL
MODEL 2
REMARK VINA RESULT: -5.476336287      1.472      1.510
REMARK  6 active torsions:
REMARK  status: ('A' for Active; 'I' for Inactive)
REMARK    1  A    between atoms: O1_2  and  C2_3 
REMARK    2  A    between atoms: C2_3  and  C3_4 
REMARK    3  A    between atoms: C3_4  and  C4_5 
REMARK    4  A    between atoms: C4_5  and  C5_6 
REMARK    5  A    between atoms: C11_16  and  C12_17 
REMARK    6  A    between atoms: C13_20  and  N3_21 
ROOT
HETATM    1  C5  UNL     1     -49.136  45.262  13.607  1.00  0.00     0.125 C 
HETATM    2  C6  UNL     1     -48.319  46.483  13.719  1.00  0.00     0.067 C 
HETATM    3  C7  UNL     1     -49.199  47.676  13.929  1.00  0.00    -0.054 C 
HETATM    4  C8  UNL     1     -48.940  48.755  13.230  1.00  0.00     0.059 C 
HETATM    5  C9  UNL     1     -49.721  49.979  13.342  1.00  0.00     0.135 C 
HETATM    6  N1  UNL     1     -49.467  51.014  12.666  1.00  0.00    -0.380 N 
ATOM      7  H11 UNL     1     -50.015  51.871  12.744  1.00  0.00     0.158 HD
ATOM      8  H12 UNL     1     -48.702  51.078  11.995  1.00  0.00     0.158 HD
HETATM    9  O2  UNL     1     -50.741  49.894  14.238  1.00  0.00    -0.335 OA
HETATM   10  C10 UNL     1     -51.205  48.720  14.856  1.00  0.00     0.200 C 
HETATM   11  C11 UNL     1     -50.338  47.543  14.918  1.00  0.00     0.073 C 
HETATM   12  C16 UNL     1     -51.129  46.403  14.207  1.00  0.00     0.191 C 
HETATM   13  O3  UNL     1     -50.427  45.345  13.893  1.00  0.00    -0.384 OA
ENDROOT
BRANCH  11  14
HETATM   14  C12 UNL     1     -49.902  47.042  16.214  1.00  0.00     0.083 A 
HETATM   15  N2  UNL     1     -50.321  45.837  16.692  1.00  0.00    -0.192 N 
HETATM   16  C13 UNL     1     -49.923  45.357  17.898  1.00  0.00     0.676 A 
ATOM     17  H2  UNL     1     -50.956  45.276  16.125  1.00  0.00     0.184 HD
HETATM   18  N4  UNL     1     -49.085  46.094  18.649  1.00  0.00    -0.199 N 
HETATM   19  C14 UNL     1     -48.632  47.305  18.226  1.00  0.00     0.150 A 
ATOM     20  H4  UNL     1     -48.784  45.737  19.556  1.00  0.00     0.183 HD
HETATM   21  C15 UNL     1     -49.044  47.779  17.002  1.00  0.00     0.156 A 
HETATM   22  F1  UNL     1     -48.597  48.969  16.588  1.00  0.00    -0.203 F 
BRANCH  16  23
HETATM   23  N3  UNL     1     -50.337  44.212  18.323  1.00  0.00    -0.234 N 
ATOM     24  H32 UNL     1     -50.408  44.032  19.324  1.00  0.00     0.174 HD
ATOM     25  H31 UNL     1     -50.597  43.475  17.668  1.00  0.00     0.174 HD
ENDBRANCH  16  23
ENDBRANCH  11  14
BRANCH   1  26
HETATM   26  C4  UNL     1     -49.016  44.657  12.191  1.00  0.00     0.034 C 
BRANCH  26  27
HETATM   27  C3  UNL     1     -48.053  45.437  11.328  1.00  0.00     0.029 C 
BRANCH  27  28
HETATM   28  C2  UNL     1     -47.835  44.606  10.084  1.00  0.00     0.167 C 
BRANCH  28  29
HETATM   29  O1  UNL     1     -47.860  45.362   8.927  1.00  0.00    -0.396 OA
HETATM   30  C1  UNL     1     -47.413  44.704   7.800  1.00  0.00     0.201 C 
ENDBRANCH  28  29
ENDBRANCH  27  28
ENDBRANCH  26  27
ENDBRANCH   1  26
TORSDOF 6
ENDMDL
MODEL 3
REMARK VINA RESULT: -5.252634921      1.623      1.868
REMARK  6 active torsions:
REMARK  status: ('A' for Active; 'I' for Inactive)
REMARK    1  A    between atoms: O1_2  and  C2_3 
REMARK    2  A    between atoms: C2_3  and  C3_4 
REMARK    3  A    between atoms: C3_4  and  C4_5 
REMARK    4  A    between atoms: C4_5  and  C5_6 
REMARK    5  A    between atoms: C11_16  and  C12_17 
REMARK    6  A    between atoms: C13_20  and  N3_21 
ROOT
HETATM    1  C5  UNL     1     -49.452  45.412  13.591  1.00  0.00     0.125 C 
HETATM    2  C6  UNL     1     -48.566  46.586  13.671  1.00  0.00     0.067 C 
HETATM    3  C7  UNL     1     -49.365  47.817  13.970  1.00  0.00    -0.054 C 
HETATM    4  C8  UNL     1     -49.100  48.899  13.278  1.00  0.00     0.059 C 
HETATM    5  C9  UNL     1     -49.806  50.157  13.472  1.00  0.00     0.135 C 
HETATM    6  N1  UNL     1     -49.546  51.195  12.802  1.00  0.00    -0.380 N 
ATOM      7  H11 UNL     1     -50.041  52.077  12.938  1.00  0.00     0.158 HD
ATOM      8  H12 UNL     1     -48.827  51.237  12.080  1.00  0.00     0.158 HD
HETATM    9  O2  UNL     1     -50.763  50.101  14.436  1.00  0.00    -0.335 OA
HETATM   10  C10 UNL     1     -51.244  48.937  15.060  1.00  0.00     0.200 C 
HETATM   11  C11 UNL     1     -50.438  47.717  15.034  1.00  0.00     0.073 C 
HETATM   12  C16 UNL     1     -51.335  46.637  14.357  1.00  0.00     0.191 C 
HETATM   13  O3  UNL     1     -50.714  45.553  13.971  1.00  0.00    -0.384 OA
ENDROOT
BRANCH  11  14
HETATM   14  C12 UNL     1     -49.939  47.161  16.285  1.00  0.00     0.083 A 
HETATM   15  N2  UNL     1     -50.359  45.950  16.747  1.00  0.00    -0.192 N 
HETATM   16  C13 UNL     1     -49.903  45.420  17.910  1.00  0.00     0.676 A 
ATOM     17  H2  UNL     1     -51.041  45.425  16.201  1.00  0.00     0.184 HD
HETATM   18  N4  UNL     1     -49.004  46.111  18.634  1.00  0.00    -0.199 N 
HETATM   19  C14 UNL     1     -48.545  47.325  18.225  1.00  0.00     0.150 A 
ATOM     20  H4  UNL     1     -48.658  45.716  19.509  1.00  0.00     0.183 HD
HETATM   21  C15 UNL     1     -49.017  47.850  17.044  1.00  0.00     0.156 A 
HETATM   22  F1  UNL     1     -48.564  49.042  16.643  1.00  0.00    -0.203 F 
BRANCH  16  23
HETATM   23  N3  UNL     1     -50.321  44.272  18.322  1.00  0.00    -0.234 N 
ATOM     24  H32 UNL     1     -49.734  43.700  18.929  1.00  0.00     0.174 HD
ATOM     25  H31 UNL     1     -51.238  43.920  18.047  1.00  0.00     0.174 HD
ENDBRANCH  16  23
ENDBRANCH  11  14
BRANCH   1  26
HETATM   26  C4  UNL     1     -49.464  44.837  12.157  1.00  0.00     0.034 C 
BRANCH  26  27
HETATM   27  C3  UNL     1     -48.289  45.331  11.347  1.00  0.00     0.029 C 
BRANCH  27  28
HETATM   28  C2  UNL     1     -47.490  44.103  10.974  1.00  0.00     0.167 C 
BRANCH  28  29
HETATM   29  O1  UNL     1     -48.063  42.933  11.438  1.00  0.00    -0.396 OA
HETATM   30  C1  UNL     1     -47.220  42.138  12.186  1.00  0.00     0.201 C 
ENDBRANCH  28  29
ENDBRANCH  27  28
ENDBRANCH  26  27
ENDBRANCH   1  26
TORSDOF 6
ENDMDL
MODEL 4
REMARK VINA RESULT: -5.176339117      2.070      4.288
REMARK  6 active torsions:
REMARK  status: ('A' for Active; 'I' for Inactive)
REMARK    1  A    between atoms: O1_2  and  C2_3 
REMARK    2  A    between atoms: C2_3  and  C3_4 
REMARK    3  A    between atoms: C3_4  and  C4_5 
REMARK    4  A    between atoms: C4_5  and  C5_6 
REMARK    5  A    between atoms: C11_16  and  C12_17 
REMARK    6  A    between atoms: C13_20  and  N3_21 
ROOT
HETATM    1  C5  UNL     1     -48.827  46.023  13.031  1.00  0.00     0.125 C 
HETATM    2  C6  UNL     1     -50.225  46.288  12.649  1.00  0.00     0.067 C 
HETATM    3  C7  UNL     1     -51.031  46.653  13.857  1.00  0.00    -0.054 C 
HETATM    4  C8  UNL     1     -52.211  46.098  13.994  1.00  0.00     0.059 C 
HETATM    5  C9  UNL     1     -53.089  46.369  15.123  1.00  0.00     0.135 C 
HETATM    6  N1  UNL     1     -54.223  45.832  15.249  1.00  0.00    -0.380 N 
ATOM      7  H11 UNL     1     -54.838  46.021  16.041  1.00  0.00     0.158 HD
ATOM      8  H12 UNL     1     -54.614  45.171  14.578  1.00  0.00     0.158 HD
HETATM    9  O2  UNL     1     -52.568  47.250  16.019  1.00  0.00    -0.335 OA
HETATM   10  C10 UNL     1     -51.241  47.714  16.049  1.00  0.00     0.200 C 
HETATM   11  C11 UNL     1     -50.414  47.621  14.846  1.00  0.00     0.073 C 
HETATM   12  C16 UNL     1     -49.173  46.772  15.256  1.00  0.00     0.191 C 
HETATM   13  O3  UNL     1     -48.449  46.322  14.265  1.00  0.00    -0.384 OA
ENDROOT
BRANCH  11  14
HETATM   14  C12 UNL     1     -49.931  48.840  14.213  1.00  0.00     0.083 A 
HETATM   15  N2  UNL     1     -48.612  49.184  14.236  1.00  0.00    -0.192 N 
HETATM   16  C13 UNL     1     -48.148  50.316  13.650  1.00  0.00     0.676 A 
ATOM     17  H2  UNL     1     -47.952  48.568  14.710  1.00  0.00     0.184 HD
HETATM   18  N4  UNL     1     -49.016  51.130  13.023  1.00  0.00    -0.199 N 
HETATM   19  C14 UNL     1     -50.344  50.842  12.965  1.00  0.00     0.150 A 
ATOM     20  H4  UNL     1     -48.671  51.983  12.581  1.00  0.00     0.183 HD
HETATM   21  C15 UNL     1     -50.801  49.690  13.564  1.00  0.00     0.156 A 
HETATM   22  F1  UNL     1     -52.107  49.408  13.506  1.00  0.00    -0.203 F 
BRANCH  16  23
HETATM   23  N3  UNL     1     -46.894  50.614  13.689  1.00  0.00    -0.234 N 
ATOM     24  H32 UNL     1     -46.305  50.254  14.439  1.00  0.00     0.174 HD
ATOM     25  H31 UNL     1     -46.475  51.210  12.975  1.00  0.00     0.174 HD
ENDBRANCH  16  23
ENDBRANCH  11  14
BRANCH   1  26
HETATM   26  C4  UNL     1     -48.470  44.540  12.785  1.00  0.00     0.034 C 
BRANCH  26  27
HETATM   27  C3  UNL     1     -47.293  44.395  11.850  1.00  0.00     0.029 C 
BRANCH  27  28
HETATM   28  C2  UNL     1     -47.876  44.200  10.469  1.00  0.00     0.167 C 
BRANCH  28  29
HETATM   29  O1  UNL     1     -47.912  45.372   9.735  1.00  0.00    -0.396 OA
HETATM   30  C1  UNL     1     -46.775  46.147   9.835  1.00  0.00     0.201 C 
ENDBRANCH  28  29
ENDBRANCH  27  28
ENDBRANCH  26  27
ENDBRANCH   1  26
TORSDOF 6
ENDMDL
MODEL 5
REMARK VINA RESULT: -5.093264370      2.517      3.829
REMARK  6 active torsions:
REMARK  status: ('A' for Active; 'I' for Inactive)
REMARK    1  A    between atoms: O1_2  and  C2_3 
REMARK    2  A    between atoms: C2_3  and  C3_4 
REMARK    3  A    between atoms: C3_4  and  C4_5 
REMARK    4  A    between atoms: C4_5  and  C5_6 
REMARK    5  A    between atoms: C11_16  and  C12_17 
REMARK    6  A    between atoms: C13_20  and  N3_21 
ROOT
HETATM    1  C5  UNL     1     -49.236  46.379  12.645  1.00  0.00     0.125 C 
HETATM    2  C6  UNL     1     -49.716  45.729  13.877  1.00  0.00     0.067 C 
HETATM    3  C7  UNL     1     -49.389  46.575  15.069  1.00  0.00    -0.054 C 
HETATM    4  C8  UNL     1     -48.891  45.976  16.124  1.00  0.00     0.059 C 
HETATM    5  C9  UNL     1     -48.531  46.686  17.342  1.00  0.00     0.135 C 
HETATM    6  N1  UNL     1     -48.052  46.103  18.354  1.00  0.00    -0.380 N 
ATOM      7  H11 UNL     1     -47.799  46.600  19.208  1.00  0.00     0.158 HD
ATOM      8  H12 UNL     1     -47.882  45.099  18.401  1.00  0.00     0.158 HD
HETATM    9  O2  UNL     1     -48.758  48.025  17.280  1.00  0.00    -0.335 OA
HETATM   10  C10 UNL     1     -49.083  48.758  16.125  1.00  0.00     0.200 C 
HETATM   11  C11 UNL     1     -49.634  48.066  14.961  1.00  0.00     0.073 C 
HETATM   12  C16 UNL     1     -48.656  48.377  13.787  1.00  0.00     0.191 C 
HETATM   13  O3  UNL     1     -48.797  47.626  12.726  1.00  0.00    -0.384 OA
ENDROOT
BRANCH  11  14
HETATM   14  C12 UNL     1     -50.983  48.382  14.512  1.00  0.00     0.083 A 
HETATM   15  N2  UNL     1     -51.209  49.110  13.382  1.00  0.00    -0.192 N 
HETATM   16  C13 UNL     1     -52.460  49.412  12.952  1.00  0.00     0.676 A 
ATOM     17  H2  UNL     1     -50.409  49.439  12.842  1.00  0.00     0.184 HD
HETATM   18  N4  UNL     1     -53.517  48.979  13.663  1.00  0.00    -0.199 N 
HETATM   19  C14 UNL     1     -53.357  48.248  14.799  1.00  0.00     0.150 A 
ATOM     20  H4  UNL     1     -54.459  49.204  13.343  1.00  0.00     0.183 HD
HETATM   21  C15 UNL     1     -52.082  47.949  15.223  1.00  0.00     0.156 A 
HETATM   22  F1  UNL     1     -51.927  47.230  16.339  1.00  0.00    -0.203 F 
BRANCH  16  23
HETATM   23  N3  UNL     1     -52.641  50.103  11.879  1.00  0.00    -0.234 N 
ATOM     24  H32 UNL     1     -52.426  49.700  10.967  1.00  0.00     0.174 HD
ATOM     25  H31 UNL     1     -52.999  51.057  11.925  1.00  0.00     0.174 HD
ENDBRANCH  16  23
ENDBRANCH  11  14
BRANCH   1  26
HETATM   26  C4  UNL     1     -48.118  45.538  11.989  1.00  0.00     0.034 C 
BRANCH  26  27
HETATM   27  C3  UNL     1     -47.323  46.345  10.990  1.00  0.00     0.029 C 
BRANCH  27  28
HETATM   28  C2  UNL     1     -47.387  45.582   9.687  1.00  0.00     0.167 C 
BRANCH  28  29
HETATM   29  O1  UNL     1     -47.014  46.351   8.600  1.00  0.00    -0.396 OA
HETATM   30  C1  UNL     1     -47.411  45.849   7.378  1.00  0.00     0.201 C 
ENDBRANCH  28  29
ENDBRANCH  27  28
ENDBRANCH  26  27
ENDBRANCH   1  26
TORSDOF 6
ENDMDL
