MODEL 1
REMARK VINA RESULT: -5.488335645      0.000      0.000
REMARK  5 active torsions:
REMARK  status: ('A' for Active; 'I' for Inactive)
REMARK    1  A    between atoms: C3_5  and  C4_6 
REMARK    2  A    between atoms: C4_6  and  S1_7 
REMARK    3  A    between atoms: S1_7  and  C5_8 
REMARK    4  A    between atoms: C5_8  and  C6_9 
REMARK    5  A    between atoms: C6_9  and  N2_12 
ROOT
HETATM    1  C4  UNL     1      24.607 -19.446  30.673  1.00  0.00     0.099 C 
ENDROOT
BRANCH   1   2
HETATM    2  C3  UNL     1      23.399 -19.130  29.779  1.00  0.00     0.090 C 
HETATM    3  N1  UNL     1      23.774 -19.384  28.434  1.00  0.00    -0.391 N 
HETATM    4  C2  UNL     1      24.006 -18.519  27.546  1.00  0.00    -0.022 C 
ATOM      5  H1  UNL     1      23.864 -20.361  28.158  1.00  0.00     0.159 HD
HETATM    6  C1  UNL     1      24.398 -18.905  26.142  1.00  0.00     0.062 C 
HETATM    7  C11 UNL     1      23.880 -17.084  27.925  1.00  0.00     0.052 C 
HETATM    8  C10 UNL     1      22.658 -16.950  28.783  1.00  0.00     0.008 C 
HETATM    9  C9  UNL     1      22.867 -17.769  30.035  1.00  0.00     0.026 C 
ENDBRANCH   1   2
BRANCH   1  10
HETATM   10  S1  UNL     1      24.076 -20.447  32.098  1.00  0.00    -0.165 SA
BRANCH  10  11
HETATM   11  C5  UNL     1      22.351 -20.883  31.858  1.00  0.00     0.111 C 
BRANCH  11  12
HETATM   12  C6  UNL     1      21.474 -20.322  32.962  1.00  0.00     0.125 C 
HETATM   13  C7  UNL     1      20.507 -19.306  32.397  1.00  0.00     0.046 C 
HETATM   14  C8  UNL     1      22.287 -19.659  34.031  1.00  0.00     0.046 C 
BRANCH  12  15
HETATM   15  N2  UNL     1      20.676 -21.383  33.572  1.00  0.00    -0.070 N 
ATOM     16  H23 UNL     1      19.776 -21.037  33.905  1.00  0.00     0.275 HD
ATOM     17  H22 UNL     1      20.336 -22.048  32.878  1.00  0.00     0.275 HD
ATOM     18  H21 UNL     1      21.202 -21.846  34.314  1.00  0.00     0.275 HD
ENDBRANCH  12  15
ENDBRANCH  11  12
ENDBRANCH  10  11
ENDBRANCH   1  10
TORSDOF 5
ENDMDL
MODEL 2
REMARK VINA RESULT: -5.470292922      0.767      1.127
REMARK  5 active torsions:
REMARK  status: ('A' for Active; 'I' for Inactive)
REMARK    1  A    between atoms: C3_5  and  C4_6 
REMARK    2  A    between atoms: C4_6  and  S1_7 
REMARK    3  A    between atoms: S1_7  and  C5_8 
REMARK    4  A    between atoms: C5_8  and  C6_9 
REMARK    5  A    between atoms: C6_9  and  N2_12 
ROOT
HETATM    1  C4  UNL     1      24.630 -19.419  30.643  1.00  0.00     0.099 C 
ENDROOT
BRANCH   1   2
HETATM    2  C3  UNL     1      23.415 -19.115  29.754  1.00  0.00     0.090 C 
HETATM    3  N1  UNL     1      23.783 -19.378  28.409  1.00  0.00    -0.391 N 
HETATM    4  C2  UNL     1      24.007 -18.519  27.513  1.00  0.00    -0.022 C 
ATOM      5  H1  UNL     1      23.876 -20.357  28.141  1.00  0.00     0.159 HD
HETATM    6  C1  UNL     1      24.393 -18.915  26.110  1.00  0.00     0.062 C 
HETATM    7  C11 UNL     1      23.878 -17.081  27.881  1.00  0.00     0.052 C 
HETATM    8  C10 UNL     1      22.660 -16.945  28.745  1.00  0.00     0.008 C 
HETATM    9  C9  UNL     1      22.879 -17.753  30.002  1.00  0.00     0.026 C 
ENDBRANCH   1   2
BRANCH   1  10
HETATM   10  S1  UNL     1      24.111 -20.419  32.074  1.00  0.00    -0.165 SA
BRANCH  10  11
HETATM   11  C5  UNL     1      22.415 -20.938  31.805  1.00  0.00     0.111 C 
BRANCH  11  12
HETATM   12  C6  UNL     1      21.478 -20.351  32.844  1.00  0.00     0.125 C 
HETATM   13  C7  UNL     1      22.270 -19.672  33.939  1.00  0.00     0.046 C 
HETATM   14  C8  UNL     1      20.615 -21.404  33.467  1.00  0.00     0.046 C 
BRANCH  12  15
HETATM   15  N2  UNL     1      20.616 -19.336  32.243  1.00  0.00    -0.070 N 
ATOM     16  H23 UNL     1      20.351 -19.581  31.289  1.00  0.00     0.275 HD
ATOM     17  H22 UNL     1      19.686 -19.331  32.663  1.00  0.00     0.275 HD
ATOM     18  H21 UNL     1      21.057 -18.417  32.290  1.00  0.00     0.275 HD
ENDBRANCH  12  15
ENDBRANCH  11  12
ENDBRANCH  10  11
ENDBRANCH   1  10
TORSDOF 5
ENDMDL
MODEL 3
REMARK VINA RESULT: -5.418594321      0.806      1.086
REMARK  5 active torsions:
REMARK  status: ('A' for Active; 'I' for Inactive)
REMARK    1  A    between atoms: C3_5  and  C4_6 
REMARK    2  A    between atoms: C4_6  and  S1_7 
REMARK    3  A    between atoms: S1_7  and  C5_8 
REMARK    4  A    between atoms: C5_8  and  C6_9 
REMARK    5  A    between atoms: C6_9  and  N2_12 
ROOT
HETATM    1  C4  UNL     1      24.684 -19.174  30.567  1.00  0.00     0.099 C 
ENDROOT
BRANCH   1   2
HETATM    2  C3  UNL     1      23.481 -19.036  29.623  1.00  0.00     0.090 C 
HETATM    3  N1  UNL     1      23.905 -19.402  28.319  1.00  0.00    -0.391 N 
HETATM    4  C2  UNL     1      24.103 -18.621  27.349  1.00  0.00    -0.022 C 
ATOM      5  H1  UNL     1      24.067 -20.395  28.150  1.00  0.00     0.159 HD
HETATM    6  C1  UNL     1      24.556 -19.123  26.001  1.00  0.00     0.062 C 
HETATM    7  C11 UNL     1      23.874 -17.165  27.573  1.00  0.00     0.052 C 
HETATM    8  C10 UNL     1      22.624 -17.026  28.389  1.00  0.00     0.008 C 
HETATM    9  C9  UNL     1      22.853 -17.694  29.723  1.00  0.00     0.026 C 
ENDBRANCH   1   2
BRANCH   1  10
HETATM   10  S1  UNL     1      24.267 -20.299  31.937  1.00  0.00    -0.165 SA
BRANCH  10  11
HETATM   11  C5  UNL     1      22.559 -20.813  31.734  1.00  0.00     0.111 C 
BRANCH  11  12
HETATM   12  C6  UNL     1      21.667 -20.229  32.814  1.00  0.00     0.125 C 
HETATM   13  C7  UNL     1      20.669 -21.264  33.284  1.00  0.00     0.046 C 
HETATM   14  C8  UNL     1      20.912 -19.034  32.321  1.00  0.00     0.046 C 
BRANCH  12  15
HETATM   15  N2  UNL     1      22.459 -19.835  33.977  1.00  0.00    -0.070 N 
ATOM     16  H23 UNL     1      22.024 -19.068  34.489  1.00  0.00     0.275 HD
ATOM     17  H22 UNL     1      22.433 -20.543  34.711  1.00  0.00     0.275 HD
ATOM     18  H21 UNL     1      23.415 -19.612  33.700  1.00  0.00     0.275 HD
ENDBRANCH  12  15
ENDBRANCH  11  12
ENDBRANCH  10  11
ENDBRANCH   1  10
TORSDOF 5
ENDMDL
MODEL 4
REMARK VINA RESULT: -4.797558692      1.769      5.482
REMARK  5 active torsions:
REMARK  status: ('A' for Active; 'I' for Inactive)
REMARK    1  A    between atoms: C3_5  and  C4_6 
REMARK    2  A    between atoms: C4_6  and  S1_7 
REMARK    3  A    between atoms: S1_7  and  C5_8 
REMARK    4  A    between atoms: C5_8  and  C6_9 
REMARK    5  A    between atoms: C6_9  and  N2_12 
ROOT
HETATM    1  C4  UNL     1      23.858 -19.586  31.761  1.00  0.00     0.099 C 
ENDROOT
BRANCH   1   2
HETATM    2  C3  UNL     1      22.442 -19.995  31.331  1.00  0.00     0.090 C 
HETATM    3  N1  UNL     1      21.527 -19.080  31.915  1.00  0.00    -0.391 N 
HETATM    4  C2  UNL     1      20.747 -19.314  32.877  1.00  0.00    -0.022 C 
ATOM      5  H1  UNL     1      21.498 -18.142  31.516  1.00  0.00     0.159 HD
HETATM    6  C1  UNL     1      19.814 -18.260  33.419  1.00  0.00     0.062 C 
HETATM    7  C11 UNL     1      20.772 -20.678  33.476  1.00  0.00     0.052 C 
HETATM    8  C10 UNL     1      20.867 -21.662  32.349  1.00  0.00     0.008 C 
HETATM    9  C9  UNL     1      22.169 -21.425  31.622  1.00  0.00     0.026 C 
ENDBRANCH   1   2
BRANCH   1  10
HETATM   10  S1  UNL     1      24.674 -18.676  30.412  1.00  0.00    -0.165 SA
BRANCH  10  11
HETATM   11  C5  UNL     1      23.721 -18.932  28.912  1.00  0.00     0.111 C 
BRANCH  11  12
HETATM   12  C6  UNL     1      23.206 -17.622  28.346  1.00  0.00     0.125 C 
HETATM   13  C7  UNL     1      22.440 -17.871  27.066  1.00  0.00     0.046 C 
HETATM   14  C8  UNL     1      24.323 -16.670  28.051  1.00  0.00     0.046 C 
BRANCH  12  15
HETATM   15  N2  UNL     1      22.284 -16.985  29.283  1.00  0.00    -0.070 N 
ATOM     16  H23 UNL     1      22.083 -17.585  30.083  1.00  0.00     0.275 HD
ATOM     17  H22 UNL     1      22.724 -16.211  29.780  1.00  0.00     0.275 HD
ATOM     18  H21 UNL     1      21.431 -16.692  28.804  1.00  0.00     0.275 HD
ENDBRANCH  12  15
ENDBRANCH  11  12
ENDBRANCH  10  11
ENDBRANCH   1  10
TORSDOF 5
ENDMDL
MODEL 5
REMARK VINA RESULT: -4.792445674      1.658      5.599
REMARK  5 active torsions:
REMARK  status: ('A' for Active; 'I' for Inactive)
REMARK    1  A    between atoms: C3_5  and  C4_6 
REMARK    2  A    between atoms: C4_6  and  S1_7 
REMARK    3  A    between atoms: S1_7  and  C5_8 
REMARK    4  A    between atoms: C5_8  and  C6_9 
REMARK    5  A    between atoms: C6_9  and  N2_12 
ROOT
HETATM    1  C4  UNL     1      23.695 -19.694  32.004  1.00  0.00     0.099 C 
ENDROOT
BRANCH   1   2
HETATM    2  C3  UNL     1      22.286 -20.049  31.507  1.00  0.00     0.090 C 
HETATM    3  N1  UNL     1      21.376 -19.122  32.078  1.00  0.00    -0.391 N 
HETATM    4  C2  UNL     1      20.551 -19.356  33.002  1.00  0.00    -0.022 C 
ATOM      5  H1  UNL     1      21.390 -18.174  31.704  1.00  0.00     0.159 HD
HETATM    6  C1  UNL     1      19.627 -18.288  33.534  1.00  0.00     0.062 C 
HETATM    7  C11 UNL     1      20.511 -20.734  33.566  1.00  0.00     0.052 C 
HETATM    8  C10 UNL     1      20.623 -21.693  32.419  1.00  0.00     0.008 C 
HETATM    9  C9  UNL     1      21.961 -21.477  31.750  1.00  0.00     0.026 C 
ENDBRANCH   1   2
BRANCH   1  10
HETATM   10  S1  UNL     1      24.617 -18.843  30.685  1.00  0.00    -0.165 SA
BRANCH  10  11
HETATM   11  C5  UNL     1      23.738 -19.094  29.140  1.00  0.00     0.111 C 
BRANCH  11  12
HETATM   12  C6  UNL     1      23.356 -17.775  28.493  1.00  0.00     0.125 C 
HETATM   13  C7  UNL     1      22.445 -16.988  29.408  1.00  0.00     0.046 C 
HETATM   14  C8  UNL     1      22.652 -17.984  27.189  1.00  0.00     0.046 C 
BRANCH  12  15
HETATM   15  N2  UNL     1      24.543 -16.956  28.258  1.00  0.00    -0.070 N 
ATOM     16  H23 UNL     1      25.401 -17.462  28.476  1.00  0.00     0.275 HD
ATOM     17  H22 UNL     1      24.705 -16.802  27.263  1.00  0.00     0.275 HD
ATOM     18  H21 UNL     1      24.479 -16.077  28.772  1.00  0.00     0.275 HD
ENDBRANCH  12  15
ENDBRANCH  11  12
ENDBRANCH  10  11
ENDBRANCH   1  10
TORSDOF 5
ENDMDL
